# generated using pymatgen
data_V6Ni3H50C48N8O13
_symmetry_space_group_name_H-M   'P 1'
_cell_length_a   13.55360000
_cell_length_b   19.04630000
_cell_length_c   25.82560000
_cell_angle_alpha   90.00000000
_cell_angle_beta   96.64110000
_cell_angle_gamma   90.00000000
_symmetry_Int_Tables_number   1
_chemical_formula_structural   V6Ni3H50C48N8O13
_chemical_formula_sum   'V24 Ni12 H200 C192 N32 O52'
_cell_volume   6622.03993671
_cell_formula_units_Z   4
loop_
 _symmetry_equiv_pos_site_id
 _symmetry_equiv_pos_as_xyz
  1  'x, y, z'
loop_
 _atom_site_type_symbol
 _atom_site_label
 _atom_site_symmetry_multiplicity
 _atom_site_fract_x
 _atom_site_fract_y
 _atom_site_fract_z
 _atom_site_occupancy
 _atom_site_charge
  V  V1  1  0.846810  0.764560  0.029950  1.0  1.0778
  V  V2  1  0.870830  0.650920  0.128560  1.0  1.1807
  V  V3  1  0.693750  0.517600  0.125490  1.0  1.2135
  V  V4  1  0.282990  0.623230  0.941940  1.0  2.1
  V  V5  1  0.455190  0.713660  0.897290  1.0  1.217
  V  V6  1  0.638940  0.829890  0.954200  1.0  0.7431
  V  V7  1  0.653190  0.264560  0.470050  1.0  1.0783
  V  V8  1  0.629170  0.150920  0.371440  1.0  1.1759
  V  V9  1  0.806250  0.017600  0.374510  1.0  1.2155
  V  V10  1  0.217010  0.123230  0.558060  1.0  2.1002
  V  V11  1  0.044810  0.213660  0.602710  1.0  1.22
  V  V12  1  0.861060  0.329890  0.545800  1.0  0.7425
  V  V13  1  0.153190  0.235440  0.970050  1.0  1.065
  V  V14  1  0.129170  0.349080  0.871440  1.0  1.1777
  V  V15  1  0.306250  0.482400  0.874510  1.0  1.2151
  V  V16  1  0.717010  0.376770  0.058060  1.0  2.1004
  V  V17  1  0.544810  0.286340  0.102710  1.0  1.2315
  V  V18  1  0.361060  0.170110  0.045800  1.0  0.7304
  V  V19  1  0.346810  0.735440  0.529950  1.0  1.0652
  V  V20  1  0.370830  0.849080  0.628560  1.0  1.1786
  V  V21  1  0.193750  0.982400  0.625490  1.0  1.2131
  V  V22  1  0.782990  0.876770  0.441940  1.0  2.1001
  V  V23  1  0.955190  0.786340  0.397290  1.0  1.2276
  V  V24  1  0.138940  0.670110  0.454200  1.0  0.7309
  Ni  Ni25  1  0.039100  0.674440  0.978600  1.0  0.6768
  Ni  Ni26  1  0.536650  0.442510  0.957230  1.0  0.8294
  Ni  Ni27  1  0.105700  0.285980  0.735800  1.0  0.7135
  Ni  Ni28  1  0.460900  0.174440  0.521400  1.0  0.678
  Ni  Ni29  1  0.963350  0.942510  0.542770  1.0  0.8291
  Ni  Ni30  1  0.394300  0.785980  0.764200  1.0  0.7131
  Ni  Ni31  1  0.960900  0.325560  0.021400  1.0  0.6798
  Ni  Ni32  1  0.463350  0.557490  0.042770  1.0  0.829
  Ni  Ni33  1  0.894300  0.714020  0.264200  1.0  0.7135
  Ni  Ni34  1  0.539100  0.825560  0.478600  1.0  0.6777
  Ni  Ni35  1  0.036650  0.057490  0.457230  1.0  0.8294
  Ni  Ni36  1  0.605700  0.214020  0.235800  1.0  0.714
  H  H37  1  0.196400  0.777200  0.960600  1.0  0.0759
  H  H38  1  0.218100  0.887400  0.928100  1.0  0.1139
  H  H39  1  0.920900  0.902800  0.891700  1.0  0.1162
  H  H40  1  0.906700  0.790200  0.925000  1.0  0.0883
  H  H41  1  0.018600  0.995400  0.865600  1.0  0.1007
  H  H42  1  0.110900  0.012200  0.905900  1.0  0.1115
  H  H43  1  0.126800  0.943700  0.810800  1.0  0.071
  H  H44  1  0.217100  0.968600  0.850300  1.0  0.0825
  H  H45  1  0.215200  0.211300  0.827900  1.0  0.0679
  H  H46  1  0.231800  0.103500  0.867000  1.0  0.113
  H  H47  1  0.049800  0.025400  0.747000  1.0  0.0979
  H  H48  1  0.038100  0.136000  0.711200  1.0  0.0687
  H  H49  1  0.255500  0.216500  0.673900  1.0  0.0658
  H  H50  1  0.423400  0.215500  0.665600  1.0  0.0925
  H  H51  1  0.464900  0.351500  0.783400  1.0  0.0913
  H  H52  1  0.296600  0.353300  0.786200  1.0  0.0596
  H  H53  1  0.590300  0.338800  0.711000  1.0  0.0842
  H  H54  1  0.584400  0.264500  0.684900  1.0  0.0684
  H  H55  1  0.627800  0.285500  0.793500  1.0  0.1046
  H  H56  1  0.625100  0.211700  0.766500  1.0  0.1155
  H  H57  1  0.968700  0.245700  0.818000  1.0  0.0698
  H  H58  1  0.803600  0.235700  0.828400  1.0  0.1191
  H  H59  1  0.738000  0.299900  0.680500  1.0  0.1062
  H  H60  1  0.905000  0.307800  0.674300  1.0  0.0623
  H  H61  1  0.082300  0.568400  0.897100  1.0  0.0753
  H  H62  1  0.015600  0.519000  0.820400  1.0  0.0988
  H  H63  1  0.771100  0.634800  0.828200  1.0  0.1065
  H  H64  1  0.843200  0.680500  0.905100  1.0  0.0884
  H  H65  1  0.778400  0.564000  0.751200  1.0  0.0908
  H  H66  1  0.883700  0.540700  0.738000  1.0  0.0847
  H  H67  1  0.871100  0.433500  0.781800  1.0  0.0877
  H  H68  1  0.776200  0.441400  0.741100  1.0  0.0849
  H  H69  1  0.519700  0.476300  0.842500  1.0  0.079
  H  H70  1  0.614700  0.478800  0.774400  1.0  0.1006
  H  H71  1  0.852900  0.430000  0.874500  1.0  0.1153
  H  H72  1  0.752800  0.431300  0.940400  1.0  0.071
  H  H73  1  0.662600  0.314400  0.946000  1.0  0.0716
  H  H74  1  0.648800  0.197700  0.922900  1.0  0.118
  H  H75  1  0.353300  0.219500  0.908200  1.0  0.1036
  H  H76  1  0.374200  0.334600  0.931700  1.0  0.0699
  H  H77  1  0.429100  0.099000  0.916200  1.0  0.0902
  H  H78  1  0.543900  0.091500  0.914700  1.0  0.066
  H  H79  1  0.414500  0.135100  0.827600  1.0  0.0935
  H  H80  1  0.527600  0.118800  0.827200  1.0  0.1066
  H  H81  1  0.468900  0.868400  0.864300  1.0  0.0715
  H  H82  1  0.503900  0.980500  0.892300  1.0  0.1049
  H  H83  1  0.366200  0.051000  0.757100  1.0  0.1156
  H  H84  1  0.343000  0.937000  0.730800  1.0  0.0642
  H  H85  1  0.531100  0.578000  0.948100  1.0  0.2424
  H  H86  1  0.612000  0.574000  0.984000  1.0  0.2896
  H  H87  1  0.303600  0.277200  0.539400  1.0  0.0752
  H  H88  1  0.281900  0.387400  0.571900  1.0  0.1149
  H  H89  1  0.579100  0.402800  0.608300  1.0  0.1167
  H  H90  1  0.593300  0.290200  0.575000  1.0  0.0877
  H  H91  1  0.481400  0.495400  0.634400  1.0  0.0978
  H  H92  1  0.389100  0.512200  0.594100  1.0  0.1106
  H  H93  1  0.373200  0.443700  0.689200  1.0  0.0709
  H  H94  1  0.282900  0.468600  0.649700  1.0  0.0817
  H  H95  1  0.284800  0.711300  0.672100  1.0  0.069
  H  H96  1  0.268200  0.603500  0.633000  1.0  0.1138
  H  H97  1  0.450200  0.525400  0.753000  1.0  0.0981
  H  H98  1  0.461900  0.636000  0.788800  1.0  0.0689
  H  H99  1  0.244500  0.716500  0.826100  1.0  0.0663
  H  H100  1  0.076600  0.715500  0.834400  1.0  0.0933
  H  H101  1  0.035100  0.851500  0.716600  1.0  0.0911
  H  H102  1  0.203400  0.853300  0.713800  1.0  0.0595
  H  H103  1  0.909700  0.838800  0.789000  1.0  0.0848
  H  H104  1  0.915600  0.764500  0.815100  1.0  0.0675
  H  H105  1  0.872200  0.785500  0.706500  1.0  0.1048
  H  H106  1  0.874900  0.711700  0.733500  1.0  0.1146
  H  H107  1  0.531300  0.745700  0.682000  1.0  0.0697
  H  H108  1  0.696400  0.735700  0.671600  1.0  0.1194
  H  H109  1  0.762000  0.799900  0.819500  1.0  0.1067
  H  H110  1  0.595000  0.807800  0.825700  1.0  0.0638
  H  H111  1  0.417700  0.068400  0.602900  1.0  0.0747
  H  H112  1  0.484400  0.019000  0.679600  1.0  0.0989
  H  H113  1  0.728900  0.134800  0.671800  1.0  0.1067
  H  H114  1  0.656800  0.180500  0.594900  1.0  0.0874
  H  H115  1  0.721600  0.064000  0.748800  1.0  0.091
  H  H116  1  0.616300  0.040700  0.762000  1.0  0.0862
  H  H117  1  0.628900  0.933500  0.718200  1.0  0.0884
  H  H118  1  0.723800  0.941400  0.758900  1.0  0.0849
  H  H119  1  0.980300  0.976300  0.657500  1.0  0.0783
  H  H120  1  0.885300  0.978800  0.725600  1.0  0.1003
  H  H121  1  0.647100  0.930000  0.625500  1.0  0.1163
  H  H122  1  0.747200  0.931300  0.559600  1.0  0.0714
  H  H123  1  0.837400  0.814400  0.554000  1.0  0.0704
  H  H124  1  0.851200  0.697700  0.577100  1.0  0.1184
  H  H125  1  0.146700  0.719500  0.591800  1.0  0.1037
  H  H126  1  0.125800  0.834600  0.568300  1.0  0.069
  H  H127  1  0.070900  0.599000  0.583800  1.0  0.0875
  H  H128  1  0.956100  0.591500  0.585300  1.0  0.0661
  H  H129  1  0.085500  0.635100  0.672400  1.0  0.0932
  H  H130  1  0.972400  0.618800  0.672800  1.0  0.1068
  H  H131  1  0.031100  0.368400  0.635700  1.0  0.0702
  H  H132  1  0.996100  0.480500  0.607700  1.0  0.1053
  H  H133  1  0.133800  0.551000  0.742900  1.0  0.1151
  H  H134  1  0.157000  0.437000  0.769200  1.0  0.0637
  H  H135  1  0.968900  0.078000  0.551900  1.0  0.2429
  H  H136  1  0.888000  0.074000  0.516000  1.0  0.2854
  H  H137  1  0.803600  0.222800  0.039400  1.0  0.075
  H  H138  1  0.781900  0.112600  0.071900  1.0  0.1151
  H  H139  1  0.079100  0.097200  0.108300  1.0  0.1155
  H  H140  1  0.093300  0.209800  0.075000  1.0  0.0873
  H  H141  1  0.981400  0.004600  0.134400  1.0  0.0971
  H  H142  1  0.889100  0.987800  0.094100  1.0  0.1098
  H  H143  1  0.873200  0.056300  0.189200  1.0  0.0703
  H  H144  1  0.782900  0.031400  0.149700  1.0  0.0812
  H  H145  1  0.784800  0.788700  0.172100  1.0  0.0685
  H  H146  1  0.768200  0.896500  0.133000  1.0  0.1139
  H  H147  1  0.950200  0.974600  0.253000  1.0  0.0977
  H  H148  1  0.961900  0.864000  0.288800  1.0  0.0687
  H  H149  1  0.744500  0.783500  0.326100  1.0  0.0662
  H  H150  1  0.576600  0.784500  0.334400  1.0  0.0934
  H  H151  1  0.535100  0.648500  0.216600  1.0  0.0909
  H  H152  1  0.703400  0.646700  0.213800  1.0  0.0592
  H  H153  1  0.409700  0.661200  0.289000  1.0  0.0844
  H  H154  1  0.415600  0.735500  0.315100  1.0  0.0683
  H  H155  1  0.372200  0.714500  0.206500  1.0  0.1048
  H  H156  1  0.374900  0.788300  0.233500  1.0  0.1136
  H  H157  1  0.031300  0.754300  0.182000  1.0  0.07
  H  H158  1  0.196400  0.764300  0.171600  1.0  0.1193
  H  H159  1  0.262000  0.700100  0.319500  1.0  0.1067
  H  H160  1  0.095000  0.692200  0.325700  1.0  0.0638
  H  H161  1  0.917700  0.431600  0.102900  1.0  0.0748
  H  H162  1  0.984400  0.481000  0.179600  1.0  0.0989
  H  H163  1  0.228900  0.365200  0.171800  1.0  0.1067
  H  H164  1  0.156800  0.319500  0.094900  1.0  0.0878
  H  H165  1  0.221600  0.436000  0.248800  1.0  0.0911
  H  H166  1  0.116300  0.459300  0.262000  1.0  0.0863
  H  H167  1  0.128900  0.566500  0.218200  1.0  0.0887
  H  H168  1  0.223800  0.558600  0.258900  1.0  0.0853
  H  H169  1  0.480300  0.523700  0.157500  1.0  0.0783
  H  H170  1  0.385300  0.521200  0.225600  1.0  0.0997
  H  H171  1  0.147100  0.570000  0.125500  1.0  0.1163
  H  H172  1  0.247200  0.568700  0.059600  1.0  0.0712
  H  H173  1  0.337400  0.685600  0.054000  1.0  0.0706
  H  H174  1  0.351200  0.802300  0.077100  1.0  0.1181
  H  H175  1  0.646700  0.780500  0.091800  1.0  0.1037
  H  H176  1  0.625800  0.665400  0.068300  1.0  0.0683
  H  H177  1  0.570900  0.901000  0.083800  1.0  0.0879
  H  H178  1  0.456100  0.908500  0.085300  1.0  0.0657
  H  H179  1  0.585500  0.864900  0.172400  1.0  0.0932
  H  H180  1  0.472400  0.881200  0.172800  1.0  0.1069
  H  H181  1  0.531100  0.131600  0.135700  1.0  0.0702
  H  H182  1  0.496100  0.019500  0.107700  1.0  0.1053
  H  H183  1  0.633800  0.949000  0.242900  1.0  0.1158
  H  H184  1  0.657000  0.063000  0.269200  1.0  0.0636
  H  H185  1  0.468900  0.422000  0.051900  1.0  0.2436
  H  H186  1  0.388000  0.426000  0.016000  1.0  0.2859
  H  H187  1  0.696400  0.722800  0.460600  1.0  0.0757
  H  H188  1  0.718100  0.612600  0.428100  1.0  0.1143
  H  H189  1  0.420900  0.597200  0.391700  1.0  0.1163
  H  H190  1  0.406700  0.709800  0.425000  1.0  0.0881
  H  H191  1  0.518600  0.504600  0.365600  1.0  0.1023
  H  H192  1  0.610900  0.487800  0.405900  1.0  0.1121
  H  H193  1  0.626800  0.556300  0.310800  1.0  0.071
  H  H194  1  0.717100  0.531400  0.350300  1.0  0.0819
  H  H195  1  0.715200  0.288700  0.327900  1.0  0.0681
  H  H196  1  0.731800  0.396500  0.367000  1.0  0.1131
  H  H197  1  0.549800  0.474600  0.247000  1.0  0.0978
  H  H198  1  0.538100  0.364000  0.211200  1.0  0.0689
  H  H199  1  0.755500  0.283500  0.173900  1.0  0.0662
  H  H200  1  0.923400  0.284500  0.165600  1.0  0.0925
  H  H201  1  0.964900  0.148500  0.283400  1.0  0.0913
  H  H202  1  0.796600  0.146700  0.286200  1.0  0.0596
  H  H203  1  0.090300  0.161200  0.211000  1.0  0.0837
  H  H204  1  0.084400  0.235500  0.184900  1.0  0.0684
  H  H205  1  0.127800  0.214500  0.293500  1.0  0.1042
  H  H206  1  0.125100  0.288300  0.266500  1.0  0.1125
  H  H207  1  0.468700  0.254300  0.318000  1.0  0.0697
  H  H208  1  0.303600  0.264300  0.328400  1.0  0.1189
  H  H209  1  0.238000  0.200100  0.180500  1.0  0.106
  H  H210  1  0.405000  0.192200  0.174300  1.0  0.0624
  H  H211  1  0.582300  0.931600  0.397100  1.0  0.0751
  H  H212  1  0.515600  0.981000  0.320400  1.0  0.0987
  H  H213  1  0.271100  0.865200  0.328200  1.0  0.1065
  H  H214  1  0.343200  0.819500  0.405100  1.0  0.0893
  H  H215  1  0.278400  0.936000  0.251200  1.0  0.0915
  H  H216  1  0.383700  0.959300  0.238000  1.0  0.0847
  H  H217  1  0.371100  0.066500  0.281800  1.0  0.0877
  H  H218  1  0.276200  0.058600  0.241100  1.0  0.0848
  H  H219  1  0.019700  0.023700  0.342500  1.0  0.0791
  H  H220  1  0.114700  0.021200  0.274400  1.0  0.1005
  H  H221  1  0.352900  0.070000  0.374500  1.0  0.1156
  H  H222  1  0.252800  0.068700  0.440400  1.0  0.071
  H  H223  1  0.162600  0.185600  0.446000  1.0  0.0716
  H  H224  1  0.148800  0.302300  0.422900  1.0  0.1182
  H  H225  1  0.853300  0.280500  0.408200  1.0  0.1038
  H  H226  1  0.874200  0.165400  0.431700  1.0  0.0698
  H  H227  1  0.929100  0.401000  0.416200  1.0  0.0899
  H  H228  1  0.043900  0.408500  0.414700  1.0  0.0662
  H  H229  1  0.914500  0.364900  0.327600  1.0  0.0931
  H  H230  1  0.027600  0.381200  0.327200  1.0  0.1065
  H  H231  1  0.968900  0.631600  0.364300  1.0  0.0715
  H  H232  1  0.003900  0.519500  0.392300  1.0  0.1047
  H  H233  1  0.866200  0.449000  0.257100  1.0  0.1158
  H  H234  1  0.843000  0.563000  0.230800  1.0  0.0639
  H  H235  1  0.031100  0.922000  0.448100  1.0  0.2422
  H  H236  1  0.112000  0.926000  0.484000  1.0  0.2896
  C  C237  1  0.141100  0.802600  0.946500  1.0  0.1649
  C  C238  1  0.154500  0.868800  0.927000  1.0  -0.1256
  C  C239  1  0.072900  0.908000  0.905500  1.0  0.1031
  C  C240  1  0.977200  0.878100  0.905100  1.0  -0.1336
  C  C241  1  0.969300  0.810400  0.925500  1.0  0.1296
  C  C242  1  0.084100  0.978900  0.879500  1.0  -0.3126
  C  C243  1  0.149100  0.979200  0.836500  1.0  -0.2006
  C  C244  1  0.181390  0.173300  0.811590  1.0  0.1534
  C  C245  1  0.192250  0.108500  0.835350  1.0  -0.2293
  C  C246  1  0.143620  0.050700  0.811620  1.0  0.097
  C  C247  1  0.084350  0.062400  0.764150  1.0  -0.1798
  C  C248  1  0.077220  0.129250  0.742820  1.0  0.1698
  C  C249  1  0.297880  0.245200  0.695480  1.0  0.1692
  C  C250  1  0.399250  0.244100  0.690450  1.0  -0.1879
  C  C251  1  0.463940  0.285900  0.722840  1.0  0.1296
  C  C252  1  0.423760  0.324900  0.759660  1.0  -0.2073
  C  C253  1  0.322210  0.324900  0.761710  1.0  0.1592
  C  C254  1  0.572920  0.290100  0.716120  1.0  -0.2178
  C  C255  1  0.640790  0.260900  0.762090  1.0  -0.2987
  C  C256  1  0.921570  0.256900  0.790070  1.0  0.1619
  C  C257  1  0.822240  0.250900  0.796740  1.0  -0.1753
  C  C258  1  0.750360  0.267500  0.755860  1.0  0.1208
  C  C259  1  0.783430  0.288900  0.709130  1.0  -0.2264
  C  C260  1  0.884250  0.293400  0.705750  1.0  0.1637
  C  C261  1  0.019010  0.582100  0.882910  1.0  0.1794
  C  C262  1  0.979390  0.552300  0.836590  1.0  -0.2138
  C  C263  1  0.884920  0.571800  0.813720  1.0  0.1432
  C  C264  1  0.834740  0.620700  0.841240  1.0  -0.2318
  C  C265  1  0.878710  0.648100  0.887610  1.0  0.1523
  C  C266  1  0.837970  0.538300  0.764170  1.0  -0.2858
  C  C267  1  0.810800  0.460600  0.773000  1.0  -0.2663
  C  C268  1  0.587450  0.467400  0.849050  1.0  0.1524
  C  C269  1  0.644430  0.468600  0.807830  1.0  -0.1717
  C  C270  1  0.746080  0.454500  0.816180  1.0  0.1288
  C  C271  1  0.785690  0.440000  0.866990  1.0  -0.2095
  C  C272  1  0.724570  0.440500  0.906570  1.0  0.157
  C  C273  1  0.599590  0.295000  0.938390  1.0  0.152
  C  C274  1  0.591860  0.224500  0.924660  1.0  -0.1884
  C  C275  1  0.498750  0.194300  0.913650  1.0  0.1345
  C  C276  1  0.417120  0.237400  0.916020  1.0  -0.2044
  C  C277  1  0.430260  0.306850  0.929960  1.0  0.1655
  C  C278  1  0.485290  0.117200  0.900290  1.0  -0.2103
  C  C279  1  0.468330  0.105000  0.842330  1.0  -0.2386
  C  C280  1  0.451480  0.905500  0.841680  1.0  0.1599
  C  C281  1  0.471470  0.973000  0.858970  1.0  -0.2358
  C  C282  1  0.443400  0.030100  0.826900  1.0  0.1279
  C  C283  1  0.391290  0.014900  0.778990  1.0  -0.2152
  C  C284  1  0.376580  0.945790  0.763680  1.0  0.1573
  C  C285  1  0.358900  0.302600  0.553500  1.0  0.1656
  C  C286  1  0.345500  0.368800  0.573000  1.0  -0.1254
  C  C287  1  0.427100  0.408000  0.594500  1.0  0.1008
  C  C288  1  0.522800  0.378100  0.594900  1.0  -0.1334
  C  C289  1  0.530700  0.310400  0.574500  1.0  0.1307
  C  C290  1  0.415900  0.478900  0.620500  1.0  -0.3097
  C  C291  1  0.350900  0.479200  0.663500  1.0  -0.2032
  C  C292  1  0.318610  0.673300  0.688410  1.0  0.1529
  C  C293  1  0.307750  0.608500  0.664650  1.0  -0.2292
  C  C294  1  0.356380  0.550700  0.688380  1.0  0.0975
  C  C295  1  0.415650  0.562400  0.735850  1.0  -0.1798
  C  C296  1  0.422780  0.629250  0.757180  1.0  0.1687
  C  C297  1  0.202120  0.745200  0.804520  1.0  0.1691
  C  C298  1  0.100750  0.744100  0.809550  1.0  -0.1873
  C  C299  1  0.036060  0.785900  0.777160  1.0  0.1291
  C  C300  1  0.076240  0.824900  0.740340  1.0  -0.207
  C  C301  1  0.177790  0.824900  0.738290  1.0  0.1593
  C  C302  1  0.927080  0.790100  0.783880  1.0  -0.2178
  C  C303  1  0.859210  0.760900  0.737910  1.0  -0.2992
  C  C304  1  0.578430  0.756900  0.709930  1.0  0.1603
  C  C305  1  0.677760  0.750900  0.703260  1.0  -0.1729
  C  C306  1  0.749640  0.767500  0.744140  1.0  0.1214
  C  C307  1  0.716570  0.788900  0.790870  1.0  -0.2244
  C  C308  1  0.615750  0.793400  0.794250  1.0  0.1632
  C  C309  1  0.480990  0.082100  0.617090  1.0  0.178
  C  C310  1  0.520610  0.052300  0.663410  1.0  -0.212
  C  C311  1  0.615080  0.071800  0.686280  1.0  0.142
  C  C312  1  0.665260  0.120700  0.658760  1.0  -0.2327
  C  C313  1  0.621290  0.148100  0.612390  1.0  0.1515
  C  C314  1  0.662030  0.038300  0.735830  1.0  -0.2829
  C  C315  1  0.689200  0.960600  0.727000  1.0  -0.2661
  C  C316  1  0.912550  0.967400  0.650950  1.0  0.1517
  C  C317  1  0.855570  0.968600  0.692170  1.0  -0.1713
  C  C318  1  0.753920  0.954500  0.683820  1.0  0.1291
  C  C319  1  0.714310  0.940000  0.633010  1.0  -0.2103
  C  C320  1  0.775430  0.940500  0.593430  1.0  0.1577
  C  C321  1  0.900410  0.795000  0.561610  1.0  0.153
  C  C322  1  0.908140  0.724500  0.575340  1.0  -0.1886
  C  C323  1  0.001250  0.694300  0.586350  1.0  0.1351
  C  C324  1  0.082880  0.737400  0.583980  1.0  -0.2058
  C  C325  1  0.069740  0.806850  0.570040  1.0  0.1639
  C  C326  1  0.014710  0.617200  0.599710  1.0  -0.2089
  C  C327  1  0.031670  0.605000  0.657670  1.0  -0.24
  C  C328  1  0.048520  0.405500  0.658320  1.0  0.1605
  C  C329  1  0.028530  0.473000  0.641030  1.0  -0.2347
  C  C330  1  0.056600  0.530100  0.673100  1.0  0.1268
  C  C331  1  0.108710  0.514900  0.721010  1.0  -0.2154
  C  C332  1  0.123420  0.445790  0.736320  1.0  0.158
  C  C333  1  0.858900  0.197400  0.053500  1.0  0.166
  C  C334  1  0.845500  0.131200  0.073000  1.0  -0.1256
  C  C335  1  0.927100  0.092000  0.094500  1.0  0.099
  C  C336  1  0.022800  0.121900  0.094900  1.0  -0.1359
  C  C337  1  0.030700  0.189600  0.074500  1.0  0.1301
  C  C338  1  0.915900  0.021100  0.120500  1.0  -0.3107
  C  C339  1  0.850900  0.020800  0.163500  1.0  -0.2014
  C  C340  1  0.818610  0.826700  0.188410  1.0  0.1533
  C  C341  1  0.807750  0.891500  0.164650  1.0  -0.2282
  C  C342  1  0.856380  0.949300  0.188380  1.0  0.0975
  C  C343  1  0.915650  0.937600  0.235850  1.0  -0.1786
  C  C344  1  0.922780  0.870750  0.257180  1.0  0.1686
  C  C345  1  0.702120  0.754800  0.304520  1.0  0.1687
  C  C346  1  0.600750  0.755900  0.309550  1.0  -0.1879
  C  C347  1  0.536060  0.714100  0.277160  1.0  0.1292
  C  C348  1  0.576240  0.675100  0.240340  1.0  -0.2065
  C  C349  1  0.677790  0.675100  0.238290  1.0  0.1593
  C  C350  1  0.427080  0.709900  0.283880  1.0  -0.2182
  C  C351  1  0.359210  0.739100  0.237910  1.0  -0.2999
  C  C352  1  0.078430  0.743100  0.209930  1.0  0.1604
  C  C353  1  0.177760  0.749100  0.203260  1.0  -0.1742
  C  C354  1  0.249640  0.732500  0.244140  1.0  0.1216
  C  C355  1  0.216570  0.711100  0.290870  1.0  -0.2245
  C  C356  1  0.115750  0.706600  0.294250  1.0  0.1632
  C  C357  1  0.980990  0.417900  0.117090  1.0  0.177
  C  C358  1  0.020610  0.447700  0.163410  1.0  -0.212
  C  C359  1  0.115080  0.428200  0.186280  1.0  0.1418
  C  C360  1  0.165260  0.379300  0.158760  1.0  -0.2328
  C  C361  1  0.121290  0.351900  0.112390  1.0  0.1515
  C  C362  1  0.162030  0.461700  0.235830  1.0  -0.2838
  C  C363  1  0.189200  0.539400  0.227000  1.0  -0.2643
  C  C364  1  0.412550  0.532600  0.150950  1.0  0.1514
  C  C365  1  0.355570  0.531400  0.192170  1.0  -0.1712
  C  C366  1  0.253920  0.545500  0.183820  1.0  0.129
  C  C367  1  0.214310  0.560000  0.133010  1.0  -0.2104
  C  C368  1  0.275430  0.559500  0.093430  1.0  0.1579
  C  C369  1  0.400410  0.705000  0.061610  1.0  0.1531
  C  C370  1  0.408140  0.775500  0.075340  1.0  -0.1882
  C  C371  1  0.501250  0.805700  0.086350  1.0  0.1342
  C  C372  1  0.582880  0.762600  0.083980  1.0  -0.2054
  C  C373  1  0.569740  0.693150  0.070040  1.0  0.1638
  C  C374  1  0.514710  0.882800  0.099710  1.0  -0.2088
  C  C375  1  0.531670  0.895000  0.157670  1.0  -0.2403
  C  C376  1  0.548520  0.094500  0.158320  1.0  0.1594
  C  C377  1  0.528530  0.027000  0.141030  1.0  -0.2359
  C  C378  1  0.556600  0.969900  0.173100  1.0  0.1265
  C  C379  1  0.608710  0.985100  0.221010  1.0  -0.2161
  C  C380  1  0.623420  0.054210  0.236320  1.0  0.1579
  C  C381  1  0.641100  0.697400  0.446500  1.0  0.1651
  C  C382  1  0.654500  0.631200  0.427000  1.0  -0.125
  C  C383  1  0.572900  0.592000  0.405500  1.0  0.1031
  C  C384  1  0.477200  0.621900  0.405100  1.0  -0.1312
  C  C385  1  0.469300  0.689600  0.425500  1.0  0.1305
  C  C386  1  0.584100  0.521100  0.379500  1.0  -0.3125
  C  C387  1  0.649100  0.520800  0.336500  1.0  -0.1984
  C  C388  1  0.681390  0.326700  0.311590  1.0  0.1535
  C  C389  1  0.692250  0.391500  0.335350  1.0  -0.2282
  C  C390  1  0.643620  0.449300  0.311620  1.0  0.0971
  C  C391  1  0.584350  0.437600  0.264150  1.0  -0.1796
  C  C392  1  0.577220  0.370750  0.242820  1.0  0.1699
  C  C393  1  0.797880  0.254800  0.195480  1.0  0.1691
  C  C394  1  0.899250  0.255900  0.190450  1.0  -0.1875
  C  C395  1  0.963940  0.214100  0.222840  1.0  0.1297
  C  C396  1  0.923760  0.175100  0.259660  1.0  -0.2072
  C  C397  1  0.822210  0.175100  0.261710  1.0  0.1594
  C  C398  1  0.072920  0.209900  0.216120  1.0  -0.2176
  C  C399  1  0.140790  0.239100  0.262090  1.0  -0.2984
  C  C400  1  0.421570  0.243100  0.290070  1.0  0.1618
  C  C401  1  0.322240  0.249100  0.296740  1.0  -0.1756
  C  C402  1  0.250360  0.232500  0.255860  1.0  0.1207
  C  C403  1  0.283430  0.211100  0.209130  1.0  -0.2263
  C  C404  1  0.384250  0.206600  0.205750  1.0  0.1637
  C  C405  1  0.519010  0.917900  0.382910  1.0  0.1779
  C  C406  1  0.479390  0.947700  0.336590  1.0  -0.2144
  C  C407  1  0.384920  0.928200  0.313720  1.0  0.143
  C  C408  1  0.334740  0.879300  0.341240  1.0  -0.2317
  C  C409  1  0.378710  0.851900  0.387610  1.0  0.153
  C  C410  1  0.337970  0.961700  0.264170  1.0  -0.2849
  C  C411  1  0.310800  0.039400  0.273000  1.0  -0.265
  C  C412  1  0.087450  0.032600  0.349050  1.0  0.1523
  C  C413  1  0.144430  0.031400  0.307830  1.0  -0.1722
  C  C414  1  0.246080  0.045500  0.316180  1.0  0.1287
  C  C415  1  0.285690  0.060000  0.366990  1.0  -0.2096
  C  C416  1  0.224570  0.059500  0.406570  1.0  0.1573
  C  C417  1  0.099590  0.205000  0.438390  1.0  0.152
  C  C418  1  0.091860  0.275500  0.424660  1.0  -0.1883
  C  C419  1  0.998750  0.305700  0.413650  1.0  0.134
  C  C420  1  0.917120  0.262600  0.416020  1.0  -0.2042
  C  C421  1  0.930260  0.193150  0.429960  1.0  0.1651
  C  C422  1  0.985290  0.382800  0.400290  1.0  -0.2107
  C  C423  1  0.968330  0.395000  0.342330  1.0  -0.2387
  C  C424  1  0.951480  0.594500  0.341680  1.0  0.1606
  C  C425  1  0.971470  0.527000  0.358970  1.0  -0.2364
  C  C426  1  0.943400  0.469900  0.326900  1.0  0.1279
  C  C427  1  0.891290  0.485100  0.278990  1.0  -0.215
  C  C428  1  0.876580  0.554210  0.263680  1.0  0.1573
  N  N429  1  0.050500  0.773400  0.945800  1.0  -0.3435
  N  N430  1  0.124530  0.184430  0.766030  1.0  -0.3388
  N  N431  1  0.259430  0.285920  0.730030  1.0  -0.3355
  N  N432  1  0.953480  0.278160  0.745280  1.0  -0.332
  N  N433  1  0.970440  0.630120  0.908740  1.0  -0.3457
  N  N434  1  0.626940  0.453660  0.898340  1.0  -0.333
  N  N435  1  0.520050  0.336330  0.941150  1.0  -0.3332
  N  N436  1  0.407790  0.890890  0.793390  1.0  -0.3314
  N  N437  1  0.449500  0.273400  0.554200  1.0  -0.3431
  N  N438  1  0.375470  0.684430  0.733970  1.0  -0.3387
  N  N439  1  0.240570  0.785920  0.769970  1.0  -0.3332
  N  N440  1  0.546520  0.778160  0.754720  1.0  -0.332
  N  N441  1  0.529560  0.130120  0.591260  1.0  -0.3459
  N  N442  1  0.873060  0.953660  0.601660  1.0  -0.3329
  N  N443  1  0.979950  0.836330  0.558850  1.0  -0.333
  N  N444  1  0.092210  0.390890  0.706610  1.0  -0.3318
  N  N445  1  0.949500  0.226600  0.054200  1.0  -0.3412
  N  N446  1  0.875470  0.815570  0.233970  1.0  -0.338
  N  N447  1  0.740570  0.714080  0.269970  1.0  -0.3331
  N  N448  1  0.046520  0.721840  0.254720  1.0  -0.3321
  N  N449  1  0.029560  0.369880  0.091260  1.0  -0.3464
  N  N450  1  0.373060  0.546340  0.101660  1.0  -0.333
  N  N451  1  0.479950  0.663670  0.058850  1.0  -0.3334
  N  N452  1  0.592210  0.109110  0.206610  1.0  -0.3323
  N  N453  1  0.550500  0.726600  0.445800  1.0  -0.3431
  N  N454  1  0.624530  0.315570  0.266030  1.0  -0.3388
  N  N455  1  0.759430  0.214080  0.230030  1.0  -0.3353
  N  N456  1  0.453480  0.221840  0.245280  1.0  -0.332
  N  N457  1  0.470440  0.869880  0.408740  1.0  -0.3452
  N  N458  1  0.126940  0.046340  0.398340  1.0  -0.3329
  N  N459  1  0.020050  0.163670  0.441150  1.0  -0.3331
  N  N460  1  0.907790  0.609110  0.293390  1.0  -0.3318
  O  O461  1  0.424640  0.746090  0.838240  1.0  -0.7454
  O  O462  1  0.869610  0.672120  0.190330  1.0  -0.7544
  O  O463  1  0.537220  0.772010  0.934420  1.0  -0.7825
  O  O464  1  0.790280  0.577890  0.110080  1.0  -0.7637
  O  O465  1  0.737190  0.429160  0.115290  1.0  -0.7519
  O  O466  1  0.349720  0.579220  0.988420  1.0  -0.8023
  O  O467  1  0.590390  0.534530  0.087090  1.0  -0.7879
  O  O468  1  0.342690  0.703530  0.928190  1.0  -0.7679
  O  O469  1  0.174710  0.642130  0.961210  1.0  -0.7902
  O  O470  1  0.902970  0.703570  0.997270  1.0  -0.8239
  O  O471  1  0.730300  0.782400  0.996600  1.0  -0.8135
  O  O472  1  0.826490  0.726650  0.091890  1.0  -0.7927
  O  O473  1  0.552200  0.551840  0.977700  1.0  -0.8743
  O  O474  1  0.075360  0.246090  0.661760  1.0  -0.7455
  O  O475  1  0.630390  0.172120  0.309670  1.0  -0.7542
  O  O476  1  0.962780  0.272010  0.565580  1.0  -0.7835
  O  O477  1  0.709720  0.077890  0.389920  1.0  -0.7634
  O  O478  1  0.762810  0.929160  0.384710  1.0  -0.7534
  O  O479  1  0.150280  0.079220  0.511580  1.0  -0.802
  O  O480  1  0.909610  0.034530  0.412910  1.0  -0.7899
  O  O481  1  0.157310  0.203530  0.571810  1.0  -0.7691
  O  O482  1  0.325290  0.142130  0.538790  1.0  -0.791
  O  O483  1  0.597030  0.203570  0.502730  1.0  -0.8245
  O  O484  1  0.769700  0.282400  0.503400  1.0  -0.8127
  O  O485  1  0.673510  0.226650  0.408110  1.0  -0.7934
  O  O486  1  0.947800  0.051840  0.522300  1.0  -0.8745
  O  O487  1  0.575360  0.253910  0.161760  1.0  -0.7452
  O  O488  1  0.130390  0.327880  0.809670  1.0  -0.754
  O  O489  1  0.462780  0.227990  0.065580  1.0  -0.7836
  O  O490  1  0.209720  0.422110  0.889920  1.0  -0.7634
  O  O491  1  0.262810  0.570840  0.884710  1.0  -0.7528
  O  O492  1  0.650280  0.420780  0.011580  1.0  -0.8021
  O  O493  1  0.409610  0.465470  0.912910  1.0  -0.7894
  O  O494  1  0.657310  0.296470  0.071810  1.0  -0.7692
  O  O495  1  0.825290  0.357870  0.038790  1.0  -0.792
  O  O496  1  0.097030  0.296430  0.002730  1.0  -0.8243
  O  O497  1  0.269700  0.217600  0.003400  1.0  -0.8119
  O  O498  1  0.173510  0.273350  0.908110  1.0  -0.7936
  O  O499  1  0.447800  0.448160  0.022300  1.0  -0.8742
  O  O500  1  0.924640  0.753910  0.338240  1.0  -0.7452
  O  O501  1  0.369610  0.827880  0.690330  1.0  -0.754
  O  O502  1  0.037220  0.727990  0.434420  1.0  -0.7825
  O  O503  1  0.290280  0.922110  0.610080  1.0  -0.7639
  O  O504  1  0.237190  0.070840  0.615290  1.0  -0.7513
  O  O505  1  0.849720  0.920780  0.488420  1.0  -0.8025
  O  O506  1  0.090390  0.965470  0.587090  1.0  -0.7878
  O  O507  1  0.842690  0.796470  0.428190  1.0  -0.7683
  O  O508  1  0.674710  0.857870  0.461210  1.0  -0.791
  O  O509  1  0.402970  0.796430  0.497270  1.0  -0.824
  O  O510  1  0.230300  0.717600  0.496600  1.0  -0.8124
  O  O511  1  0.326490  0.773350  0.591890  1.0  -0.7933
  O  O512  1  0.052200  0.948160  0.477700  1.0  -0.8735
