# generated using pymatgen
data_Co5H16C36(N5O12)2
_symmetry_space_group_name_H-M   'P 1'
_cell_length_a   9.20200000
_cell_length_b   11.08800000
_cell_length_c   11.99200000
_cell_angle_alpha   108.58000000
_cell_angle_beta   91.40000000
_cell_angle_gamma   104.71000000
_symmetry_Int_Tables_number   1
_chemical_formula_structural   Co5H16C36(N5O12)2
_chemical_formula_sum   'Co5 H16 C36 N10 O24'
_cell_volume   1114.34916814
_cell_formula_units_Z   1
loop_
 _symmetry_equiv_pos_site_id
 _symmetry_equiv_pos_as_xyz
  1  'x, y, z'
loop_
 _atom_site_type_symbol
 _atom_site_label
 _atom_site_symmetry_multiplicity
 _atom_site_fract_x
 _atom_site_fract_y
 _atom_site_fract_z
 _atom_site_occupancy
 _atom_site_charge
  Co  Co1  1  0.154610  0.267310  0.380080  1.0  1.0393
  Co  Co2  1  0.080900  0.700400  0.836400  1.0  1.0552
  Co  Co3  1  0.845390  0.732690  0.619920  1.0  1.0382
  Co  Co4  1  0.919100  0.299600  0.163600  1.0  1.0522
  Co  Co5  1  0.500000  0.500000  0.500000  1.0  0.939
  H  H6  1  0.808300  0.970200  0.439900  1.0  0.1207
  H  H7  1  0.552100  0.047400  0.213400  1.0  0.1195
  H  H8  1  0.363800  0.795600  0.377000  1.0  0.1125
  H  H9  1  0.848100  0.495000  0.889800  1.0  0.1188
  H  H10  1  0.469500  0.269200  0.963000  1.0  0.1268
  H  H11  1  0.438300  0.471200  0.743000  1.0  0.0972
  H  H12  1  0.645100  0.316600  0.297200  1.0  0.0969
  H  H13  1  0.031700  0.584500  0.403500  1.0  0.0896
  H  H14  1  0.191700  0.029800  0.560100  1.0  0.121
  H  H15  1  0.447900  0.952600  0.786600  1.0  0.1192
  H  H16  1  0.636200  0.204400  0.623000  1.0  0.1121
  H  H17  1  0.151900  0.505000  0.110200  1.0  0.1185
  H  H18  1  0.530500  0.730800  0.037000  1.0  0.1259
  H  H19  1  0.561700  0.528800  0.257000  1.0  0.0968
  H  H20  1  0.354900  0.683400  0.702800  1.0  0.0968
  H  H21  1  0.968300  0.415500  0.596500  1.0  0.0897
  C  C22  1  0.615200  0.784300  0.489200  1.0  0.7067
  C  C23  1  0.589400  0.864900  0.417200  1.0  -0.1673
  C  C24  1  0.713700  0.955400  0.400600  1.0  0.0145
  C  C25  1  0.696200  0.024400  0.324500  1.0  -0.125
  C  C26  1  0.560500  0.007600  0.269900  1.0  -0.0159
  C  C27  1  0.434200  0.931600  0.297200  1.0  -0.0427
  C  C28  1  0.449100  0.854700  0.365600  1.0  -0.0253
  C  C29  1  0.837100  0.110500  0.295000  1.0  0.7048
  C  C30  1  0.717900  0.592400  0.744100  1.0  0.7062
  C  C31  1  0.649600  0.503400  0.811600  1.0  -0.1443
  C  C32  1  0.743200  0.465100  0.883000  1.0  -0.019
  C  C33  1  0.672400  0.382600  0.941200  1.0  -0.1362
  C  C34  1  0.515200  0.328800  0.926100  1.0  -0.0436
  C  C35  1  0.429300  0.368100  0.853300  1.0  -0.072
  C  C36  1  0.497000  0.450700  0.794800  1.0  -0.0379
  C  C37  1  0.759700  0.339700  0.021600  1.0  0.6314
  C  C38  1  0.719900  0.393800  0.338500  1.0  0.2896
  C  C39  1  0.930400  0.538500  0.397000  1.0  0.3207
  C  C40  1  0.384800  0.215700  0.510800  1.0  0.7073
  C  C41  1  0.410600  0.135100  0.582800  1.0  -0.1661
  C  C42  1  0.286300  0.044600  0.599400  1.0  0.0165
  C  C43  1  0.303800  0.975600  0.675500  1.0  -0.1261
  C  C44  1  0.439500  0.992400  0.730100  1.0  -0.0164
  C  C45  1  0.565800  0.068400  0.702800  1.0  -0.042
  C  C46  1  0.550900  0.145300  0.634400  1.0  -0.0259
  C  C47  1  0.162900  0.889500  0.705000  1.0  0.7037
  C  C48  1  0.282100  0.407600  0.255900  1.0  0.7086
  C  C49  1  0.350400  0.496600  0.188400  1.0  -0.1447
  C  C50  1  0.256800  0.534900  0.117000  1.0  -0.0076
  C  C51  1  0.327600  0.617400  0.058800  1.0  -0.1358
  C  C52  1  0.484800  0.671200  0.073900  1.0  -0.0427
  C  C53  1  0.570700  0.631900  0.146700  1.0  -0.0702
  C  C54  1  0.503000  0.549300  0.205200  1.0  -0.0449
  C  C55  1  0.240300  0.660300  0.978400  1.0  0.6301
  C  C56  1  0.280100  0.606200  0.661500  1.0  0.2893
  C  C57  1  0.069600  0.461500  0.603000  1.0  0.3216
  N  N58  1  0.837700  0.578200  0.470400  1.0  -0.3158
  N  N59  1  0.700800  0.483500  0.427300  1.0  -0.2432
  N  N60  1  0.864400  0.423900  0.310500  1.0  -0.5044
  N  N61  1  0.281300  0.917500  0.245300  1.0  0.6258
  N  N62  1  0.265000  0.310100  0.835000  1.0  0.6371
  N  N63  1  0.162300  0.421800  0.529600  1.0  -0.3171
  N  N64  1  0.299200  0.516500  0.572700  1.0  -0.2458
  N  N65  1  0.135600  0.576100  0.689500  1.0  -0.5041
  N  N66  1  0.718700  0.082500  0.754700  1.0  0.6259
  N  N67  1  0.735000  0.689900  0.165000  1.0  0.6356
  O  O68  1  0.950900  0.156300  0.374800  1.0  -0.6104
  O  O69  1  0.728700  0.826200  0.562300  1.0  -0.5838
  O  O70  1  0.640800  0.609800  0.668900  1.0  -0.5938
  O  O71  1  0.859900  0.655100  0.760700  1.0  -0.6779
  O  O72  1  0.513400  0.677800  0.470100  1.0  -0.5916
  O  O73  1  0.829700  0.137900  0.206200  1.0  -0.5801
  O  O74  1  0.903400  0.384000  0.037300  1.0  -0.5642
  O  O75  1  0.694100  0.272300  0.076200  1.0  -0.5407
  O  O76  1  0.275000  0.984500  0.186100  1.0  -0.3627
  O  O77  1  0.175100  0.840900  0.264500  1.0  -0.3737
  O  O78  1  0.210200  0.243600  0.891000  1.0  -0.3661
  O  O79  1  0.197300  0.341100  0.770100  1.0  -0.3417
  O  O80  1  0.049100  0.843700  0.625200  1.0  -0.6114
  O  O81  1  0.271300  0.173800  0.437700  1.0  -0.5849
  O  O82  1  0.359200  0.390200  0.331100  1.0  -0.5955
  O  O83  1  0.140100  0.344900  0.239300  1.0  -0.6785
  O  O84  1  0.486600  0.322200  0.529900  1.0  -0.5934
  O  O85  1  0.170300  0.862100  0.793800  1.0  -0.5806
  O  O86  1  0.096600  0.616000  0.962700  1.0  -0.5651
  O  O87  1  0.305900  0.727700  0.923800  1.0  -0.5418
  O  O88  1  0.725000  0.015500  0.813900  1.0  -0.3622
  O  O89  1  0.824900  0.159100  0.735500  1.0  -0.373
  O  O90  1  0.789800  0.756400  0.109000  1.0  -0.3659
  O  O91  1  0.802700  0.658900  0.229900  1.0  -0.3404
