# generated using pymatgen
data_Al2C11(NO2)4
_symmetry_space_group_name_H-M   'P 1'
_cell_length_a   20.93570000
_cell_length_b   20.93570000
_cell_length_c   34.81260000
_cell_angle_alpha   90.00000000
_cell_angle_beta   90.00000000
_cell_angle_gamma   120.00000000
_symmetry_Int_Tables_number   1
_chemical_formula_structural   Al2C11(NO2)4
_chemical_formula_sum   'Al36 C198 N72 O144'
_cell_volume   13214.23617434
_cell_formula_units_Z   18
loop_
 _symmetry_equiv_pos_site_id
 _symmetry_equiv_pos_as_xyz
  1  'x, y, z'
loop_
 _atom_site_type_symbol
 _atom_site_label
 _atom_site_symmetry_multiplicity
 _atom_site_fract_x
 _atom_site_fract_y
 _atom_site_fract_z
 _atom_site_occupancy
 _atom_site_charge
  Al  Al1  1  0.276730  0.073280  0.514820  1.0  1.7792
  Al  Al2  1  0.943400  0.406610  0.848150  1.0  1.7792
  Al  Al3  1  0.610060  0.739950  0.181490  1.0  1.7792
  Al  Al4  1  0.926720  0.203450  0.514820  1.0  1.7805
  Al  Al5  1  0.593390  0.536780  0.848150  1.0  1.7805
  Al  Al6  1  0.260050  0.870120  0.181490  1.0  1.7805
  Al  Al7  1  0.796550  0.723270  0.514820  1.0  1.7805
  Al  Al8  1  0.463220  0.056600  0.848150  1.0  1.7805
  Al  Al9  1  0.129880  0.389940  0.181490  1.0  1.7805
  Al  Al10  1  0.073280  0.276730  0.485180  1.0  1.7824
  Al  Al11  1  0.739950  0.610060  0.818510  1.0  1.7824
  Al  Al12  1  0.406610  0.943400  0.151850  1.0  1.7824
  Al  Al13  1  0.203450  0.926720  0.485180  1.0  1.7809
  Al  Al14  1  0.870120  0.260050  0.818510  1.0  1.7809
  Al  Al15  1  0.536780  0.593390  0.151850  1.0  1.7809
  Al  Al16  1  0.723270  0.796550  0.485180  1.0  1.7827
  Al  Al17  1  0.389940  0.129880  0.818510  1.0  1.7827
  Al  Al18  1  0.056600  0.463220  0.151850  1.0  1.7827
  Al  Al19  1  0.723270  0.926720  0.485180  1.0  1.782
  Al  Al20  1  0.389940  0.260050  0.818510  1.0  1.782
  Al  Al21  1  0.056600  0.593390  0.151850  1.0  1.782
  Al  Al22  1  0.073280  0.796550  0.485180  1.0  1.7829
  Al  Al23  1  0.739950  0.129880  0.818510  1.0  1.7829
  Al  Al24  1  0.406610  0.463220  0.151850  1.0  1.7829
  Al  Al25  1  0.203450  0.276730  0.485180  1.0  1.7808
  Al  Al26  1  0.870120  0.610060  0.818510  1.0  1.7808
  Al  Al27  1  0.536780  0.943400  0.151850  1.0  1.7808
  Al  Al28  1  0.926720  0.723270  0.514820  1.0  1.7791
  Al  Al29  1  0.593390  0.056600  0.848150  1.0  1.7791
  Al  Al30  1  0.260050  0.389940  0.181490  1.0  1.7791
  Al  Al31  1  0.796550  0.073280  0.514820  1.0  1.7805
  Al  Al32  1  0.463220  0.406610  0.848150  1.0  1.7805
  Al  Al33  1  0.129880  0.739950  0.181490  1.0  1.7805
  Al  Al34  1  0.276730  0.203450  0.514820  1.0  1.7807
  Al  Al35  1  0.943400  0.536780  0.848150  1.0  1.7807
  Al  Al36  1  0.610060  0.870120  0.181490  1.0  1.7807
  C  C37  1  0.324600  0.101500  0.647530  1.0  0.0567
  C  C38  1  0.440700  0.942800  0.485600  1.0  0.3173
  C  C39  1  0.279900  0.060700  0.438300  1.0  0.0084
  C  C40  1  0.991270  0.434830  0.980860  1.0  0.0622
  C  C41  1  0.107370  0.276130  0.818930  1.0  0.3168
  C  C42  1  0.946570  0.394030  0.771630  1.0  0.0084
  C  C43  1  0.657930  0.768170  0.314200  1.0  0.0567
  C  C44  1  0.774030  0.609470  0.152270  1.0  0.3184
  C  C45  1  0.613230  0.727370  0.104970  1.0  0.0079
  C  C46  1  0.898500  0.223100  0.647530  1.0  0.0603
  C  C47  1  0.057200  0.497900  0.485600  1.0  0.3145
  C  C48  1  0.939300  0.219200  0.438300  1.0  0.0089
  C  C49  1  0.565170  0.556430  0.980860  1.0  0.0592
  C  C50  1  0.723870  0.831230  0.818930  1.0  0.3162
  C  C51  1  0.605970  0.552530  0.771630  1.0  0.0089
  C  C52  1  0.231830  0.889770  0.314200  1.0  0.0607
  C  C53  1  0.390530  0.164570  0.152270  1.0  0.3142
  C  C54  1  0.272630  0.885870  0.104970  1.0  0.0089
  C  C55  1  0.776900  0.675400  0.647530  1.0  0.0652
  C  C56  1  0.502100  0.559300  0.485600  1.0  0.3166
  C  C57  1  0.780800  0.720100  0.438300  1.0  0.0082
  C  C58  1  0.443570  0.008730  0.980860  1.0  0.0651
  C  C59  1  0.168770  0.892630  0.818930  1.0  0.3166
  C  C60  1  0.447470  0.053430  0.771630  1.0  0.0082
  C  C61  1  0.110230  0.342070  0.314200  1.0  0.0652
  C  C62  1  0.835430  0.225970  0.152270  1.0  0.3146
  C  C63  1  0.114130  0.386770  0.104970  1.0  0.0096
  C  C64  1  0.101500  0.324600  0.352470  1.0  0.0601
  C  C65  1  0.942800  0.440700  0.514400  1.0  0.3141
  C  C66  1  0.060700  0.279900  0.561700  1.0  0.0048
  C  C67  1  0.768170  0.657930  0.685800  1.0  0.0601
  C  C68  1  0.609470  0.774030  0.847730  1.0  0.3152
  C  C69  1  0.727370  0.613230  0.895030  1.0  0.0059
  C  C70  1  0.434830  0.991270  0.019140  1.0  0.0645
  C  C71  1  0.276130  0.107370  0.181070  1.0  0.3156
  C  C72  1  0.394030  0.946570  0.228370  1.0  0.0048
  C  C73  1  0.223100  0.898500  0.352470  1.0  0.0597
  C  C74  1  0.497900  0.057200  0.514400  1.0  0.3115
  C  C75  1  0.219200  0.939300  0.561700  1.0  0.0051
  C  C76  1  0.889770  0.231830  0.685800  1.0  0.0597
  C  C77  1  0.164570  0.390530  0.847730  1.0  0.3116
  C  C78  1  0.885870  0.272630  0.895030  1.0  0.0051
  C  C79  1  0.556430  0.565170  0.019140  1.0  0.059
  C  C80  1  0.831230  0.723870  0.181070  1.0  0.3115
  C  C81  1  0.552530  0.605970  0.228370  1.0  0.0051
  C  C82  1  0.675400  0.776900  0.352470  1.0  0.0617
  C  C83  1  0.559300  0.502100  0.514400  1.0  0.313
  C  C84  1  0.720100  0.780800  0.561700  1.0  0.0039
  C  C85  1  0.342070  0.110230  0.685800  1.0  0.0617
  C  C86  1  0.225970  0.835430  0.847730  1.0  0.3148
  C  C87  1  0.386770  0.114130  0.895030  1.0  0.0036
  C  C88  1  0.008730  0.443570  0.019140  1.0  0.0616
  C  C89  1  0.892630  0.168770  0.181070  1.0  0.313
  C  C90  1  0.053430  0.447470  0.228370  1.0  0.0039
  C  C91  1  0.675400  0.898500  0.352470  1.0  0.0564
  C  C92  1  0.559300  0.057200  0.514400  1.0  0.3118
  C  C93  1  0.720100  0.939300  0.561700  1.0  0.0049
  C  C94  1  0.342070  0.231830  0.685800  1.0  0.0564
  C  C95  1  0.225970  0.390530  0.847730  1.0  0.313
  C  C96  1  0.386770  0.272630  0.895030  1.0  0.006
  C  C97  1  0.008730  0.565170  0.019140  1.0  0.0598
  C  C98  1  0.892630  0.723870  0.181070  1.0  0.3129
  C  C99  1  0.053430  0.605970  0.228370  1.0  0.0049
  C  C100  1  0.101500  0.776900  0.352470  1.0  0.0637
  C  C101  1  0.942800  0.502100  0.514400  1.0  0.3135
  C  C102  1  0.060700  0.780800  0.561700  1.0  0.0045
  C  C103  1  0.768170  0.110230  0.685800  1.0  0.0644
  C  C104  1  0.609470  0.835430  0.847730  1.0  0.3142
  C  C105  1  0.727370  0.114130  0.895030  1.0  0.0045
  C  C106  1  0.434830  0.443570  0.019140  1.0  0.0631
  C  C107  1  0.276130  0.168770  0.181070  1.0  0.3155
  C  C108  1  0.394030  0.447470  0.228370  1.0  0.0045
  C  C109  1  0.223100  0.324600  0.352470  1.0  0.0602
  C  C110  1  0.497900  0.440700  0.514400  1.0  0.3136
  C  C111  1  0.219200  0.279900  0.561700  1.0  0.0044
  C  C112  1  0.889770  0.657930  0.685800  1.0  0.0602
  C  C113  1  0.164570  0.774030  0.847730  1.0  0.3156
  C  C114  1  0.885870  0.613230  0.895030  1.0  0.0043
  C  C115  1  0.556430  0.991270  0.019140  1.0  0.0609
  C  C116  1  0.831230  0.107370  0.181070  1.0  0.3136
  C  C117  1  0.552530  0.946570  0.228370  1.0  0.0044
  C  C118  1  0.898500  0.675400  0.647530  1.0  0.0557
  C  C119  1  0.057200  0.559300  0.485600  1.0  0.3134
  C  C120  1  0.939300  0.720100  0.438300  1.0  0.0095
  C  C121  1  0.565170  0.008730  0.980860  1.0  0.0603
  C  C122  1  0.723870  0.892630  0.818930  1.0  0.3143
  C  C123  1  0.605970  0.053430  0.771630  1.0  0.0095
  C  C124  1  0.231830  0.342070  0.314200  1.0  0.0557
  C  C125  1  0.390530  0.225970  0.152270  1.0  0.3145
  C  C126  1  0.272630  0.386770  0.104970  1.0  0.0085
  C  C127  1  0.776900  0.101500  0.647530  1.0  0.062
  C  C128  1  0.502100  0.942800  0.485600  1.0  0.3159
  C  C129  1  0.780800  0.060700  0.438300  1.0  0.009
  C  C130  1  0.443570  0.434830  0.980860  1.0  0.0603
  C  C131  1  0.168770  0.276130  0.818930  1.0  0.3159
  C  C132  1  0.447470  0.394030  0.771630  1.0  0.009
  C  C133  1  0.110230  0.768170  0.314200  1.0  0.0621
  C  C134  1  0.835430  0.609470  0.152270  1.0  0.3151
  C  C135  1  0.114130  0.727370  0.104970  1.0  0.009
  C  C136  1  0.324600  0.223100  0.647530  1.0  0.0624
  C  C137  1  0.440700  0.497900  0.485600  1.0  0.3155
  C  C138  1  0.279900  0.219200  0.438300  1.0  0.008
  C  C139  1  0.991270  0.556430  0.980860  1.0  0.0632
  C  C140  1  0.107370  0.831230  0.818930  1.0  0.3155
  C  C141  1  0.946570  0.552530  0.771630  1.0  0.008
  C  C142  1  0.657930  0.889770  0.314200  1.0  0.0624
  C  C143  1  0.774030  0.164570  0.152270  1.0  0.3145
  C  C144  1  0.613230  0.885870  0.104970  1.0  0.0093
  C  C145  1  0.315800  0.157900  0.586800  1.0  0.7565
  C  C146  1  0.331900  0.165950  0.632000  1.0  0.0322
  C  C147  1  0.386400  0.193200  0.477300  1.0  0.0772
  C  C148  1  0.982470  0.491230  0.920130  1.0  0.7563
  C  C149  1  0.998570  0.499280  0.965330  1.0  0.033
  C  C150  1  0.053070  0.526530  0.810630  1.0  0.0772
  C  C151  1  0.649130  0.824570  0.253470  1.0  0.7565
  C  C152  1  0.665230  0.832620  0.298670  1.0  0.0322
  C  C153  1  0.719730  0.859870  0.143970  1.0  0.0772
  C  C154  1  0.842100  0.157900  0.586800  1.0  0.7563
  C  C155  1  0.834050  0.165950  0.632000  1.0  0.0329
  C  C156  1  0.806800  0.193200  0.477300  1.0  0.0729
  C  C157  1  0.508770  0.491230  0.920130  1.0  0.7562
  C  C158  1  0.500720  0.499280  0.965330  1.0  0.0337
  C  C159  1  0.473470  0.526530  0.810630  1.0  0.0729
  C  C160  1  0.175430  0.824570  0.253470  1.0  0.7563
  C  C161  1  0.167380  0.832620  0.298670  1.0  0.0329
  C  C162  1  0.140130  0.859870  0.143970  1.0  0.0725
  C  C163  1  0.842100  0.684200  0.586800  1.0  0.7555
  C  C164  1  0.834050  0.668100  0.632000  1.0  0.0337
  C  C165  1  0.806800  0.613600  0.477300  1.0  0.0734
  C  C166  1  0.508770  0.017530  0.920130  1.0  0.7554
  C  C167  1  0.500720  0.001430  0.965330  1.0  0.0345
  C  C168  1  0.473470  0.946930  0.810630  1.0  0.0734
  C  C169  1  0.175430  0.350870  0.253470  1.0  0.7555
  C  C170  1  0.167380  0.334770  0.298670  1.0  0.0337
  C  C171  1  0.140130  0.280270  0.143970  1.0  0.0734
  C  C172  1  0.157900  0.315800  0.413200  1.0  0.7562
  C  C173  1  0.165950  0.331900  0.368000  1.0  0.0336
  C  C174  1  0.193200  0.386400  0.522700  1.0  0.0747
  C  C175  1  0.824570  0.649130  0.746530  1.0  0.7562
  C  C176  1  0.832620  0.665230  0.701330  1.0  0.0336
  C  C177  1  0.859870  0.719730  0.856030  1.0  0.0748
  C  C178  1  0.491230  0.982470  0.079870  1.0  0.7561
  C  C179  1  0.499280  0.998570  0.034670  1.0  0.0344
  C  C180  1  0.526530  0.053070  0.189370  1.0  0.0747
  C  C181  1  0.157900  0.842100  0.413200  1.0  0.7569
  C  C182  1  0.165950  0.834050  0.368000  1.0  0.031
  C  C183  1  0.193200  0.806800  0.522700  1.0  0.0733
  C  C184  1  0.824570  0.175430  0.746530  1.0  0.7569
  C  C185  1  0.832620  0.167380  0.701330  1.0  0.031
  C  C186  1  0.859870  0.140130  0.856030  1.0  0.0728
  C  C187  1  0.491230  0.508770  0.079870  1.0  0.7568
  C  C188  1  0.499280  0.500720  0.034670  1.0  0.0318
  C  C189  1  0.526530  0.473470  0.189370  1.0  0.0733
  C  C190  1  0.684200  0.842100  0.413200  1.0  0.7568
  C  C191  1  0.668100  0.834050  0.368000  1.0  0.0315
  C  C192  1  0.613600  0.806800  0.522700  1.0  0.077
  C  C193  1  0.350870  0.175430  0.746530  1.0  0.7568
  C  C194  1  0.334770  0.167380  0.701330  1.0  0.0315
  C  C195  1  0.280270  0.140130  0.856030  1.0  0.077
  C  C196  1  0.017530  0.508770  0.079870  1.0  0.7567
  C  C197  1  0.001430  0.500720  0.034670  1.0  0.0323
  C  C198  1  0.946930  0.473470  0.189370  1.0  0.077
  C  C199  1  0.364400  0.000000  0.500000  1.0  0.3247
  C  C200  1  0.437500  0.000000  0.500000  1.0  0.2012
  C  C201  1  0.031070  0.333333  0.833330  1.0  0.3244
  C  C202  1  0.104170  0.333333  0.833330  1.0  0.2018
  C  C203  1  0.697730  0.666667  0.166670  1.0  0.3246
  C  C204  1  0.770830  0.666667  0.166670  1.0  0.1923
  C  C205  1  0.000000  0.364400  0.500000  1.0  0.3247
  C  C206  1  0.000000  0.437500  0.500000  1.0  0.1991
  C  C207  1  0.666667  0.697730  0.833330  1.0  0.3247
  C  C208  1  0.666667  0.770830  0.833330  1.0  0.1923
  C  C209  1  0.333333  0.031070  0.166670  1.0  0.3244
  C  C210  1  0.333333  0.104170  0.166670  1.0  0.1998
  C  C211  1  0.635600  0.635600  0.500000  1.0  0.3242
  C  C212  1  0.562500  0.562500  0.500000  1.0  0.1999
  C  C213  1  0.302270  0.968930  0.833330  1.0  0.3242
  C  C214  1  0.229170  0.895830  0.833330  1.0  0.1999
  C  C215  1  0.968930  0.302270  0.166670  1.0  0.3242
  C  C216  1  0.895830  0.229170  0.166670  1.0  0.1999
  C  C217  1  0.635600  0.000000  0.500000  1.0  0.3258
  C  C218  1  0.562500  0.000000  0.500000  1.0  0.2017
  C  C219  1  0.302270  0.333333  0.833330  1.0  0.3258
  C  C220  1  0.229170  0.333333  0.833330  1.0  0.1941
  C  C221  1  0.968930  0.666667  0.166670  1.0  0.3255
  C  C222  1  0.895830  0.666667  0.166670  1.0  0.2024
  C  C223  1  0.000000  0.635600  0.500000  1.0  0.324
  C  C224  1  0.000000  0.562500  0.500000  1.0  0.2002
  C  C225  1  0.666667  0.968930  0.833330  1.0  0.3237
  C  C226  1  0.666667  0.895830  0.833330  1.0  0.201
  C  C227  1  0.333333  0.302270  0.166670  1.0  0.3239
  C  C228  1  0.333333  0.229170  0.166670  1.0  0.1935
  C  C229  1  0.364400  0.364400  0.500000  1.0  0.3243
  C  C230  1  0.437500  0.437500  0.500000  1.0  0.1995
  C  C231  1  0.031070  0.697730  0.833330  1.0  0.3242
  C  C232  1  0.104170  0.770830  0.833330  1.0  0.1995
  C  C233  1  0.697730  0.031070  0.166670  1.0  0.3243
  C  C234  1  0.770830  0.104170  0.166670  1.0  0.1995
  N  N235  1  0.329270  0.042130  0.622830  1.0  -0.2548
  N  N236  1  0.371400  0.875400  0.471200  1.0  -0.2046
  N  N237  1  0.995940  0.375460  0.956160  1.0  -0.2495
  N  N238  1  0.038070  0.208730  0.804530  1.0  -0.2046
  N  N239  1  0.662600  0.708800  0.289500  1.0  -0.2548
  N  N240  1  0.704730  0.542070  0.137870  1.0  -0.2129
  N  N241  1  0.957870  0.287140  0.622830  1.0  -0.249
  N  N242  1  0.124600  0.496000  0.471200  1.0  -0.2118
  N  N243  1  0.624540  0.620470  0.956160  1.0  -0.2541
  N  N244  1  0.791270  0.829330  0.804530  1.0  -0.2118
  N  N245  1  0.291200  0.953810  0.289500  1.0  -0.2495
  N  N246  1  0.457930  0.162670  0.137870  1.0  -0.2064
  N  N247  1  0.712860  0.670730  0.622830  1.0  -0.2549
  N  N248  1  0.504000  0.628600  0.471200  1.0  -0.2112
  N  N249  1  0.379530  0.004060  0.956160  1.0  -0.2549
  N  N250  1  0.170670  0.961930  0.804530  1.0  -0.2112
  N  N251  1  0.046190  0.337400  0.289500  1.0  -0.2549
  N  N252  1  0.837330  0.295270  0.137870  1.0  -0.2009
  N  N253  1  0.042130  0.329270  0.377170  1.0  -0.2548
  N  N254  1  0.875400  0.371400  0.528800  1.0  -0.2029
  N  N255  1  0.708800  0.662600  0.710500  1.0  -0.2548
  N  N256  1  0.542070  0.704730  0.862130  1.0  -0.2109
  N  N257  1  0.375460  0.995940  0.043840  1.0  -0.249
  N  N258  1  0.208730  0.038070  0.195470  1.0  -0.2029
  N  N259  1  0.287140  0.957870  0.377170  1.0  -0.2492
  N  N260  1  0.496000  0.124600  0.528800  1.0  -0.2129
  N  N261  1  0.953810  0.291200  0.710500  1.0  -0.25
  N  N262  1  0.162670  0.457930  0.862130  1.0  -0.2083
  N  N263  1  0.620470  0.624540  0.043840  1.0  -0.2554
  N  N264  1  0.829330  0.791270  0.195470  1.0  -0.2129
  N  N265  1  0.670730  0.712860  0.377170  1.0  -0.2537
  N  N266  1  0.628600  0.504000  0.528800  1.0  -0.2129
  N  N267  1  0.337400  0.046190  0.710500  1.0  -0.2537
  N  N268  1  0.295270  0.837330  0.862130  1.0  -0.2004
  N  N269  1  0.004060  0.379530  0.043840  1.0  -0.2537
  N  N270  1  0.961930  0.170670  0.195470  1.0  -0.2129
  N  N271  1  0.670730  0.957870  0.377170  1.0  -0.2554
  N  N272  1  0.628600  0.124600  0.528800  1.0  -0.2062
  N  N273  1  0.337400  0.291200  0.710500  1.0  -0.2554
  N  N274  1  0.295270  0.457930  0.862130  1.0  -0.2141
  N  N275  1  0.004060  0.624540  0.043840  1.0  -0.25
  N  N276  1  0.961930  0.791270  0.195470  1.0  -0.2062
  N  N277  1  0.042130  0.712860  0.377170  1.0  -0.2474
  N  N278  1  0.875400  0.504000  0.528800  1.0  -0.2099
  N  N279  1  0.708800  0.046190  0.710500  1.0  -0.2487
  N  N280  1  0.542070  0.837330  0.862130  1.0  -0.205
  N  N281  1  0.375460  0.379530  0.043840  1.0  -0.2536
  N  N282  1  0.208730  0.170670  0.195470  1.0  -0.2099
  N  N283  1  0.287140  0.329270  0.377170  1.0  -0.2564
  N  N284  1  0.496000  0.371400  0.528800  1.0  -0.2107
  N  N285  1  0.953810  0.662600  0.710500  1.0  -0.2564
  N  N286  1  0.162670  0.704730  0.862130  1.0  -0.2002
  N  N287  1  0.620470  0.995940  0.043840  1.0  -0.2564
  N  N288  1  0.829330  0.038070  0.195470  1.0  -0.2107
  N  N289  1  0.957870  0.670730  0.622830  1.0  -0.2558
  N  N290  1  0.124600  0.628600  0.471200  1.0  -0.2027
  N  N291  1  0.624540  0.004060  0.956160  1.0  -0.2511
  N  N292  1  0.791270  0.961930  0.804530  1.0  -0.2027
  N  N293  1  0.291200  0.337400  0.289500  1.0  -0.2558
  N  N294  1  0.457930  0.295270  0.137870  1.0  -0.2097
  N  N295  1  0.712860  0.042130  0.622830  1.0  -0.2486
  N  N296  1  0.504000  0.875400  0.471200  1.0  -0.2137
  N  N297  1  0.379530  0.375460  0.956160  1.0  -0.2543
  N  N298  1  0.170670  0.208730  0.804530  1.0  -0.2137
  N  N299  1  0.046190  0.708800  0.289500  1.0  -0.2495
  N  N300  1  0.837330  0.542070  0.137870  1.0  -0.2094
  N  N301  1  0.329270  0.287140  0.622830  1.0  -0.2541
  N  N302  1  0.371400  0.496000  0.471200  1.0  -0.2107
  N  N303  1  0.995940  0.620470  0.956160  1.0  -0.2541
  N  N304  1  0.038070  0.829330  0.804530  1.0  -0.2107
  N  N305  1  0.662600  0.953810  0.289500  1.0  -0.2541
  N  N306  1  0.704730  0.162670  0.137870  1.0  -0.1991
  O  O307  1  0.309100  0.104100  0.568940  1.0  -0.5482
  O  O308  1  0.354130  0.058280  0.511500  1.0  -0.5698
  O  O309  1  0.249800  0.027200  0.472310  1.0  -0.6328
  O  O310  1  0.975770  0.437430  0.902270  1.0  -0.5482
  O  O311  1  0.020800  0.391610  0.844830  1.0  -0.5698
  O  O312  1  0.916470  0.360530  0.805640  1.0  -0.6328
  O  O313  1  0.642430  0.770770  0.235610  1.0  -0.5483
  O  O314  1  0.687460  0.724950  0.178170  1.0  -0.5698
  O  O315  1  0.583130  0.693870  0.138980  1.0  -0.6328
  O  O316  1  0.895900  0.205000  0.568940  1.0  -0.5505
  O  O317  1  0.941720  0.295850  0.511500  1.0  -0.57
  O  O318  1  0.972800  0.222600  0.472310  1.0  -0.6348
  O  O319  1  0.562570  0.538330  0.902270  1.0  -0.5505
  O  O320  1  0.608390  0.629180  0.844830  1.0  -0.57
  O  O321  1  0.639470  0.555930  0.805640  1.0  -0.6348
  O  O322  1  0.229230  0.871670  0.235610  1.0  -0.5505
  O  O323  1  0.275050  0.962520  0.178170  1.0  -0.5701
  O  O324  1  0.306130  0.889270  0.138980  1.0  -0.6348
  O  O325  1  0.795000  0.690900  0.568940  1.0  -0.5477
  O  O326  1  0.704150  0.645870  0.511500  1.0  -0.572
  O  O327  1  0.777400  0.750200  0.472310  1.0  -0.6346
  O  O328  1  0.461670  0.024230  0.902270  1.0  -0.5477
  O  O329  1  0.370820  0.979200  0.844830  1.0  -0.572
  O  O330  1  0.444070  0.083530  0.805640  1.0  -0.6346
  O  O331  1  0.128330  0.357570  0.235610  1.0  -0.5477
  O  O332  1  0.037480  0.312540  0.178170  1.0  -0.572
  O  O333  1  0.110730  0.416870  0.138980  1.0  -0.6346
  O  O334  1  0.104100  0.309100  0.431060  1.0  -0.5477
  O  O335  1  0.058280  0.354130  0.488500  1.0  -0.5705
  O  O336  1  0.027200  0.249800  0.527690  1.0  -0.6345
  O  O337  1  0.770770  0.642430  0.764390  1.0  -0.5477
  O  O338  1  0.724950  0.687460  0.821830  1.0  -0.5705
  O  O339  1  0.693870  0.583130  0.861020  1.0  -0.6345
  O  O340  1  0.437430  0.975770  0.097730  1.0  -0.5477
  O  O341  1  0.391610  0.020800  0.155170  1.0  -0.5705
  O  O342  1  0.360530  0.916470  0.194360  1.0  -0.6345
  O  O343  1  0.205000  0.895900  0.431060  1.0  -0.5501
  O  O344  1  0.295850  0.941720  0.488500  1.0  -0.5684
  O  O345  1  0.222600  0.972800  0.527690  1.0  -0.6346
  O  O346  1  0.871670  0.229230  0.764390  1.0  -0.5501
  O  O347  1  0.962520  0.275050  0.821830  1.0  -0.5685
  O  O348  1  0.889270  0.306130  0.861020  1.0  -0.6346
  O  O349  1  0.538330  0.562570  0.097730  1.0  -0.5501
  O  O350  1  0.629180  0.608390  0.155170  1.0  -0.5684
  O  O351  1  0.555930  0.639470  0.194360  1.0  -0.6346
  O  O352  1  0.690900  0.795000  0.431060  1.0  -0.5501
  O  O353  1  0.645870  0.704150  0.488500  1.0  -0.5684
  O  O354  1  0.750200  0.777400  0.527690  1.0  -0.6386
  O  O355  1  0.357570  0.128330  0.764390  1.0  -0.5501
  O  O356  1  0.312540  0.037480  0.821830  1.0  -0.5684
  O  O357  1  0.416870  0.110730  0.861020  1.0  -0.6386
  O  O358  1  0.024230  0.461670  0.097730  1.0  -0.5501
  O  O359  1  0.979200  0.370820  0.155170  1.0  -0.5684
  O  O360  1  0.083530  0.444070  0.194360  1.0  -0.6386
  O  O361  1  0.690900  0.895900  0.431060  1.0  -0.5501
  O  O362  1  0.645870  0.941720  0.488500  1.0  -0.568
  O  O363  1  0.750200  0.972800  0.527690  1.0  -0.6324
  O  O364  1  0.357570  0.229230  0.764390  1.0  -0.5501
  O  O365  1  0.312540  0.275050  0.821830  1.0  -0.568
  O  O366  1  0.416870  0.306130  0.861020  1.0  -0.6324
  O  O367  1  0.024230  0.562570  0.097730  1.0  -0.5501
  O  O368  1  0.979200  0.608390  0.155170  1.0  -0.568
  O  O369  1  0.083530  0.639470  0.194360  1.0  -0.6324
  O  O370  1  0.104100  0.795000  0.431060  1.0  -0.5492
  O  O371  1  0.058280  0.704150  0.488500  1.0  -0.5694
  O  O372  1  0.027200  0.777400  0.527690  1.0  -0.6378
  O  O373  1  0.770770  0.128330  0.764390  1.0  -0.5492
  O  O374  1  0.724950  0.037480  0.821830  1.0  -0.5694
  O  O375  1  0.693870  0.110730  0.861020  1.0  -0.6378
  O  O376  1  0.437430  0.461670  0.097730  1.0  -0.5492
  O  O377  1  0.391610  0.370820  0.155170  1.0  -0.5694
  O  O378  1  0.360530  0.444070  0.194360  1.0  -0.6378
  O  O379  1  0.205000  0.309100  0.431060  1.0  -0.5479
  O  O380  1  0.295850  0.354130  0.488500  1.0  -0.5725
  O  O381  1  0.222600  0.249800  0.527690  1.0  -0.6358
  O  O382  1  0.871670  0.642430  0.764390  1.0  -0.5479
  O  O383  1  0.962520  0.687460  0.821830  1.0  -0.5725
  O  O384  1  0.889270  0.583130  0.861020  1.0  -0.6358
  O  O385  1  0.538330  0.975770  0.097730  1.0  -0.5479
  O  O386  1  0.629180  0.020800  0.155170  1.0  -0.5725
  O  O387  1  0.555930  0.916470  0.194360  1.0  -0.6358
  O  O388  1  0.895900  0.690900  0.568940  1.0  -0.5478
  O  O389  1  0.941720  0.645870  0.511500  1.0  -0.5739
  O  O390  1  0.972800  0.750200  0.472310  1.0  -0.6348
  O  O391  1  0.562570  0.024230  0.902270  1.0  -0.5478
  O  O392  1  0.608390  0.979200  0.844830  1.0  -0.5739
  O  O393  1  0.639470  0.083530  0.805640  1.0  -0.6348
  O  O394  1  0.229230  0.357570  0.235610  1.0  -0.5478
  O  O395  1  0.275050  0.312540  0.178170  1.0  -0.5739
  O  O396  1  0.306130  0.416870  0.138980  1.0  -0.6348
  O  O397  1  0.795000  0.104100  0.568940  1.0  -0.5482
  O  O398  1  0.704150  0.058280  0.511500  1.0  -0.5694
  O  O399  1  0.777400  0.027200  0.472310  1.0  -0.6318
  O  O400  1  0.461670  0.437430  0.902270  1.0  -0.5482
  O  O401  1  0.370820  0.391610  0.844830  1.0  -0.5694
  O  O402  1  0.444070  0.360530  0.805640  1.0  -0.6318
  O  O403  1  0.128330  0.770770  0.235610  1.0  -0.5482
  O  O404  1  0.037480  0.724950  0.178170  1.0  -0.5695
  O  O405  1  0.110730  0.693870  0.138980  1.0  -0.6318
  O  O406  1  0.309100  0.205000  0.568940  1.0  -0.5494
  O  O407  1  0.354130  0.295850  0.511500  1.0  -0.5705
  O  O408  1  0.249800  0.222600  0.472310  1.0  -0.6346
  O  O409  1  0.975770  0.538330  0.902270  1.0  -0.5494
  O  O410  1  0.020800  0.629180  0.844830  1.0  -0.5705
  O  O411  1  0.916470  0.555930  0.805640  1.0  -0.6346
  O  O412  1  0.642430  0.871670  0.235610  1.0  -0.5494
  O  O413  1  0.687460  0.962520  0.178170  1.0  -0.5705
  O  O414  1  0.583130  0.889270  0.138980  1.0  -0.6346
  O  O415  1  0.331500  0.165750  0.501900  1.0  -0.6828
  O  O416  1  0.196700  0.098350  0.520020  1.0  -0.5993
  O  O417  1  0.998170  0.499080  0.835230  1.0  -0.6828
  O  O418  1  0.863370  0.431680  0.853350  1.0  -0.5993
  O  O419  1  0.664830  0.832420  0.168570  1.0  -0.6828
  O  O420  1  0.530030  0.765020  0.186690  1.0  -0.5993
  O  O421  1  0.834250  0.165750  0.501900  1.0  -0.683
  O  O422  1  0.901650  0.098350  0.520020  1.0  -0.6048
  O  O423  1  0.500920  0.499080  0.835230  1.0  -0.683
  O  O424  1  0.568320  0.431680  0.853350  1.0  -0.6048
  O  O425  1  0.167580  0.832420  0.168570  1.0  -0.683
  O  O426  1  0.234980  0.765020  0.186690  1.0  -0.6048
  O  O427  1  0.834250  0.668500  0.501900  1.0  -0.6853
  O  O428  1  0.901650  0.803300  0.520020  1.0  -0.5929
  O  O429  1  0.500920  0.001830  0.835230  1.0  -0.6854
  O  O430  1  0.568320  0.136630  0.853350  1.0  -0.5929
  O  O431  1  0.167580  0.335170  0.168570  1.0  -0.6853
  O  O432  1  0.234980  0.469970  0.186690  1.0  -0.5929
  O  O433  1  0.165750  0.331500  0.498100  1.0  -0.6849
  O  O434  1  0.098350  0.196700  0.479980  1.0  -0.5982
  O  O435  1  0.832420  0.664830  0.831430  1.0  -0.685
  O  O436  1  0.765020  0.530030  0.813310  1.0  -0.5982
  O  O437  1  0.499080  0.998170  0.164770  1.0  -0.6849
  O  O438  1  0.431680  0.863370  0.146650  1.0  -0.5982
  O  O439  1  0.165750  0.834250  0.498100  1.0  -0.682
  O  O440  1  0.098350  0.901650  0.479980  1.0  -0.5971
  O  O441  1  0.832420  0.167580  0.831430  1.0  -0.682
  O  O442  1  0.765020  0.234980  0.813310  1.0  -0.5971
  O  O443  1  0.499080  0.500920  0.164770  1.0  -0.682
  O  O444  1  0.431680  0.568320  0.146650  1.0  -0.5971
  O  O445  1  0.668500  0.834250  0.498100  1.0  -0.6825
  O  O446  1  0.803300  0.901650  0.479980  1.0  -0.604
  O  O447  1  0.335170  0.167580  0.831430  1.0  -0.6825
  O  O448  1  0.469970  0.234980  0.813310  1.0  -0.604
  O  O449  1  0.001830  0.500920  0.164770  1.0  -0.6825
  O  O450  1  0.136630  0.568320  0.146650  1.0  -0.604
