# generated using pymatgen
data_Al(C3O2)2
_symmetry_space_group_name_H-M   'P 1'
_cell_length_a   21.10510000
_cell_length_b   21.10510000
_cell_length_c   34.88840000
_cell_angle_alpha   90.00000000
_cell_angle_beta   90.00000000
_cell_angle_gamma   120.00000000
_symmetry_Int_Tables_number   1
_chemical_formula_structural   Al(C3O2)2
_chemical_formula_sum   'Al36 C216 O144'
_cell_volume   13458.18559564
_cell_formula_units_Z   36
loop_
 _symmetry_equiv_pos_site_id
 _symmetry_equiv_pos_as_xyz
  1  'x, y, z'
loop_
 _atom_site_type_symbol
 _atom_site_label
 _atom_site_symmetry_multiplicity
 _atom_site_fract_x
 _atom_site_fract_y
 _atom_site_fract_z
 _atom_site_occupancy
 _atom_site_charge
  Al  Al1  1  0.282720  0.074190  0.515380  1.0  1.82
  Al  Al2  1  0.949390  0.407520  0.848710  1.0  1.82
  Al  Al3  1  0.616050  0.740860  0.182050  1.0  1.82
  Al  Al4  1  0.925810  0.208530  0.515380  1.0  1.8212
  Al  Al5  1  0.592480  0.541860  0.848710  1.0  1.8212
  Al  Al6  1  0.259140  0.875200  0.182050  1.0  1.8212
  Al  Al7  1  0.791470  0.717280  0.515380  1.0  1.8202
  Al  Al8  1  0.458140  0.050610  0.848710  1.0  1.8202
  Al  Al9  1  0.124800  0.383950  0.182050  1.0  1.8202
  Al  Al10  1  0.074190  0.282720  0.484620  1.0  1.8203
  Al  Al11  1  0.740860  0.616050  0.817950  1.0  1.8203
  Al  Al12  1  0.407520  0.949390  0.151290  1.0  1.8203
  Al  Al13  1  0.208530  0.925810  0.484620  1.0  1.8209
  Al  Al14  1  0.875200  0.259140  0.817950  1.0  1.8209
  Al  Al15  1  0.541860  0.592480  0.151290  1.0  1.8209
  Al  Al16  1  0.717280  0.791470  0.484620  1.0  1.8221
  Al  Al17  1  0.383950  0.124800  0.817950  1.0  1.8221
  Al  Al18  1  0.050610  0.458140  0.151290  1.0  1.8221
  Al  Al19  1  0.717280  0.925810  0.484620  1.0  1.8219
  Al  Al20  1  0.383950  0.259140  0.817950  1.0  1.8219
  Al  Al21  1  0.050610  0.592480  0.151290  1.0  1.8219
  Al  Al22  1  0.074190  0.791470  0.484620  1.0  1.8205
  Al  Al23  1  0.740860  0.124800  0.817950  1.0  1.8205
  Al  Al24  1  0.407520  0.458140  0.151290  1.0  1.8205
  Al  Al25  1  0.208530  0.282720  0.484620  1.0  1.8209
  Al  Al26  1  0.875200  0.616050  0.817950  1.0  1.8209
  Al  Al27  1  0.541860  0.949390  0.151290  1.0  1.8209
  Al  Al28  1  0.925810  0.717280  0.515380  1.0  1.8207
  Al  Al29  1  0.592480  0.050610  0.848710  1.0  1.8207
  Al  Al30  1  0.259140  0.383950  0.182050  1.0  1.8207
  Al  Al31  1  0.791470  0.074190  0.515380  1.0  1.8211
  Al  Al32  1  0.458140  0.407520  0.848710  1.0  1.8211
  Al  Al33  1  0.124800  0.740860  0.182050  1.0  1.8211
  Al  Al34  1  0.282720  0.208530  0.515380  1.0  1.8195
  Al  Al35  1  0.949390  0.541860  0.848710  1.0  1.8195
  Al  Al36  1  0.616050  0.875200  0.182050  1.0  1.8195
  C  C37  1  0.327610  0.106130  0.646790  1.0  -0.0595
  C  C38  1  0.437490  0.940910  0.485890  1.0  -0.0335
  C  C39  1  0.270200  0.060100  0.432100  1.0  0.0694
  C  C40  1  0.994280  0.439460  0.980120  1.0  -0.0554
  C  C41  1  0.104160  0.274240  0.819220  1.0  -0.0334
  C  C42  1  0.936870  0.393430  0.765430  1.0  0.0694
  C  C43  1  0.660940  0.772800  0.313460  1.0  -0.0597
  C  C44  1  0.770820  0.607580  0.152560  1.0  -0.0302
  C  C45  1  0.603530  0.726770  0.098770  1.0  0.0708
  C  C46  1  0.893870  0.221480  0.646790  1.0  -0.0539
  C  C47  1  0.059090  0.496580  0.485890  1.0  -0.0381
  C  C48  1  0.939900  0.210100  0.432100  1.0  0.0725
  C  C49  1  0.560540  0.554810  0.980120  1.0  -0.0572
  C  C50  1  0.725760  0.829910  0.819220  1.0  -0.0329
  C  C51  1  0.606570  0.543430  0.765430  1.0  0.0725
  C  C52  1  0.227200  0.888150  0.313460  1.0  -0.0539
  C  C53  1  0.392420  0.163250  0.152560  1.0  -0.0369
  C  C54  1  0.273230  0.876770  0.098770  1.0  0.0725
  C  C55  1  0.778520  0.672390  0.646790  1.0  -0.0586
  C  C56  1  0.503420  0.562510  0.485890  1.0  -0.0308
  C  C57  1  0.789900  0.729800  0.432100  1.0  0.0735
  C  C58  1  0.445190  0.005720  0.980120  1.0  -0.0599
  C  C59  1  0.170090  0.895840  0.819220  1.0  -0.03
  C  C60  1  0.456570  0.063130  0.765430  1.0  0.0735
  C  C61  1  0.111850  0.339060  0.313460  1.0  -0.0586
  C  C62  1  0.836750  0.229180  0.152560  1.0  -0.0308
  C  C63  1  0.123230  0.396470  0.098770  1.0  0.0717
  C  C64  1  0.106130  0.327610  0.353210  1.0  -0.0588
  C  C65  1  0.940910  0.437490  0.514110  1.0  -0.034
  C  C66  1  0.060100  0.270200  0.567900  1.0  0.0703
  C  C67  1  0.772800  0.660940  0.686540  1.0  -0.0589
  C  C68  1  0.607580  0.770820  0.847440  1.0  -0.0305
  C  C69  1  0.726770  0.603530  0.901230  1.0  0.0714
  C  C70  1  0.439460  0.994280  0.019880  1.0  -0.0565
  C  C71  1  0.274240  0.104160  0.180780  1.0  -0.0338
  C  C72  1  0.393430  0.936870  0.234570  1.0  0.0703
  C  C73  1  0.221480  0.893870  0.353210  1.0  -0.0528
  C  C74  1  0.496580  0.059090  0.514110  1.0  -0.0338
  C  C75  1  0.210100  0.939900  0.567900  1.0  0.0685
  C  C76  1  0.888150  0.227200  0.686540  1.0  -0.0528
  C  C77  1  0.163250  0.392420  0.847440  1.0  -0.0321
  C  C78  1  0.876770  0.273230  0.901230  1.0  0.0685
  C  C79  1  0.554810  0.560540  0.019880  1.0  -0.0566
  C  C80  1  0.829910  0.725760  0.180780  1.0  -0.0284
  C  C81  1  0.543430  0.606570  0.234570  1.0  0.0685
  C  C82  1  0.672390  0.778520  0.353210  1.0  -0.0564
  C  C83  1  0.562510  0.503420  0.514110  1.0  -0.0303
  C  C84  1  0.729800  0.789900  0.567900  1.0  0.0719
  C  C85  1  0.339060  0.111850  0.686540  1.0  -0.0564
  C  C86  1  0.229180  0.836750  0.847440  1.0  -0.0313
  C  C87  1  0.396470  0.123230  0.901230  1.0  0.0704
  C  C88  1  0.005720  0.445190  0.019880  1.0  -0.0577
  C  C89  1  0.895840  0.170090  0.180780  1.0  -0.0308
  C  C90  1  0.063130  0.456570  0.234570  1.0  0.0719
  C  C91  1  0.672390  0.893870  0.353210  1.0  -0.0561
  C  C92  1  0.562510  0.059090  0.514110  1.0  -0.0304
  C  C93  1  0.729800  0.939900  0.567900  1.0  0.0685
  C  C94  1  0.339060  0.227200  0.686540  1.0  -0.0562
  C  C95  1  0.229180  0.392420  0.847440  1.0  -0.0269
  C  C96  1  0.396470  0.273230  0.901230  1.0  0.0695
  C  C97  1  0.005720  0.560540  0.019880  1.0  -0.0536
  C  C98  1  0.895840  0.725760  0.180780  1.0  -0.0314
  C  C99  1  0.063130  0.606570  0.234570  1.0  0.0685
  C  C100  1  0.106130  0.778520  0.353210  1.0  -0.0534
  C  C101  1  0.940910  0.503420  0.514110  1.0  -0.0342
  C  C102  1  0.060100  0.789900  0.567900  1.0  0.0702
  C  C103  1  0.772800  0.111850  0.686540  1.0  -0.0519
  C  C104  1  0.607580  0.836750  0.847440  1.0  -0.0345
  C  C105  1  0.726770  0.123230  0.901230  1.0  0.0702
  C  C106  1  0.439460  0.445190  0.019880  1.0  -0.0552
  C  C107  1  0.274240  0.170090  0.180780  1.0  -0.0296
  C  C108  1  0.393430  0.456570  0.234570  1.0  0.0702
  C  C109  1  0.221480  0.327610  0.353210  1.0  -0.0599
  C  C110  1  0.496580  0.437490  0.514110  1.0  -0.0255
  C  C111  1  0.210100  0.270200  0.567900  1.0  0.0722
  C  C112  1  0.888150  0.660940  0.686540  1.0  -0.0599
  C  C113  1  0.163250  0.770820  0.847440  1.0  -0.0255
  C  C114  1  0.876770  0.603530  0.901230  1.0  0.0707
  C  C115  1  0.554810  0.994280  0.019880  1.0  -0.06
  C  C116  1  0.829910  0.104160  0.180780  1.0  -0.0257
  C  C117  1  0.543430  0.936870  0.234570  1.0  0.0722
  C  C118  1  0.893870  0.672390  0.646790  1.0  -0.0613
  C  C119  1  0.059090  0.562510  0.485890  1.0  -0.0314
  C  C120  1  0.939900  0.729800  0.432100  1.0  0.0726
  C  C121  1  0.560540  0.005720  0.980120  1.0  -0.0565
  C  C122  1  0.725760  0.895840  0.819220  1.0  -0.0316
  C  C123  1  0.606570  0.063130  0.765430  1.0  0.0726
  C  C124  1  0.227200  0.339060  0.313460  1.0  -0.0615
  C  C125  1  0.392420  0.229180  0.152560  1.0  -0.0275
  C  C126  1  0.273230  0.396470  0.098770  1.0  0.0744
  C  C127  1  0.778520  0.106130  0.646790  1.0  -0.0527
  C  C128  1  0.503420  0.940910  0.485890  1.0  -0.0326
  C  C129  1  0.789900  0.060100  0.432100  1.0  0.0695
  C  C130  1  0.445190  0.439460  0.980120  1.0  -0.0559
  C  C131  1  0.170090  0.274240  0.819220  1.0  -0.0279
  C  C132  1  0.456570  0.393430  0.765430  1.0  0.0695
  C  C133  1  0.111850  0.772800  0.313460  1.0  -0.0528
  C  C134  1  0.836750  0.607580  0.152560  1.0  -0.032
  C  C135  1  0.123230  0.726770  0.098770  1.0  0.0695
  C  C136  1  0.327610  0.221480  0.646790  1.0  -0.0552
  C  C137  1  0.437490  0.496580  0.485890  1.0  -0.031
  C  C138  1  0.270200  0.210100  0.432100  1.0  0.0735
  C  C139  1  0.994280  0.554810  0.980120  1.0  -0.0566
  C  C140  1  0.104160  0.829910  0.819220  1.0  -0.0298
  C  C141  1  0.936870  0.543430  0.765430  1.0  0.0735
  C  C142  1  0.660940  0.888150  0.313460  1.0  -0.0552
  C  C143  1  0.770820  0.163250  0.152560  1.0  -0.031
  C  C144  1  0.603530  0.876770  0.098770  1.0  0.0716
  C  C145  1  0.315800  0.157900  0.583170  1.0  0.7387
  C  C146  1  0.325420  0.162710  0.627030  1.0  -0.0367
  C  C147  1  0.421100  0.210550  0.484670  1.0  0.0467
  C  C148  1  0.140000  0.070000  0.540320  1.0  0.0576
  C  C149  1  0.982470  0.491230  0.916500  1.0  0.7389
  C  C150  1  0.992090  0.496040  0.960360  1.0  -0.0369
  C  C151  1  0.087770  0.543880  0.818000  1.0  0.0467
  C  C152  1  0.806670  0.403330  0.873650  1.0  0.0617
  C  C153  1  0.649130  0.824570  0.249840  1.0  0.7387
  C  C154  1  0.658750  0.829380  0.293700  1.0  -0.0367
  C  C155  1  0.754430  0.877220  0.151340  1.0  0.0467
  C  C156  1  0.473330  0.736670  0.206990  1.0  0.0576
  C  C157  1  0.842100  0.157900  0.583170  1.0  0.7387
  C  C158  1  0.837290  0.162710  0.627030  1.0  -0.0372
  C  C159  1  0.789450  0.210550  0.484670  1.0  0.0468
  C  C160  1  0.930000  0.070000  0.540320  1.0  0.0587
  C  C161  1  0.508770  0.491230  0.916500  1.0  0.7388
  C  C162  1  0.503960  0.496040  0.960360  1.0  -0.0355
  C  C163  1  0.456120  0.543880  0.818000  1.0  0.0468
  C  C164  1  0.596670  0.403330  0.873650  1.0  0.055
  C  C165  1  0.175430  0.824570  0.249840  1.0  0.7387
  C  C166  1  0.170620  0.829380  0.293700  1.0  -0.0372
  C  C167  1  0.122780  0.877220  0.151340  1.0  0.0467
  C  C168  1  0.263330  0.736670  0.206990  1.0  0.0587
  C  C169  1  0.842100  0.684200  0.583170  1.0  0.7377
  C  C170  1  0.837290  0.674580  0.627030  1.0  -0.0353
  C  C171  1  0.789450  0.578900  0.484670  1.0  0.0432
  C  C172  1  0.930000  0.860000  0.540320  1.0  0.0528
  C  C173  1  0.508770  0.017530  0.916500  1.0  0.7378
  C  C174  1  0.503960  0.007910  0.960360  1.0  -0.0355
  C  C175  1  0.456120  0.912230  0.818000  1.0  0.0432
  C  C176  1  0.596670  0.193330  0.873650  1.0  0.0565
  C  C177  1  0.175430  0.350870  0.249840  1.0  0.7377
  C  C178  1  0.170620  0.341250  0.293700  1.0  -0.0353
  C  C179  1  0.122780  0.245570  0.151340  1.0  0.0432
  C  C180  1  0.263330  0.526670  0.206990  1.0  0.0528
  C  C181  1  0.157900  0.315800  0.416830  1.0  0.7382
  C  C182  1  0.162710  0.325420  0.372970  1.0  -0.0356
  C  C183  1  0.210550  0.421100  0.515330  1.0  0.0431
  C  C184  1  0.070000  0.140000  0.459680  1.0  0.0562
  C  C185  1  0.824570  0.649130  0.750160  1.0  0.7382
  C  C186  1  0.829380  0.658750  0.706300  1.0  -0.0356
  C  C187  1  0.877220  0.754430  0.848660  1.0  0.0431
  C  C188  1  0.736670  0.473330  0.793010  1.0  0.0562
  C  C189  1  0.491230  0.982470  0.083500  1.0  0.7384
  C  C190  1  0.496040  0.992090  0.039640  1.0  -0.0354
  C  C191  1  0.543880  0.087770  0.182000  1.0  0.0431
  C  C192  1  0.403330  0.806670  0.126350  1.0  0.0603
  C  C193  1  0.157900  0.842100  0.416830  1.0  0.7395
  C  C194  1  0.162710  0.837290  0.372970  1.0  -0.0379
  C  C195  1  0.210550  0.789450  0.515330  1.0  0.0428
  C  C196  1  0.070000  0.930000  0.459680  1.0  0.063
  C  C197  1  0.824570  0.175430  0.750160  1.0  0.7395
  C  C198  1  0.829380  0.170620  0.706300  1.0  -0.0379
  C  C199  1  0.877220  0.122780  0.848660  1.0  0.0427
  C  C200  1  0.736670  0.263330  0.793010  1.0  0.063
  C  C201  1  0.491230  0.508770  0.083500  1.0  0.7396
  C  C202  1  0.496040  0.503960  0.039640  1.0  -0.0369
  C  C203  1  0.543880  0.456120  0.182000  1.0  0.0428
  C  C204  1  0.403330  0.596670  0.126350  1.0  0.0585
  C  C205  1  0.684200  0.842100  0.416830  1.0  0.7391
  C  C206  1  0.674580  0.837290  0.372970  1.0  -0.0358
  C  C207  1  0.578900  0.789450  0.515330  1.0  0.0445
  C  C208  1  0.860000  0.930000  0.459680  1.0  0.0566
  C  C209  1  0.350870  0.175430  0.750160  1.0  0.7391
  C  C210  1  0.341250  0.170620  0.706300  1.0  -0.0358
  C  C211  1  0.245570  0.122780  0.848660  1.0  0.0445
  C  C212  1  0.526670  0.263330  0.793010  1.0  0.0566
  C  C213  1  0.017530  0.508770  0.083500  1.0  0.7392
  C  C214  1  0.007910  0.503960  0.039640  1.0  -0.0356
  C  C215  1  0.912230  0.456120  0.182000  1.0  0.0445
  C  C216  1  0.193330  0.596670  0.126350  1.0  0.0609
  C  C217  1  0.360920  0.000000  0.500000  1.0  0.7414
  C  C218  1  0.433970  0.000000  0.500000  1.0  -0.0238
  C  C219  1  0.027590  0.333333  0.833330  1.0  0.7414
  C  C220  1  0.100640  0.333333  0.833330  1.0  -0.0238
  C  C221  1  0.694250  0.666667  0.166670  1.0  0.7414
  C  C222  1  0.767300  0.666667  0.166670  1.0  -0.0238
  C  C223  1  0.000000  0.360920  0.500000  1.0  0.7399
  C  C224  1  0.000000  0.433970  0.500000  1.0  -0.0237
  C  C225  1  0.666667  0.694250  0.833330  1.0  0.7399
  C  C226  1  0.666667  0.767300  0.833330  1.0  -0.0237
  C  C227  1  0.333333  0.027590  0.166670  1.0  0.74
  C  C228  1  0.333333  0.100640  0.166670  1.0  -0.0237
  C  C229  1  0.639080  0.639080  0.500000  1.0  0.7382
  C  C230  1  0.566030  0.566030  0.500000  1.0  -0.0236
  C  C231  1  0.305750  0.972410  0.833330  1.0  0.7382
  C  C232  1  0.232700  0.899360  0.833330  1.0  -0.0236
  C  C233  1  0.972410  0.305750  0.166670  1.0  0.7381
  C  C234  1  0.899360  0.232700  0.166670  1.0  -0.0236
  C  C235  1  0.639080  0.000000  0.500000  1.0  0.7401
  C  C236  1  0.566030  0.000000  0.500000  1.0  -0.0241
  C  C237  1  0.305750  0.333333  0.833330  1.0  0.7401
  C  C238  1  0.232700  0.333333  0.833330  1.0  -0.0242
  C  C239  1  0.972410  0.666667  0.166670  1.0  0.7401
  C  C240  1  0.899360  0.666667  0.166670  1.0  -0.0242
  C  C241  1  0.000000  0.639080  0.500000  1.0  0.7386
  C  C242  1  0.000000  0.566030  0.500000  1.0  -0.0237
  C  C243  1  0.666667  0.972410  0.833330  1.0  0.7386
  C  C244  1  0.666667  0.899360  0.833330  1.0  -0.0237
  C  C245  1  0.333333  0.305750  0.166670  1.0  0.7386
  C  C246  1  0.333333  0.232700  0.166670  1.0  -0.0237
  C  C247  1  0.360920  0.360920  0.500000  1.0  0.7402
  C  C248  1  0.433970  0.433970  0.500000  1.0  -0.0236
  C  C249  1  0.027590  0.694250  0.833330  1.0  0.7402
  C  C250  1  0.100640  0.767300  0.833330  1.0  -0.0236
  C  C251  1  0.694250  0.027590  0.166670  1.0  0.7402
  C  C252  1  0.767300  0.100640  0.166670  1.0  -0.0236
  O  O253  1  0.314860  0.104640  0.568460  1.0  -0.5051
  O  O254  1  0.367920  0.058590  0.511700  1.0  -0.513
  O  O255  1  0.248150  0.021000  0.468820  1.0  -0.7315
  O  O256  1  0.981530  0.437970  0.901790  1.0  -0.5051
  O  O257  1  0.034590  0.391920  0.845030  1.0  -0.513
  O  O258  1  0.914820  0.354330  0.802150  1.0  -0.7315
  O  O259  1  0.648190  0.771310  0.235130  1.0  -0.5051
  O  O260  1  0.701250  0.725260  0.178370  1.0  -0.5131
  O  O261  1  0.581480  0.687670  0.135490  1.0  -0.7315
  O  O262  1  0.895360  0.210220  0.568460  1.0  -0.5026
  O  O263  1  0.941410  0.309330  0.511700  1.0  -0.5132
  O  O264  1  0.979000  0.227150  0.468820  1.0  -0.7309
  O  O265  1  0.562030  0.543550  0.901790  1.0  -0.5026
  O  O266  1  0.608080  0.642660  0.845030  1.0  -0.5132
  O  O267  1  0.645670  0.560480  0.802150  1.0  -0.7309
  O  O268  1  0.228690  0.876890  0.235130  1.0  -0.5026
  O  O269  1  0.274740  0.976000  0.178370  1.0  -0.5132
  O  O270  1  0.312330  0.893820  0.135490  1.0  -0.7309
  O  O271  1  0.789780  0.685140  0.568460  1.0  -0.5055
  O  O272  1  0.690670  0.632080  0.511700  1.0  -0.5119
  O  O273  1  0.772850  0.751850  0.468820  1.0  -0.73
  O  O274  1  0.456450  0.018470  0.901790  1.0  -0.5055
  O  O275  1  0.357340  0.965410  0.845030  1.0  -0.5119
  O  O276  1  0.439520  0.085180  0.802150  1.0  -0.73
  O  O277  1  0.123110  0.351810  0.235130  1.0  -0.5055
  O  O278  1  0.024000  0.298750  0.178370  1.0  -0.5119
  O  O279  1  0.106180  0.418520  0.135490  1.0  -0.73
  O  O280  1  0.104640  0.314860  0.431540  1.0  -0.5051
  O  O281  1  0.058590  0.367920  0.488300  1.0  -0.5117
  O  O282  1  0.021000  0.248150  0.531180  1.0  -0.7287
  O  O283  1  0.771310  0.648190  0.764870  1.0  -0.5051
  O  O284  1  0.725260  0.701250  0.821630  1.0  -0.5116
  O  O285  1  0.687670  0.581480  0.864510  1.0  -0.7287
  O  O286  1  0.437970  0.981530  0.098210  1.0  -0.5051
  O  O287  1  0.391920  0.034590  0.154970  1.0  -0.5117
  O  O288  1  0.354330  0.914820  0.197850  1.0  -0.7287
  O  O289  1  0.210220  0.895360  0.431540  1.0  -0.5034
  O  O290  1  0.309330  0.941410  0.488300  1.0  -0.513
  O  O291  1  0.227150  0.979000  0.531180  1.0  -0.7302
  O  O292  1  0.876890  0.228690  0.764870  1.0  -0.5034
  O  O293  1  0.976000  0.274740  0.821630  1.0  -0.513
  O  O294  1  0.893820  0.312330  0.864510  1.0  -0.7302
  O  O295  1  0.543550  0.562030  0.098210  1.0  -0.5034
  O  O296  1  0.642660  0.608080  0.154970  1.0  -0.513
  O  O297  1  0.560480  0.645670  0.197850  1.0  -0.7302
  O  O298  1  0.685140  0.789780  0.431540  1.0  -0.503
  O  O299  1  0.632080  0.690670  0.488300  1.0  -0.5116
  O  O300  1  0.751850  0.772850  0.531180  1.0  -0.7329
  O  O301  1  0.351810  0.123110  0.764870  1.0  -0.503
  O  O302  1  0.298750  0.024000  0.821630  1.0  -0.5116
  O  O303  1  0.418520  0.106180  0.864510  1.0  -0.7329
  O  O304  1  0.018470  0.456450  0.098210  1.0  -0.503
  O  O305  1  0.965410  0.357340  0.154970  1.0  -0.5116
  O  O306  1  0.085180  0.439520  0.197850  1.0  -0.7329
  O  O307  1  0.685140  0.895360  0.431540  1.0  -0.5035
  O  O308  1  0.632080  0.941410  0.488300  1.0  -0.5129
  O  O309  1  0.751850  0.979000  0.531180  1.0  -0.7294
  O  O310  1  0.351810  0.228690  0.764870  1.0  -0.5035
  O  O311  1  0.298750  0.274740  0.821630  1.0  -0.5129
  O  O312  1  0.418520  0.312330  0.864510  1.0  -0.7294
  O  O313  1  0.018470  0.562030  0.098210  1.0  -0.5035
  O  O314  1  0.965410  0.608080  0.154970  1.0  -0.5129
  O  O315  1  0.085180  0.645670  0.197850  1.0  -0.7294
  O  O316  1  0.104640  0.789780  0.431540  1.0  -0.5037
  O  O317  1  0.058590  0.690670  0.488300  1.0  -0.5122
  O  O318  1  0.021000  0.772850  0.531180  1.0  -0.7308
  O  O319  1  0.771310  0.123110  0.764870  1.0  -0.5037
  O  O320  1  0.725260  0.024000  0.821630  1.0  -0.5122
  O  O321  1  0.687670  0.106180  0.864510  1.0  -0.7308
  O  O322  1  0.437970  0.456450  0.098210  1.0  -0.5037
  O  O323  1  0.391920  0.357340  0.154970  1.0  -0.5122
  O  O324  1  0.354330  0.439520  0.197850  1.0  -0.7308
  O  O325  1  0.210220  0.314860  0.431540  1.0  -0.5054
  O  O326  1  0.309330  0.367920  0.488300  1.0  -0.5114
  O  O327  1  0.227150  0.248150  0.531180  1.0  -0.7294
  O  O328  1  0.876890  0.648190  0.764870  1.0  -0.5054
  O  O329  1  0.976000  0.701250  0.821630  1.0  -0.5114
  O  O330  1  0.893820  0.581480  0.864510  1.0  -0.7294
  O  O331  1  0.543550  0.981530  0.098210  1.0  -0.5054
  O  O332  1  0.642660  0.034590  0.154970  1.0  -0.5114
  O  O333  1  0.560480  0.914820  0.197850  1.0  -0.7294
  O  O334  1  0.895360  0.685140  0.568460  1.0  -0.5058
  O  O335  1  0.941410  0.632080  0.511700  1.0  -0.5121
  O  O336  1  0.979000  0.751850  0.468820  1.0  -0.7304
  O  O337  1  0.562030  0.018470  0.901790  1.0  -0.5058
  O  O338  1  0.608080  0.965410  0.845030  1.0  -0.5121
  O  O339  1  0.645670  0.085180  0.802150  1.0  -0.7304
  O  O340  1  0.228690  0.351810  0.235130  1.0  -0.5058
  O  O341  1  0.274740  0.298750  0.178370  1.0  -0.5121
  O  O342  1  0.312330  0.418520  0.135490  1.0  -0.7304
  O  O343  1  0.789780  0.104640  0.568460  1.0  -0.5047
  O  O344  1  0.690670  0.058590  0.511700  1.0  -0.5145
  O  O345  1  0.772850  0.021000  0.468820  1.0  -0.7311
  O  O346  1  0.456450  0.437970  0.901790  1.0  -0.5047
  O  O347  1  0.357340  0.391920  0.845030  1.0  -0.5145
  O  O348  1  0.439520  0.354330  0.802150  1.0  -0.7311
  O  O349  1  0.123110  0.771310  0.235130  1.0  -0.5047
  O  O350  1  0.024000  0.725260  0.178370  1.0  -0.5145
  O  O351  1  0.106180  0.687670  0.135490  1.0  -0.7311
  O  O352  1  0.314860  0.210220  0.568460  1.0  -0.5029
  O  O353  1  0.367920  0.309330  0.511700  1.0  -0.5134
  O  O354  1  0.248150  0.227150  0.468820  1.0  -0.7301
  O  O355  1  0.981530  0.543550  0.901790  1.0  -0.5029
  O  O356  1  0.034590  0.642660  0.845030  1.0  -0.5134
  O  O357  1  0.914820  0.560480  0.802150  1.0  -0.7301
  O  O358  1  0.648190  0.876890  0.235130  1.0  -0.5029
  O  O359  1  0.701250  0.976000  0.178370  1.0  -0.5134
  O  O360  1  0.581480  0.893820  0.135490  1.0  -0.7301
  O  O361  1  0.343700  0.171850  0.496540  1.0  -0.7926
  O  O362  1  0.214900  0.107450  0.521610  1.0  -0.8433
  O  O363  1  0.010370  0.505180  0.829870  1.0  -0.7926
  O  O364  1  0.881570  0.440780  0.854940  1.0  -0.8433
  O  O365  1  0.677030  0.838520  0.163210  1.0  -0.7926
  O  O366  1  0.548230  0.774120  0.188280  1.0  -0.8433
  O  O367  1  0.828150  0.171850  0.496540  1.0  -0.7915
  O  O368  1  0.892550  0.107450  0.521610  1.0  -0.8408
  O  O369  1  0.494820  0.505180  0.829870  1.0  -0.7915
  O  O370  1  0.559220  0.440780  0.854940  1.0  -0.8408
  O  O371  1  0.161480  0.838520  0.163210  1.0  -0.7915
  O  O372  1  0.225880  0.774120  0.188280  1.0  -0.8408
  O  O373  1  0.828150  0.656300  0.496540  1.0  -0.7911
  O  O374  1  0.892550  0.785100  0.521610  1.0  -0.843
  O  O375  1  0.494820  0.989630  0.829870  1.0  -0.7911
  O  O376  1  0.559220  0.118430  0.854940  1.0  -0.843
  O  O377  1  0.161480  0.322970  0.163210  1.0  -0.7911
  O  O378  1  0.225880  0.451770  0.188280  1.0  -0.843
  O  O379  1  0.171850  0.343700  0.503460  1.0  -0.7927
  O  O380  1  0.107450  0.214900  0.478390  1.0  -0.8448
  O  O381  1  0.838520  0.677030  0.836790  1.0  -0.7927
  O  O382  1  0.774120  0.548230  0.811720  1.0  -0.8448
  O  O383  1  0.505180  0.010370  0.170130  1.0  -0.7927
  O  O384  1  0.440780  0.881570  0.145060  1.0  -0.8448
  O  O385  1  0.171850  0.828150  0.503460  1.0  -0.7925
  O  O386  1  0.107450  0.892550  0.478390  1.0  -0.843
  O  O387  1  0.838520  0.161480  0.836790  1.0  -0.7925
  O  O388  1  0.774120  0.225880  0.811720  1.0  -0.843
  O  O389  1  0.505180  0.494820  0.170130  1.0  -0.7925
  O  O390  1  0.440780  0.559220  0.145060  1.0  -0.843
  O  O391  1  0.656300  0.828150  0.503460  1.0  -0.7906
  O  O392  1  0.785100  0.892550  0.478390  1.0  -0.841
  O  O393  1  0.322970  0.161480  0.836790  1.0  -0.7906
  O  O394  1  0.451770  0.225880  0.811720  1.0  -0.841
  O  O395  1  0.989630  0.494820  0.170130  1.0  -0.7906
  O  O396  1  0.118430  0.559220  0.145060  1.0  -0.841
