# generated using pymatgen
data_FeHC4O3
_symmetry_space_group_name_H-M   'P 1'
_cell_length_a   6.91070000
_cell_length_b   15.24510000
_cell_length_c   15.24510000
_cell_angle_alpha   62.24110000
_cell_angle_beta   81.30920000
_cell_angle_gamma   98.69080000
_symmetry_Int_Tables_number   1
_chemical_formula_structural   FeHC4O3
_chemical_formula_sum   'Fe6 H6 C24 O18'
_cell_volume   1359.19762627
_cell_formula_units_Z   6
loop_
 _symmetry_equiv_pos_site_id
 _symmetry_equiv_pos_as_xyz
  1  'x, y, z'
loop_
 _atom_site_type_symbol
 _atom_site_label
 _atom_site_symmetry_multiplicity
 _atom_site_fract_x
 _atom_site_fract_y
 _atom_site_fract_z
 _atom_site_occupancy
 _atom_site_charge
  Fe  Fe1  1  0.889200  0.679200  0.587700  1.0  0.9793
  Fe  Fe2  1  0.476900  0.587700  0.733100  1.0  0.9765
  Fe  Fe3  1  0.210000  0.733100  0.679200  1.0  0.9768
  Fe  Fe4  1  0.110800  0.320800  0.412300  1.0  0.9772
  Fe  Fe5  1  0.523100  0.412300  0.266900  1.0  0.9762
  Fe  Fe6  1  0.790000  0.266900  0.320800  1.0  0.9769
  H  H7  1  0.648200  0.030700  0.538100  1.0  0.1222
  H  H8  1  0.186300  0.538100  0.431200  1.0  0.1199
  H  H9  1  0.617500  0.431200  0.030700  1.0  0.1228
  H  H10  1  0.351800  0.969300  0.461900  1.0  0.1225
  H  H11  1  0.813700  0.461900  0.568800  1.0  0.1197
  H  H12  1  0.382500  0.568800  0.969300  1.0  0.1232
  C  C13  1  0.623600  0.825100  0.619300  1.0  0.7781
  C  C14  1  0.841300  0.912100  0.551200  1.0  -0.2465
  C  C15  1  0.035500  0.900900  0.536400  1.0  0.3741
  C  C16  1  0.798900  0.005900  0.526200  1.0  -0.1873
  C  C17  1  0.242900  0.619300  0.555600  1.0  0.7795
  C  C18  1  0.392500  0.551200  0.536700  1.0  -0.2466
  C  C19  1  0.571900  0.536400  0.562700  1.0  0.3746
  C  C20  1  0.325100  0.526200  0.467900  1.0  -0.1862
  C  C21  1  0.798500  0.555600  0.825100  1.0  0.7777
  C  C22  1  0.929200  0.536700  0.912100  1.0  -0.2466
  C  C23  1  0.134600  0.562700  0.900900  1.0  0.3749
  C  C24  1  0.793000  0.467900  0.005900  1.0  -0.1913
  C  C25  1  0.376400  0.174900  0.380700  1.0  0.7759
  C  C26  1  0.158700  0.087900  0.448800  1.0  -0.2466
  C  C27  1  0.964500  0.099100  0.463600  1.0  0.3742
  C  C28  1  0.201100  0.994100  0.473800  1.0  -0.1917
  C  C29  1  0.757100  0.380700  0.444400  1.0  0.7772
  C  C30  1  0.607500  0.448800  0.463300  1.0  -0.2469
  C  C31  1  0.428100  0.463600  0.437300  1.0  0.3745
  C  C32  1  0.674900  0.473800  0.532100  1.0  -0.1919
  C  C33  1  0.201500  0.444400  0.174900  1.0  0.7763
  C  C34  1  0.070800  0.463300  0.087900  1.0  -0.2472
  C  C35  1  0.865400  0.437300  0.099100  1.0  0.3752
  C  C36  1  0.207000  0.532100  0.994100  1.0  -0.1945
  O  O37  1  0.680000  0.747700  0.648700  1.0  -0.6557
  O  O38  1  0.471600  0.838900  0.630100  1.0  -0.5274
  O  O39  1  0.072200  0.812500  0.562900  1.0  -0.6304
  O  O40  1  0.328700  0.648700  0.603600  1.0  -0.6578
  O  O41  1  0.101700  0.630100  0.531000  1.0  -0.5271
  O  O42  1  0.635100  0.562900  0.624600  1.0  -0.6289
  O  O43  1  0.932300  0.603600  0.747700  1.0  -0.6562
  O  O44  1  0.632700  0.531000  0.838900  1.0  -0.5274
  O  O45  1  0.259700  0.624600  0.812500  1.0  -0.6292
  O  O46  1  0.320000  0.252300  0.351300  1.0  -0.6564
  O  O47  1  0.528400  0.161100  0.369900  1.0  -0.5281
  O  O48  1  0.927800  0.187500  0.437100  1.0  -0.6289
  O  O49  1  0.671300  0.351300  0.396400  1.0  -0.6586
  O  O50  1  0.898300  0.369900  0.469000  1.0  -0.5272
  O  O51  1  0.364900  0.437100  0.375400  1.0  -0.6277
  O  O52  1  0.067700  0.396400  0.252300  1.0  -0.6565
  O  O53  1  0.367300  0.469000  0.161100  1.0  -0.5289
  O  O54  1  0.740300  0.375400  0.187500  1.0  -0.6298
