# generated using pymatgen
data_FeHC4O3
_symmetry_space_group_name_H-M   'P 1'
_cell_length_a   6.82090000
_cell_length_b   15.16460000
_cell_length_c   15.16460000
_cell_angle_alpha   62.20680000
_cell_angle_beta   81.37720000
_cell_angle_gamma   98.62280000
_symmetry_Int_Tables_number   1
_chemical_formula_structural   FeHC4O3
_chemical_formula_sum   'Fe6 H6 C24 O18'
_cell_volume   1327.88541557
_cell_formula_units_Z   6
loop_
 _symmetry_equiv_pos_site_id
 _symmetry_equiv_pos_as_xyz
  1  'x, y, z'
loop_
 _atom_site_type_symbol
 _atom_site_label
 _atom_site_symmetry_multiplicity
 _atom_site_fract_x
 _atom_site_fract_y
 _atom_site_fract_z
 _atom_site_occupancy
 _atom_site_charge
  Fe  Fe1  1  0.895100  0.686500  0.586600  1.0  0.9957
  Fe  Fe2  1  0.481700  0.586600  0.726900  1.0  0.9935
  Fe  Fe3  1  0.208600  0.726900  0.686500  1.0  0.9935
  Fe  Fe4  1  0.104900  0.313500  0.413400  1.0  0.9945
  Fe  Fe5  1  0.518300  0.413400  0.273100  1.0  0.991
  Fe  Fe6  1  0.791400  0.273100  0.313500  1.0  0.9962
  H  H7  1  0.623300  0.010300  0.547400  1.0  0.1478
  H  H8  1  0.170700  0.547400  0.442300  1.0  0.1464
  H  H9  1  0.613000  0.442300  0.010300  1.0  0.1466
  H  H10  1  0.376700  0.989700  0.452600  1.0  0.1468
  H  H11  1  0.829300  0.452600  0.557700  1.0  0.1473
  H  H12  1  0.387000  0.557700  0.989700  1.0  0.1475
  C  C13  1  0.658500  0.822000  0.615300  1.0  0.6049
  C  C14  1  0.840200  0.912500  0.539000  1.0  -0.1976
  C  C15  1  0.046300  0.899100  0.528900  1.0  0.3704
  C  C16  1  0.805800  0.000500  0.536100  1.0  -0.1529
  C  C17  1  0.273800  0.615300  0.562700  1.0  0.606
  C  C18  1  0.379200  0.539000  0.548500  1.0  -0.1957
  C  C19  1  0.575200  0.528900  0.572000  1.0  0.3734
  C  C20  1  0.341900  0.536100  0.463400  1.0  -0.1872
  C  C21  1  0.836500  0.562700  0.822000  1.0  0.6074
  C  C22  1  0.927700  0.548500  0.912500  1.0  -0.1955
  C  C23  1  0.147200  0.572000  0.899100  1.0  0.371
  C  C24  1  0.805300  0.463400  0.000500  1.0  -0.208
  C  C25  1  0.341500  0.178000  0.384700  1.0  0.6052
  C  C26  1  0.159800  0.087500  0.461000  1.0  -0.1963
  C  C27  1  0.953700  0.100900  0.471100  1.0  0.3697
  C  C28  1  0.194200  0.999500  0.463900  1.0  -0.1498
  C  C29  1  0.726200  0.384700  0.437300  1.0  0.6054
  C  C30  1  0.620800  0.461000  0.451500  1.0  -0.1964
  C  C31  1  0.424800  0.471100  0.428000  1.0  0.3724
  C  C32  1  0.658100  0.463900  0.536600  1.0  -0.1873
  C  C33  1  0.163500  0.437300  0.178000  1.0  0.6069
  C  C34  1  0.072300  0.451500  0.087500  1.0  -0.1958
  C  C35  1  0.852800  0.428000  0.100900  1.0  0.3701
  C  C36  1  0.194700  0.536600  0.999500  1.0  -0.2063
  O  O37  1  0.669900  0.730900  0.643600  1.0  -0.5693
  O  O38  1  0.476300  0.861200  0.607700  1.0  -0.5861
  O  O39  1  0.079000  0.809800  0.568600  1.0  -0.5853
  O  O40  1  0.313500  0.643600  0.625500  1.0  -0.568
  O  O41  1  0.084000  0.607700  0.531100  1.0  -0.5859
  O  O42  1  0.647600  0.568600  0.621600  1.0  -0.5849
  O  O43  1  0.939000  0.625500  0.730900  1.0  -0.5684
  O  O44  1  0.615100  0.531100  0.861200  1.0  -0.585
  O  O45  1  0.269200  0.621600  0.809800  1.0  -0.5861
  O  O46  1  0.330100  0.269100  0.356400  1.0  -0.5676
  O  O47  1  0.523700  0.138800  0.392300  1.0  -0.5857
  O  O48  1  0.921000  0.190200  0.431400  1.0  -0.5855
  O  O49  1  0.686500  0.356400  0.374500  1.0  -0.5679
  O  O50  1  0.916000  0.392300  0.468900  1.0  -0.5867
  O  O51  1  0.352400  0.431400  0.378400  1.0  -0.5863
  O  O52  1  0.061000  0.374500  0.269100  1.0  -0.5686
  O  O53  1  0.384900  0.468900  0.138800  1.0  -0.5865
  O  O54  1  0.730800  0.378400  0.190200  1.0  -0.5869
