# generated using pymatgen
data_FeHC4O3
_symmetry_space_group_name_H-M   'P 1'
_cell_length_a   6.89450000
_cell_length_b   15.24030000
_cell_length_c   15.24030000
_cell_angle_alpha   62.23210000
_cell_angle_beta   81.32700000
_cell_angle_gamma   98.67300000
_symmetry_Int_Tables_number   1
_chemical_formula_structural   FeHC4O3
_chemical_formula_sum   'Fe6 H6 C24 O18'
_cell_volume   1355.28629753
_cell_formula_units_Z   6
loop_
 _symmetry_equiv_pos_site_id
 _symmetry_equiv_pos_as_xyz
  1  'x, y, z'
loop_
 _atom_site_type_symbol
 _atom_site_label
 _atom_site_symmetry_multiplicity
 _atom_site_fract_x
 _atom_site_fract_y
 _atom_site_fract_z
 _atom_site_occupancy
 _atom_site_charge
  Fe  Fe1  1  0.889000  0.679200  0.587400  1.0  0.9677
  Fe  Fe2  1  0.476400  0.587400  0.733400  1.0  0.9683
  Fe  Fe3  1  0.209800  0.733400  0.679200  1.0  0.9664
  Fe  Fe4  1  0.111000  0.320800  0.412600  1.0  0.9671
  Fe  Fe5  1  0.523600  0.412600  0.266600  1.0  0.9672
  Fe  Fe6  1  0.790200  0.266600  0.320800  1.0  0.9658
  H  H7  1  0.658300  0.030700  0.537800  1.0  0.1386
  H  H8  1  0.196100  0.537800  0.431500  1.0  0.1383
  H  H9  1  0.627600  0.431500  0.030700  1.0  0.1385
  H  H10  1  0.341700  0.969300  0.462200  1.0  0.1391
  H  H11  1  0.803900  0.462200  0.568500  1.0  0.1397
  H  H12  1  0.372400  0.568500  0.969300  1.0  0.1396
  C  C13  1  0.628600  0.829200  0.617400  1.0  0.8045
  C  C14  1  0.838100  0.910600  0.551200  1.0  -0.2507
  C  C15  1  0.045800  0.900800  0.535400  1.0  0.376
  C  C16  1  0.797600  0.003300  0.527500  1.0  -0.2413
  C  C17  1  0.246000  0.617400  0.553400  1.0  0.8046
  C  C18  1  0.389300  0.551200  0.538200  1.0  -0.2515
  C  C19  1  0.581200  0.535400  0.563800  1.0  0.3759
  C  C20  1  0.325100  0.527500  0.469200  1.0  -0.2412
  C  C21  1  0.799400  0.553400  0.829200  1.0  0.8037
  C  C22  1  0.927500  0.538200  0.910600  1.0  -0.2501
  C  C23  1  0.145000  0.563800  0.900800  1.0  0.3767
  C  C24  1  0.794300  0.469200  0.003300  1.0  -0.2392
  C  C25  1  0.371400  0.170800  0.382600  1.0  0.8026
  C  C26  1  0.161900  0.089400  0.448800  1.0  -0.2509
  C  C27  1  0.954200  0.099200  0.464600  1.0  0.3749
  C  C28  1  0.202400  0.996700  0.472500  1.0  -0.2365
  C  C29  1  0.754000  0.382600  0.446600  1.0  0.8041
  C  C30  1  0.610700  0.448800  0.461800  1.0  -0.251
  C  C31  1  0.418800  0.464600  0.436200  1.0  0.3761
  C  C32  1  0.674900  0.472500  0.530800  1.0  -0.2354
  C  C33  1  0.200600  0.446600  0.170800  1.0  0.804
  C  C34  1  0.072500  0.461800  0.089400  1.0  -0.2509
  C  C35  1  0.855000  0.436200  0.099200  1.0  0.3788
  C  C36  1  0.205700  0.530800  0.996700  1.0  -0.2337
  O  O37  1  0.668000  0.748500  0.646500  1.0  -0.66
  O  O38  1  0.473600  0.844800  0.624000  1.0  -0.5511
  O  O39  1  0.077000  0.817000  0.556000  1.0  -0.5854
  O  O40  1  0.314500  0.646500  0.605000  1.0  -0.6602
  O  O41  1  0.097600  0.624000  0.531200  1.0  -0.5508
  O  O42  1  0.633000  0.556000  0.627000  1.0  -0.5836
  O  O43  1  0.919500  0.605000  0.748500  1.0  -0.6618
  O  O44  1  0.628800  0.531200  0.844800  1.0  -0.5515
  O  O45  1  0.260000  0.627000  0.817000  1.0  -0.5861
  O  O46  1  0.332000  0.251500  0.353500  1.0  -0.6609
  O  O47  1  0.526400  0.155200  0.376000  1.0  -0.5523
  O  O48  1  0.923000  0.183000  0.444000  1.0  -0.5853
  O  O49  1  0.685500  0.353500  0.395000  1.0  -0.6611
  O  O50  1  0.902400  0.376000  0.468800  1.0  -0.552
  O  O51  1  0.367000  0.444000  0.373000  1.0  -0.5847
  O  O52  1  0.080500  0.395000  0.251500  1.0  -0.6611
  O  O53  1  0.371200  0.468800  0.155200  1.0  -0.5528
  O  O54  1  0.740000  0.373000  0.183000  1.0  -0.5854
