# generated using pymatgen
data_FeHC4O3
_symmetry_space_group_name_H-M   'P 1'
_cell_length_a   6.84300000
_cell_length_b   15.15900000
_cell_length_c   15.15900000
_cell_angle_alpha   62.22260000
_cell_angle_beta   81.34580000
_cell_angle_gamma   98.65420000
_symmetry_Int_Tables_number   1
_chemical_formula_structural   FeHC4O3
_chemical_formula_sum   'Fe6 H6 C24 O18'
_cell_volume   1330.98228790
_cell_formula_units_Z   6
loop_
 _symmetry_equiv_pos_site_id
 _symmetry_equiv_pos_as_xyz
  1  'x, y, z'
loop_
 _atom_site_type_symbol
 _atom_site_label
 _atom_site_symmetry_multiplicity
 _atom_site_fract_x
 _atom_site_fract_y
 _atom_site_fract_z
 _atom_site_occupancy
 _atom_site_charge
  Fe  Fe1  1  0.891900  0.684900  0.586200  1.0  1.0244
  Fe  Fe2  1  0.478100  0.586200  0.728900  1.0  1.0237
  Fe  Fe3  1  0.207000  0.728900  0.684900  1.0  1.0216
  Fe  Fe4  1  0.108100  0.315100  0.413800  1.0  1.0242
  Fe  Fe5  1  0.521900  0.413800  0.271100  1.0  1.0229
  Fe  Fe6  1  0.793000  0.271100  0.315100  1.0  1.0247
  H  H7  1  0.646500  0.018600  0.538000  1.0  0.1497
  H  H8  1  0.184500  0.538000  0.443400  1.0  0.1491
  H  H9  1  0.627900  0.443400  0.018600  1.0  0.1492
  H  H10  1  0.353500  0.981400  0.462000  1.0  0.1497
  H  H11  1  0.815500  0.462000  0.556600  1.0  0.1494
  H  H12  1  0.372100  0.556600  0.981400  1.0  0.1492
  C  C13  1  0.663400  0.822100  0.615700  1.0  0.6232
  C  C14  1  0.831500  0.912400  0.542800  1.0  -0.221
  C  C15  1  0.033200  0.896800  0.535300  1.0  0.3533
  C  C16  1  0.804700  0.008000  0.522900  1.0  -0.1703
  C  C17  1  0.279100  0.615700  0.562200  1.0  0.6233
  C  C18  1  0.374300  0.542800  0.544800  1.0  -0.2197
  C  C19  1  0.568500  0.535300  0.567900  1.0  0.3559
  C  C20  1  0.327600  0.522900  0.469100  1.0  -0.1835
  C  C21  1  0.841300  0.562200  0.822100  1.0  0.626
  C  C22  1  0.919100  0.544800  0.912400  1.0  -0.22
  C  C23  1  0.136400  0.567900  0.896800  1.0  0.3541
  C  C24  1  0.796700  0.469100  0.008000  1.0  -0.1772
  C  C25  1  0.336600  0.177900  0.384300  1.0  0.6228
  C  C26  1  0.168500  0.087600  0.457200  1.0  -0.2203
  C  C27  1  0.966800  0.103200  0.464700  1.0  0.3549
  C  C28  1  0.195300  0.992000  0.477100  1.0  -0.1692
  C  C29  1  0.720900  0.384300  0.437800  1.0  0.6237
  C  C30  1  0.625700  0.457200  0.455200  1.0  -0.2197
  C  C31  1  0.431500  0.464700  0.432100  1.0  0.355
  C  C32  1  0.672400  0.477100  0.530900  1.0  -0.1799
  C  C33  1  0.158700  0.437800  0.177900  1.0  0.6233
  C  C34  1  0.080900  0.455200  0.087600  1.0  -0.2205
  C  C35  1  0.863600  0.432100  0.103200  1.0  0.3543
  C  C36  1  0.203300  0.530900  0.992000  1.0  -0.1753
  O  O37  1  0.679600  0.728700  0.648000  1.0  -0.5721
  O  O38  1  0.479100  0.858300  0.616500  1.0  -0.5986
  O  O39  1  0.071000  0.808600  0.568600  1.0  -0.5871
  O  O40  1  0.327600  0.648000  0.623300  1.0  -0.5714
  O  O41  1  0.095600  0.616500  0.525200  1.0  -0.5968
  O  O42  1  0.639600  0.568600  0.622800  1.0  -0.5866
  O  O43  1  0.950900  0.623300  0.728700  1.0  -0.5705
  O  O44  1  0.620800  0.525200  0.858300  1.0  -0.5982
  O  O45  1  0.262400  0.622800  0.808600  1.0  -0.5873
  O  O46  1  0.320400  0.271300  0.352000  1.0  -0.5703
  O  O47  1  0.520900  0.141700  0.383500  1.0  -0.5966
  O  O48  1  0.929000  0.191400  0.431400  1.0  -0.5872
  O  O49  1  0.672400  0.352000  0.376700  1.0  -0.571
  O  O50  1  0.904400  0.383500  0.474800  1.0  -0.5968
  O  O51  1  0.360400  0.431400  0.377200  1.0  -0.5864
  O  O52  1  0.049100  0.376700  0.271300  1.0  -0.571
  O  O53  1  0.379200  0.474800  0.141700  1.0  -0.5967
  O  O54  1  0.737600  0.377200  0.191400  1.0  -0.5868
