# generated using pymatgen
data_FeHC4O3
_symmetry_space_group_name_H-M   'P 1'
_cell_length_a   6.83760000
_cell_length_b   15.16100000
_cell_length_c   15.16100000
_cell_angle_alpha   62.21860000
_cell_angle_beta   81.35370000
_cell_angle_gamma   98.64630000
_symmetry_Int_Tables_number   1
_chemical_formula_structural   FeHC4O3
_chemical_formula_sum   'Fe6 H6 C24 O18'
_cell_volume   1330.33849715
_cell_formula_units_Z   6
loop_
 _symmetry_equiv_pos_site_id
 _symmetry_equiv_pos_as_xyz
  1  'x, y, z'
loop_
 _atom_site_type_symbol
 _atom_site_label
 _atom_site_symmetry_multiplicity
 _atom_site_fract_x
 _atom_site_fract_y
 _atom_site_fract_z
 _atom_site_occupancy
 _atom_site_charge
  Fe  Fe1  1  0.897900  0.685200  0.585900  1.0  1.0221
  Fe  Fe2  1  0.483800  0.585900  0.728900  1.0  1.0205
  Fe  Fe3  1  0.212700  0.728900  0.685200  1.0  1.0213
  Fe  Fe4  1  0.102100  0.314800  0.414100  1.0  1.0193
  Fe  Fe5  1  0.516200  0.414100  0.271100  1.0  1.0207
  Fe  Fe6  1  0.787300  0.271100  0.314800  1.0  1.023
  H  H7  1  0.653900  0.019500  0.540400  1.0  0.1353
  H  H8  1  0.194300  0.540400  0.440100  1.0  0.1393
  H  H9  1  0.634400  0.440100  0.019500  1.0  0.1394
  H  H10  1  0.346100  0.980500  0.459600  1.0  0.1366
  H  H11  1  0.805700  0.459600  0.559900  1.0  0.1398
  H  H12  1  0.365600  0.559900  0.980500  1.0  0.14
  C  C13  1  0.658900  0.820800  0.618000  1.0  0.6018
  C  C14  1  0.831900  0.909700  0.546400  1.0  -0.1916
  C  C15  1  0.037700  0.897200  0.534800  1.0  0.3359
  C  C16  1  0.811100  0.004000  0.527000  1.0  -0.182
  C  C17  1  0.276900  0.618000  0.561200  1.0  0.6003
  C  C18  1  0.378300  0.546400  0.543900  1.0  -0.1925
  C  C19  1  0.572500  0.534800  0.568000  1.0  0.3376
  C  C20  1  0.338100  0.527000  0.469000  1.0  -0.1892
  C  C21  1  0.838100  0.561200  0.820800  1.0  0.6032
  C  C22  1  0.922200  0.543900  0.909700  1.0  -0.1927
  C  C23  1  0.140500  0.568000  0.897200  1.0  0.3364
  C  C24  1  0.807100  0.469000  0.004000  1.0  -0.1804
  C  C25  1  0.341100  0.179200  0.382000  1.0  0.6005
  C  C26  1  0.168100  0.090300  0.453600  1.0  -0.1912
  C  C27  1  0.962300  0.102800  0.465200  1.0  0.3364
  C  C28  1  0.188900  0.996000  0.473000  1.0  -0.1695
  C  C29  1  0.723100  0.382000  0.438800  1.0  0.6026
  C  C30  1  0.621700  0.453600  0.456100  1.0  -0.1916
  C  C31  1  0.427500  0.465200  0.432000  1.0  0.3379
  C  C32  1  0.661900  0.473000  0.531000  1.0  -0.1741
  C  C33  1  0.161900  0.438800  0.179200  1.0  0.6019
  C  C34  1  0.077800  0.456100  0.090300  1.0  -0.1924
  C  C35  1  0.859500  0.432000  0.102800  1.0  0.3357
  C  C36  1  0.192900  0.531000  0.996000  1.0  -0.1663
  O  O37  1  0.678500  0.728400  0.644400  1.0  -0.5719
  O  O38  1  0.480400  0.862600  0.613900  1.0  -0.5722
  O  O39  1  0.079700  0.809000  0.565700  1.0  -0.5869
  O  O40  1  0.322900  0.644400  0.627200  1.0  -0.5715
  O  O41  1  0.094300  0.613900  0.523500  1.0  -0.5729
  O  O42  1  0.645400  0.565700  0.625300  1.0  -0.586
  O  O43  1  0.950100  0.627200  0.728400  1.0  -0.5716
  O  O44  1  0.617800  0.523500  0.862600  1.0  -0.5726
  O  O45  1  0.270700  0.625300  0.809000  1.0  -0.5859
  O  O46  1  0.321500  0.271600  0.355600  1.0  -0.5706
  O  O47  1  0.519600  0.137400  0.386100  1.0  -0.5707
  O  O48  1  0.920300  0.191000  0.434300  1.0  -0.5862
  O  O49  1  0.677100  0.355600  0.372800  1.0  -0.571
  O  O50  1  0.905700  0.386100  0.476500  1.0  -0.5713
  O  O51  1  0.354600  0.434300  0.374700  1.0  -0.585
  O  O52  1  0.049900  0.372800  0.271600  1.0  -0.5718
  O  O53  1  0.382200  0.476500  0.137400  1.0  -0.5698
  O  O54  1  0.729300  0.374700  0.191000  1.0  -0.5863
