# generated using pymatgen
data_FeHC4O3
_symmetry_space_group_name_H-M   'P 1'
_cell_length_a   6.85380000
_cell_length_b   15.15760000
_cell_length_c   15.15760000
_cell_angle_alpha   62.23000000
_cell_angle_beta   81.33110000
_cell_angle_gamma   98.66890000
_symmetry_Int_Tables_number   1
_chemical_formula_structural   FeHC4O3
_chemical_formula_sum   'Fe6 H6 C24 O18'
_cell_volume   1332.73222947
_cell_formula_units_Z   6
loop_
 _symmetry_equiv_pos_site_id
 _symmetry_equiv_pos_as_xyz
  1  'x, y, z'
loop_
 _atom_site_type_symbol
 _atom_site_label
 _atom_site_symmetry_multiplicity
 _atom_site_fract_x
 _atom_site_fract_y
 _atom_site_fract_z
 _atom_site_occupancy
 _atom_site_charge
  Fe  Fe1  1  0.888100  0.684000  0.588000  1.0  1.0477
  Fe  Fe2  1  0.476100  0.588000  0.728000  1.0  1.0476
  Fe  Fe3  1  0.204100  0.728000  0.684000  1.0  1.0481
  Fe  Fe4  1  0.111900  0.316000  0.412000  1.0  1.0484
  Fe  Fe5  1  0.523900  0.412000  0.272000  1.0  1.0485
  Fe  Fe6  1  0.795900  0.272000  0.316000  1.0  1.0484
  H  H7  1  0.640900  0.019800  0.541900  1.0  0.1384
  H  H8  1  0.182800  0.541900  0.438300  1.0  0.1482
  H  H9  1  0.621100  0.438300  0.019800  1.0  0.1494
  H  H10  1  0.359100  0.980200  0.458100  1.0  0.1388
  H  H11  1  0.817200  0.458100  0.561700  1.0  0.1476
  H  H12  1  0.378900  0.561700  0.980200  1.0  0.1496
  C  C13  1  0.671900  0.827900  0.611900  1.0  0.6439
  C  C14  1  0.837200  0.920500  0.545200  1.0  -0.2203
  C  C15  1  0.028100  0.894100  0.534400  1.0  0.3471
  C  C16  1  0.802800  0.014300  0.522000  1.0  -0.1557
  C  C17  1  0.283800  0.611900  0.560200  1.0  0.6438
  C  C18  1  0.382400  0.545200  0.534300  1.0  -0.2204
  C  C19  1  0.562500  0.534400  0.571500  1.0  0.3498
  C  C20  1  0.324800  0.522000  0.463700  1.0  -0.1596
  C  C21  1  0.844000  0.560200  0.827900  1.0  0.6463
  C  C22  1  0.916700  0.534300  0.920500  1.0  -0.2196
  C  C23  1  0.134000  0.571500  0.894100  1.0  0.3482
  C  C24  1  0.788500  0.463700  0.014300  1.0  -0.1562
  C  C25  1  0.328100  0.172100  0.388100  1.0  0.6442
  C  C26  1  0.162800  0.079500  0.454800  1.0  -0.2207
  C  C27  1  0.971900  0.105900  0.465600  1.0  0.3479
  C  C28  1  0.197200  0.985700  0.478000  1.0  -0.1538
  C  C29  1  0.716200  0.388100  0.439800  1.0  0.6449
  C  C30  1  0.617600  0.454800  0.465700  1.0  -0.2212
  C  C31  1  0.437500  0.465600  0.428500  1.0  0.3498
  C  C32  1  0.675200  0.478000  0.536300  1.0  -0.1585
  C  C33  1  0.156000  0.439800  0.172100  1.0  0.6459
  C  C34  1  0.083300  0.465700  0.079500  1.0  -0.2209
  C  C35  1  0.866000  0.428500  0.105900  1.0  0.3474
  C  C36  1  0.211500  0.536300  0.985700  1.0  -0.1548
  O  O37  1  0.680800  0.733600  0.645700  1.0  -0.5907
  O  O38  1  0.475300  0.851500  0.619600  1.0  -0.6267
  O  O39  1  0.069000  0.807200  0.569600  1.0  -0.5903
  O  O40  1  0.326500  0.645700  0.620700  1.0  -0.5903
  O  O41  1  0.094900  0.619600  0.528900  1.0  -0.6317
  O  O42  1  0.638600  0.569600  0.623200  1.0  -0.591
  O  O43  1  0.947200  0.620700  0.733600  1.0  -0.5894
  O  O44  1  0.623800  0.528900  0.851500  1.0  -0.6276
  O  O45  1  0.261800  0.623200  0.807200  1.0  -0.5901
  O  O46  1  0.319200  0.266400  0.354300  1.0  -0.5892
  O  O47  1  0.524700  0.148500  0.380400  1.0  -0.6281
  O  O48  1  0.931000  0.192800  0.430400  1.0  -0.5916
  O  O49  1  0.673500  0.354300  0.379300  1.0  -0.5895
  O  O50  1  0.905100  0.380400  0.471100  1.0  -0.6336
  O  O51  1  0.361400  0.430400  0.376800  1.0  -0.5901
  O  O52  1  0.052800  0.379300  0.266400  1.0  -0.59
  O  O53  1  0.376200  0.471100  0.148500  1.0  -0.6276
  O  O54  1  0.738200  0.376800  0.192800  1.0  -0.5908
