# generated using pymatgen
data_Ni4H22C33N5O14
_symmetry_space_group_name_H-M   'P 1'
_cell_length_a   13.09890000
_cell_length_b   18.44440000
_cell_length_c   22.05040000
_cell_angle_alpha   90.00000000
_cell_angle_beta   103.20200000
_cell_angle_gamma   90.00000000
_symmetry_Int_Tables_number   1
_chemical_formula_structural   Ni4H22C33N5O14
_chemical_formula_sum   'Ni16 H88 C132 N20 O56'
_cell_volume   5186.60804316
_cell_formula_units_Z   4
loop_
 _symmetry_equiv_pos_site_id
 _symmetry_equiv_pos_as_xyz
  1  'x, y, z'
loop_
 _atom_site_type_symbol
 _atom_site_label
 _atom_site_symmetry_multiplicity
 _atom_site_fract_x
 _atom_site_fract_y
 _atom_site_fract_z
 _atom_site_occupancy
 _atom_site_charge
  Ni  Ni1  1  0.715870  0.782740  0.875110  1.0  0.8944
  Ni  Ni2  1  0.612610  0.140780  0.128780  1.0  1.0167
  Ni  Ni3  1  0.514670  0.731540  0.784260  1.0  0.9729
  Ni  Ni4  1  0.989160  0.389420  0.732870  1.0  0.9618
  Ni  Ni5  1  0.784130  0.282740  0.624890  1.0  0.8956
  Ni  Ni6  1  0.887390  0.640780  0.371220  1.0  1.0197
  Ni  Ni7  1  0.985330  0.231540  0.715740  1.0  0.9729
  Ni  Ni8  1  0.510840  0.889420  0.767130  1.0  0.9613
  Ni  Ni9  1  0.284130  0.217260  0.124890  1.0  0.8954
  Ni  Ni10  1  0.387390  0.859220  0.871220  1.0  1.0226
  Ni  Ni11  1  0.485330  0.268460  0.215740  1.0  0.9726
  Ni  Ni12  1  0.010840  0.610580  0.267130  1.0  0.9624
  Ni  Ni13  1  0.215870  0.717260  0.375110  1.0  0.894
  Ni  Ni14  1  0.112610  0.359220  0.628780  1.0  1.0191
  Ni  Ni15  1  0.014670  0.768460  0.284260  1.0  0.9731
  Ni  Ni16  1  0.489160  0.110580  0.232870  1.0  0.9631
  H  H17  1  0.997000  0.501200  0.828000  1.0  0.0846
  H  H18  1  0.906600  0.598400  0.854800  1.0  0.1274
  H  H19  1  0.663100  0.542100  0.714700  1.0  0.12
  H  H20  1  0.764300  0.449400  0.689400  1.0  0.0799
  H  H21  1  0.811400  0.818700  0.330400  1.0  0.0816
  H  H22  1  0.687000  0.909700  0.307300  1.0  0.1322
  H  H23  1  0.852800  0.996400  0.191800  1.0  0.1141
  H  H24  1  0.974300  0.904700  0.218800  1.0  0.0938
  H  H25  1  0.504700  0.126400  0.987200  1.0  0.0869
  H  H26  1  0.498700  0.044300  0.906300  1.0  0.1357
  H  H27  1  0.760400  0.950600  0.009300  1.0  0.1275
  H  H28  1  0.757800  0.034800  0.086600  1.0  0.0812
  H  H29  1  0.886200  0.676700  0.945600  1.0  0.09
  H  H30  1  0.960600  0.640900  0.046900  1.0  0.1196
  H  H31  1  0.797200  0.796900  0.109600  1.0  0.1211
  H  H32  1  0.708600  0.818900  0.007600  1.0  0.0895
  H  H33  1  0.825700  0.784400  0.768100  1.0  0.0837
  H  H34  1  0.990000  0.788000  0.746000  1.0  0.1376
  H  H35  1  0.103800  0.850500  0.922600  1.0  0.1184
  H  H36  1  0.934900  0.857800  0.936500  1.0  0.0891
  H  H37  1  0.636000  0.191000  0.234000  1.0  0.4454
  H  H38  1  0.651000  0.810000  0.771000  1.0  0.4505
  H  H39  1  0.503000  0.001200  0.672000  1.0  0.085
  H  H40  1  0.593400  0.098400  0.645200  1.0  0.1271
  H  H41  1  0.836900  0.042100  0.785300  1.0  0.1205
  H  H42  1  0.735700  0.949400  0.810600  1.0  0.079
  H  H43  1  0.688600  0.318700  0.169600  1.0  0.0808
  H  H44  1  0.813000  0.409700  0.192700  1.0  0.1321
  H  H45  1  0.647200  0.496400  0.308200  1.0  0.1134
  H  H46  1  0.525700  0.404700  0.281200  1.0  0.094
  H  H47  1  0.995300  0.626400  0.512800  1.0  0.0871
  H  H48  1  0.001300  0.544300  0.593700  1.0  0.1355
  H  H49  1  0.739600  0.450600  0.490700  1.0  0.1265
  H  H50  1  0.742200  0.534800  0.413400  1.0  0.0815
  H  H51  1  0.613800  0.176700  0.554400  1.0  0.0904
  H  H52  1  0.539400  0.140900  0.453100  1.0  0.1192
  H  H53  1  0.702800  0.296900  0.390400  1.0  0.1204
  H  H54  1  0.791400  0.318900  0.492400  1.0  0.0897
  H  H55  1  0.674300  0.284400  0.731900  1.0  0.0841
  H  H56  1  0.510000  0.288000  0.754000  1.0  0.1366
  H  H57  1  0.396200  0.350500  0.577400  1.0  0.1186
  H  H58  1  0.565100  0.357800  0.563500  1.0  0.0903
  H  H59  1  0.864000  0.691000  0.266000  1.0  0.4471
  H  H60  1  0.849000  0.310000  0.729000  1.0  0.4532
  H  H61  1  0.003000  0.498800  0.172000  1.0  0.085
  H  H62  1  0.093400  0.401600  0.145200  1.0  0.1271
  H  H63  1  0.336900  0.457900  0.285300  1.0  0.121
  H  H64  1  0.235700  0.550600  0.310600  1.0  0.0792
  H  H65  1  0.188600  0.181300  0.669600  1.0  0.081
  H  H66  1  0.313000  0.090300  0.692700  1.0  0.1322
  H  H67  1  0.147200  0.003600  0.808200  1.0  0.1137
  H  H68  1  0.025700  0.095300  0.781200  1.0  0.0943
  H  H69  1  0.495300  0.873600  0.012800  1.0  0.0875
  H  H70  1  0.501300  0.955700  0.093700  1.0  0.1362
  H  H71  1  0.239600  0.049400  0.990700  1.0  0.1265
  H  H72  1  0.242200  0.965200  0.913400  1.0  0.0818
  H  H73  1  0.113800  0.323300  0.054400  1.0  0.0899
  H  H74  1  0.039400  0.359100  0.953100  1.0  0.1198
  H  H75  1  0.202800  0.203100  0.890400  1.0  0.1205
  H  H76  1  0.291400  0.181100  0.992400  1.0  0.0901
  H  H77  1  0.174300  0.215600  0.231900  1.0  0.0839
  H  H78  1  0.010000  0.212000  0.254000  1.0  0.1364
  H  H79  1  0.896200  0.149500  0.077400  1.0  0.1183
  H  H80  1  0.065100  0.142200  0.063500  1.0  0.0901
  H  H81  1  0.364000  0.809000  0.766000  1.0  0.4471
  H  H82  1  0.349000  0.190000  0.229000  1.0  0.4531
  H  H83  1  0.497000  0.998800  0.328000  1.0  0.0848
  H  H84  1  0.406600  0.901600  0.354800  1.0  0.1272
  H  H85  1  0.163100  0.957900  0.214700  1.0  0.1203
  H  H86  1  0.264300  0.050600  0.189400  1.0  0.0795
  H  H87  1  0.311400  0.681300  0.830400  1.0  0.0819
  H  H88  1  0.187000  0.590300  0.807300  1.0  0.1322
  H  H89  1  0.352800  0.503600  0.691800  1.0  0.1138
  H  H90  1  0.474300  0.595300  0.718800  1.0  0.094
  H  H91  1  0.004700  0.373600  0.487200  1.0  0.0868
  H  H92  1  0.998700  0.455700  0.406300  1.0  0.1357
  H  H93  1  0.260400  0.549400  0.509300  1.0  0.1273
  H  H94  1  0.257800  0.465200  0.586600  1.0  0.0813
  H  H95  1  0.386200  0.823300  0.445600  1.0  0.09
  H  H96  1  0.460600  0.859100  0.546900  1.0  0.1201
  H  H97  1  0.297200  0.703100  0.609600  1.0  0.1214
  H  H98  1  0.208600  0.681100  0.507600  1.0  0.0899
  H  H99  1  0.325700  0.715600  0.268100  1.0  0.0841
  H  H100  1  0.490000  0.712000  0.246000  1.0  0.1381
  H  H101  1  0.603800  0.649500  0.422600  1.0  0.1186
  H  H102  1  0.434900  0.642200  0.436500  1.0  0.0887
  H  H103  1  0.136000  0.309000  0.734000  1.0  0.445
  H  H104  1  0.151000  0.690000  0.271000  1.0  0.4506
  C  C105  1  0.928600  0.510900  0.803800  1.0  0.1686
  C  C106  1  0.875000  0.568600  0.820530  1.0  -0.1523
  C  C107  1  0.774300  0.582800  0.786760  1.0  -0.0213
  C  C108  1  0.733100  0.535800  0.738050  1.0  -0.1423
  C  C109  1  0.793400  0.480100  0.723600  1.0  0.1568
  C  C110  1  0.713000  0.646100  0.802900  1.0  0.6514
  C  C111  1  0.819900  0.855400  0.301660  1.0  0.1693
  C  C112  1  0.744600  0.909100  0.287830  1.0  -0.1549
  C  C113  1  0.754600  0.962300  0.244880  1.0  -0.0366
  C  C114  1  0.842300  0.959900  0.220300  1.0  -0.132
  C  C115  1  0.914600  0.905200  0.236500  1.0  0.1558
  C  C116  1  0.674200  0.021800  0.223800  1.0  0.6681
  C  C117  1  0.555500  0.088700  0.992560  1.0  0.1573
  C  C118  1  0.550900  0.039900  0.943840  1.0  -0.1554
  C  C119  1  0.624900  0.984300  0.951530  1.0  -0.0509
  C  C120  1  0.704700  0.984700  0.004370  1.0  -0.1578
  C  C121  1  0.702600  0.035500  0.050200  1.0  0.1592
  C  C122  1  0.616100  0.924000  0.905140  1.0  0.6608
  C  C123  1  0.866000  0.700600  0.979200  1.0  0.1468
  C  C124  1  0.914200  0.681200  0.039900  1.0  -0.1426
  C  C125  1  0.816200  0.771100  0.076600  1.0  -0.13
  C  C126  1  0.764700  0.785100  0.015600  1.0  0.1304
  C  C127  1  0.896200  0.718900  0.089710  1.0  -0.0036
  C  C128  1  0.949400  0.705400  0.156910  1.0  0.6685
  C  C129  1  0.517600  0.729800  0.922490  1.0  0.7234
  C  C130  1  0.531500  0.666400  0.967900  1.0  -0.294
  C  C131  1  0.573400  0.599400  0.944900  1.0  -0.0996
  C  C132  1  0.882000  0.799500  0.800900  1.0  0.1442
  C  C133  1  0.982000  0.799900  0.786600  1.0  -0.1568
  C  C134  1  0.066200  0.817800  0.832800  1.0  0.0029
  C  C135  1  0.047000  0.837900  0.889200  1.0  -0.1557
  C  C136  1  0.944400  0.839700  0.897800  1.0  0.1348
  C  C137  1  0.177000  0.812200  0.822800  1.0  0.6434
  C  C138  1  0.571400  0.010900  0.696200  1.0  0.169
  C  C139  1  0.625000  0.068600  0.679470  1.0  -0.1514
  C  C140  1  0.725700  0.082800  0.713240  1.0  -0.0198
  C  C141  1  0.766900  0.035800  0.761950  1.0  -0.1428
  C  C142  1  0.706600  0.980100  0.776400  1.0  0.1559
  C  C143  1  0.787000  0.146100  0.697100  1.0  0.6525
  C  C144  1  0.680100  0.355400  0.198340  1.0  0.1691
  C  C145  1  0.755400  0.409100  0.212170  1.0  -0.1544
  C  C146  1  0.745400  0.462300  0.255120  1.0  -0.038
  C  C147  1  0.657700  0.459900  0.279700  1.0  -0.1319
  C  C148  1  0.585400  0.405200  0.263500  1.0  0.1549
  C  C149  1  0.825800  0.521800  0.276200  1.0  0.6691
  C  C150  1  0.944500  0.588700  0.507440  1.0  0.1536
  C  C151  1  0.949100  0.539900  0.556160  1.0  -0.153
  C  C152  1  0.875100  0.484300  0.548470  1.0  -0.0519
  C  C153  1  0.795300  0.484700  0.495630  1.0  -0.1588
  C  C154  1  0.797400  0.535500  0.449800  1.0  0.16
  C  C155  1  0.883900  0.424000  0.594860  1.0  0.6614
  C  C156  1  0.634000  0.200600  0.520800  1.0  0.1476
  C  C157  1  0.585800  0.181200  0.460100  1.0  -0.1437
  C  C158  1  0.683800  0.271100  0.423400  1.0  -0.1293
  C  C159  1  0.735300  0.285100  0.484400  1.0  0.1294
  C  C160  1  0.603800  0.218900  0.410290  1.0  -0.0039
  C  C161  1  0.550600  0.205400  0.343090  1.0  0.6647
  C  C162  1  0.982400  0.229800  0.577510  1.0  0.7248
  C  C163  1  0.968500  0.166400  0.532100  1.0  -0.2869
  C  C164  1  0.926600  0.099400  0.555100  1.0  -0.099
  C  C165  1  0.618000  0.299500  0.699100  1.0  0.1446
  C  C166  1  0.518000  0.299900  0.713400  1.0  -0.1574
  C  C167  1  0.433800  0.317800  0.667200  1.0  0.0029
  C  C168  1  0.453000  0.337900  0.610800  1.0  -0.1563
  C  C169  1  0.555600  0.339700  0.602200  1.0  0.1331
  C  C170  1  0.323000  0.312200  0.677200  1.0  0.6435
  C  C171  1  0.071400  0.489100  0.196200  1.0  0.1691
  C  C172  1  0.125000  0.431400  0.179470  1.0  -0.1515
  C  C173  1  0.225700  0.417200  0.213240  1.0  -0.0196
  C  C174  1  0.266900  0.464200  0.261950  1.0  -0.1434
  C  C175  1  0.206600  0.519900  0.276400  1.0  0.1565
  C  C176  1  0.287000  0.353900  0.197100  1.0  0.6529
  C  C177  1  0.180100  0.144600  0.698340  1.0  0.1692
  C  C178  1  0.255400  0.090900  0.712170  1.0  -0.1542
  C  C179  1  0.245400  0.037700  0.755120  1.0  -0.0385
  C  C180  1  0.157700  0.040100  0.779700  1.0  -0.1302
  C  C181  1  0.085400  0.094800  0.763500  1.0  0.1554
  C  C182  1  0.325800  0.978200  0.776200  1.0  0.6693
  C  C183  1  0.444500  0.911300  0.007440  1.0  0.1538
  C  C184  1  0.449100  0.960100  0.056160  1.0  -0.1545
  C  C185  1  0.375100  0.015700  0.048470  1.0  -0.0526
  C  C186  1  0.295300  0.015300  0.995630  1.0  -0.1585
  C  C187  1  0.297400  0.964500  0.949800  1.0  0.1599
  C  C188  1  0.383900  0.076000  0.094860  1.0  0.6611
  C  C189  1  0.134000  0.299400  0.020800  1.0  0.1463
  C  C190  1  0.085800  0.318800  0.960100  1.0  -0.144
  C  C191  1  0.183800  0.228900  0.923400  1.0  -0.1297
  C  C192  1  0.235300  0.214900  0.984400  1.0  0.129
  C  C193  1  0.103800  0.281100  0.910290  1.0  -0.004
  C  C194  1  0.050600  0.294600  0.843090  1.0  0.6645
  C  C195  1  0.482400  0.270200  0.077510  1.0  0.7269
  C  C196  1  0.468500  0.333600  0.032100  1.0  -0.2965
  C  C197  1  0.426600  0.400600  0.055100  1.0  -0.0998
  C  C198  1  0.118000  0.200500  0.199100  1.0  0.1448
  C  C199  1  0.018000  0.200100  0.213400  1.0  -0.157
  C  C200  1  0.933800  0.182200  0.167200  1.0  0.0029
  C  C201  1  0.953000  0.162100  0.110800  1.0  -0.1563
  C  C202  1  0.055600  0.160300  0.102200  1.0  0.1338
  C  C203  1  0.823000  0.187800  0.177200  1.0  0.6432
  C  C204  1  0.428600  0.989100  0.303800  1.0  0.1687
  C  C205  1  0.375000  0.931400  0.320530  1.0  -0.1523
  C  C206  1  0.274300  0.917200  0.286760  1.0  -0.021
  C  C207  1  0.233100  0.964200  0.238050  1.0  -0.1426
  C  C208  1  0.293400  0.019900  0.223600  1.0  0.1577
  C  C209  1  0.213000  0.853900  0.302900  1.0  0.6522
  C  C210  1  0.319900  0.644600  0.801660  1.0  0.1697
  C  C211  1  0.244600  0.590900  0.787830  1.0  -0.1543
  C  C212  1  0.254600  0.537700  0.744880  1.0  -0.0369
  C  C213  1  0.342300  0.540100  0.720300  1.0  -0.1324
  C  C214  1  0.414600  0.594800  0.736500  1.0  0.1553
  C  C215  1  0.174200  0.478200  0.723800  1.0  0.6684
  C  C216  1  0.055500  0.411300  0.492560  1.0  0.1563
  C  C217  1  0.050900  0.460100  0.443840  1.0  -0.1583
  C  C218  1  0.124900  0.515700  0.451530  1.0  -0.0514
  C  C219  1  0.204700  0.515300  0.504370  1.0  -0.1575
  C  C220  1  0.202600  0.464500  0.550200  1.0  0.1593
  C  C221  1  0.116100  0.576000  0.405140  1.0  0.6603
  C  C222  1  0.366000  0.799400  0.479200  1.0  0.1466
  C  C223  1  0.414200  0.818800  0.539900  1.0  -0.1423
  C  C224  1  0.316200  0.728900  0.576600  1.0  -0.1307
  C  C225  1  0.264700  0.714900  0.515600  1.0  0.1298
  C  C226  1  0.396200  0.781100  0.589710  1.0  -0.0038
  C  C227  1  0.449400  0.794600  0.656910  1.0  0.6681
  C  C228  1  0.017600  0.770200  0.422490  1.0  0.7243
  C  C229  1  0.031500  0.833600  0.467900  1.0  -0.2878
  C  C230  1  0.073400  0.900600  0.444900  1.0  -0.0993
  C  C231  1  0.382000  0.700500  0.300900  1.0  0.1445
  C  C232  1  0.482000  0.700100  0.286600  1.0  -0.1562
  C  C233  1  0.566200  0.682200  0.332800  1.0  0.0029
  C  C234  1  0.547000  0.662100  0.389200  1.0  -0.1555
  C  C235  1  0.444400  0.660300  0.397800  1.0  0.135
  C  C236  1  0.677000  0.687800  0.322800  1.0  0.6438
  N  N237  1  0.890400  0.467780  0.755510  1.0  -0.3184
  N  N238  1  0.903900  0.852110  0.276910  1.0  -0.323
  N  N239  1  0.627000  0.085670  0.046350  1.0  -0.3034
  N  N240  1  0.792500  0.751600  0.966770  1.0  -0.3142
  N  N241  1  0.855000  0.817600  0.854800  1.0  -0.3225
  N  N242  1  0.609600  0.967780  0.744490  1.0  -0.3194
  N  N243  1  0.596100  0.352110  0.223090  1.0  -0.3227
  N  N244  1  0.873000  0.585670  0.453650  1.0  -0.3025
  N  N245  1  0.707500  0.251600  0.533230  1.0  -0.3139
  N  N246  1  0.645000  0.317600  0.645200  1.0  -0.3219
  N  N247  1  0.109600  0.532220  0.244490  1.0  -0.3191
  N  N248  1  0.096100  0.147890  0.723090  1.0  -0.3224
  N  N249  1  0.373000  0.914330  0.953650  1.0  -0.3042
  N  N250  1  0.207500  0.248400  0.033230  1.0  -0.3147
  N  N251  1  0.145000  0.182400  0.145200  1.0  -0.3217
  N  N252  1  0.390400  0.032220  0.255510  1.0  -0.3182
  N  N253  1  0.403900  0.647890  0.776910  1.0  -0.3226
  N  N254  1  0.127000  0.414330  0.546350  1.0  -0.3042
  N  N255  1  0.292500  0.748400  0.466770  1.0  -0.3144
  N  N256  1  0.355000  0.682400  0.354800  1.0  -0.3224
  O  O257  1  0.585400  0.186470  0.206960  1.0  -0.9185
  O  O258  1  0.624600  0.811770  0.790950  1.0  -0.9258
  O  O259  1  0.621100  0.654200  0.771800  1.0  -0.5757
  O  O260  1  0.760600  0.685250  0.846770  1.0  -0.5765
  O  O261  1  0.684900  0.054420  0.175790  1.0  -0.5851
  O  O262  1  0.607800  0.033040  0.254750  1.0  -0.561
  O  O263  1  0.968400  0.761450  0.189500  1.0  -0.5837
  O  O264  1  0.968200  0.641190  0.173910  1.0  -0.5751
  O  O265  1  0.531500  0.920140  0.862990  1.0  -0.6431
  O  O266  1  0.692000  0.881550  0.912840  1.0  -0.5595
  O  O267  1  0.455200  0.778380  0.928620  1.0  -0.5521
  O  O268  1  0.572500  0.729440  0.881910  1.0  -0.6086
  O  O269  1  0.188700  0.807800  0.769300  1.0  -0.5804
  O  O270  1  0.248300  0.813700  0.871200  1.0  -0.5877
  O  O271  1  0.914600  0.686470  0.293040  1.0  -0.9185
  O  O272  1  0.875400  0.311770  0.709050  1.0  -0.9254
  O  O273  1  0.878900  0.154200  0.728200  1.0  -0.5752
  O  O274  1  0.739400  0.185250  0.653230  1.0  -0.5766
  O  O275  1  0.815100  0.554420  0.324210  1.0  -0.5862
  O  O276  1  0.892200  0.533040  0.245250  1.0  -0.5603
  O  O277  1  0.531600  0.261450  0.310500  1.0  -0.5842
  O  O278  1  0.531800  0.141190  0.326090  1.0  -0.5744
  O  O279  1  0.968500  0.420140  0.637010  1.0  -0.643
  O  O280  1  0.808000  0.381550  0.587160  1.0  -0.5597
  O  O281  1  0.044800  0.278380  0.571380  1.0  -0.5517
  O  O282  1  0.927500  0.229440  0.618090  1.0  -0.6112
  O  O283  1  0.311300  0.307800  0.730700  1.0  -0.5813
  O  O284  1  0.251700  0.313700  0.628800  1.0  -0.5876
  O  O285  1  0.414600  0.813530  0.793040  1.0  -0.9184
  O  O286  1  0.375400  0.188230  0.209050  1.0  -0.9254
  O  O287  1  0.378900  0.345800  0.228200  1.0  -0.576
  O  O288  1  0.239400  0.314750  0.153230  1.0  -0.5775
  O  O289  1  0.315100  0.945580  0.824210  1.0  -0.5862
  O  O290  1  0.392200  0.966960  0.745250  1.0  -0.561
  O  O291  1  0.031600  0.238550  0.810500  1.0  -0.5842
  O  O292  1  0.031800  0.358810  0.826090  1.0  -0.5742
  O  O293  1  0.468500  0.079860  0.137010  1.0  -0.643
  O  O294  1  0.308000  0.118450  0.087160  1.0  -0.5602
  O  O295  1  0.544800  0.221620  0.071380  1.0  -0.5526
  O  O296  1  0.427500  0.270560  0.118090  1.0  -0.6114
  O  O297  1  0.811300  0.192200  0.230700  1.0  -0.5812
  O  O298  1  0.751700  0.186300  0.128800  1.0  -0.5874
  O  O299  1  0.085400  0.313530  0.706960  1.0  -0.9184
  O  O300  1  0.124600  0.688230  0.290950  1.0  -0.926
  O  O301  1  0.121100  0.845800  0.271800  1.0  -0.576
  O  O302  1  0.260600  0.814750  0.346770  1.0  -0.5782
  O  O303  1  0.184900  0.445580  0.675790  1.0  -0.5854
  O  O304  1  0.107800  0.466960  0.754750  1.0  -0.561
  O  O305  1  0.468400  0.738550  0.689500  1.0  -0.5833
  O  O306  1  0.468200  0.858810  0.673910  1.0  -0.5744
  O  O307  1  0.031500  0.579860  0.362990  1.0  -0.6435
  O  O308  1  0.192000  0.618450  0.412840  1.0  -0.5591
  O  O309  1  0.955200  0.721620  0.428620  1.0  -0.5525
  O  O310  1  0.072500  0.770560  0.381910  1.0  -0.6091
  O  O311  1  0.688700  0.692200  0.269300  1.0  -0.5803
  O  O312  1  0.748300  0.686300  0.371200  1.0  -0.5882
