# generated using pymatgen
data_Rb5NaMo12P8H44C20N4O49
_symmetry_space_group_name_H-M   'P 1'
_cell_length_a   16.06710000
_cell_length_b   16.31280000
_cell_length_c   20.86260000
_cell_angle_alpha   72.91900000
_cell_angle_beta   72.72900000
_cell_angle_gamma   80.88300000
_symmetry_Int_Tables_number   1
_chemical_formula_structural   Rb5NaMo12P8H44C20N4O49
_chemical_formula_sum   'Rb10 Na2 Mo24 P16 H88 C40 N8 O98'
_cell_volume   4975.97914551
_cell_formula_units_Z   2
loop_
 _symmetry_equiv_pos_site_id
 _symmetry_equiv_pos_as_xyz
  1  'x, y, z'
loop_
 _atom_site_type_symbol
 _atom_site_label
 _atom_site_symmetry_multiplicity
 _atom_site_fract_x
 _atom_site_fract_y
 _atom_site_fract_z
 _atom_site_occupancy
 _atom_site_charge
  Rb  Rb1  1  0.041990  0.054090  0.839680  1.0  0.9652
  Rb  Rb2  1  0.083460  0.342230  0.477410  1.0  0.9633
  Rb  Rb3  1  0.004050  0.574920  0.858040  1.0  0.9554
  Rb  Rb4  1  0.665480  0.922740  0.941390  1.0  0.9484
  Rb  Rb5  1  0.426120  0.996610  0.387270  1.0  0.9493
  Rb  Rb6  1  0.958010  0.945910  0.160320  1.0  0.9663
  Rb  Rb7  1  0.916540  0.657770  0.522590  1.0  0.9623
  Rb  Rb8  1  0.995950  0.425080  0.141960  1.0  0.957
  Rb  Rb9  1  0.334520  0.077260  0.058610  1.0  0.9476
  Rb  Rb10  1  0.573880  0.003390  0.612730  1.0  0.9542
  Na  Na11  1  0.248300  0.252000  0.750180  1.0  0.9701
  Na  Na12  1  0.751700  0.748000  0.249820  1.0  0.9711
  Mo  Mo13  1  0.212980  0.471760  0.745590  1.0  0.7677
  Mo  Mo14  1  0.302870  0.577820  0.559220  1.0  0.6884
  Mo  Mo15  1  0.167200  0.560610  0.479990  1.0  2.1294
  Mo  Mo16  1  0.527210  0.781260  0.328600  1.0  0.7226
  Mo  Mo17  1  0.431470  0.696410  0.222600  1.0  0.7443
  Mo  Mo18  1  0.448640  0.836620  0.077220  1.0  2.1905
  Mo  Mo19  1  0.120000  0.200780  0.653910  1.0  1.4233
  Mo  Mo20  1  0.167880  0.964810  0.685520  1.0  1.3239
  Mo  Mo21  1  0.361970  0.932580  0.596000  1.0  2.1563
  Mo  Mo22  1  0.811840  0.881510  0.070960  1.0  1.3721
  Mo  Mo23  1  0.947920  0.168590  0.984170  1.0  2.1772
  Mo  Mo24  1  0.918290  0.360650  0.999380  1.0  1.9842
  Mo  Mo25  1  0.787020  0.528240  0.254410  1.0  0.7667
  Mo  Mo26  1  0.697130  0.422180  0.440780  1.0  0.6899
  Mo  Mo27  1  0.832800  0.439390  0.520010  1.0  2.1333
  Mo  Mo28  1  0.472790  0.218740  0.671400  1.0  0.7225
  Mo  Mo29  1  0.568530  0.303590  0.777400  1.0  0.7435
  Mo  Mo30  1  0.551360  0.163380  0.922780  1.0  2.1871
  Mo  Mo31  1  0.880000  0.799220  0.346090  1.0  1.4194
  Mo  Mo32  1  0.832120  0.035190  0.314480  1.0  1.3164
  Mo  Mo33  1  0.638030  0.067420  0.404000  1.0  2.1537
  Mo  Mo34  1  0.188160  0.118490  0.929040  1.0  1.3669
  Mo  Mo35  1  0.052080  0.831410  0.015830  1.0  2.1766
  Mo  Mo36  1  0.081710  0.639350  0.000620  1.0  1.9848
  P  P37  1  0.168330  0.403010  0.620500  1.0  1.4437
  P  P38  1  0.076810  0.571120  0.641800  1.0  1.4495
  P  P39  1  0.569040  0.081080  0.792590  1.0  1.51
  P  P40  1  0.604770  0.833020  0.150770  1.0  1.4769
  P  P41  1  0.258040  0.113130  0.528040  1.0  1.448
  P  P42  1  0.330070  0.112240  0.644630  1.0  1.483
  P  P43  1  0.101920  0.327630  0.882990  1.0  1.4331
  P  P44  1  0.900560  0.745760  0.967230  1.0  1.429
  P  P45  1  0.831670  0.596990  0.379500  1.0  1.4427
  P  P46  1  0.923190  0.428880  0.358200  1.0  1.4456
  P  P47  1  0.430960  0.918920  0.207410  1.0  1.5148
  P  P48  1  0.395230  0.166980  0.849230  1.0  1.4768
  P  P49  1  0.741960  0.886870  0.471960  1.0  1.4435
  P  P50  1  0.669930  0.887760  0.355370  1.0  1.4817
  P  P51  1  0.898080  0.672370  0.117010  1.0  1.4343
  P  P52  1  0.099440  0.254240  0.032770  1.0  1.4262
  H  H53  1  0.933800  0.471900  0.645100  1.0  0.1404
  H  H54  1  0.981500  0.381600  0.640600  1.0  0.1491
  H  H55  1  0.953100  0.451800  0.755900  1.0  0.0994
  H  H56  1  0.010500  0.365400  0.751000  1.0  0.095
  H  H57  1  0.892400  0.297800  0.759100  1.0  0.0816
  H  H58  1  0.833900  0.384600  0.750000  1.0  0.0864
  H  H59  1  0.890400  0.300100  0.859300  1.0  0.2026
  H  H60  1  0.854200  0.388500  0.850800  1.0  0.1933
  H  H61  1  0.764800  0.274600  0.922700  1.0  0.1237
  H  H62  1  0.723400  0.358400  0.879900  1.0  0.1173
  H  H63  1  0.749500  0.276400  0.851500  1.0  0.1181
  H  H64  1  0.625400  0.017100  0.082400  1.0  0.133
  H  H65  1  0.534400  0.063900  0.108800  1.0  0.1403
  H  H66  1  0.637800  0.980000  0.199400  1.0  0.1031
  H  H67  1  0.555600  0.045100  0.214600  1.0  0.122
  H  H68  1  0.726400  0.092500  0.119600  1.0  0.1036
  H  H69  1  0.644300  0.157100  0.111400  1.0  0.1011
  H  H70  1  0.702600  0.100300  0.218600  1.0  0.1768
  H  H71  1  0.622400  0.154200  0.215500  1.0  0.1928
  H  H72  1  0.784300  0.210300  0.141600  1.0  0.1319
  H  H73  1  0.729000  0.235400  0.209700  1.0  0.1271
  H  H74  1  0.696700  0.268500  0.141900  1.0  0.1038
  H  H75  1  0.431500  0.186000  0.457100  1.0  0.1285
  H  H76  1  0.464800  0.190700  0.519100  1.0  0.1443
  H  H77  1  0.319200  0.290600  0.481000  1.0  0.0945
  H  H78  1  0.350600  0.294400  0.544500  1.0  0.0978
  H  H79  1  0.462500  0.336600  0.403400  1.0  0.0897
  H  H80  1  0.487500  0.347200  0.467500  1.0  0.0955
  H  H81  1  0.349100  0.434300  0.429600  1.0  0.1972
  H  H82  1  0.392900  0.451500  0.475100  1.0  0.1936
  H  H83  1  0.425700  0.504900  0.340700  1.0  0.0984
  H  H84  1  0.435600  0.551600  0.393600  1.0  0.1032
  H  H85  1  0.507800  0.481400  0.370600  1.0  0.1171
  H  H86  1  0.177400  0.427300  0.991800  1.0  0.1453
  H  H87  1  0.185400  0.456000  0.911700  1.0  0.1301
  H  H88  1  0.287300  0.334600  0.896300  1.0  0.102
  H  H89  1  0.278800  0.305200  0.976400  1.0  0.1194
  H  H90  1  0.407600  0.375700  0.923000  1.0  0.0796
  H  H91  1  0.341500  0.435300  0.965600  1.0  0.0952
  H  H92  1  0.301200  0.498700  0.856900  1.0  0.2683
  H  H93  1  0.385000  0.459900  0.823800  1.0  0.2108
  H  H94  1  0.433800  0.534400  0.894300  1.0  0.1208
  H  H95  1  0.438100  0.575100  0.815500  1.0  0.1346
  H  H96  1  0.357100  0.598500  0.872800  1.0  0.1123
  H  H97  1  0.066200  0.528100  0.354900  1.0  0.1396
  H  H98  1  0.018500  0.618400  0.359400  1.0  0.1509
  H  H99  1  0.046900  0.548200  0.244100  1.0  0.0967
  H  H100  1  0.989500  0.634600  0.249000  1.0  0.0938
  H  H101  1  0.107600  0.702200  0.240900  1.0  0.0788
  H  H102  1  0.166100  0.615400  0.250000  1.0  0.0888
  H  H103  1  0.109600  0.699900  0.140700  1.0  0.2022
  H  H104  1  0.145800  0.611500  0.149200  1.0  0.1917
  H  H105  1  0.235200  0.725400  0.077300  1.0  0.1231
  H  H106  1  0.276600  0.641600  0.120100  1.0  0.1174
  H  H107  1  0.250500  0.723600  0.148500  1.0  0.1175
  H  H108  1  0.374600  0.982900  0.917600  1.0  0.1332
  H  H109  1  0.465600  0.936100  0.891200  1.0  0.1399
  H  H110  1  0.362200  0.020000  0.800600  1.0  0.1019
  H  H111  1  0.444400  0.954900  0.785400  1.0  0.1187
  H  H112  1  0.273600  0.907500  0.880400  1.0  0.102
  H  H113  1  0.355700  0.842900  0.888600  1.0  0.1
  H  H114  1  0.297400  0.899700  0.781400  1.0  0.1771
  H  H115  1  0.377600  0.845800  0.784500  1.0  0.197
  H  H116  1  0.215700  0.789700  0.858400  1.0  0.1293
  H  H117  1  0.271000  0.764600  0.790300  1.0  0.1257
  H  H118  1  0.303300  0.731500  0.858100  1.0  0.103
  H  H119  1  0.568500  0.814000  0.542900  1.0  0.1313
  H  H120  1  0.535200  0.809300  0.480900  1.0  0.1432
  H  H121  1  0.680800  0.709400  0.519000  1.0  0.0972
  H  H122  1  0.649400  0.705600  0.455500  1.0  0.0978
  H  H123  1  0.537500  0.663400  0.596600  1.0  0.0892
  H  H124  1  0.512500  0.652800  0.532500  1.0  0.0949
  H  H125  1  0.650900  0.565700  0.570400  1.0  0.1964
  H  H126  1  0.607100  0.548500  0.524900  1.0  0.197
  H  H127  1  0.574300  0.495100  0.659300  1.0  0.0989
  H  H128  1  0.564400  0.448400  0.606400  1.0  0.1004
  H  H129  1  0.492200  0.518600  0.629400  1.0  0.1163
  H  H130  1  0.822600  0.572700  0.008200  1.0  0.1465
  H  H131  1  0.814600  0.544000  0.088300  1.0  0.1307
  H  H132  1  0.712700  0.665400  0.103700  1.0  0.1012
  H  H133  1  0.721200  0.694800  0.023600  1.0  0.1164
  H  H134  1  0.592400  0.624300  0.077000  1.0  0.0814
  H  H135  1  0.658500  0.564700  0.034400  1.0  0.0959
  H  H136  1  0.698800  0.501300  0.143100  1.0  0.2735
  H  H137  1  0.615000  0.540100  0.176200  1.0  0.2097
  H  H138  1  0.566200  0.465600  0.105700  1.0  0.1199
  H  H139  1  0.561900  0.424900  0.184500  1.0  0.1326
  H  H140  1  0.642900  0.401500  0.127200  1.0  0.1096
  C  C141  1  0.066600  0.472600  0.619600  1.0  -0.1587
  C  C142  1  0.981100  0.431200  0.657400  1.0  -0.2626
  C  C143  1  0.961000  0.401700  0.738000  1.0  -0.0926
  C  C144  1  0.880300  0.352900  0.770300  1.0  0.0507
  C  C145  1  0.765000  0.309600  0.876800  1.0  -0.1822
  C  C146  1  0.531300  0.932200  0.138700  1.0  -0.1768
  C  C147  1  0.575300  0.016000  0.122400  1.0  -0.2364
  C  C148  1  0.605500  0.031400  0.178600  1.0  -0.1128
  C  C149  1  0.669200  0.112400  0.144400  1.0  -0.0118
  C  C150  1  0.726200  0.221300  0.168900  1.0  -0.2348
  C  C151  1  0.356500  0.122700  0.551500  1.0  -0.2023
  C  C152  1  0.412800  0.194900  0.503400  1.0  -0.2068
  C  C153  1  0.369900  0.283900  0.498800  1.0  -0.0849
  C  C154  1  0.439300  0.351400  0.447500  1.0  0.0596
  C  C155  1  0.446200  0.498100  0.380900  1.0  -0.1738
  C  C156  1  0.110300  0.351700  0.962500  1.0  -0.1192
  C  C157  1  0.186200  0.406400  0.951000  1.0  -0.2365
  C  C158  1  0.277900  0.355000  0.937300  1.0  -0.0881
  C  C159  1  0.352500  0.410600  0.926600  1.0  0.0182
  C  C160  1  0.400100  0.553600  0.860800  1.0  -0.1839
  C  C161  1  0.933400  0.527400  0.380400  1.0  -0.1618
  C  C162  1  0.018900  0.568800  0.342600  1.0  -0.263
  C  C163  1  0.039000  0.598300  0.262000  1.0  -0.0922
  C  C164  1  0.119700  0.647100  0.229700  1.0  0.0502
  C  C165  1  0.235000  0.690400  0.123200  1.0  -0.1822
  C  C166  1  0.468700  0.067800  0.861300  1.0  -0.1736
  C  C167  1  0.424700  0.984000  0.877600  1.0  -0.2389
  C  C168  1  0.394500  0.968600  0.821400  1.0  -0.1134
  C  C169  1  0.330800  0.887600  0.855600  1.0  -0.0133
  C  C170  1  0.273800  0.778700  0.831100  1.0  -0.2353
  C  C171  1  0.643500  0.877300  0.448500  1.0  -0.2005
  C  C172  1  0.587200  0.805100  0.496600  1.0  -0.2064
  C  C173  1  0.630100  0.716100  0.501200  1.0  -0.0828
  C  C174  1  0.560700  0.648600  0.552500  1.0  0.0552
  C  C175  1  0.553800  0.501900  0.619100  1.0  -0.1741
  C  C176  1  0.889700  0.648300  0.037500  1.0  -0.1177
  C  C177  1  0.813800  0.593600  0.049000  1.0  -0.237
  C  C178  1  0.722100  0.645000  0.062700  1.0  -0.0897
  C  C179  1  0.647500  0.589400  0.073400  1.0  0.0198
  C  C180  1  0.599900  0.446400  0.139200  1.0  -0.1851
  N  N181  1  0.851800  0.339000  0.840800  1.0  -0.0599
  N  N182  1  0.676600  0.142100  0.190200  1.0  -0.0539
  N  N183  1  0.402000  0.435000  0.435900  1.0  -0.0396
  N  N184  1  0.355800  0.480500  0.860600  1.0  -0.0957
  N  N185  1  0.148200  0.661000  0.159200  1.0  -0.0587
  N  N186  1  0.323400  0.857900  0.809800  1.0  -0.0576
  N  N187  1  0.598000  0.565000  0.564100  1.0  -0.0396
  N  N188  1  0.644200  0.519500  0.139400  1.0  -0.1008
  O  O189  1  0.186700  0.382700  0.691300  1.0  -0.877
  O  O190  1  0.621500  0.811700  0.221700  1.0  -0.82
  O  O191  1  0.234600  0.458300  0.559500  1.0  -0.7936
  O  O192  1  0.029800  0.405200  0.981600  1.0  -0.701
  O  O193  1  0.302700  0.018700  0.675400  1.0  -0.7769
  O  O194  1  0.551600  0.769400  0.141900  1.0  -0.8267
  O  O195  1  0.006100  0.304700  0.906700  1.0  -0.8006
  O  O196  1  0.111800  0.411100  0.823100  1.0  -0.8644
  O  O197  1  0.277600  0.528900  0.655900  1.0  -0.6579
  O  O198  1  0.413100  0.120000  0.662700  1.0  -0.8457
  O  O199  1  0.068800  0.502100  0.546000  1.0  -0.6917
  O  O200  1  0.101900  0.546000  0.710800  1.0  -0.9026
  O  O201  1  0.506700  0.932500  0.076500  1.0  -0.6985
  O  O202  1  0.688500  0.845000  0.092200  1.0  -0.8594
  O  O203  1  0.168000  0.254700  0.866200  1.0  -0.885
  O  O204  1  0.158800  0.322200  0.602200  1.0  -0.8555
  O  O205  1  0.256900  0.178500  0.664700  1.0  -0.877
  O  O206  1  0.187600  0.179300  0.553200  1.0  -0.879
  O  O207  1  0.833100  0.816600  0.990400  1.0  -0.9009
  O  O208  1  0.277400  0.120300  0.452000  1.0  -0.7033
  O  O209  1  0.996900  0.763300  0.959000  1.0  -0.8854
  O  O210  1  0.064200  0.123500  0.953500  1.0  -0.7116
  O  O211  1  0.274800  0.600900  0.469800  1.0  -0.6622
  O  O212  1  0.152800  0.608800  0.579900  1.0  -0.9061
  O  O213  1  0.207900  0.091400  0.852400  1.0  -0.7603
  O  O214  1  0.237800  0.019700  0.571900  1.0  -0.8483
  O  O215  1  0.893600  0.725100  0.904000  1.0  -0.721
  O  O216  1  0.093800  0.909400  0.944400  1.0  -0.7453
  O  O217  1  0.090500  0.220100  0.733900  1.0  -0.7776
  O  O218  1  0.604600  0.155900  0.806300  1.0  -0.8973
  O  O219  1  0.413400  0.726900  0.128700  1.0  -0.675
  O  O220  1  0.123000  0.079300  0.683800  1.0  -0.7468
  O  O221  1  0.993900  0.628700  0.640700  1.0  -0.7339
  O  O222  1  0.863100  0.265400  0.001800  1.0  -0.6796
  O  O223  1  0.872000  0.441700  0.943500  1.0  -0.6546
  O  O224  1  0.410000  0.041000  0.544700  1.0  -0.7618
  O  O225  1  0.630300  0.002300  0.802300  1.0  -0.7381
  O  O226  1  0.908400  0.155000  0.920100  1.0  -0.6738
  O  O227  1  0.887300  0.349000  0.559400  1.0  -0.7348
  O  O228  1  0.473500  0.721900  0.289200  1.0  -0.7074
  O  O229  1  0.130900  0.622100  0.920900  1.0  -0.7297
  O  O230  1  0.644700  0.109800  0.942800  1.0  -0.7377
  O  O231  1  0.147800  0.926700  0.773400  1.0  -0.6561
  O  O232  1  0.513800  0.815300  0.002400  1.0  -0.7465
  O  O233  1  0.557800  0.117300  0.364200  1.0  -0.7405
  O  O234  1  0.375700  0.886000  0.530500  1.0  -0.7536
  O  O235  1  0.546700  0.107200  0.723500  1.0  -0.9054
  O  O236  1  0.194600  0.496400  0.423900  1.0  -0.7249
  O  O237  1  0.264400  0.881600  0.660600  1.0  -0.7118
  O  O238  1  0.813300  0.617300  0.308700  1.0  -0.8766
  O  O239  1  0.378500  0.188300  0.778300  1.0  -0.8149
  O  O240  1  0.765400  0.541700  0.440500  1.0  -0.7937
  O  O241  1  0.970200  0.594800  0.018400  1.0  -0.6973
  O  O242  1  0.697300  0.981300  0.324600  1.0  -0.7781
  O  O243  1  0.448400  0.230600  0.858100  1.0  -0.8265
  O  O244  1  0.993900  0.695300  0.093300  1.0  -0.7998
  O  O245  1  0.888200  0.588900  0.176900  1.0  -0.864
  O  O246  1  0.722400  0.471100  0.344100  1.0  -0.6589
  O  O247  1  0.586900  0.880000  0.337300  1.0  -0.8457
  O  O248  1  0.931200  0.497900  0.454000  1.0  -0.6924
  O  O249  1  0.898100  0.454000  0.289200  1.0  -0.9009
  O  O250  1  0.493300  0.067500  0.923500  1.0  -0.6978
  O  O251  1  0.311500  0.155000  0.907800  1.0  -0.8596
  O  O252  1  0.832000  0.745300  0.133800  1.0  -0.8842
  O  O253  1  0.841200  0.677800  0.397800  1.0  -0.8562
  O  O254  1  0.743100  0.821500  0.335300  1.0  -0.8765
  O  O255  1  0.812400  0.820700  0.446800  1.0  -0.8772
  O  O256  1  0.166900  0.183400  0.009600  1.0  -0.9014
  O  O257  1  0.722600  0.879700  0.548000  1.0  -0.6692
  O  O258  1  0.003100  0.236700  0.041000  1.0  -0.8846
  O  O259  1  0.935800  0.876500  0.046500  1.0  -0.7123
  O  O260  1  0.725200  0.399100  0.530200  1.0  -0.6634
  O  O261  1  0.847200  0.391200  0.420100  1.0  -0.9074
  O  O262  1  0.792100  0.908600  0.147600  1.0  -0.7569
  O  O263  1  0.762200  0.980300  0.428100  1.0  -0.8485
  O  O264  1  0.106400  0.274900  0.096000  1.0  -0.7005
  O  O265  1  0.906200  0.090600  0.055600  1.0  -0.747
  O  O266  1  0.909500  0.779900  0.266100  1.0  -0.7768
  O  O267  1  0.395400  0.844100  0.193700  1.0  -0.8953
  O  O268  1  0.586600  0.273100  0.871300  1.0  -0.6748
  O  O269  1  0.877000  0.920700  0.316200  1.0  -0.7458
  O  O270  1  0.006100  0.371300  0.359300  1.0  -0.7388
  O  O271  1  0.136900  0.734600  0.998200  1.0  -0.6789
  O  O272  1  0.128000  0.558300  0.056500  1.0  -0.6567
  O  O273  1  0.590000  0.959000  0.455300  1.0  -0.7621
  O  O274  1  0.369700  0.997700  0.197700  1.0  -0.7381
  O  O275  1  0.091600  0.845000  0.079900  1.0  -0.6727
  O  O276  1  0.112700  0.651000  0.440600  1.0  -0.7367
  O  O277  1  0.526500  0.278100  0.710800  1.0  -0.709
  O  O278  1  0.869100  0.377900  0.079100  1.0  -0.7318
  O  O279  1  0.355300  0.890200  0.057200  1.0  -0.7365
  O  O280  1  0.852200  0.073300  0.226600  1.0  -0.6588
  O  O281  1  0.486200  0.184700  0.997600  1.0  -0.7449
  O  O282  1  0.442200  0.882700  0.635800  1.0  -0.742
  O  O283  1  0.624300  0.114000  0.469500  1.0  -0.7573
  O  O284  1  0.453300  0.892800  0.276500  1.0  -0.9054
  O  O285  1  0.805400  0.503600  0.576100  1.0  -0.7269
  O  O286  1  0.735600  0.118400  0.339400  1.0  -0.7101
