# generated using pymatgen
data_CuH8C6N8O
_symmetry_space_group_name_H-M   'P 1'
_cell_length_a   7.90730000
_cell_length_b   12.29960000
_cell_length_c   12.29960000
_cell_angle_alpha   90.00000000
_cell_angle_beta   90.00000000
_cell_angle_gamma   90.00000000
_symmetry_Int_Tables_number   1
_chemical_formula_structural   CuH8C6N8O
_chemical_formula_sum   'Cu4 H32 C24 N32 O4'
_cell_volume   1196.21761043
_cell_formula_units_Z   4
loop_
 _symmetry_equiv_pos_site_id
 _symmetry_equiv_pos_as_xyz
  1  'x, y, z'
loop_
 _atom_site_type_symbol
 _atom_site_label
 _atom_site_symmetry_multiplicity
 _atom_site_fract_x
 _atom_site_fract_y
 _atom_site_fract_z
 _atom_site_occupancy
 _atom_site_charge
  Cu  Cu1  1  0.347570  0.323550  0.015400  1.0  0.6986
  Cu  Cu2  1  0.847570  0.676450  0.984600  1.0  0.6991
  Cu  Cu3  1  0.097570  0.984600  0.323550  1.0  0.699
  Cu  Cu4  1  0.597570  0.015400  0.676450  1.0  0.6991
  H  H5  1  0.460200  0.054100  0.223800  1.0  0.1282
  H  H6  1  0.493300  0.096500  0.105600  1.0  0.1308
  H  H7  1  0.673000  0.185400  0.229400  1.0  0.0434
  H  H8  1  0.515200  0.229300  0.293400  1.0  0.0613
  H  H9  1  0.664700  0.390300  0.262700  1.0  0.0655
  H  H10  1  0.778900  0.364100  0.161600  1.0  0.0465
  H  H11  1  0.695000  0.546700  0.158300  1.0  0.1317
  H  H12  1  0.504800  0.511400  0.158800  1.0  0.1323
  H  H13  1  0.960200  0.945900  0.776200  1.0  0.1264
  H  H14  1  0.993300  0.903500  0.894400  1.0  0.1305
  H  H15  1  0.173000  0.814600  0.770600  1.0  0.0436
  H  H16  1  0.015200  0.770700  0.706600  1.0  0.0589
  H  H17  1  0.164700  0.609700  0.737300  1.0  0.0659
  H  H18  1  0.278900  0.635900  0.838400  1.0  0.047
  H  H19  1  0.195000  0.453300  0.841700  1.0  0.1309
  H  H20  1  0.004800  0.488600  0.841200  1.0  0.1317
  H  H21  1  0.210200  0.776200  0.054100  1.0  0.1286
  H  H22  1  0.243300  0.894400  0.096500  1.0  0.1316
  H  H23  1  0.423000  0.770600  0.185400  1.0  0.0432
  H  H24  1  0.265200  0.706600  0.229300  1.0  0.0556
  H  H25  1  0.414700  0.737300  0.390300  1.0  0.0641
  H  H26  1  0.528900  0.838400  0.364100  1.0  0.0449
  H  H27  1  0.445000  0.841700  0.546700  1.0  0.131
  H  H28  1  0.254800  0.841200  0.511400  1.0  0.1318
  H  H29  1  0.710200  0.223800  0.945900  1.0  0.127
  H  H30  1  0.743300  0.105600  0.903500  1.0  0.1314
  H  H31  1  0.923000  0.229400  0.814600  1.0  0.0437
  H  H32  1  0.765200  0.293400  0.770700  1.0  0.0625
  H  H33  1  0.914700  0.262700  0.609700  1.0  0.0657
  H  H34  1  0.028900  0.161600  0.635900  1.0  0.0461
  H  H35  1  0.945000  0.158300  0.453300  1.0  0.1296
  H  H36  1  0.754800  0.158800  0.488600  1.0  0.1316
  C  C37  1  0.266700  0.145500  0.165600  1.0  0.3684
  C  C38  1  0.449700  0.116800  0.176400  1.0  -0.3101
  C  C39  1  0.556600  0.209200  0.222000  1.0  0.1702
  C  C40  1  0.665400  0.383800  0.184100  1.0  0.1723
  C  C41  1  0.616700  0.491400  0.133400  1.0  -0.322
  C  C42  1  0.616200  0.490500  0.011400  1.0  0.353
  C  C43  1  0.766700  0.854500  0.834400  1.0  0.3682
  C  C44  1  0.949700  0.883200  0.823600  1.0  -0.3097
  C  C45  1  0.056600  0.790800  0.778000  1.0  0.1701
  C  C46  1  0.165400  0.616200  0.815900  1.0  0.1721
  C  C47  1  0.116700  0.508600  0.866600  1.0  -0.3202
  C  C48  1  0.116200  0.509500  0.988600  1.0  0.3531
  C  C49  1  0.016700  0.834400  0.145500  1.0  0.3676
  C  C50  1  0.199700  0.823600  0.116800  1.0  -0.3099
  C  C51  1  0.306600  0.778000  0.209200  1.0  0.1715
  C  C52  1  0.415400  0.815900  0.383800  1.0  0.1726
  C  C53  1  0.366700  0.866600  0.491400  1.0  -0.3205
  C  C54  1  0.366200  0.988600  0.490500  1.0  0.3521
  C  C55  1  0.516700  0.165600  0.854500  1.0  0.3678
  C  C56  1  0.699700  0.176400  0.883200  1.0  -0.3095
  C  C57  1  0.806600  0.222000  0.790800  1.0  0.1717
  C  C58  1  0.915400  0.184100  0.616200  1.0  0.1726
  C  C59  1  0.866700  0.133400  0.508600  1.0  -0.3212
  C  C60  1  0.866200  0.011400  0.509500  1.0  0.3519
  N  N61  1  0.210600  0.225400  0.101100  1.0  -0.267
  N  N62  1  0.038700  0.225900  0.108700  1.0  -0.0827
  N  N63  1  0.993900  0.147000  0.172900  1.0  -0.0994
  N  N64  1  0.136400  0.095300  0.211400  1.0  -0.3032
  N  N65  1  0.516000  0.421800  0.953200  1.0  -0.2848
  N  N66  1  0.545700  0.443500  0.847700  1.0  -0.0942
  N  N67  1  0.657100  0.521600  0.842700  1.0  -0.1197
  N  N68  1  0.701300  0.551000  0.945300  1.0  -0.2468
  N  N69  1  0.710600  0.774600  0.898900  1.0  -0.2664
  N  N70  1  0.538700  0.774100  0.891300  1.0  -0.0837
  N  N71  1  0.493900  0.853000  0.827100  1.0  -0.0989
  N  N72  1  0.636400  0.904700  0.788600  1.0  -0.3029
  N  N73  1  0.016000  0.578200  0.046800  1.0  -0.285
  N  N74  1  0.045700  0.556500  0.152300  1.0  -0.0948
  N  N75  1  0.157100  0.478400  0.157300  1.0  -0.1203
  N  N76  1  0.201300  0.449000  0.054700  1.0  -0.2453
  N  N77  1  0.960600  0.898900  0.225400  1.0  -0.266
  N  N78  1  0.788700  0.891300  0.225900  1.0  -0.0833
  N  N79  1  0.743900  0.827100  0.147000  1.0  -0.0994
  N  N80  1  0.886400  0.788600  0.095300  1.0  -0.303
  N  N81  1  0.266000  0.046800  0.421800  1.0  -0.2835
  N  N82  1  0.295700  0.152300  0.443500  1.0  -0.098
  N  N83  1  0.407100  0.157300  0.521600  1.0  -0.1214
  N  N84  1  0.451300  0.054700  0.551000  1.0  -0.2484
  N  N85  1  0.460600  0.101100  0.774600  1.0  -0.266
  N  N86  1  0.288700  0.108700  0.774100  1.0  -0.0828
  N  N87  1  0.243900  0.172900  0.853000  1.0  -0.0998
  N  N88  1  0.386400  0.211400  0.904700  1.0  -0.3035
  N  N89  1  0.766000  0.953200  0.578200  1.0  -0.2849
  N  N90  1  0.795700  0.847700  0.556500  1.0  -0.0935
  N  N91  1  0.907100  0.842700  0.478400  1.0  -0.1183
  N  N92  1  0.951300  0.945300  0.449000  1.0  -0.2475
  O  O93  1  0.549100  0.300900  0.151300  1.0  -0.3692
  O  O94  1  0.049100  0.699100  0.848700  1.0  -0.3692
  O  O95  1  0.299100  0.848700  0.300900  1.0  -0.3682
  O  O96  1  0.799100  0.151300  0.699100  1.0  -0.3696
