# generated using pymatgen
data_CuH8C6N8O
_symmetry_space_group_name_H-M   'P 1'
_cell_length_a   7.90250000
_cell_length_b   12.35500000
_cell_length_c   12.35500000
_cell_angle_alpha   90.00000000
_cell_angle_beta   90.00000000
_cell_angle_gamma   90.00000000
_symmetry_Int_Tables_number   1
_chemical_formula_structural   CuH8C6N8O
_chemical_formula_sum   'Cu4 H32 C24 N32 O4'
_cell_volume   1206.28521256
_cell_formula_units_Z   4
loop_
 _symmetry_equiv_pos_site_id
 _symmetry_equiv_pos_as_xyz
  1  'x, y, z'
loop_
 _atom_site_type_symbol
 _atom_site_label
 _atom_site_symmetry_multiplicity
 _atom_site_fract_x
 _atom_site_fract_y
 _atom_site_fract_z
 _atom_site_occupancy
 _atom_site_charge
  Cu  Cu1  1  0.966480  0.323180  0.015250  1.0  0.6933
  Cu  Cu2  1  0.466480  0.676820  0.984750  1.0  0.6931
  Cu  Cu3  1  0.216480  0.984750  0.323180  1.0  0.693
  Cu  Cu4  1  0.716480  0.015250  0.676820  1.0  0.6932
  H  H5  1  0.818100  0.098100  0.106700  1.0  0.1326
  H  H6  1  0.852800  0.055400  0.224000  1.0  0.1279
  H  H7  1  0.798400  0.228100  0.294000  1.0  0.0633
  H  H8  1  0.640400  0.184600  0.230200  1.0  0.0517
  H  H9  1  0.534100  0.365300  0.158400  1.0  0.0583
  H  H10  1  0.645000  0.391200  0.260800  1.0  0.0689
  H  H11  1  0.810700  0.509500  0.158800  1.0  0.1269
  H  H12  1  0.621100  0.546500  0.157000  1.0  0.1264
  H  H13  1  0.318100  0.901900  0.893300  1.0  0.1317
  H  H14  1  0.352800  0.944600  0.776000  1.0  0.1261
  H  H15  1  0.298400  0.771900  0.706000  1.0  0.0599
  H  H16  1  0.140400  0.815400  0.769800  1.0  0.0518
  H  H17  1  0.034100  0.634700  0.841600  1.0  0.0562
  H  H18  1  0.145000  0.608800  0.739200  1.0  0.0688
  H  H19  1  0.310700  0.490500  0.841200  1.0  0.1273
  H  H20  1  0.121100  0.453500  0.843000  1.0  0.1261
  H  H21  1  0.068100  0.893300  0.098100  1.0  0.1339
  H  H22  1  0.102800  0.776000  0.055400  1.0  0.1286
  H  H23  1  0.048400  0.706000  0.228100  1.0  0.0573
  H  H24  1  0.890400  0.769800  0.184600  1.0  0.0525
  H  H25  1  0.784100  0.841600  0.365300  1.0  0.0554
  H  H26  1  0.895000  0.739200  0.391200  1.0  0.0666
  H  H27  1  0.060700  0.841200  0.509500  1.0  0.1265
  H  H28  1  0.871100  0.843000  0.546500  1.0  0.1257
  H  H29  1  0.568100  0.106700  0.901900  1.0  0.1333
  H  H30  1  0.602800  0.224000  0.944600  1.0  0.1265
  H  H31  1  0.548400  0.294000  0.771900  1.0  0.0626
  H  H32  1  0.390400  0.230200  0.815400  1.0  0.0525
  H  H33  1  0.284100  0.158400  0.634700  1.0  0.0565
  H  H34  1  0.395000  0.260800  0.608800  1.0  0.0673
  H  H35  1  0.560700  0.158800  0.490500  1.0  0.1261
  H  H36  1  0.371100  0.157000  0.453500  1.0  0.1255
  C  C37  1  0.045900  0.145800  0.165000  1.0  0.3625
  C  C38  1  0.862800  0.118000  0.177100  1.0  -0.3163
  C  C39  1  0.756800  0.208300  0.222900  1.0  0.1682
  C  C40  1  0.647000  0.384500  0.182500  1.0  0.1664
  C  C41  1  0.698700  0.490700  0.132800  1.0  -0.3138
  C  C42  1  0.700900  0.489300  0.012300  1.0  0.3664
  C  C43  1  0.545900  0.854200  0.835000  1.0  0.3631
  C  C44  1  0.362800  0.882000  0.822900  1.0  -0.316
  C  C45  1  0.256800  0.791700  0.777100  1.0  0.1683
  C  C46  1  0.147000  0.615500  0.817500  1.0  0.168
  C  C47  1  0.198700  0.509300  0.867200  1.0  -0.3124
  C  C48  1  0.200900  0.510700  0.987700  1.0  0.3663
  C  C49  1  0.295900  0.835000  0.145800  1.0  0.3621
  C  C50  1  0.112800  0.822900  0.118000  1.0  -0.3152
  C  C51  1  0.006800  0.777100  0.208300  1.0  0.1682
  C  C52  1  0.897000  0.817500  0.384500  1.0  0.1694
  C  C53  1  0.948700  0.867200  0.490700  1.0  -0.3113
  C  C54  1  0.950900  0.987700  0.489300  1.0  0.3646
  C  C55  1  0.795900  0.165000  0.854200  1.0  0.3623
  C  C56  1  0.612800  0.177100  0.882000  1.0  -0.3157
  C  C57  1  0.506800  0.222900  0.791700  1.0  0.1679
  C  C58  1  0.397000  0.182500  0.615500  1.0  0.169
  C  C59  1  0.448700  0.132800  0.509300  1.0  -0.312
  C  C60  1  0.450900  0.012300  0.510700  1.0  0.3649
  N  N61  1  0.103700  0.225400  0.100700  1.0  -0.2618
  N  N62  1  0.275100  0.225000  0.108100  1.0  -0.0827
  N  N63  1  0.320200  0.146000  0.172600  1.0  -0.1071
  N  N64  1  0.177500  0.095200  0.210400  1.0  -0.3002
  N  N65  1  0.797400  0.422200  0.954300  1.0  -0.2766
  N  N66  1  0.766600  0.444000  0.849100  1.0  -0.095
  N  N67  1  0.657800  0.522400  0.843200  1.0  -0.1095
  N  N68  1  0.614000  0.551800  0.946500  1.0  -0.2754
  N  N69  1  0.603700  0.774600  0.899300  1.0  -0.2613
  N  N70  1  0.775100  0.775000  0.891900  1.0  -0.0829
  N  N71  1  0.820200  0.854000  0.827400  1.0  -0.1075
  N  N72  1  0.677500  0.904800  0.789600  1.0  -0.2995
  N  N73  1  0.297400  0.577800  0.045700  1.0  -0.2776
  N  N74  1  0.266600  0.556000  0.150900  1.0  -0.0939
  N  N75  1  0.157800  0.477600  0.156800  1.0  -0.1091
  N  N76  1  0.114000  0.448200  0.053500  1.0  -0.2753
  N  N77  1  0.353700  0.899300  0.225400  1.0  -0.261
  N  N78  1  0.525100  0.891900  0.225000  1.0  -0.083
  N  N79  1  0.570200  0.827400  0.146000  1.0  -0.1075
  N  N80  1  0.427500  0.789600  0.095200  1.0  -0.2999
  N  N81  1  0.047400  0.045700  0.422200  1.0  -0.2771
  N  N82  1  0.016600  0.150900  0.444000  1.0  -0.0959
  N  N83  1  0.907800  0.156800  0.522400  1.0  -0.1103
  N  N84  1  0.864000  0.053500  0.551800  1.0  -0.2761
  N  N85  1  0.853700  0.100700  0.774600  1.0  -0.2608
  N  N86  1  0.025100  0.108100  0.775000  1.0  -0.0826
  N  N87  1  0.070200  0.172600  0.854000  1.0  -0.1079
  N  N88  1  0.927500  0.210400  0.904800  1.0  -0.3006
  N  N89  1  0.547400  0.954300  0.577800  1.0  -0.2775
  N  N90  1  0.516600  0.849100  0.556000  1.0  -0.0935
  N  N91  1  0.407800  0.843200  0.477600  1.0  -0.1055
  N  N92  1  0.364000  0.946500  0.448200  1.0  -0.2765
  O  O93  1  0.765000  0.301000  0.151300  1.0  -0.3722
  O  O94  1  0.265000  0.699000  0.848700  1.0  -0.3721
  O  O95  1  0.015000  0.848700  0.301000  1.0  -0.3708
  O  O96  1  0.515000  0.151300  0.699000  1.0  -0.3723
