# generated using pymatgen
data_CuH8C6N8O
_symmetry_space_group_name_H-M   'P 1'
_cell_length_a   12.39190000
_cell_length_b   12.39190000
_cell_length_c   7.90430000
_cell_angle_alpha   90.00000000
_cell_angle_beta   90.00000000
_cell_angle_gamma   90.00000000
_symmetry_Int_Tables_number   1
_chemical_formula_structural   CuH8C6N8O
_chemical_formula_sum   'Cu4 H32 C24 N32 O4'
_cell_volume   1213.77787082
_cell_formula_units_Z   4
loop_
 _symmetry_equiv_pos_site_id
 _symmetry_equiv_pos_as_xyz
  1  'x, y, z'
loop_
 _atom_site_type_symbol
 _atom_site_label
 _atom_site_symmetry_multiplicity
 _atom_site_fract_x
 _atom_site_fract_y
 _atom_site_fract_z
 _atom_site_occupancy
 _atom_site_charge
  Cu  Cu1  1  0.514290  0.823130  0.805050  1.0  0.7256
  Cu  Cu2  1  0.485710  0.176870  0.305050  1.0  0.7264
  Cu  Cu3  1  0.176870  0.514290  0.055050  1.0  0.7262
  Cu  Cu4  1  0.823130  0.485710  0.555050  1.0  0.7256
  H  H5  1  0.719400  0.554300  0.919800  1.0  0.1312
  H  H6  1  0.604400  0.601700  0.954000  1.0  0.1423
  H  H7  1  0.733600  0.684800  0.131900  1.0  0.082
  H  H8  1  0.795500  0.728000  0.971400  1.0  0.0868
  H  H9  1  0.758800  0.889100  0.133900  1.0  0.0783
  H  H10  1  0.653600  0.865200  0.238300  1.0  0.0957
  H  H11  1  0.658900  0.045800  0.150900  1.0  0.1125
  H  H12  1  0.662100  0.008100  0.961600  1.0  0.1112
  H  H13  1  0.280600  0.445700  0.419800  1.0  0.1304
  H  H14  1  0.395600  0.398300  0.454000  1.0  0.1417
  H  H15  1  0.266400  0.315200  0.631900  1.0  0.0828
  H  H16  1  0.204500  0.272000  0.471400  1.0  0.0891
  H  H17  1  0.241200  0.110900  0.633900  1.0  0.0824
  H  H18  1  0.346400  0.134800  0.738300  1.0  0.0967
  H  H19  1  0.341100  0.954200  0.650900  1.0  0.1146
  H  H20  1  0.337900  0.991900  0.461600  1.0  0.1131
  H  H21  1  0.445700  0.719400  0.169800  1.0  0.1309
  H  H22  1  0.398300  0.604400  0.204000  1.0  0.1409
  H  H23  1  0.315200  0.733600  0.381900  1.0  0.0826
  H  H24  1  0.272000  0.795500  0.221400  1.0  0.0895
  H  H25  1  0.110900  0.758800  0.383900  1.0  0.0772
  H  H26  1  0.134800  0.653600  0.488300  1.0  0.0938
  H  H27  1  0.954200  0.658900  0.400900  1.0  0.1106
  H  H28  1  0.991900  0.662100  0.211600  1.0  0.111
  H  H29  1  0.554300  0.280600  0.669800  1.0  0.1314
  H  H30  1  0.601700  0.395600  0.704000  1.0  0.141
  H  H31  1  0.684800  0.266400  0.881900  1.0  0.0824
  H  H32  1  0.728000  0.204500  0.721400  1.0  0.0902
  H  H33  1  0.889100  0.241200  0.883900  1.0  0.0762
  H  H34  1  0.865200  0.346400  0.988300  1.0  0.0929
  H  H35  1  0.045800  0.341100  0.900900  1.0  0.1104
  H  H36  1  0.008100  0.337900  0.711600  1.0  0.1109
  C  C37  1  0.663700  0.645100  0.722700  1.0  0.3471
  C  C38  1  0.675200  0.618500  0.908800  1.0  -0.3238
  C  C39  1  0.725100  0.708200  0.015500  1.0  0.1057
  C  C40  1  0.680800  0.883900  0.127000  1.0  0.1282
  C  C41  1  0.634800  0.990200  0.073100  1.0  -0.2876
  C  C42  1  0.515300  0.989700  0.068500  1.0  0.3015
  C  C43  1  0.336300  0.354900  0.222700  1.0  0.347
  C  C44  1  0.324800  0.381500  0.408800  1.0  -0.3226
  C  C45  1  0.274900  0.291800  0.515500  1.0  0.1028
  C  C46  1  0.319200  0.116100  0.627000  1.0  0.1272
  C  C47  1  0.365200  0.009800  0.573100  1.0  -0.2876
  C  C48  1  0.484700  0.010300  0.568500  1.0  0.3015
  C  C49  1  0.354900  0.663700  0.972700  1.0  0.3456
  C  C50  1  0.381500  0.675200  0.158800  1.0  -0.3173
  C  C51  1  0.291800  0.725100  0.265500  1.0  0.1024
  C  C52  1  0.116100  0.680800  0.377000  1.0  0.1254
  C  C53  1  0.009800  0.634800  0.323100  1.0  -0.285
  C  C54  1  0.010300  0.515300  0.318500  1.0  0.3013
  C  C55  1  0.645100  0.336300  0.472700  1.0  0.3459
  C  C56  1  0.618500  0.324800  0.658800  1.0  -0.3177
  C  C57  1  0.708200  0.274900  0.765500  1.0  0.1042
  C  C58  1  0.883900  0.319200  0.877000  1.0  0.1268
  C  C59  1  0.990200  0.365200  0.823100  1.0  -0.2869
  C  C60  1  0.989700  0.484700  0.818500  1.0  0.3015
  N  N61  1  0.600100  0.724100  0.666900  1.0  -0.2491
  N  N62  1  0.607300  0.723700  0.496500  1.0  -0.0807
  N  N63  1  0.673700  0.646100  0.452600  1.0  -0.0919
  N  N64  1  0.708300  0.598200  0.594600  1.0  -0.175
  N  N65  1  0.454800  0.921100  0.976800  1.0  -0.2679
  N  N66  1  0.350000  0.945400  0.005700  1.0  -0.1031
  N  N67  1  0.342200  0.023100  0.113400  1.0  -0.208
  N  N68  1  0.447200  0.052400  0.158500  1.0  -0.286
  N  N69  1  0.399900  0.275900  0.166900  1.0  -0.2495
  N  N70  1  0.392700  0.276300  0.996500  1.0  -0.0817
  N  N71  1  0.326300  0.353900  0.952600  1.0  -0.0921
  N  N72  1  0.291700  0.401800  0.094600  1.0  -0.175
  N  N73  1  0.545200  0.078900  0.476800  1.0  -0.2683
  N  N74  1  0.650000  0.054600  0.505700  1.0  -0.1071
  N  N75  1  0.657800  0.976900  0.613400  1.0  -0.2106
  N  N76  1  0.552800  0.947600  0.658500  1.0  -0.2855
  N  N77  1  0.275900  0.600100  0.916900  1.0  -0.2516
  N  N78  1  0.276300  0.607300  0.746500  1.0  -0.0808
  N  N79  1  0.353900  0.673700  0.702600  1.0  -0.0937
  N  N80  1  0.401800  0.708300  0.844600  1.0  -0.1748
  N  N81  1  0.078900  0.454800  0.226800  1.0  -0.2698
  N  N82  1  0.054600  0.350000  0.255700  1.0  -0.0963
  N  N83  1  0.976900  0.342200  0.363400  1.0  -0.204
  N  N84  1  0.947600  0.447200  0.408500  1.0  -0.2878
  N  N85  1  0.724100  0.399900  0.416900  1.0  -0.2509
  N  N86  1  0.723700  0.392700  0.246500  1.0  -0.0802
  N  N87  1  0.646100  0.326300  0.202600  1.0  -0.0928
  N  N88  1  0.598200  0.291700  0.344600  1.0  -0.1761
  N  N89  1  0.921100  0.545200  0.726800  1.0  -0.2698
  N  N90  1  0.945400  0.650000  0.755700  1.0  -0.0957
  N  N91  1  0.023100  0.657800  0.863400  1.0  -0.2028
  N  N92  1  0.052400  0.552800  0.908500  1.0  -0.2882
  O  O93  1  0.651000  0.800000  0.006100  1.0  -0.375
  O  O94  1  0.349000  0.200000  0.506100  1.0  -0.3768
  O  O95  1  0.200000  0.651000  0.256100  1.0  -0.3767
  O  O96  1  0.800000  0.349000  0.756100  1.0  -0.3767
