# generated using pymatgen
data_PrH3C6SO6
_symmetry_space_group_name_H-M   'P 1'
_cell_length_a   11.52880000
_cell_length_b   12.35650000
_cell_length_c   21.86100000
_cell_angle_alpha   90.00000000
_cell_angle_beta   90.00000000
_cell_angle_gamma   117.80800000
_symmetry_Int_Tables_number   1
_chemical_formula_structural   PrH3C6SO6
_chemical_formula_sum   'Pr8 H24 C48 S8 O48'
_cell_volume   2754.57892826
_cell_formula_units_Z   8
loop_
 _symmetry_equiv_pos_site_id
 _symmetry_equiv_pos_as_xyz
  1  'x, y, z'
loop_
 _atom_site_type_symbol
 _atom_site_label
 _atom_site_symmetry_multiplicity
 _atom_site_fract_x
 _atom_site_fract_y
 _atom_site_fract_z
 _atom_site_occupancy
 _atom_site_charge
  Pr  Pr1  1  0.957520  0.000000  0.346570  1.0  2.257
  Pr  Pr2  1  0.042480  0.000000  0.846570  1.0  2.2576
  Pr  Pr3  1  0.957520  0.000000  0.153430  1.0  2.2565
  Pr  Pr4  1  0.042480  0.000000  0.653430  1.0  2.2574
  Pr  Pr5  1  0.276340  0.186880  0.250000  1.0  2.1558
  Pr  Pr6  1  0.723660  0.813120  0.750000  1.0  2.1514
  Pr  Pr7  1  0.089460  0.813120  0.250000  1.0  2.1551
  Pr  Pr8  1  0.910540  0.186880  0.750000  1.0  2.1518
  H  H9  1  0.424500  0.438800  0.386300  1.0  0.1018
  H  H10  1  0.766900  0.778800  0.473300  1.0  0.0914
  H  H11  1  0.575500  0.561200  0.886300  1.0  0.1019
  H  H12  1  0.233100  0.221200  0.973300  1.0  0.091
  H  H13  1  0.985700  0.561200  0.113700  1.0  0.1024
  H  H14  1  0.988100  0.221200  0.026700  1.0  0.0905
  H  H15  1  0.014300  0.438800  0.613700  1.0  0.1027
  H  H16  1  0.011900  0.778800  0.526700  1.0  0.0905
  H  H17  1  0.575500  0.561200  0.613700  1.0  0.1027
  H  H18  1  0.233100  0.221200  0.526700  1.0  0.0911
  H  H19  1  0.424500  0.438800  0.113700  1.0  0.1025
  H  H20  1  0.766900  0.778800  0.026700  1.0  0.0914
  H  H21  1  0.014300  0.438800  0.886300  1.0  0.1019
  H  H22  1  0.011900  0.778800  0.973300  1.0  0.0917
  H  H23  1  0.985700  0.561200  0.386300  1.0  0.1018
  H  H24  1  0.988100  0.221200  0.473300  1.0  0.0909
  H  H25  1  0.193300  0.000000  0.345700  1.0  0.4806
  H  H26  1  0.806700  0.000000  0.845700  1.0  0.4808
  H  H27  1  0.193300  0.000000  0.154300  1.0  0.4808
  H  H28  1  0.806700  0.000000  0.654300  1.0  0.4807
  H  H29  1  0.035300  0.188400  0.250000  1.0  0.4984
  H  H30  1  0.964700  0.811600  0.750000  1.0  0.4967
  H  H31  1  0.846900  0.811600  0.250000  1.0  0.4924
  H  H32  1  0.153100  0.188400  0.750000  1.0  0.4942
  C  C33  1  0.226400  0.224400  0.404800  1.0  0.7655
  C  C34  1  0.317000  0.316600  0.449000  1.0  -0.168
  C  C35  1  0.416500  0.424000  0.428200  1.0  -0.0195
  C  C36  1  0.506800  0.512600  0.467500  1.0  0.0816
  C  C37  1  0.613500  0.624600  0.447600  1.0  -0.2304
  C  C38  1  0.698000  0.706400  0.487700  1.0  0.016
  C  C39  1  0.773600  0.775600  0.904800  1.0  0.7653
  C  C40  1  0.683000  0.683400  0.949000  1.0  -0.1669
  C  C41  1  0.583500  0.576000  0.928200  1.0  -0.019
  C  C42  1  0.493200  0.487400  0.967500  1.0  0.0816
  C  C43  1  0.386500  0.375400  0.947600  1.0  -0.2295
  C  C44  1  0.302000  0.293600  0.987700  1.0  0.0155
  C  C45  1  0.002000  0.775600  0.095200  1.0  0.765
  C  C46  1  0.000400  0.683400  0.051000  1.0  -0.1678
  C  C47  1  0.992500  0.576000  0.071800  1.0  -0.0198
  C  C48  1  0.994200  0.487400  0.032500  1.0  0.0815
  C  C49  1  0.988900  0.375400  0.052400  1.0  -0.2295
  C  C50  1  0.991600  0.293600  0.012300  1.0  0.0155
  C  C51  1  0.998000  0.224400  0.595200  1.0  0.7651
  C  C52  1  0.999600  0.316600  0.551000  1.0  -0.1677
  C  C53  1  0.007500  0.424000  0.571800  1.0  -0.0198
  C  C54  1  0.005800  0.512600  0.532500  1.0  0.0814
  C  C55  1  0.011100  0.624600  0.552400  1.0  -0.2298
  C  C56  1  0.008400  0.706400  0.512300  1.0  0.0158
  C  C57  1  0.773600  0.775600  0.595200  1.0  0.7643
  C  C58  1  0.683000  0.683400  0.551000  1.0  -0.1671
  C  C59  1  0.583500  0.576000  0.571800  1.0  -0.0199
  C  C60  1  0.493200  0.487400  0.532500  1.0  0.0817
  C  C61  1  0.386500  0.375400  0.552400  1.0  -0.2293
  C  C62  1  0.302000  0.293600  0.512300  1.0  0.0153
  C  C63  1  0.226400  0.224400  0.095200  1.0  0.7651
  C  C64  1  0.317000  0.316600  0.051000  1.0  -0.1683
  C  C65  1  0.416500  0.424000  0.071800  1.0  -0.0197
  C  C66  1  0.506800  0.512600  0.032500  1.0  0.0816
  C  C67  1  0.613500  0.624600  0.052400  1.0  -0.23
  C  C68  1  0.698000  0.706400  0.012300  1.0  0.0161
  C  C69  1  0.998000  0.224400  0.904800  1.0  0.7649
  C  C70  1  0.999600  0.316600  0.949000  1.0  -0.1674
  C  C71  1  0.007500  0.424000  0.928200  1.0  -0.019
  C  C72  1  0.005800  0.512600  0.967500  1.0  0.0819
  C  C73  1  0.011100  0.624600  0.947600  1.0  -0.2299
  C  C74  1  0.008400  0.706400  0.987700  1.0  0.0157
  C  C75  1  0.002000  0.775600  0.404800  1.0  0.7648
  C  C76  1  0.000400  0.683400  0.449000  1.0  -0.1676
  C  C77  1  0.992500  0.576000  0.428200  1.0  -0.0193
  C  C78  1  0.994200  0.487400  0.467500  1.0  0.0818
  C  C79  1  0.988900  0.375400  0.447600  1.0  -0.23
  C  C80  1  0.991600  0.293600  0.487700  1.0  0.0158
  S  S81  1  0.639760  0.659640  0.367950  1.0  1.3977
  S  S82  1  0.360240  0.340360  0.867950  1.0  1.3979
  S  S83  1  0.980120  0.340360  0.132050  1.0  1.3981
  S  S84  1  0.019880  0.659640  0.632050  1.0  1.3986
  S  S85  1  0.360240  0.340360  0.632050  1.0  1.3988
  S  S86  1  0.639760  0.659640  0.132050  1.0  1.3982
  S  S87  1  0.019880  0.659640  0.867950  1.0  1.3978
  S  S88  1  0.980120  0.340360  0.367950  1.0  1.3977
  O  O89  1  0.250900  0.251200  0.348500  1.0  -0.7817
  O  O90  1  0.133200  0.126800  0.423500  1.0  -0.6472
  O  O91  1  0.748900  0.780800  0.363000  1.0  -0.8285
  O  O92  1  0.519100  0.651000  0.343800  1.0  -0.6249
  O  O93  1  0.668300  0.565800  0.342300  1.0  -0.63
  O  O94  1  0.749100  0.748800  0.848500  1.0  -0.7833
  O  O95  1  0.866800  0.873200  0.923500  1.0  -0.6477
  O  O96  1  0.251100  0.219200  0.863000  1.0  -0.8284
  O  O97  1  0.480900  0.349000  0.843800  1.0  -0.625
  O  O98  1  0.331700  0.434200  0.842300  1.0  -0.6304
  O  O99  1  0.999700  0.748800  0.151500  1.0  -0.7825
  O  O100  1  0.006400  0.873200  0.076500  1.0  -0.6449
  O  O101  1  0.968100  0.219200  0.137000  1.0  -0.8319
  O  O102  1  0.868100  0.349000  0.156200  1.0  -0.6231
  O  O103  1  0.102500  0.434200  0.157700  1.0  -0.6286
  O  O104  1  0.000300  0.251200  0.651500  1.0  -0.7834
  O  O105  1  0.993600  0.126800  0.576500  1.0  -0.6465
  O  O106  1  0.031900  0.780800  0.637000  1.0  -0.8313
  O  O107  1  0.131900  0.651000  0.656200  1.0  -0.624
  O  O108  1  0.897500  0.565800  0.657700  1.0  -0.6287
  O  O109  1  0.749100  0.748800  0.651500  1.0  -0.7831
  O  O110  1  0.866800  0.873200  0.576500  1.0  -0.6477
  O  O111  1  0.251100  0.219200  0.637000  1.0  -0.8277
  O  O112  1  0.480900  0.349000  0.656200  1.0  -0.6239
  O  O113  1  0.331700  0.434200  0.657700  1.0  -0.6284
  O  O114  1  0.250900  0.251200  0.151500  1.0  -0.7826
  O  O115  1  0.133200  0.126800  0.076500  1.0  -0.6476
  O  O116  1  0.748900  0.780800  0.137000  1.0  -0.8284
  O  O117  1  0.519100  0.651000  0.156200  1.0  -0.6239
  O  O118  1  0.668300  0.565800  0.157700  1.0  -0.629
  O  O119  1  0.000300  0.251200  0.848500  1.0  -0.7823
  O  O120  1  0.993600  0.126800  0.923500  1.0  -0.6461
  O  O121  1  0.031900  0.780800  0.863000  1.0  -0.8314
  O  O122  1  0.131900  0.651000  0.843800  1.0  -0.6247
  O  O123  1  0.897500  0.565800  0.842300  1.0  -0.6299
  O  O124  1  0.999700  0.748800  0.348500  1.0  -0.7825
  O  O125  1  0.006400  0.873200  0.423500  1.0  -0.6452
  O  O126  1  0.968100  0.219200  0.363000  1.0  -0.8324
  O  O127  1  0.868100  0.349000  0.343800  1.0  -0.6232
  O  O128  1  0.102500  0.434200  0.342300  1.0  -0.6308
  O  O129  1  0.159700  0.000000  0.311100  1.0  -1.2471
  O  O130  1  0.840300  0.000000  0.811100  1.0  -1.2542
  O  O131  1  0.159700  0.000000  0.188900  1.0  -1.2423
  O  O132  1  0.840300  0.000000  0.688900  1.0  -1.2495
  O  O133  1  0.036500  0.120200  0.250000  1.0  -1.1689
  O  O134  1  0.963500  0.879800  0.750000  1.0  -1.1691
  O  O135  1  0.916300  0.879800  0.250000  1.0  -1.2081
  O  O136  1  0.083700  0.120200  0.750000  1.0  -1.1996
