# generated using pymatgen
data_GdH12(C7O2)3
_symmetry_space_group_name_H-M   'P 1'
_cell_length_a   8.80600000
_cell_length_b   15.60310000
_cell_length_c   19.23820000
_cell_angle_alpha   67.85200000
_cell_angle_beta   76.76960000
_cell_angle_gamma   73.60920000
_symmetry_Int_Tables_number   1
_chemical_formula_structural   GdH12(C7O2)3
_chemical_formula_sum   'Gd4 H48 C84 O24'
_cell_volume   2326.37982295
_cell_formula_units_Z   4
loop_
 _symmetry_equiv_pos_site_id
 _symmetry_equiv_pos_as_xyz
  1  'x, y, z'
loop_
 _atom_site_type_symbol
 _atom_site_label
 _atom_site_symmetry_multiplicity
 _atom_site_fract_x
 _atom_site_fract_y
 _atom_site_fract_z
 _atom_site_occupancy
 _atom_site_charge
  Gd  Gd1  1  0.907720  0.723710  0.781120  1.0  2.2421
  Gd  Gd2  1  0.412550  0.776290  0.718880  1.0  2.2407
  Gd  Gd3  1  0.092280  0.276290  0.218880  1.0  2.2411
  Gd  Gd4  1  0.587450  0.223710  0.281120  1.0  2.2411
  H  H5  1  0.933800  0.438200  0.739400  1.0  0.1103
  H  H6  1  0.956100  0.349300  0.662300  1.0  0.1103
  H  H7  1  0.601000  0.545900  0.553100  1.0  0.0989
  H  H8  1  0.591300  0.640300  0.624100  1.0  0.0864
  H  H9  1  0.038100  0.377400  0.513000  1.0  0.1072
  H  H10  1  0.061900  0.305900  0.423700  1.0  0.0967
  H  H11  1  0.592900  0.300600  0.476600  1.0  0.1077
  H  H12  1  0.566400  0.374400  0.565600  1.0  0.1049
  H  H13  1  0.555600  0.440100  0.812700  1.0  0.1118
  H  H14  1  0.636600  0.289200  0.802400  1.0  0.1009
  H  H15  1  0.247900  0.339200  0.702800  1.0  0.106
  H  H16  1  0.163900  0.489100  0.715300  1.0  0.1011
  H  H17  1  0.111400  0.061800  0.760600  1.0  0.1088
  H  H18  1  0.967700  0.150700  0.837700  1.0  0.1095
  H  H19  1  0.700000  0.954100  0.946900  1.0  0.0991
  H  H20  1  0.855700  0.859700  0.875900  1.0  0.0904
  H  H21  1  0.928500  0.122600  0.987000  1.0  0.1096
  H  H22  1  0.791500  0.194100  0.076300  1.0  0.0976
  H  H23  1  0.370100  0.199400  0.023400  1.0  0.1078
  H  H24  1  0.506400  0.125600  0.934400  1.0  0.1041
  H  H25  1  0.808400  0.059900  0.687300  1.0  0.1127
  H  H26  1  0.728200  0.210800  0.697600  1.0  0.1009
  H  H27  1  0.289900  0.160800  0.797200  1.0  0.1053
  H  H28  1  0.368300  0.010900  0.784700  1.0  0.1015
  H  H29  1  0.066200  0.561800  0.260600  1.0  0.1096
  H  H30  1  0.043900  0.650700  0.337700  1.0  0.1103
  H  H31  1  0.399000  0.454100  0.446900  1.0  0.0995
  H  H32  1  0.408700  0.359700  0.375900  1.0  0.0898
  H  H33  1  0.961900  0.622600  0.487000  1.0  0.1073
  H  H34  1  0.938100  0.694100  0.576300  1.0  0.0965
  H  H35  1  0.407100  0.699400  0.523400  1.0  0.1082
  H  H36  1  0.433600  0.625600  0.434400  1.0  0.1045
  H  H37  1  0.444400  0.559900  0.187300  1.0  0.1121
  H  H38  1  0.363400  0.710800  0.197600  1.0  0.1003
  H  H39  1  0.752100  0.660800  0.297200  1.0  0.1059
  H  H40  1  0.836100  0.510900  0.284700  1.0  0.1008
  H  H41  1  0.888600  0.938200  0.239400  1.0  0.1092
  H  H42  1  0.032300  0.849300  0.162300  1.0  0.1097
  H  H43  1  0.300000  0.045900  0.053100  1.0  0.0993
  H  H44  1  0.144300  0.140300  0.124100  1.0  0.0858
  H  H45  1  0.071500  0.877400  0.013000  1.0  0.11
  H  H46  1  0.208500  0.805900  0.923700  1.0  0.097
  H  H47  1  0.629900  0.800600  0.976600  1.0  0.1074
  H  H48  1  0.493600  0.874400  0.065600  1.0  0.1039
  H  H49  1  0.191600  0.940100  0.312700  1.0  0.1122
  H  H50  1  0.271800  0.789200  0.302400  1.0  0.1014
  H  H51  1  0.710100  0.839200  0.202800  1.0  0.1062
  H  H52  1  0.631700  0.989100  0.215300  1.0  0.1018
  C  C53  1  0.766540  0.611420  0.731100  1.0  0.7238
  C  C54  1  0.764170  0.549690  0.687570  1.0  -0.162
  C  C55  1  0.869320  0.461660  0.699900  1.0  -0.0388
  C  C56  1  0.880680  0.407900  0.654940  1.0  -0.1546
  C  C57  1  0.782170  0.439340  0.599120  1.0  0.0618
  C  C58  1  0.672120  0.525060  0.589500  1.0  -0.1297
  C  C59  1  0.664670  0.580810  0.632450  1.0  -0.0257
  C  C60  1  0.798380  0.386010  0.546830  1.0  0.0436
  C  C61  1  0.946640  0.363330  0.504990  1.0  -0.1401
  C  C62  1  0.960700  0.320510  0.452090  1.0  -0.008
  C  C63  1  0.829370  0.298480  0.439780  1.0  -0.1602
  C  C64  1  0.682850  0.317520  0.483180  1.0  -0.0614
  C  C65  1  0.667180  0.361330  0.536310  1.0  -0.1366
  C  C66  1  0.845600  0.257640  0.378560  1.0  0.804
  C  C67  1  0.296340  0.575950  0.772970  1.0  0.7935
  C  C68  1  0.351330  0.479040  0.765700  1.0  -0.1509
  C  C69  1  0.492010  0.419400  0.790980  1.0  -0.0328
  C  C70  1  0.540280  0.329730  0.784710  1.0  -0.1491
  C  C71  1  0.448740  0.298320  0.752600  1.0  0.0594
  C  C72  1  0.309750  0.359100  0.726000  1.0  -0.1553
  C  C73  1  0.260220  0.448660  0.732900  1.0  -0.034
  C  C74  1  0.109060  0.888580  0.768900  1.0  0.7196
  C  C75  1  0.001430  0.950310  0.812430  1.0  -0.1624
  C  C76  1  0.030880  0.038340  0.800100  1.0  -0.0383
  C  C77  1  0.943520  0.092100  0.845060  1.0  -0.1557
  C  C78  1  0.820630  0.060660  0.900880  1.0  0.062
  C  C79  1  0.786680  0.974940  0.910500  1.0  -0.1298
  C  C80  1  0.877930  0.919190  0.867550  1.0  -0.026
  C  C81  1  0.731220  0.113990  0.953170  1.0  0.0446
  C  C82  1  0.814960  0.136670  0.995010  1.0  -0.1404
  C  C83  1  0.733300  0.179490  0.047910  1.0  -0.0074
  C  C84  1  0.567630  0.201520  0.060220  1.0  -0.1646
  C  C85  1  0.483550  0.182480  0.016820  1.0  -0.0735
  C  C86  1  0.564820  0.138670  0.963690  1.0  -0.1364
  C  C87  1  0.481800  0.242360  0.121440  1.0  0.8046
  C  C88  1  0.645260  0.924050  0.727030  1.0  0.7928
  C  C89  1  0.596070  0.020960  0.734300  1.0  -0.147
  C  C90  1  0.702390  0.080600  0.709020  1.0  -0.0331
  C  C91  1  0.654720  0.170270  0.715290  1.0  -0.1496
  C  C92  1  0.499660  0.201680  0.747400  1.0  0.0586
  C  C93  1  0.394850  0.140900  0.774000  1.0  -0.1567
  C  C94  1  0.441780  0.051340  0.767100  1.0  -0.0363
  C  C95  1  0.233460  0.388580  0.268900  1.0  0.7245
  C  C96  1  0.235830  0.450310  0.312430  1.0  -0.1613
  C  C97  1  0.130680  0.538340  0.300100  1.0  -0.0359
  C  C98  1  0.119320  0.592100  0.345060  1.0  -0.1538
  C  C99  1  0.217830  0.560660  0.400880  1.0  0.0594
  C  C100  1  0.327880  0.474940  0.410500  1.0  -0.1302
  C  C101  1  0.335330  0.419190  0.367550  1.0  -0.0267
  C  C102  1  0.201620  0.613990  0.453170  1.0  0.0429
  C  C103  1  0.053360  0.636670  0.495010  1.0  -0.1383
  C  C104  1  0.039300  0.679490  0.547910  1.0  -0.008
  C  C105  1  0.170630  0.701520  0.560220  1.0  -0.1642
  C  C106  1  0.317150  0.682480  0.516820  1.0  -0.075
  C  C107  1  0.332820  0.638670  0.463690  1.0  -0.1378
  C  C108  1  0.154400  0.742360  0.621440  1.0  0.7864
  C  C109  1  0.703660  0.424050  0.227030  1.0  0.7768
  C  C110  1  0.648670  0.520960  0.234300  1.0  -0.1465
  C  C111  1  0.507990  0.580600  0.209020  1.0  -0.0313
  C  C112  1  0.459720  0.670270  0.215290  1.0  -0.1497
  C  C113  1  0.551260  0.701680  0.247400  1.0  0.0597
  C  C114  1  0.690250  0.640900  0.274000  1.0  -0.1546
  C  C115  1  0.739780  0.551340  0.267100  1.0  -0.0355
  C  C116  1  0.890940  0.111420  0.231100  1.0  0.7201
  C  C117  1  0.998570  0.049690  0.187570  1.0  -0.1615
  C  C118  1  0.969120  0.961660  0.199900  1.0  -0.0369
  C  C119  1  0.056480  0.907900  0.154940  1.0  -0.1539
  C  C120  1  0.179370  0.939340  0.099120  1.0  0.0624
  C  C121  1  0.213320  0.025060  0.089500  1.0  -0.1306
  C  C122  1  0.122070  0.080810  0.132450  1.0  -0.0257
  C  C123  1  0.268780  0.886010  0.046830  1.0  0.0449
  C  C124  1  0.185040  0.863330  0.004990  1.0  -0.14
  C  C125  1  0.266700  0.820510  0.952090  1.0  -0.0077
  C  C126  1  0.432370  0.798480  0.939780  1.0  -0.1612
  C  C127  1  0.516450  0.817520  0.983180  1.0  -0.0646
  C  C128  1  0.435180  0.861330  0.036310  1.0  -0.1374
  C  C129  1  0.518200  0.757640  0.878560  1.0  0.7853
  C  C130  1  0.354740  0.075950  0.272970  1.0  0.7798
  C  C131  1  0.403930  0.979040  0.265700  1.0  -0.1475
  C  C132  1  0.297610  0.919400  0.290980  1.0  -0.0335
  C  C133  1  0.345280  0.829730  0.284710  1.0  -0.1486
  C  C134  1  0.500340  0.798320  0.252600  1.0  0.0596
  C  C135  1  0.605150  0.859100  0.226000  1.0  -0.1569
  C  C136  1  0.558220  0.948660  0.232900  1.0  -0.034
  O  O137  1  0.856350  0.578860  0.781400  1.0  -0.6387
  O  O138  1  0.688670  0.696850  0.712890  1.0  -0.8342
  O  O139  1  0.984710  0.237730  0.344830  1.0  -0.7025
  O  O140  1  0.720960  0.247120  0.363840  1.0  -0.7942
  O  O141  1  0.148820  0.610280  0.777680  1.0  -0.743
  O  O142  1  0.401170  0.616500  0.773320  1.0  -0.6969
  O  O143  1  0.216610  0.921140  0.718600  1.0  -0.6379
  O  O144  1  0.098410  0.803150  0.787110  1.0  -0.8362
  O  O145  1  0.567270  0.262270  0.155170  1.0  -0.702
  O  O146  1  0.331920  0.252880  0.136160  1.0  -0.7932
  O  O147  1  0.536780  0.889720  0.722320  1.0  -0.7389
  O  O148  1  0.790990  0.883500  0.726680  1.0  -0.6991
  O  O149  1  0.143650  0.421140  0.218600  1.0  -0.6368
  O  O150  1  0.311330  0.303150  0.287110  1.0  -0.8363
  O  O151  1  0.015290  0.762270  0.655170  1.0  -0.7023
  O  O152  1  0.279040  0.752880  0.636160  1.0  -0.7942
  O  O153  1  0.851180  0.389720  0.222320  1.0  -0.7382
  O  O154  1  0.598830  0.383500  0.226680  1.0  -0.6983
  O  O155  1  0.783390  0.078860  0.281400  1.0  -0.6384
  O  O156  1  0.901590  0.196850  0.212890  1.0  -0.8335
  O  O157  1  0.432730  0.737730  0.844830  1.0  -0.703
  O  O158  1  0.668080  0.747120  0.863840  1.0  -0.7927
  O  O159  1  0.463220  0.110280  0.277680  1.0  -0.7382
  O  O160  1  0.209010  0.116500  0.273320  1.0  -0.6998
