# generated using pymatgen
data_Ce2H9C15(NO2)6
_symmetry_space_group_name_H-M   'P 1'
_cell_length_a   19.23470000
_cell_length_b   13.25630000
_cell_length_c   16.75590000
_cell_angle_alpha   90.00000000
_cell_angle_beta   123.90900000
_cell_angle_gamma   90.00000000
_symmetry_Int_Tables_number   1
_chemical_formula_structural   Ce2H9C15(NO2)6
_chemical_formula_sum   'Ce8 H36 C60 N24 O48'
_cell_volume   3545.79948306
_cell_formula_units_Z   4
loop_
 _symmetry_equiv_pos_site_id
 _symmetry_equiv_pos_as_xyz
  1  'x, y, z'
loop_
 _atom_site_type_symbol
 _atom_site_label
 _atom_site_symmetry_multiplicity
 _atom_site_fract_x
 _atom_site_fract_y
 _atom_site_fract_z
 _atom_site_occupancy
 _atom_site_charge
  Ce  Ce1  1  0.221680  0.422680  0.268020  1.0  2.1603
  Ce  Ce2  1  0.721680  0.922680  0.268020  1.0  2.1603
  Ce  Ce3  1  0.778320  0.422680  0.231980  1.0  2.1606
  Ce  Ce4  1  0.278320  0.922680  0.231980  1.0  2.1606
  Ce  Ce5  1  0.778320  0.577320  0.731980  1.0  2.1591
  Ce  Ce6  1  0.278320  0.077320  0.731980  1.0  2.1591
  Ce  Ce7  1  0.221680  0.577320  0.768020  1.0  2.1582
  Ce  Ce8  1  0.721680  0.077320  0.768020  1.0  2.1582
  H  H9  1  0.810100  0.265700  0.934300  1.0  0.3352
  H  H10  1  0.992800  0.351900  0.071600  1.0  0.2396
  H  H11  1  0.073600  0.376300  0.297100  1.0  0.2314
  H  H12  1  0.059200  0.076800  0.058000  1.0  0.0605
  H  H13  1  0.310100  0.765700  0.934300  1.0  0.3352
  H  H14  1  0.492800  0.851900  0.071600  1.0  0.2396
  H  H15  1  0.573600  0.876300  0.297100  1.0  0.2314
  H  H16  1  0.559200  0.576800  0.058000  1.0  0.0605
  H  H17  1  0.189900  0.265700  0.565700  1.0  0.3351
  H  H18  1  0.007200  0.351900  0.428400  1.0  0.2387
  H  H19  1  0.926400  0.376300  0.202900  1.0  0.2319
  H  H20  1  0.940800  0.076800  0.442000  1.0  0.0606
  H  H21  1  0.689900  0.765700  0.565700  1.0  0.3351
  H  H22  1  0.507200  0.851900  0.428400  1.0  0.2387
  H  H23  1  0.426400  0.876300  0.202900  1.0  0.2319
  H  H24  1  0.440800  0.576800  0.442000  1.0  0.0606
  H  H25  1  0.189900  0.734300  0.065700  1.0  0.3349
  H  H26  1  0.007200  0.648100  0.928400  1.0  0.2391
  H  H27  1  0.926400  0.623700  0.702900  1.0  0.2309
  H  H28  1  0.940800  0.923200  0.942000  1.0  0.0616
  H  H29  1  0.689900  0.234300  0.065700  1.0  0.3349
  H  H30  1  0.507200  0.148100  0.928400  1.0  0.2391
  H  H31  1  0.426400  0.123700  0.702900  1.0  0.2309
  H  H32  1  0.440800  0.423200  0.942000  1.0  0.0616
  H  H33  1  0.810100  0.734300  0.434300  1.0  0.3345
  H  H34  1  0.992800  0.648100  0.571600  1.0  0.2385
  H  H35  1  0.073600  0.623700  0.797100  1.0  0.2311
  H  H36  1  0.059200  0.923200  0.558000  1.0  0.0614
  H  H37  1  0.310100  0.234300  0.434300  1.0  0.3345
  H  H38  1  0.492800  0.148100  0.571600  1.0  0.2385
  H  H39  1  0.573600  0.123700  0.797100  1.0  0.2311
  H  H40  1  0.559200  0.423200  0.558000  1.0  0.0614
  H  H41  1  0.000000  0.094400  0.250000  1.0  0.0658
  H  H42  1  0.500000  0.594400  0.250000  1.0  0.0658
  H  H43  1  0.000000  0.905600  0.750000  1.0  0.0644
  H  H44  1  0.500000  0.405600  0.750000  1.0  0.0644
  C  C45  1  0.129200  0.205200  0.132200  1.0  0.0207
  C  C46  1  0.059900  0.144500  0.072900  1.0  -0.1487
  C  C47  1  0.992200  0.208300  0.041000  1.0  -0.0678
  C  C48  1  0.220700  0.183600  0.190200  1.0  0.6896
  C  C49  1  0.901200  0.194700  0.975500  1.0  0.6089
  C  C50  1  0.158200  0.201900  0.351100  1.0  0.581
  C  C51  1  0.068400  0.227800  0.294100  1.0  0.0576
  C  C52  1  0.629200  0.705200  0.132200  1.0  0.0207
  C  C53  1  0.559900  0.644500  0.072900  1.0  -0.1487
  C  C54  1  0.492200  0.708300  0.041000  1.0  -0.0678
  C  C55  1  0.720700  0.683600  0.190200  1.0  0.6896
  C  C56  1  0.401200  0.694700  0.975500  1.0  0.6089
  C  C57  1  0.658200  0.701900  0.351100  1.0  0.581
  C  C58  1  0.568400  0.727800  0.294100  1.0  0.0576
  C  C59  1  0.870800  0.205200  0.367800  1.0  0.0216
  C  C60  1  0.940100  0.144500  0.427100  1.0  -0.1473
  C  C61  1  0.007800  0.208300  0.459000  1.0  -0.0648
  C  C62  1  0.779300  0.183600  0.309800  1.0  0.688
  C  C63  1  0.098800  0.194700  0.524500  1.0  0.6121
  C  C64  1  0.841800  0.201900  0.148900  1.0  0.5796
  C  C65  1  0.931600  0.227800  0.205900  1.0  0.0549
  C  C66  1  0.370800  0.705200  0.367800  1.0  0.0216
  C  C67  1  0.440100  0.644500  0.427100  1.0  -0.1473
  C  C68  1  0.507800  0.708300  0.459000  1.0  -0.0648
  C  C69  1  0.279300  0.683600  0.309800  1.0  0.688
  C  C70  1  0.598800  0.694700  0.524500  1.0  0.6121
  C  C71  1  0.341800  0.701900  0.148900  1.0  0.5796
  C  C72  1  0.431600  0.727800  0.205900  1.0  0.0549
  C  C73  1  0.870800  0.794800  0.867800  1.0  0.0209
  C  C74  1  0.940100  0.855500  0.927100  1.0  -0.1468
  C  C75  1  0.007800  0.791700  0.959000  1.0  -0.0663
  C  C76  1  0.779300  0.816400  0.809800  1.0  0.6877
  C  C77  1  0.098800  0.805300  0.024500  1.0  0.6101
  C  C78  1  0.841800  0.798100  0.648900  1.0  0.5817
  C  C79  1  0.931600  0.772200  0.705900  1.0  0.0543
  C  C80  1  0.370800  0.294800  0.867800  1.0  0.0209
  C  C81  1  0.440100  0.355500  0.927100  1.0  -0.1468
  C  C82  1  0.507800  0.291700  0.959000  1.0  -0.0663
  C  C83  1  0.279300  0.316400  0.809800  1.0  0.6877
  C  C84  1  0.598800  0.305300  0.024500  1.0  0.6101
  C  C85  1  0.341800  0.298100  0.648900  1.0  0.5817
  C  C86  1  0.431600  0.272200  0.705900  1.0  0.0543
  C  C87  1  0.129200  0.794800  0.632200  1.0  0.0215
  C  C88  1  0.059900  0.855500  0.572900  1.0  -0.1481
  C  C89  1  0.992200  0.791700  0.541000  1.0  -0.0665
  C  C90  1  0.220700  0.816400  0.690200  1.0  0.6896
  C  C91  1  0.901200  0.805300  0.475500  1.0  0.6083
  C  C92  1  0.158200  0.798100  0.851100  1.0  0.5831
  C  C93  1  0.068400  0.772200  0.794100  1.0  0.0564
  C  C94  1  0.629200  0.294800  0.632200  1.0  0.0215
  C  C95  1  0.559900  0.355500  0.572900  1.0  -0.1481
  C  C96  1  0.492200  0.291700  0.541000  1.0  -0.0665
  C  C97  1  0.720700  0.316400  0.690200  1.0  0.6896
  C  C98  1  0.401200  0.305300  0.475500  1.0  0.6083
  C  C99  1  0.658200  0.298100  0.851100  1.0  0.5831
  C  C100  1  0.568400  0.272200  0.794100  1.0  0.0564
  C  C101  1  0.000000  0.164600  0.250000  1.0  -0.1413
  C  C102  1  0.500000  0.664600  0.250000  1.0  -0.1413
  C  C103  1  0.000000  0.835400  0.750000  1.0  -0.1404
  C  C104  1  0.500000  0.335400  0.750000  1.0  -0.1404
  N  N105  1  0.106290  0.299300  0.137100  1.0  -0.3647
  N  N106  1  0.023210  0.299800  0.081200  1.0  -0.1401
  N  N107  1  0.042000  0.323800  0.277000  1.0  -0.2273
  N  N108  1  0.606290  0.799300  0.137100  1.0  -0.3647
  N  N109  1  0.523210  0.799800  0.081200  1.0  -0.1401
  N  N110  1  0.542000  0.823800  0.277000  1.0  -0.2273
  N  N111  1  0.893710  0.299300  0.362900  1.0  -0.3643
  N  N112  1  0.976790  0.299800  0.418800  1.0  -0.1402
  N  N113  1  0.958000  0.323800  0.223000  1.0  -0.2272
  N  N114  1  0.393710  0.799300  0.362900  1.0  -0.3643
  N  N115  1  0.476790  0.799800  0.418800  1.0  -0.1402
  N  N116  1  0.458000  0.823800  0.223000  1.0  -0.2272
  N  N117  1  0.893710  0.700700  0.862900  1.0  -0.3612
  N  N118  1  0.976790  0.700200  0.918800  1.0  -0.1405
  N  N119  1  0.958000  0.676200  0.723000  1.0  -0.2258
  N  N120  1  0.393710  0.200700  0.862900  1.0  -0.3612
  N  N121  1  0.476790  0.200200  0.918800  1.0  -0.1405
  N  N122  1  0.458000  0.176200  0.723000  1.0  -0.2258
  N  N123  1  0.106290  0.700700  0.637100  1.0  -0.3625
  N  N124  1  0.023210  0.700200  0.581200  1.0  -0.1405
  N  N125  1  0.042000  0.676200  0.777000  1.0  -0.227
  N  N126  1  0.606290  0.200700  0.637100  1.0  -0.3625
  N  N127  1  0.523210  0.200200  0.581200  1.0  -0.1405
  N  N128  1  0.542000  0.176200  0.777000  1.0  -0.227
  O  O129  1  0.269090  0.256680  0.235600  1.0  -0.7342
  O  O130  1  0.243540  0.096140  0.188900  1.0  -0.7863
  O  O131  1  0.868400  0.117400  0.930410  1.0  -0.6212
  O  O132  1  0.860560  0.275000  0.972100  1.0  -0.5633
  O  O133  1  0.208380  0.270500  0.360400  1.0  -0.7381
  O  O134  1  0.180450  0.115800  0.384700  1.0  -0.5621
  O  O135  1  0.769090  0.756680  0.235600  1.0  -0.7342
  O  O136  1  0.743540  0.596140  0.188900  1.0  -0.7863
  O  O137  1  0.368400  0.617400  0.930410  1.0  -0.6212
  O  O138  1  0.360560  0.775000  0.972100  1.0  -0.5633
  O  O139  1  0.708380  0.770500  0.360400  1.0  -0.7381
  O  O140  1  0.680450  0.615800  0.384700  1.0  -0.5621
  O  O141  1  0.730910  0.256680  0.264400  1.0  -0.732
  O  O142  1  0.756460  0.096140  0.311100  1.0  -0.7839
  O  O143  1  0.131600  0.117400  0.569590  1.0  -0.6208
  O  O144  1  0.139440  0.275000  0.527900  1.0  -0.563
  O  O145  1  0.791620  0.270500  0.139600  1.0  -0.7365
  O  O146  1  0.819550  0.115800  0.115300  1.0  -0.5615
  O  O147  1  0.230910  0.756680  0.264400  1.0  -0.732
  O  O148  1  0.256460  0.596140  0.311100  1.0  -0.7839
  O  O149  1  0.631600  0.617400  0.569590  1.0  -0.6208
  O  O150  1  0.639440  0.775000  0.527900  1.0  -0.563
  O  O151  1  0.291620  0.770500  0.139600  1.0  -0.7365
  O  O152  1  0.319550  0.615800  0.115300  1.0  -0.5615
  O  O153  1  0.730910  0.743320  0.764400  1.0  -0.732
  O  O154  1  0.756460  0.903860  0.811100  1.0  -0.7842
  O  O155  1  0.131600  0.882600  0.069590  1.0  -0.6234
  O  O156  1  0.139440  0.725000  0.027900  1.0  -0.5619
  O  O157  1  0.791620  0.729500  0.639600  1.0  -0.7348
  O  O158  1  0.819550  0.884200  0.615300  1.0  -0.5603
  O  O159  1  0.230910  0.243320  0.764400  1.0  -0.732
  O  O160  1  0.256460  0.403860  0.811100  1.0  -0.7842
  O  O161  1  0.631600  0.382600  0.069590  1.0  -0.6234
  O  O162  1  0.639440  0.225000  0.027900  1.0  -0.5619
  O  O163  1  0.291620  0.229500  0.639600  1.0  -0.7348
  O  O164  1  0.319550  0.384200  0.615300  1.0  -0.5603
  O  O165  1  0.269090  0.743320  0.735600  1.0  -0.7341
  O  O166  1  0.243540  0.903860  0.688900  1.0  -0.785
  O  O167  1  0.868400  0.882600  0.430410  1.0  -0.6239
  O  O168  1  0.860560  0.725000  0.472100  1.0  -0.5614
  O  O169  1  0.208380  0.729500  0.860400  1.0  -0.7358
  O  O170  1  0.180450  0.884200  0.884700  1.0  -0.5616
  O  O171  1  0.769090  0.243320  0.735600  1.0  -0.7341
  O  O172  1  0.743540  0.403860  0.688900  1.0  -0.785
  O  O173  1  0.368400  0.382600  0.430410  1.0  -0.6239
  O  O174  1  0.360560  0.225000  0.472100  1.0  -0.5614
  O  O175  1  0.708380  0.229500  0.860400  1.0  -0.7358
  O  O176  1  0.680450  0.384200  0.884700  1.0  -0.5616
