# generated using pymatgen
data_CoH24(C5N)8
_symmetry_space_group_name_H-M   'P 1'
_cell_length_a   9.31240000
_cell_length_b   19.15750000
_cell_length_c   19.15750000
_cell_angle_alpha   62.57300000
_cell_angle_beta   80.67510000
_cell_angle_gamma   99.32490000
_symmetry_Int_Tables_number   1
_chemical_formula_structural   CoH24(C5N)8
_chemical_formula_sum   'Co3 H72 C120 N24'
_cell_volume   2882.14183055
_cell_formula_units_Z   3
loop_
 _symmetry_equiv_pos_site_id
 _symmetry_equiv_pos_as_xyz
  1  'x, y, z'
loop_
 _atom_site_type_symbol
 _atom_site_label
 _atom_site_symmetry_multiplicity
 _atom_site_fract_x
 _atom_site_fract_y
 _atom_site_fract_z
 _atom_site_occupancy
 _atom_site_charge
  Co  Co1  1  0.000000  0.000000  0.500000  1.0  0.7995
  Co  Co2  1  0.500000  0.500000  0.500000  1.0  0.7995
  Co  Co3  1  0.000000  0.500000  0.000000  1.0  0.7995
  H  H4  1  0.525400  0.779400  0.573900  1.0  0.1093
  H  H5  1  0.438800  0.854900  0.638300  1.0  0.1072
  H  H6  1  0.299800  0.886600  0.347500  1.0  0.1107
  H  H7  1  0.042700  0.796400  0.401300  1.0  0.1008
  H  H8  1  0.604400  0.986000  0.421100  1.0  0.1121
  H  H9  1  0.816200  0.988700  0.340700  1.0  0.0634
  H  H10  1  0.653200  0.056000  0.155400  1.0  0.0645
  H  H11  1  0.426400  0.053500  0.228800  1.0  0.1298
  H  H12  1  0.840800  0.683000  0.575900  1.0  0.1103
  H  H13  1  0.738200  0.567100  0.572800  1.0  0.0758
  H  H14  1  0.563700  0.690500  0.399800  1.0  0.0664
  H  H15  1  0.658000  0.809500  0.398500  1.0  0.1257
  H  H16  1  0.474600  0.220600  0.426100  1.0  0.1097
  H  H17  1  0.561200  0.145100  0.361700  1.0  0.1075
  H  H18  1  0.700200  0.113400  0.652500  1.0  0.1106
  H  H19  1  0.957300  0.203600  0.598700  1.0  0.0994
  H  H20  1  0.395600  0.014000  0.578900  1.0  0.1127
  H  H21  1  0.183800  0.011300  0.659300  1.0  0.063
  H  H22  1  0.346800  0.944000  0.844600  1.0  0.0655
  H  H23  1  0.573600  0.946500  0.771200  1.0  0.1301
  H  H24  1  0.159200  0.317000  0.424100  1.0  0.1102
  H  H25  1  0.261800  0.432900  0.427200  1.0  0.0755
  H  H26  1  0.436300  0.309500  0.600200  1.0  0.065
  H  H27  1  0.342000  0.190500  0.601500  1.0  0.1256
  H  H28  1  0.099300  0.573900  0.646700  1.0  0.1101
  H  H29  1  0.077100  0.638300  0.506800  1.0  0.1079
  H  H30  1  0.647300  0.347500  0.765900  1.0  0.1118
  H  H31  1  0.444000  0.401300  0.802300  1.0  0.1003
  H  H32  1  0.025500  0.421100  0.592900  1.0  0.1116
  H  H33  1  0.156900  0.340700  0.670600  1.0  0.0633
  H  H34  1  0.808600  0.155400  0.788600  1.0  0.0697
  H  H35  1  0.655200  0.228800  0.717700  1.0  0.1291
  H  H36  1  0.416700  0.575900  0.741100  1.0  0.1102
  H  H37  1  0.311000  0.572800  0.860100  1.0  0.0741
  H  H38  1  0.963500  0.399800  0.909700  1.0  0.0647
  H  H39  1  0.056500  0.398500  0.792000  1.0  0.1263
  H  H40  1  0.900700  0.426100  0.353300  1.0  0.1103
  H  H41  1  0.922900  0.361700  0.493200  1.0  0.108
  H  H42  1  0.352700  0.652500  0.234100  1.0  0.1115
  H  H43  1  0.556000  0.598700  0.197700  1.0  0.1009
  H  H44  1  0.974500  0.578900  0.407100  1.0  0.1115
  H  H45  1  0.843100  0.659300  0.329400  1.0  0.0624
  H  H46  1  0.191400  0.844600  0.211400  1.0  0.0685
  H  H47  1  0.344800  0.771200  0.282300  1.0  0.1292
  H  H48  1  0.583300  0.424100  0.258900  1.0  0.1102
  H  H49  1  0.689000  0.427200  0.139900  1.0  0.0741
  H  H50  1  0.036500  0.600200  0.090300  1.0  0.0648
  H  H51  1  0.943500  0.601500  0.208000  1.0  0.1255
  H  H52  1  0.746000  0.646700  0.779400  1.0  0.11
  H  H53  1  0.583900  0.506800  0.854900  1.0  0.107
  H  H54  1  0.413200  0.765900  0.886600  1.0  0.1119
  H  H55  1  0.246300  0.802300  0.796400  1.0  0.1004
  H  H56  1  0.618400  0.592900  0.986000  1.0  0.111
  H  H57  1  0.827500  0.670600  0.988700  1.0  0.0625
  H  H58  1  0.597200  0.788600  0.056000  1.0  0.0684
  H  H59  1  0.372900  0.717700  0.053500  1.0  0.1297
  H  H60  1  0.157800  0.741100  0.683000  1.0  0.1101
  H  H61  1  0.171100  0.860100  0.567100  1.0  0.074
  H  H62  1  0.873200  0.909700  0.690500  1.0  0.0649
  H  H63  1  0.848500  0.792000  0.809500  1.0  0.1257
  H  H64  1  0.254000  0.353300  0.220600  1.0  0.1099
  H  H65  1  0.416100  0.493200  0.145100  1.0  0.1072
  H  H66  1  0.586800  0.234100  0.113400  1.0  0.1117
  H  H67  1  0.753700  0.197700  0.203600  1.0  0.0999
  H  H68  1  0.381600  0.407100  0.014000  1.0  0.1107
  H  H69  1  0.172500  0.329400  0.011300  1.0  0.0635
  H  H70  1  0.402800  0.211400  0.944000  1.0  0.0696
  H  H71  1  0.627100  0.282300  0.946500  1.0  0.1282
  H  H72  1  0.842200  0.258900  0.317000  1.0  0.1101
  H  H73  1  0.828900  0.139900  0.432900  1.0  0.0736
  H  H74  1  0.126800  0.090300  0.309500  1.0  0.0655
  H  H75  1  0.151500  0.208000  0.190500  1.0  0.1258
  C  C76  1  0.260500  0.135900  0.470500  1.0  0.2034
  C  C77  1  0.583300  0.825200  0.571400  1.0  -0.172
  C  C78  1  0.535500  0.866700  0.606300  1.0  -0.168
  C  C79  1  0.662800  0.933600  0.584700  1.0  0.1803
  C  C80  1  0.659700  0.989200  0.612700  1.0  -0.1377
  C  C81  1  0.785800  0.048100  0.597200  1.0  0.192
  C  C82  1  0.216400  0.890800  0.377800  1.0  -0.1897
  C  C83  1  0.075200  0.841600  0.406900  1.0  -0.1666
  C  C84  1  0.983400  0.872500  0.448600  1.0  0.177
  C  C85  1  0.170100  0.163800  0.511600  1.0  -0.118
  C  C86  1  0.485900  0.016700  0.335700  1.0  0.1018
  C  C87  1  0.609200  0.999500  0.367400  1.0  -0.1958
  C  C88  1  0.737200  0.002700  0.317800  1.0  0.1771
  C  C89  1  0.641700  0.041500  0.209900  1.0  0.1633
  C  C90  1  0.503400  0.039900  0.253600  1.0  -0.2253
  C  C91  1  0.238900  0.240300  0.512200  1.0  0.1173
  C  C92  1  0.216200  0.314100  0.460600  1.0  -0.1566
  C  C93  1  0.277600  0.383500  0.462800  1.0  0.1506
  C  C94  1  0.620300  0.688900  0.436000  1.0  0.177
  C  C95  1  0.676700  0.761200  0.434500  1.0  -0.2135
  C  C96  1  0.739500  0.864100  0.529500  1.0  0.2046
  C  C97  1  0.416700  0.174800  0.428600  1.0  -0.1705
  C  C98  1  0.464500  0.133300  0.393700  1.0  -0.1679
  C  C99  1  0.337200  0.066400  0.415300  1.0  0.1809
  C  C100  1  0.340300  0.010800  0.387300  1.0  -0.1376
  C  C101  1  0.214200  0.951900  0.402800  1.0  0.1944
  C  C102  1  0.783600  0.109200  0.622200  1.0  -0.1888
  C  C103  1  0.924800  0.158400  0.593100  1.0  -0.1663
  C  C104  1  0.016600  0.127500  0.551400  1.0  0.1784
  C  C105  1  0.829900  0.836200  0.488400  1.0  -0.1184
  C  C106  1  0.514100  0.983300  0.664300  1.0  0.1009
  C  C107  1  0.390800  0.000500  0.632600  1.0  -0.1935
  C  C108  1  0.262800  0.997300  0.682200  1.0  0.1763
  C  C109  1  0.358300  0.958500  0.790100  1.0  0.1605
  C  C110  1  0.496600  0.960100  0.746400  1.0  -0.2276
  C  C111  1  0.761100  0.759700  0.487800  1.0  0.1165
  C  C112  1  0.783800  0.685900  0.539400  1.0  -0.1571
  C  C113  1  0.722400  0.616500  0.537200  1.0  0.1505
  C  C114  1  0.379700  0.311100  0.564000  1.0  0.1771
  C  C115  1  0.323300  0.238800  0.565500  1.0  -0.2123
  C  C116  1  0.731000  0.470500  0.393600  1.0  0.2041
  C  C117  1  0.154700  0.571400  0.603400  1.0  -0.1692
  C  C118  1  0.141800  0.606300  0.527000  1.0  -0.1698
  C  C119  1  0.247500  0.584700  0.481700  1.0  0.1801
  C  C120  1  0.272400  0.612700  0.398100  1.0  -0.1388
  C  C121  1  0.383000  0.597200  0.354700  1.0  0.1929
  C  C122  1  0.594200  0.377800  0.731400  1.0  -0.1908
  C  C123  1  0.482100  0.406900  0.751500  1.0  -0.1676
  C  C124  1  0.432000  0.448600  0.678900  1.0  0.1763
  C  C125  1  0.681700  0.511600  0.324600  1.0  -0.1184
  C  C126  1  0.821600  0.335700  0.647600  1.0  0.098
  C  C127  1  0.976600  0.367400  0.633100  1.0  -0.1954
  C  C128  1  0.055000  0.317800  0.679500  1.0  0.1776
  C  C129  1  0.851600  0.209900  0.748600  1.0  0.1613
  C  C130  1  0.757000  0.253600  0.706500  1.0  -0.2252
  C  C131  1  0.751100  0.512200  0.247500  1.0  0.1182
  C  C132  1  0.676800  0.460600  0.225300  1.0  -0.1629
  C  C133  1  0.740400  0.462800  0.153700  1.0  0.1495
  C  C134  1  0.056300  0.436000  0.875100  1.0  0.1789
  C  C135  1  0.111200  0.434500  0.804300  1.0  -0.2133
  C  C136  1  0.269000  0.529500  0.606400  1.0  0.2063
  C  C137  1  0.845300  0.428600  0.396600  1.0  -0.1703
  C  C138  1  0.858200  0.393700  0.473000  1.0  -0.1703
  C  C139  1  0.752500  0.415300  0.518300  1.0  0.1807
  C  C140  1  0.727600  0.387300  0.601900  1.0  -0.1387
  C  C141  1  0.617000  0.402800  0.645300  1.0  0.1927
  C  C142  1  0.405800  0.622200  0.268600  1.0  -0.1902
  C  C143  1  0.517900  0.593100  0.248500  1.0  -0.1665
  C  C144  1  0.568000  0.551400  0.321100  1.0  0.1761
  C  C145  1  0.318300  0.488400  0.675400  1.0  -0.1196
  C  C146  1  0.178400  0.664300  0.352400  1.0  0.0993
  C  C147  1  0.023400  0.632600  0.366900  1.0  -0.1964
  C  C148  1  0.945000  0.682200  0.320500  1.0  0.1756
  C  C149  1  0.148400  0.790100  0.251400  1.0  0.1626
  C  C150  1  0.243000  0.746400  0.293500  1.0  -0.2276
  C  C151  1  0.248900  0.487800  0.752500  1.0  0.1169
  C  C152  1  0.323200  0.539400  0.774700  1.0  -0.1639
  C  C153  1  0.259600  0.537200  0.846300  1.0  0.1494
  C  C154  1  0.943700  0.564000  0.124900  1.0  0.1783
  C  C155  1  0.888800  0.565500  0.195700  1.0  -0.2134
  C  C156  1  0.124600  0.393600  0.135900  1.0  0.2041
  C  C157  1  0.758100  0.603400  0.825200  1.0  -0.1701
  C  C158  1  0.668800  0.527000  0.866700  1.0  -0.1688
  C  C159  1  0.729200  0.481700  0.933600  1.0  0.1821
  C  C160  1  0.670500  0.398100  0.989200  1.0  -0.1389
  C  C161  1  0.737700  0.354700  0.048100  1.0  0.1914
  C  C162  1  0.325600  0.731400  0.890800  1.0  -0.1908
  C  C163  1  0.233600  0.751500  0.841600  1.0  -0.1673
  C  C164  1  0.110900  0.678900  0.872500  1.0  0.1761
  C  C165  1  0.006300  0.324600  0.163800  1.0  -0.1183
  C  C166  1  0.469200  0.647600  0.016700  1.0  0.0992
  C  C167  1  0.609700  0.633100  0.999500  1.0  -0.1969
  C  C168  1  0.734500  0.679500  0.002700  1.0  0.1752
  C  C169  1  0.600200  0.748600  0.041500  1.0  0.1621
  C  C170  1  0.463500  0.706500  0.039900  1.0  -0.2302
  C  C171  1  0.998600  0.247500  0.240300  1.0  0.1173
  C  C172  1  0.902100  0.225300  0.314100  1.0  -0.1623
  C  C173  1  0.894100  0.153700  0.383500  1.0  0.1493
  C  C174  1  0.931400  0.875100  0.688900  1.0  0.1792
  C  C175  1  0.915500  0.804300  0.761200  1.0  -0.2098
  C  C176  1  0.875400  0.606400  0.864100  1.0  0.2075
  C  C177  1  0.241900  0.396600  0.174800  1.0  -0.1691
  C  C178  1  0.331200  0.473000  0.133300  1.0  -0.1689
  C  C179  1  0.270800  0.518300  0.066400  1.0  0.1818
  C  C180  1  0.329500  0.601900  0.010800  1.0  -0.138
  C  C181  1  0.262300  0.645300  0.951900  1.0  0.1918
  C  C182  1  0.674400  0.268600  0.109200  1.0  -0.1904
  C  C183  1  0.766400  0.248500  0.158400  1.0  -0.1681
  C  C184  1  0.889100  0.321100  0.127500  1.0  0.1762
  C  C185  1  0.993700  0.675400  0.836200  1.0  -0.1185
  C  C186  1  0.530800  0.352400  0.983300  1.0  0.0988
  C  C187  1  0.390300  0.366900  0.000500  1.0  -0.1984
  C  C188  1  0.265500  0.320500  0.997300  1.0  0.174
  C  C189  1  0.399800  0.251400  0.958500  1.0  0.1602
  C  C190  1  0.536500  0.293500  0.960100  1.0  -0.2289
  C  C191  1  0.001400  0.752500  0.759700  1.0  0.1162
  C  C192  1  0.097900  0.774700  0.685900  1.0  -0.1634
  C  C193  1  0.105900  0.846300  0.616500  1.0  0.1483
  C  C194  1  0.068600  0.124900  0.311100  1.0  0.1778
  C  C195  1  0.084500  0.195700  0.238800  1.0  -0.2111
  N  N196  1  0.213200  0.068300  0.463500  1.0  -0.3577
  N  N197  1  0.931200  0.059600  0.555000  1.0  -0.3384
  N  N198  1  0.756100  0.024300  0.240400  1.0  -0.4579
  N  N199  1  0.359100  0.381900  0.514900  1.0  -0.312
  N  N200  1  0.786800  0.931700  0.536500  1.0  -0.3566
  N  N201  1  0.068800  0.940400  0.445000  1.0  -0.3398
  N  N202  1  0.243900  0.975700  0.759600  1.0  -0.4554
  N  N203  1  0.640900  0.618100  0.485100  1.0  -0.3124
  N  N204  1  0.676700  0.463500  0.468200  1.0  -0.3571
  N  N205  1  0.486200  0.555000  0.385400  1.0  -0.34
  N  N206  1  0.996500  0.240400  0.735300  1.0  -0.4552
  N  N207  1  0.874000  0.514900  0.103200  1.0  -0.3112
  N  N208  1  0.323300  0.536500  0.531800  1.0  -0.3572
  N  N209  1  0.513800  0.445000  0.614600  1.0  -0.3389
  N  N210  1  0.003500  0.759600  0.264700  1.0  -0.4572
  N  N211  1  0.126000  0.485100  0.896800  1.0  -0.3103
  N  N212  1  0.144900  0.468200  0.068300  1.0  -0.3593
  N  N213  1  0.871600  0.385400  0.059600  1.0  -0.3396
  N  N214  1  0.731800  0.735300  0.024300  1.0  -0.4524
  N  N215  1  0.977200  0.103200  0.381900  1.0  -0.3119
  N  N216  1  0.855100  0.531800  0.931700  1.0  -0.3588
  N  N217  1  0.128400  0.614600  0.940400  1.0  -0.3385
  N  N218  1  0.268200  0.264700  0.975700  1.0  -0.4522
  N  N219  1  0.022800  0.896800  0.618100  1.0  -0.3102
