# generated using pymatgen
data_MnH24(C5N)8
_symmetry_space_group_name_H-M   'P 1'
_cell_length_a   9.34100000
_cell_length_b   19.16990000
_cell_length_c   19.16990000
_cell_angle_alpha   62.58530000
_cell_angle_beta   80.65240000
_cell_angle_gamma   99.34760000
_symmetry_Int_Tables_number   1
_chemical_formula_structural   MnH24(C5N)8
_chemical_formula_sum   'Mn3 H72 C120 N24'
_cell_volume   2894.36058294
_cell_formula_units_Z   3
loop_
 _symmetry_equiv_pos_site_id
 _symmetry_equiv_pos_as_xyz
  1  'x, y, z'
loop_
 _atom_site_type_symbol
 _atom_site_label
 _atom_site_symmetry_multiplicity
 _atom_site_fract_x
 _atom_site_fract_y
 _atom_site_fract_z
 _atom_site_occupancy
 _atom_site_charge
  Mn  Mn1  1  0.000000  0.500000  0.000000  1.0  0.4736
  Mn  Mn2  1  0.000000  0.000000  0.500000  1.0  0.4736
  Mn  Mn3  1  0.500000  0.500000  0.500000  1.0  0.4736
  H  H4  1  0.746400  0.647200  0.780100  1.0  0.1219
  H  H5  1  0.581400  0.506800  0.857200  1.0  0.1174
  H  H6  1  0.413400  0.764000  0.885200  1.0  0.1098
  H  H7  1  0.243300  0.804000  0.798000  1.0  0.1196
  H  H8  1  0.616300  0.592800  0.984600  1.0  0.1181
  H  H9  1  0.824200  0.668800  0.989200  1.0  0.0594
  H  H10  1  0.596400  0.786200  0.055600  1.0  0.0688
  H  H11  1  0.381200  0.716500  0.054000  1.0  0.1228
  H  H12  1  0.161500  0.742200  0.683400  1.0  0.1324
  H  H13  1  0.833500  0.141800  0.431500  1.0  0.0748
  H  H14  1  0.127800  0.091100  0.309700  1.0  0.0687
  H  H15  1  0.850200  0.791800  0.809500  1.0  0.1332
  H  H16  1  0.526500  0.780100  0.572700  1.0  0.1216
  H  H17  1  0.438600  0.857200  0.636000  1.0  0.1174
  H  H18  1  0.298600  0.885200  0.350800  1.0  0.1089
  H  H19  1  0.041300  0.798000  0.398000  1.0  0.1194
  H  H20  1  0.600900  0.984600  0.422600  1.0  0.1195
  H  H21  1  0.813400  0.989200  0.342000  1.0  0.0597
  H  H22  1  0.652000  0.055600  0.158200  1.0  0.0693
  H  H23  1  0.435200  0.054000  0.229500  1.0  0.122
  H  H24  1  0.844900  0.683400  0.574400  1.0  0.1323
  H  H25  1  0.265000  0.431500  0.426700  1.0  0.077
  H  H26  1  0.437500  0.309700  0.599200  1.0  0.0687
  H  H27  1  0.659700  0.809500  0.398700  1.0  0.1341
  H  H28  1  0.099200  0.572700  0.647200  1.0  0.1219
  H  H29  1  0.074600  0.636000  0.506800  1.0  0.1184
  H  H30  1  0.649400  0.350800  0.764000  1.0  0.1099
  H  H31  1  0.439300  0.398000  0.804000  1.0  0.1195
  H  H32  1  0.023500  0.422600  0.592800  1.0  0.1189
  H  H33  1  0.155400  0.342000  0.668800  1.0  0.059
  H  H34  1  0.810200  0.158200  0.786200  1.0  0.0722
  H  H35  1  0.664700  0.229500  0.716500  1.0  0.1216
  H  H36  1  0.419300  0.574400  0.742200  1.0  0.1325
  H  H37  1  0.691700  0.426700  0.141800  1.0  0.075
  H  H38  1  0.036700  0.599200  0.091100  1.0  0.0683
  H  H39  1  0.058400  0.398700  0.791800  1.0  0.1344
  H  H40  1  0.253600  0.352800  0.219900  1.0  0.1219
  H  H41  1  0.418600  0.493200  0.142800  1.0  0.1175
  H  H42  1  0.586600  0.236000  0.114800  1.0  0.1092
  H  H43  1  0.756700  0.196000  0.202000  1.0  0.1192
  H  H44  1  0.383700  0.407200  0.015400  1.0  0.1179
  H  H45  1  0.175800  0.331200  0.010800  1.0  0.0597
  H  H46  1  0.403600  0.213800  0.944400  1.0  0.0702
  H  H47  1  0.618800  0.283500  0.946000  1.0  0.1213
  H  H48  1  0.838500  0.257800  0.316600  1.0  0.1325
  H  H49  1  0.166500  0.858200  0.568500  1.0  0.0755
  H  H50  1  0.872200  0.908900  0.690300  1.0  0.0665
  H  H51  1  0.149800  0.208200  0.190500  1.0  0.1344
  H  H52  1  0.473500  0.219900  0.427300  1.0  0.1221
  H  H53  1  0.561400  0.142800  0.364000  1.0  0.1176
  H  H54  1  0.701400  0.114800  0.649200  1.0  0.1088
  H  H55  1  0.958700  0.202000  0.602000  1.0  0.1182
  H  H56  1  0.399100  0.015400  0.577400  1.0  0.1196
  H  H57  1  0.186600  0.010800  0.658000  1.0  0.0595
  H  H58  1  0.348000  0.944400  0.841800  1.0  0.0703
  H  H59  1  0.564800  0.946000  0.770500  1.0  0.1215
  H  H60  1  0.155100  0.316600  0.425600  1.0  0.1326
  H  H61  1  0.735000  0.568500  0.573300  1.0  0.0768
  H  H62  1  0.562500  0.690300  0.400800  1.0  0.0678
  H  H63  1  0.340300  0.190500  0.601300  1.0  0.1333
  H  H64  1  0.900800  0.427300  0.352800  1.0  0.1221
  H  H65  1  0.925400  0.364000  0.493200  1.0  0.1179
  H  H66  1  0.350600  0.649200  0.236000  1.0  0.1095
  H  H67  1  0.560700  0.602000  0.196000  1.0  0.1196
  H  H68  1  0.976500  0.577400  0.407200  1.0  0.1187
  H  H69  1  0.844600  0.658000  0.331200  1.0  0.0582
  H  H70  1  0.189800  0.841800  0.213800  1.0  0.0702
  H  H71  1  0.335300  0.770500  0.283500  1.0  0.121
  H  H72  1  0.580700  0.425600  0.257800  1.0  0.1327
  H  H73  1  0.308300  0.573300  0.858200  1.0  0.0751
  H  H74  1  0.963300  0.400800  0.908900  1.0  0.0661
  H  H75  1  0.941600  0.601300  0.208200  1.0  0.1341
  C  C76  1  0.125400  0.393300  0.135500  1.0  0.1785
  C  C77  1  0.758300  0.604000  0.826000  1.0  -0.1919
  C  C78  1  0.667400  0.526800  0.868200  1.0  -0.1845
  C  C79  1  0.730000  0.482100  0.933000  1.0  0.183
  C  C80  1  0.672500  0.399300  0.988500  1.0  -0.1517
  C  C81  1  0.739200  0.354900  0.048200  1.0  0.1701
  C  C82  1  0.324000  0.730400  0.890300  1.0  -0.1868
  C  C83  1  0.231900  0.752500  0.841900  1.0  -0.1748
  C  C84  1  0.110700  0.679300  0.872500  1.0  0.1637
  C  C85  1  0.005300  0.324100  0.163200  1.0  -0.1606
  C  C86  1  0.470400  0.646100  0.017200  1.0  0.1554
  C  C87  1  0.607800  0.632400  0.999000  1.0  -0.2433
  C  C88  1  0.732100  0.678500  0.002200  1.0  0.2103
  C  C89  1  0.600200  0.746500  0.040800  1.0  0.1996
  C  C90  1  0.471000  0.705200  0.039700  1.0  -0.2388
  C  C91  1  0.997100  0.247700  0.239500  1.0  0.1701
  C  C92  1  0.900600  0.225600  0.313100  1.0  -0.2194
  C  C93  1  0.896700  0.154900  0.381900  1.0  0.1582
  C  C94  1  0.068800  0.125300  0.311500  1.0  0.1744
  C  C95  1  0.916800  0.803900  0.761300  1.0  -0.2022
  C  C96  1  0.260900  0.135500  0.471200  1.0  0.1779
  C  C97  1  0.584300  0.826000  0.570000  1.0  -0.1933
  C  C98  1  0.535600  0.868200  0.605000  1.0  -0.1838
  C  C99  1  0.663000  0.933000  0.584900  1.0  0.1822
  C  C100  1  0.661000  0.988500  0.612200  1.0  -0.1512
  C  C101  1  0.787400  0.048200  0.596900  1.0  0.1702
  C  C102  1  0.214300  0.890300  0.379300  1.0  -0.1862
  C  C103  1  0.073800  0.841900  0.405600  1.0  -0.1745
  C  C104  1  0.983200  0.872500  0.448200  1.0  0.1643
  C  C105  1  0.168500  0.163200  0.512700  1.0  -0.1595
  C  C106  1  0.487600  0.017200  0.336700  1.0  0.1585
  C  C107  1  0.606800  0.999000  0.368600  1.0  -0.242
  C  C108  1  0.734300  0.002200  0.319300  1.0  0.211
  C  C109  1  0.641000  0.040800  0.212700  1.0  0.2008
  C  C110  1  0.510700  0.039700  0.255100  1.0  -0.2361
  C  C111  1  0.236600  0.239500  0.512800  1.0  0.1705
  C  C112  1  0.213700  0.313100  0.461300  1.0  -0.2144
  C  C113  1  0.278600  0.381900  0.463200  1.0  0.1598
  C  C114  1  0.380300  0.311500  0.563200  1.0  0.1739
  C  C115  1  0.678100  0.761300  0.434800  1.0  -0.2051
  C  C116  1  0.732100  0.471200  0.393300  1.0  0.1782
  C  C117  1  0.154300  0.570000  0.604000  1.0  -0.1912
  C  C118  1  0.140600  0.605000  0.526800  1.0  -0.1859
  C  C119  1  0.247900  0.584900  0.482100  1.0  0.1827
  C  C120  1  0.273200  0.612200  0.399300  1.0  -0.1515
  C  C121  1  0.384300  0.596900  0.354900  1.0  0.1706
  C  C122  1  0.593600  0.379300  0.730400  1.0  -0.186
  C  C123  1  0.479400  0.405600  0.752500  1.0  -0.1748
  C  C124  1  0.431400  0.448200  0.679300  1.0  0.1644
  C  C125  1  0.681200  0.512700  0.324100  1.0  -0.1606
  C  C126  1  0.824300  0.336700  0.646100  1.0  0.1552
  C  C127  1  0.975400  0.368600  0.632400  1.0  -0.242
  C  C128  1  0.053600  0.319300  0.678500  1.0  0.2114
  C  C129  1  0.853700  0.212700  0.746500  1.0  0.1999
  C  C130  1  0.765800  0.255100  0.705200  1.0  -0.2324
  C  C131  1  0.749400  0.512800  0.247700  1.0  0.1712
  C  C132  1  0.675000  0.461300  0.225600  1.0  -0.2202
  C  C133  1  0.741800  0.463200  0.154900  1.0  0.1593
  C  C134  1  0.943500  0.563200  0.125300  1.0  0.1754
  C  C135  1  0.112900  0.434800  0.803900  1.0  -0.2063
  C  C136  1  0.874600  0.606700  0.864500  1.0  0.1808
  C  C137  1  0.241700  0.396000  0.174000  1.0  -0.1902
  C  C138  1  0.332600  0.473200  0.131800  1.0  -0.1836
  C  C139  1  0.270000  0.517900  0.067000  1.0  0.1833
  C  C140  1  0.327500  0.600700  0.011500  1.0  -0.151
  C  C141  1  0.260800  0.645100  0.951800  1.0  0.1683
  C  C142  1  0.676000  0.269600  0.109700  1.0  -0.1868
  C  C143  1  0.768100  0.247500  0.158100  1.0  -0.1746
  C  C144  1  0.889300  0.320700  0.127500  1.0  0.1641
  C  C145  1  0.994700  0.675900  0.836800  1.0  -0.1601
  C  C146  1  0.529600  0.353900  0.982800  1.0  0.1557
  C  C147  1  0.392200  0.367600  0.001000  1.0  -0.2438
  C  C148  1  0.267900  0.321500  0.997800  1.0  0.209
  C  C149  1  0.399800  0.253500  0.959200  1.0  0.1994
  C  C150  1  0.529000  0.294800  0.960300  1.0  -0.2355
  C  C151  1  0.002900  0.752300  0.760500  1.0  0.1701
  C  C152  1  0.099400  0.774400  0.686900  1.0  -0.2196
  C  C153  1  0.103300  0.845100  0.618100  1.0  0.1571
  C  C154  1  0.931200  0.874700  0.688500  1.0  0.1755
  C  C155  1  0.083200  0.196100  0.238700  1.0  -0.2027
  C  C156  1  0.739100  0.864500  0.528800  1.0  0.1766
  C  C157  1  0.415700  0.174000  0.430000  1.0  -0.1923
  C  C158  1  0.464400  0.131800  0.395000  1.0  -0.1827
  C  C159  1  0.337000  0.067000  0.415100  1.0  0.1824
  C  C160  1  0.339000  0.011500  0.387800  1.0  -0.1519
  C  C161  1  0.212600  0.951800  0.403100  1.0  0.1709
  C  C162  1  0.785700  0.109700  0.620700  1.0  -0.186
  C  C163  1  0.926200  0.158100  0.594400  1.0  -0.1741
  C  C164  1  0.016800  0.127500  0.551800  1.0  0.1644
  C  C165  1  0.831500  0.836800  0.487300  1.0  -0.1603
  C  C166  1  0.512400  0.982800  0.663300  1.0  0.1569
  C  C167  1  0.393200  0.001000  0.631400  1.0  -0.2399
  C  C168  1  0.265700  0.997800  0.680700  1.0  0.2099
  C  C169  1  0.359000  0.959200  0.787300  1.0  0.192
  C  C170  1  0.489300  0.960300  0.744900  1.0  -0.2357
  C  C171  1  0.763400  0.760500  0.487200  1.0  0.1705
  C  C172  1  0.786300  0.686900  0.538700  1.0  -0.2153
  C  C173  1  0.721400  0.618100  0.536800  1.0  0.1603
  C  C174  1  0.619700  0.688500  0.436800  1.0  0.174
  C  C175  1  0.321900  0.238700  0.565200  1.0  -0.2052
  C  C176  1  0.267900  0.528800  0.606700  1.0  0.1783
  C  C177  1  0.845700  0.430000  0.396000  1.0  -0.1915
  C  C178  1  0.859400  0.395000  0.473200  1.0  -0.1862
  C  C179  1  0.752100  0.415100  0.517900  1.0  0.1821
  C  C180  1  0.726800  0.387800  0.600700  1.0  -0.1513
  C  C181  1  0.615700  0.403100  0.645100  1.0  0.1692
  C  C182  1  0.406400  0.620700  0.269600  1.0  -0.1857
  C  C183  1  0.520600  0.594400  0.247500  1.0  -0.1751
  C  C184  1  0.568600  0.551800  0.320700  1.0  0.1643
  C  C185  1  0.318800  0.487300  0.675900  1.0  -0.1608
  C  C186  1  0.175700  0.663300  0.353900  1.0  0.1556
  C  C187  1  0.024600  0.631400  0.367600  1.0  -0.2439
  C  C188  1  0.946400  0.680700  0.321500  1.0  0.2093
  C  C189  1  0.146300  0.787300  0.253500  1.0  0.2027
  C  C190  1  0.234200  0.744900  0.294800  1.0  -0.2354
  C  C191  1  0.250600  0.487200  0.752300  1.0  0.1707
  C  C192  1  0.325000  0.538700  0.774400  1.0  -0.2218
  C  C193  1  0.258200  0.536800  0.845100  1.0  0.1591
  C  C194  1  0.056500  0.436800  0.874700  1.0  0.1755
  C  C195  1  0.887100  0.565200  0.196100  1.0  -0.2077
  N  N196  1  0.144670  0.468940  0.068130  1.0  -0.3189
  N  N197  1  0.871070  0.386140  0.058830  1.0  -0.2956
  N  N198  1  0.731900  0.734000  0.022300  1.0  -0.446
  N  N199  1  0.979200  0.103600  0.381300  1.0  -0.2424
  N  N200  1  0.212800  0.068130  0.462930  1.0  -0.3145
  N  N201  1  0.929900  0.058830  0.555030  1.0  -0.2948
  N  N202  1  0.754200  0.022300  0.243700  1.0  -0.4471
  N  N203  1  0.360500  0.381300  0.515100  1.0  -0.2406
  N  N204  1  0.675730  0.462930  0.468940  1.0  -0.3142
  N  N205  1  0.484930  0.555030  0.386140  1.0  -0.295
  N  N206  1  0.997900  0.243700  0.734000  1.0  -0.4485
  N  N207  1  0.875600  0.515100  0.103600  1.0  -0.2405
  N  N208  1  0.855330  0.531060  0.931870  1.0  -0.3164
  N  N209  1  0.128930  0.613860  0.941170  1.0  -0.295
  N  N210  1  0.268100  0.266000  0.977700  1.0  -0.4455
  N  N211  1  0.020800  0.896400  0.618700  1.0  -0.2399
  N  N212  1  0.787200  0.931870  0.537070  1.0  -0.3139
  N  N213  1  0.070100  0.941170  0.444970  1.0  -0.2957
  N  N214  1  0.245800  0.977700  0.756300  1.0  -0.4482
  N  N215  1  0.639500  0.618700  0.484900  1.0  -0.2429
  N  N216  1  0.324270  0.537070  0.531060  1.0  -0.3142
  N  N217  1  0.515070  0.444970  0.613860  1.0  -0.2942
  N  N218  1  0.002100  0.756300  0.266000  1.0  -0.4508
  N  N219  1  0.124400  0.484900  0.896400  1.0  -0.24
