# generated using pymatgen
data_Fe2C4Cl2O9
_symmetry_space_group_name_H-M   'P 1'
_cell_length_a   14.75400000
_cell_length_b   23.59600000
_cell_length_c   9.27300000
_cell_angle_alpha   90.00000000
_cell_angle_beta   90.00000000
_cell_angle_gamma   90.00000000
_symmetry_Int_Tables_number   1
_chemical_formula_structural   Fe2C4Cl2O9
_chemical_formula_sum   'Fe16 C32 Cl16 O72'
_cell_volume   3228.25941583
_cell_formula_units_Z   8
loop_
 _symmetry_equiv_pos_site_id
 _symmetry_equiv_pos_as_xyz
  1  'x, y, z'
loop_
 _atom_site_type_symbol
 _atom_site_label
 _atom_site_symmetry_multiplicity
 _atom_site_fract_x
 _atom_site_fract_y
 _atom_site_fract_z
 _atom_site_occupancy
 _atom_site_charge
  Fe  Fe1  1  0.175430  0.804490  0.663870  1.0  1.3145
  Fe  Fe2  1  0.175430  0.304490  0.163870  1.0  1.3145
  Fe  Fe3  1  0.675430  0.804490  0.163870  1.0  1.3145
  Fe  Fe4  1  0.675430  0.304490  0.663870  1.0  1.3145
  Fe  Fe5  1  0.824570  0.195510  0.663870  1.0  1.3146
  Fe  Fe6  1  0.824570  0.695510  0.163870  1.0  1.3146
  Fe  Fe7  1  0.324570  0.195510  0.163870  1.0  1.3146
  Fe  Fe8  1  0.324570  0.695510  0.663870  1.0  1.3146
  Fe  Fe9  1  0.425430  0.445510  0.913870  1.0  1.3175
  Fe  Fe10  1  0.425430  0.945510  0.413870  1.0  1.3175
  Fe  Fe11  1  0.925430  0.445510  0.413870  1.0  1.3175
  Fe  Fe12  1  0.925430  0.945510  0.913870  1.0  1.3175
  Fe  Fe13  1  0.074570  0.054490  0.913870  1.0  1.3116
  Fe  Fe14  1  0.074570  0.554490  0.413870  1.0  1.3116
  Fe  Fe15  1  0.574570  0.054490  0.413870  1.0  1.3116
  Fe  Fe16  1  0.574570  0.554490  0.913870  1.0  1.3116
  C  C17  1  0.043200  0.890900  0.717500  1.0  0.6371
  C  C18  1  0.310400  0.887600  0.609400  1.0  0.6389
  C  C19  1  0.043200  0.390900  0.217500  1.0  0.6371
  C  C20  1  0.310400  0.387600  0.109400  1.0  0.6389
  C  C21  1  0.543200  0.890900  0.217500  1.0  0.6371
  C  C22  1  0.810400  0.887600  0.109400  1.0  0.6389
  C  C23  1  0.543200  0.390900  0.717500  1.0  0.6371
  C  C24  1  0.810400  0.387600  0.609400  1.0  0.6389
  C  C25  1  0.956800  0.109100  0.717500  1.0  0.6361
  C  C26  1  0.689600  0.112400  0.609400  1.0  0.6386
  C  C27  1  0.956800  0.609100  0.217500  1.0  0.6361
  C  C28  1  0.689600  0.612400  0.109400  1.0  0.6386
  C  C29  1  0.456800  0.109100  0.217500  1.0  0.6361
  C  C30  1  0.189600  0.112400  0.109400  1.0  0.6386
  C  C31  1  0.456800  0.609100  0.717500  1.0  0.6361
  C  C32  1  0.189600  0.612400  0.609400  1.0  0.6386
  C  C33  1  0.293200  0.359100  0.967500  1.0  0.6366
  C  C34  1  0.560400  0.362400  0.859400  1.0  0.6394
  C  C35  1  0.293200  0.859100  0.467500  1.0  0.6366
  C  C36  1  0.560400  0.862400  0.359400  1.0  0.6394
  C  C37  1  0.793200  0.359100  0.467500  1.0  0.6365
  C  C38  1  0.060400  0.362400  0.359400  1.0  0.6394
  C  C39  1  0.793200  0.859100  0.967500  1.0  0.6365
  C  C40  1  0.060400  0.862400  0.859400  1.0  0.6394
  C  C41  1  0.206800  0.140900  0.967500  1.0  0.6368
  C  C42  1  0.939600  0.137600  0.859400  1.0  0.638
  C  C43  1  0.206800  0.640900  0.467500  1.0  0.6368
  C  C44  1  0.939600  0.637600  0.359400  1.0  0.638
  C  C45  1  0.706800  0.140900  0.467500  1.0  0.6368
  C  C46  1  0.439600  0.137600  0.359400  1.0  0.638
  C  C47  1  0.706800  0.640900  0.967500  1.0  0.6368
  C  C48  1  0.439600  0.637600  0.859400  1.0  0.638
  Cl  Cl49  1  0.065540  0.745280  0.566700  1.0  -0.4594
  Cl  Cl50  1  0.065540  0.245280  0.066700  1.0  -0.4594
  Cl  Cl51  1  0.565540  0.745280  0.066700  1.0  -0.4594
  Cl  Cl52  1  0.565540  0.245280  0.566700  1.0  -0.4594
  Cl  Cl53  1  0.934460  0.254720  0.566700  1.0  -0.4589
  Cl  Cl54  1  0.934460  0.754720  0.066700  1.0  -0.4589
  Cl  Cl55  1  0.434460  0.254720  0.066700  1.0  -0.4589
  Cl  Cl56  1  0.434460  0.754720  0.566700  1.0  -0.4589
  Cl  Cl57  1  0.315540  0.504720  0.816700  1.0  -0.4594
  Cl  Cl58  1  0.315540  0.004720  0.316700  1.0  -0.4594
  Cl  Cl59  1  0.815540  0.504720  0.316700  1.0  -0.4594
  Cl  Cl60  1  0.815540  0.004720  0.816700  1.0  -0.4594
  Cl  Cl61  1  0.184460  0.995280  0.816700  1.0  -0.4589
  Cl  Cl62  1  0.184460  0.495280  0.316700  1.0  -0.4589
  Cl  Cl63  1  0.684460  0.995280  0.316700  1.0  -0.4589
  Cl  Cl64  1  0.684460  0.495280  0.816700  1.0  -0.4589
  O  O65  1  0.336800  0.875690  0.358500  1.0  -0.4268
  O  O66  1  0.366800  0.928080  0.610100  1.0  -0.4757
  O  O67  1  0.982400  0.930450  0.715700  1.0  -0.4623
  O  O68  1  0.268300  0.869780  0.717500  1.0  -0.4245
  O  O69  1  0.336800  0.375690  0.858500  1.0  -0.4268
  O  O70  1  0.366800  0.428080  0.110100  1.0  -0.4757
  O  O71  1  0.982400  0.430450  0.215700  1.0  -0.4623
  O  O72  1  0.268300  0.369780  0.217500  1.0  -0.4245
  O  O73  1  0.836800  0.875690  0.858500  1.0  -0.4267
  O  O74  1  0.866800  0.928080  0.110100  1.0  -0.4757
  O  O75  1  0.482400  0.930450  0.215700  1.0  -0.4623
  O  O76  1  0.768300  0.869780  0.217500  1.0  -0.4245
  O  O77  1  0.836800  0.375690  0.358500  1.0  -0.4267
  O  O78  1  0.866800  0.428080  0.610100  1.0  -0.4757
  O  O79  1  0.482400  0.430450  0.715700  1.0  -0.4623
  O  O80  1  0.768300  0.369780  0.717500  1.0  -0.4245
  O  O81  1  0.663200  0.124310  0.358500  1.0  -0.4256
  O  O82  1  0.633200  0.071920  0.610100  1.0  -0.4761
  O  O83  1  0.017600  0.069550  0.715700  1.0  -0.4629
  O  O84  1  0.731700  0.130220  0.717500  1.0  -0.4248
  O  O85  1  0.663200  0.624310  0.858500  1.0  -0.4256
  O  O86  1  0.633200  0.571920  0.110100  1.0  -0.4761
  O  O87  1  0.017600  0.569550  0.215700  1.0  -0.4629
  O  O88  1  0.731700  0.630220  0.217500  1.0  -0.4248
  O  O89  1  0.163200  0.124310  0.858500  1.0  -0.4255
  O  O90  1  0.133200  0.071920  0.110100  1.0  -0.4761
  O  O91  1  0.517600  0.069550  0.215700  1.0  -0.4629
  O  O92  1  0.231700  0.130220  0.217500  1.0  -0.4248
  O  O93  1  0.163200  0.624310  0.358500  1.0  -0.4255
  O  O94  1  0.133200  0.571920  0.610100  1.0  -0.4761
  O  O95  1  0.517600  0.569550  0.715700  1.0  -0.4629
  O  O96  1  0.231700  0.630220  0.717500  1.0  -0.4248
  O  O97  1  0.586800  0.374310  0.608500  1.0  -0.4265
  O  O98  1  0.616800  0.321920  0.860100  1.0  -0.4759
  O  O99  1  0.232400  0.319550  0.965700  1.0  -0.4633
  O  O100  1  0.518300  0.380220  0.967500  1.0  -0.4234
  O  O101  1  0.586800  0.874310  0.108500  1.0  -0.4265
  O  O102  1  0.616800  0.821920  0.360100  1.0  -0.4759
  O  O103  1  0.232400  0.819550  0.465700  1.0  -0.4633
  O  O104  1  0.518300  0.880220  0.467500  1.0  -0.4234
  O  O105  1  0.086800  0.374310  0.108500  1.0  -0.4265
  O  O106  1  0.116800  0.321920  0.360100  1.0  -0.4759
  O  O107  1  0.732400  0.319550  0.465700  1.0  -0.4633
  O  O108  1  0.018300  0.380220  0.467500  1.0  -0.4235
  O  O109  1  0.086800  0.874310  0.608500  1.0  -0.4265
  O  O110  1  0.116800  0.821920  0.860100  1.0  -0.4759
  O  O111  1  0.732400  0.819550  0.965700  1.0  -0.4633
  O  O112  1  0.018300  0.880220  0.967500  1.0  -0.4235
  O  O113  1  0.913200  0.125690  0.608500  1.0  -0.4252
  O  O114  1  0.883200  0.178080  0.860100  1.0  -0.4756
  O  O115  1  0.267600  0.180450  0.965700  1.0  -0.4622
  O  O116  1  0.981700  0.119780  0.967500  1.0  -0.4237
  O  O117  1  0.913200  0.625690  0.108500  1.0  -0.4252
  O  O118  1  0.883200  0.678080  0.360100  1.0  -0.4756
  O  O119  1  0.267600  0.680450  0.465700  1.0  -0.4622
  O  O120  1  0.981700  0.619780  0.467500  1.0  -0.4237
  O  O121  1  0.413200  0.125690  0.108500  1.0  -0.4253
  O  O122  1  0.383200  0.178080  0.360100  1.0  -0.4756
  O  O123  1  0.767600  0.180450  0.465700  1.0  -0.4622
  O  O124  1  0.481700  0.119780  0.467500  1.0  -0.4237
  O  O125  1  0.413200  0.625690  0.608500  1.0  -0.4253
  O  O126  1  0.383200  0.678080  0.860100  1.0  -0.4756
  O  O127  1  0.767600  0.680450  0.965700  1.0  -0.4622
  O  O128  1  0.481700  0.619780  0.967500  1.0  -0.4237
  O  O129  1  0.250000  0.750000  0.737600  1.0  -0.6832
  O  O130  1  0.250000  0.250000  0.237600  1.0  -0.6832
  O  O131  1  0.750000  0.250000  0.737600  1.0  -0.6853
  O  O132  1  0.750000  0.750000  0.237600  1.0  -0.6853
  O  O133  1  0.500000  0.500000  0.987600  1.0  -0.6853
  O  O134  1  0.500000  0.000000  0.487600  1.0  -0.6853
  O  O135  1  0.000000  0.000000  0.987600  1.0  -0.6832
  O  O136  1  0.000000  0.500000  0.487600  1.0  -0.6832
