# generated using pymatgen
data_MnH24(C5N)8
_symmetry_space_group_name_H-M   'P 1'
_cell_length_a   9.33070000
_cell_length_b   19.48140000
_cell_length_c   19.48140000
_cell_angle_alpha   62.49880000
_cell_angle_beta   80.81330000
_cell_angle_gamma   99.18670000
_symmetry_Int_Tables_number   1
_chemical_formula_structural   MnH24(C5N)8
_chemical_formula_sum   'Mn3 H72 C120 N24'
_cell_volume   2988.62845359
_cell_formula_units_Z   3
loop_
 _symmetry_equiv_pos_site_id
 _symmetry_equiv_pos_as_xyz
  1  'x, y, z'
loop_
 _atom_site_type_symbol
 _atom_site_label
 _atom_site_symmetry_multiplicity
 _atom_site_fract_x
 _atom_site_fract_y
 _atom_site_fract_z
 _atom_site_occupancy
 _atom_site_charge
  Mn  Mn1  1  0.000000  0.000000  0.500000  1.0  0.7795
  Mn  Mn2  1  0.500000  0.500000  0.500000  1.0  0.7795
  Mn  Mn3  1  0.000000  0.500000  0.000000  1.0  0.7795
  H  H4  1  0.524300  0.776800  0.579400  1.0  0.1127
  H  H5  1  0.435900  0.852300  0.641700  1.0  0.1059
  H  H6  1  0.303500  0.883300  0.353200  1.0  0.1137
  H  H7  1  0.044100  0.797000  0.403100  1.0  0.0999
  H  H8  1  0.609200  0.991100  0.419300  1.0  0.1062
  H  H9  1  0.822600  0.996200  0.340700  1.0  0.0624
  H  H10  1  0.651800  0.051100  0.161900  1.0  0.0664
  H  H11  1  0.425400  0.045300  0.235000  1.0  0.1273
  H  H12  1  0.837300  0.687700  0.576400  1.0  0.1128
  H  H13  1  0.734500  0.573900  0.574500  1.0  0.0699
  H  H14  1  0.558200  0.693600  0.403800  1.0  0.0681
  H  H15  1  0.654800  0.811000  0.400600  1.0  0.1192
  H  H16  1  0.475700  0.223200  0.420600  1.0  0.1129
  H  H17  1  0.564100  0.147700  0.358300  1.0  0.1058
  H  H18  1  0.696500  0.116700  0.646800  1.0  0.1136
  H  H19  1  0.955900  0.203000  0.596900  1.0  0.0991
  H  H20  1  0.390800  0.008900  0.580700  1.0  0.107
  H  H21  1  0.177400  0.003800  0.659300  1.0  0.0623
  H  H22  1  0.348200  0.948900  0.838100  1.0  0.0674
  H  H23  1  0.574600  0.954700  0.765000  1.0  0.1256
  H  H24  1  0.162700  0.312300  0.423600  1.0  0.1129
  H  H25  1  0.265500  0.426100  0.425500  1.0  0.0699
  H  H26  1  0.441800  0.306400  0.596200  1.0  0.0679
  H  H27  1  0.345200  0.189000  0.599400  1.0  0.1194
  H  H28  1  0.103700  0.579400  0.643800  1.0  0.1127
  H  H29  1  0.077600  0.641700  0.506000  1.0  0.1065
  H  H30  1  0.656700  0.353200  0.763500  1.0  0.1148
  H  H31  1  0.447200  0.403100  0.799900  1.0  0.0999
  H  H32  1  0.028500  0.419300  0.589600  1.0  0.1054
  H  H33  1  0.163300  0.340700  0.663100  1.0  0.0593
  H  H34  1  0.813700  0.161900  0.787000  1.0  0.0709
  H  H35  1  0.660400  0.235000  0.719700  1.0  0.1282
  H  H36  1  0.413700  0.576400  0.735900  1.0  0.113
  H  H37  1  0.309000  0.574500  0.851600  1.0  0.0686
  H  H38  1  0.962000  0.403800  0.902600  1.0  0.0673
  H  H39  1  0.055400  0.400600  0.788400  1.0  0.1191
  H  H40  1  0.896300  0.420600  0.356200  1.0  0.1125
  H  H41  1  0.922400  0.358300  0.494000  1.0  0.1065
  H  H42  1  0.343300  0.646800  0.236500  1.0  0.1148
  H  H43  1  0.552800  0.596900  0.200100  1.0  0.0999
  H  H44  1  0.971500  0.580700  0.410400  1.0  0.1052
  H  H45  1  0.836700  0.659300  0.336900  1.0  0.0598
  H  H46  1  0.186300  0.838100  0.213000  1.0  0.0695
  H  H47  1  0.339600  0.765000  0.280300  1.0  0.1252
  H  H48  1  0.586300  0.423600  0.264100  1.0  0.113
  H  H49  1  0.691000  0.425500  0.148400  1.0  0.0681
  H  H50  1  0.038000  0.596200  0.097400  1.0  0.0673
  H  H51  1  0.944600  0.599400  0.211600  1.0  0.1186
  H  H52  1  0.747500  0.643800  0.776800  1.0  0.1127
  H  H53  1  0.583600  0.506000  0.852300  1.0  0.1059
  H  H54  1  0.420200  0.763500  0.883300  1.0  0.1143
  H  H55  1  0.247100  0.799900  0.797000  1.0  0.1003
  H  H56  1  0.618100  0.589600  0.991100  1.0  0.1045
  H  H57  1  0.826400  0.663100  0.996200  1.0  0.0619
  H  H58  1  0.600700  0.787000  0.051100  1.0  0.0706
  H  H59  1  0.380100  0.719700  0.045300  1.0  0.1268
  H  H60  1  0.149600  0.735900  0.687700  1.0  0.1127
  H  H61  1  0.160600  0.851600  0.573900  1.0  0.0681
  H  H62  1  0.864600  0.902600  0.693600  1.0  0.0676
  H  H63  1  0.843800  0.788400  0.811000  1.0  0.1192
  H  H64  1  0.252500  0.356200  0.223200  1.0  0.1124
  H  H65  1  0.416400  0.494000  0.147700  1.0  0.1055
  H  H66  1  0.579800  0.236500  0.116700  1.0  0.1147
  H  H67  1  0.752900  0.200100  0.203000  1.0  0.0999
  H  H68  1  0.381900  0.410400  0.008900  1.0  0.1043
  H  H69  1  0.173600  0.336900  0.003800  1.0  0.0627
  H  H70  1  0.399300  0.213000  0.948900  1.0  0.0701
  H  H71  1  0.619900  0.280300  0.954700  1.0  0.1243
  H  H72  1  0.850400  0.264100  0.312300  1.0  0.1131
  H  H73  1  0.839400  0.148400  0.426100  1.0  0.0681
  H  H74  1  0.135400  0.097400  0.306400  1.0  0.0675
  H  H75  1  0.156200  0.211600  0.189000  1.0  0.1199
  C  C76  1  0.266450  0.134830  0.471680  1.0  0.1568
  C  C77  1  0.580200  0.823800  0.574200  1.0  -0.176
  C  C78  1  0.531300  0.865200  0.608700  1.0  -0.1672
  C  C79  1  0.655540  0.933490  0.584470  1.0  0.1731
  C  C80  1  0.656980  0.989750  0.611510  1.0  -0.0637
  C  C81  1  0.783230  0.049390  0.597800  1.0  0.194
  C  C82  1  0.219600  0.889200  0.380700  1.0  -0.1726
  C  C83  1  0.076400  0.841500  0.408300  1.0  -0.1634
  C  C84  1  0.983980  0.872980  0.447040  1.0  0.1936
  C  C85  1  0.171170  0.160700  0.513090  1.0  -0.0383
  C  C86  1  0.489230  0.016580  0.337590  1.0  0.1074
  C  C87  1  0.613100  0.002900  0.366900  1.0  -0.2136
  C  C88  1  0.741700  0.006800  0.318900  1.0  0.1776
  C  C89  1  0.642000  0.038300  0.215100  1.0  0.1659
  C  C90  1  0.504600  0.035200  0.258500  1.0  -0.2314
  C  C91  1  0.240320  0.236200  0.511940  1.0  0.1257
  C  C92  1  0.219000  0.309300  0.459700  1.0  -0.1956
  C  C93  1  0.281500  0.377900  0.461100  1.0  0.1775
  C  C94  1  0.615600  0.692500  0.439000  1.0  0.1642
  C  C95  1  0.673600  0.763800  0.436500  1.0  -0.1944
  C  C96  1  0.733550  0.865170  0.528320  1.0  0.1579
  C  C97  1  0.419800  0.176200  0.425800  1.0  -0.1763
  C  C98  1  0.468700  0.134800  0.391300  1.0  -0.1671
  C  C99  1  0.344460  0.066510  0.415530  1.0  0.173
  C  C100  1  0.343020  0.010250  0.388490  1.0  -0.0638
  C  C101  1  0.216770  0.950610  0.402200  1.0  0.1956
  C  C102  1  0.780400  0.110800  0.619300  1.0  -0.1724
  C  C103  1  0.923600  0.158500  0.591700  1.0  -0.1641
  C  C104  1  0.016020  0.127020  0.552960  1.0  0.1934
  C  C105  1  0.828830  0.839300  0.486910  1.0  -0.0378
  C  C106  1  0.510770  0.983420  0.662410  1.0  0.1071
  C  C107  1  0.386900  0.997100  0.633100  1.0  -0.2132
  C  C108  1  0.258300  0.993200  0.681100  1.0  0.1771
  C  C109  1  0.358000  0.961700  0.784900  1.0  0.1627
  C  C110  1  0.495400  0.964800  0.741500  1.0  -0.2314
  C  C111  1  0.759680  0.763800  0.488060  1.0  0.125
  C  C112  1  0.781000  0.690700  0.540300  1.0  -0.1962
  C  C113  1  0.718500  0.622100  0.538900  1.0  0.1792
  C  C114  1  0.384400  0.307500  0.561000  1.0  0.1637
  C  C115  1  0.326400  0.236200  0.563500  1.0  -0.1938
  C  C116  1  0.738130  0.471680  0.393490  1.0  0.1569
  C  C117  1  0.154400  0.574200  0.602000  1.0  -0.1749
  C  C118  1  0.140000  0.608700  0.526100  1.0  -0.168
  C  C119  1  0.240010  0.584470  0.482040  1.0  0.1728
  C  C120  1  0.268490  0.611510  0.398740  1.0  -0.064
  C  C121  1  0.381030  0.597800  0.352810  1.0  0.1942
  C  C122  1  0.600300  0.380700  0.730100  1.0  -0.174
  C  C123  1  0.484700  0.408300  0.750200  1.0  -0.1649
  C  C124  1  0.431020  0.447040  0.679980  1.0  0.1943
  C  C125  1  0.684260  0.513090  0.326210  1.0  -0.0383
  C  C126  1  0.826820  0.337590  0.645830  1.0  0.1053
  C  C127  1  0.980000  0.366900  0.630200  1.0  -0.2156
  C  C128  1  0.060600  0.318900  0.674300  1.0  0.1775
  C  C129  1  0.857100  0.215100  0.746600  1.0  0.1643
  C  C130  1  0.763100  0.258500  0.706300  1.0  -0.231
  C  C131  1  0.752260  0.511940  0.251860  1.0  0.1258
  C  C132  1  0.678700  0.459700  0.231000  1.0  -0.1999
  C  C133  1  0.742600  0.461100  0.161000  1.0  0.1782
  C  C134  1  0.054600  0.439000  0.868500  1.0  0.1648
  C  C135  1  0.110100  0.436500  0.799700  1.0  -0.193
  C  C136  1  0.261870  0.528320  0.606510  1.0  0.1581
  C  C137  1  0.845600  0.425800  0.398000  1.0  -0.1752
  C  C138  1  0.860000  0.391300  0.473900  1.0  -0.1692
  C  C139  1  0.759990  0.415530  0.517960  1.0  0.1723
  C  C140  1  0.731510  0.388490  0.601260  1.0  -0.0645
  C  C141  1  0.618970  0.402200  0.647190  1.0  0.1938
  C  C142  1  0.399700  0.619300  0.269900  1.0  -0.1731
  C  C143  1  0.515300  0.591700  0.249800  1.0  -0.1671
  C  C144  1  0.568980  0.552960  0.320020  1.0  0.1935
  C  C145  1  0.315740  0.486910  0.673790  1.0  -0.0387
  C  C146  1  0.173180  0.662410  0.354170  1.0  0.1058
  C  C147  1  0.020000  0.633100  0.369800  1.0  -0.2169
  C  C148  1  0.939400  0.681100  0.325700  1.0  0.1758
  C  C149  1  0.142900  0.784900  0.253400  1.0  0.1679
  C  C150  1  0.236900  0.741500  0.293700  1.0  -0.2319
  C  C151  1  0.247740  0.488060  0.748140  1.0  0.1261
  C  C152  1  0.321300  0.540300  0.769000  1.0  -0.2016
  C  C153  1  0.257400  0.538900  0.839000  1.0  0.1791
  C  C154  1  0.945400  0.561000  0.131500  1.0  0.1656
  C  C155  1  0.889900  0.563500  0.200300  1.0  -0.194
  C  C156  1  0.131620  0.393490  0.134830  1.0  0.1566
  C  C157  1  0.756400  0.602000  0.823800  1.0  -0.1758
  C  C158  1  0.666100  0.526100  0.865200  1.0  -0.1668
  C  C159  1  0.722050  0.482040  0.933490  1.0  0.1735
  C  C160  1  0.667230  0.398740  0.989750  1.0  -0.0639
  C  C161  1  0.733840  0.352810  0.049390  1.0  0.1941
  C  C162  1  0.330400  0.730100  0.889200  1.0  -0.1747
  C  C163  1  0.234900  0.750200  0.841500  1.0  -0.1632
  C  C164  1  0.111000  0.679980  0.872980  1.0  0.1928
  C  C165  1  0.010470  0.326210  0.160700  1.0  -0.0386
  C  C166  1  0.472650  0.645830  0.016580  1.0  0.1046
  C  C167  1  0.610200  0.630200  0.002900  1.0  -0.2158
  C  C168  1  0.734900  0.674300  0.006800  1.0  0.176
  C  C169  1  0.603700  0.746600  0.038300  1.0  0.1656
  C  C170  1  0.469400  0.706300  0.035200  1.0  -0.2352
  C  C171  1  0.004120  0.251860  0.236200  1.0  0.1256
  C  C172  1  0.909700  0.231000  0.309300  1.0  -0.1996
  C  C173  1  0.903600  0.161000  0.377900  1.0  0.177
  C  C174  1  0.923100  0.868500  0.692500  1.0  0.1658
  C  C175  1  0.909800  0.799700  0.763800  1.0  -0.191
  C  C176  1  0.868380  0.606510  0.865170  1.0  0.1586
  C  C177  1  0.243600  0.398000  0.176200  1.0  -0.1746
  C  C178  1  0.333900  0.473900  0.134800  1.0  -0.1664
  C  C179  1  0.277950  0.517960  0.066510  1.0  0.1742
  C  C180  1  0.332770  0.601260  0.010250  1.0  -0.0643
  C  C181  1  0.266160  0.647190  0.950610  1.0  0.1931
  C  C182  1  0.669600  0.269900  0.110800  1.0  -0.1744
  C  C183  1  0.765100  0.249800  0.158500  1.0  -0.1654
  C  C184  1  0.889000  0.320020  0.127020  1.0  0.1936
  C  C185  1  0.989530  0.673790  0.839300  1.0  -0.0378
  C  C186  1  0.527350  0.354170  0.983420  1.0  0.1063
  C  C187  1  0.389800  0.369800  0.997100  1.0  -0.2161
  C  C188  1  0.265100  0.325700  0.993200  1.0  0.1753
  C  C189  1  0.396300  0.253400  0.961700  1.0  0.1652
  C  C190  1  0.530600  0.293700  0.964800  1.0  -0.234
  C  C191  1  0.995880  0.748140  0.763800  1.0  0.1252
  C  C192  1  0.090300  0.769000  0.690700  1.0  -0.1984
  C  C193  1  0.096400  0.839000  0.622100  1.0  0.1761
  C  C194  1  0.076900  0.131500  0.307500  1.0  0.1646
  C  C195  1  0.090200  0.200300  0.236200  1.0  -0.1921
  N  N196  1  0.224360  0.067200  0.465520  1.0  -0.3974
  N  N197  1  0.927600  0.059940  0.558940  1.0  -0.3802
  N  N198  1  0.758300  0.024500  0.243900  1.0  -0.4378
  N  N199  1  0.363270  0.377520  0.511510  1.0  -0.3523
  N  N200  1  0.775640  0.932800  0.534480  1.0  -0.3954
  N  N201  1  0.072400  0.940060  0.441060  1.0  -0.3802
  N  N202  1  0.241700  0.975500  0.756100  1.0  -0.4375
  N  N203  1  0.636730  0.622480  0.488490  1.0  -0.3556
  N  N204  1  0.689880  0.465520  0.467280  1.0  -0.3973
  N  N205  1  0.486540  0.558940  0.381120  1.0  -0.3792
  N  N206  1  0.002200  0.243900  0.731600  1.0  -0.4367
  N  N207  1  0.874780  0.511510  0.110970  1.0  -0.3538
  N  N208  1  0.310120  0.534480  0.532720  1.0  -0.3961
  N  N209  1  0.513460  0.441060  0.618880  1.0  -0.3786
  N  N210  1  0.997800  0.756100  0.268400  1.0  -0.4377
  N  N211  1  0.125220  0.488490  0.889030  1.0  -0.3515
  N  N212  1  0.157160  0.467280  0.067200  1.0  -0.3968
  N  N213  1  0.867660  0.381120  0.059940  1.0  -0.3788
  N  N214  1  0.733800  0.731600  0.024500  1.0  -0.4333
  N  N215  1  0.985750  0.110970  0.377520  1.0  -0.3532
  N  N216  1  0.842840  0.532720  0.932800  1.0  -0.397
  N  N217  1  0.132340  0.618880  0.940060  1.0  -0.3778
  N  N218  1  0.266200  0.268400  0.975500  1.0  -0.4316
  N  N219  1  0.014250  0.889030  0.622480  1.0  -0.3544
