# generated using pymatgen
data_CoH12C20N5O4
_symmetry_space_group_name_H-M   'P 1'
_cell_length_a   10.35470000
_cell_length_b   10.51720000
_cell_length_c   12.39000000
_cell_angle_alpha   70.64600000
_cell_angle_beta   89.45100000
_cell_angle_gamma   63.84900000
_symmetry_Int_Tables_number   1
_chemical_formula_structural   CoH12C20N5O4
_chemical_formula_sum   'Co2 H24 C40 N10 O8'
_cell_volume   1127.80005342
_cell_formula_units_Z   2
loop_
 _symmetry_equiv_pos_site_id
 _symmetry_equiv_pos_as_xyz
  1  'x, y, z'
loop_
 _atom_site_type_symbol
 _atom_site_label
 _atom_site_symmetry_multiplicity
 _atom_site_fract_x
 _atom_site_fract_y
 _atom_site_fract_z
 _atom_site_occupancy
 _atom_site_charge
  Co  Co1  1  0.000000  0.000000  0.000000  1.0  0.8717
  Co  Co2  1  0.000000  0.500000  0.000000  1.0  0.7876
  H  H3  1  0.386700  0.462900  0.775200  1.0  0.3102
  H  H4  1  0.717300  0.452100  0.019300  1.0  0.0691
  H  H5  1  0.841500  0.659800  0.751800  1.0  0.0765
  H  H6  1  0.665800  0.678700  0.629400  1.0  0.1249
  H  H7  1  0.538400  0.463500  0.904300  1.0  0.1171
  H  H8  1  0.401100  0.779500  0.334000  1.0  0.1337
  H  H9  1  0.284800  0.893700  0.147600  1.0  0.0868
  H  H10  1  0.989200  0.761600  0.233800  1.0  0.0847
  H  H11  1  0.095600  0.647900  0.425000  1.0  0.1373
  H  H12  1  0.689100  0.012400  0.321300  1.0  0.1033
  H  H13  1  0.813700  0.945700  0.498400  1.0  0.1134
  H  H14  1  0.061100  0.130000  0.344100  1.0  0.1027
  H  H15  1  0.613300  0.537100  0.224800  1.0  0.31
  H  H16  1  0.282700  0.547900  0.980700  1.0  0.0692
  H  H17  1  0.158500  0.340200  0.248200  1.0  0.0759
  H  H18  1  0.334200  0.321300  0.370600  1.0  0.125
  H  H19  1  0.461600  0.536500  0.095700  1.0  0.1144
  H  H20  1  0.598900  0.220500  0.666000  1.0  0.1346
  H  H21  1  0.715200  0.106300  0.852400  1.0  0.0863
  H  H22  1  0.010800  0.238400  0.766200  1.0  0.0839
  H  H23  1  0.904400  0.352100  0.575000  1.0  0.1367
  H  H24  1  0.310900  0.987600  0.678700  1.0  0.1031
  H  H25  1  0.186300  0.054300  0.501600  1.0  0.1141
  H  H26  1  0.938900  0.870000  0.655900  1.0  0.1058
  C  C27  1  0.708600  0.496000  0.939300  1.0  0.1828
  C  C28  1  0.781200  0.617500  0.783200  1.0  0.1759
  C  C29  1  0.674300  0.631100  0.708900  1.0  -0.1663
  C  C30  1  0.580400  0.574500  0.751700  1.0  0.021
  C  C31  1  0.599100  0.504300  0.871000  1.0  -0.1866
  C  C32  1  0.467500  0.585500  0.673400  1.0  0.3267
  C  C33  1  0.330300  0.639500  0.523500  1.0  0.3739
  C  C34  1  0.259500  0.704900  0.401700  1.0  0.0302
  C  C35  1  0.315600  0.776800  0.316000  1.0  -0.1855
  C  C36  1  0.245500  0.844500  0.204200  1.0  0.1649
  C  C37  1  0.071700  0.767800  0.254800  1.0  0.1652
  C  C38  1  0.135300  0.698300  0.369800  1.0  -0.1648
  C  C39  1  0.731800  0.111300  0.112500  1.0  0.6989
  C  C40  1  0.809700  0.094900  0.222900  1.0  -0.0948
  C  C41  1  0.768700  0.030600  0.325000  1.0  -0.0939
  C  C42  1  0.842000  0.992800  0.431800  1.0  -0.1067
  C  C43  1  0.957600  0.023800  0.441900  1.0  0.0234
  C  C44  1  0.989900  0.099900  0.339800  1.0  -0.079
  C  C45  1  0.921000  0.133600  0.230900  1.0  -0.1276
  C  C46  1  0.967800  0.218200  0.127700  1.0  0.6699
  C  C47  1  0.291400  0.504000  0.060700  1.0  0.1817
  C  C48  1  0.218800  0.382500  0.216800  1.0  0.1758
  C  C49  1  0.325700  0.368900  0.291100  1.0  -0.1637
  C  C50  1  0.419600  0.425500  0.248300  1.0  0.0208
  C  C51  1  0.400900  0.495700  0.129000  1.0  -0.1868
  C  C52  1  0.532500  0.414500  0.326600  1.0  0.3163
  C  C53  1  0.669700  0.360500  0.476500  1.0  0.3732
  C  C54  1  0.740500  0.295100  0.598300  1.0  0.0292
  C  C55  1  0.684400  0.223200  0.684000  1.0  -0.1852
  C  C56  1  0.754500  0.155500  0.795800  1.0  0.1679
  C  C57  1  0.928300  0.232200  0.745200  1.0  0.1648
  C  C58  1  0.864700  0.301700  0.630200  1.0  -0.1695
  C  C59  1  0.268200  0.888700  0.887500  1.0  0.7116
  C  C60  1  0.190300  0.905100  0.777100  1.0  -0.0931
  C  C61  1  0.231300  0.969400  0.675000  1.0  -0.0859
  C  C62  1  0.158000  0.007200  0.568200  1.0  -0.1082
  C  C63  1  0.042400  0.976200  0.558100  1.0  0.0229
  C  C64  1  0.010100  0.900100  0.660200  1.0  -0.0803
  C  C65  1  0.079000  0.866400  0.769100  1.0  -0.129
  C  C66  1  0.032200  0.781800  0.872300  1.0  0.6706
  N  N67  1  0.384800  0.517800  0.705500  1.0  -0.0739
  N  N68  1  0.296000  0.549900  0.610100  1.0  -0.3876
  N  N69  1  0.436400  0.663700  0.558900  1.0  -0.4826
  N  N70  1  0.803400  0.547300  0.897700  1.0  -0.3481
  N  N71  1  0.122900  0.843500  0.171900  1.0  -0.3038
  N  N72  1  0.615200  0.482200  0.294500  1.0  -0.0747
  N  N73  1  0.704000  0.450100  0.389900  1.0  -0.3879
  N  N74  1  0.563600  0.336300  0.441100  1.0  -0.4885
  N  N75  1  0.196600  0.452700  0.102300  1.0  -0.3456
  N  N76  1  0.877100  0.156500  0.828100  1.0  -0.3034
  O  O77  1  0.979300  0.330000  0.133000  1.0  -0.595
  O  O78  1  0.994100  0.177200  0.041500  1.0  -0.5702
  O  O79  1  0.596200  0.188900  0.092100  1.0  -0.5853
  O  O80  1  0.804200  0.035400  0.053700  1.0  -0.5702
  O  O81  1  0.020700  0.670000  0.867000  1.0  -0.5957
  O  O82  1  0.005900  0.822800  0.958500  1.0  -0.5702
  O  O83  1  0.403800  0.811100  0.907900  1.0  -0.5866
  O  O84  1  0.195800  0.964600  0.946300  1.0  -0.5694
