# generated using pymatgen
data_FeH18(C5N)6
_symmetry_space_group_name_H-M   'P 1'
_cell_length_a   19.66600000
_cell_length_b   19.66600000
_cell_length_c   19.66600000
_cell_angle_alpha   90.00000000
_cell_angle_beta   90.00000000
_cell_angle_gamma   90.00000000
_symmetry_Int_Tables_number   1
_chemical_formula_structural   FeH18(C5N)6
_chemical_formula_sum   'Fe8 H144 C240 N48'
_cell_volume   7605.85610030
_cell_formula_units_Z   8
loop_
 _symmetry_equiv_pos_site_id
 _symmetry_equiv_pos_as_xyz
  1  'x, y, z'
loop_
 _atom_site_type_symbol
 _atom_site_label
 _atom_site_symmetry_multiplicity
 _atom_site_fract_x
 _atom_site_fract_y
 _atom_site_fract_z
 _atom_site_occupancy
 _atom_site_charge
  Fe  Fe1  1  0.250000  0.750000  0.250000  1.0  0.4108
  Fe  Fe2  1  0.250000  0.250000  0.750000  1.0  0.4108
  Fe  Fe3  1  0.750000  0.250000  0.250000  1.0  0.4108
  Fe  Fe4  1  0.750000  0.250000  0.750000  1.0  0.4108
  Fe  Fe5  1  0.750000  0.750000  0.250000  1.0  0.4108
  Fe  Fe6  1  0.250000  0.750000  0.750000  1.0  0.4108
  Fe  Fe7  1  0.250000  0.250000  0.250000  1.0  0.4991
  Fe  Fe8  1  0.750000  0.750000  0.750000  1.0  0.4991
  H  H9  1  0.152700  0.740800  0.632800  1.0  0.0658
  H  H10  1  0.151500  0.735900  0.516700  1.0  0.0978
  H  H11  1  0.246800  0.615300  0.472800  1.0  0.1127
  H  H12  1  0.247400  0.528700  0.384400  1.0  0.1
  H  H13  1  0.348100  0.489400  0.241100  1.0  0.09
  H  H14  1  0.347900  0.374300  0.247900  1.0  0.0631
  H  H15  1  0.347300  0.759200  0.632800  1.0  0.0662
  H  H16  1  0.348500  0.764100  0.516700  1.0  0.0978
  H  H17  1  0.253200  0.884700  0.472800  1.0  0.1123
  H  H18  1  0.252600  0.971300  0.384400  1.0  0.1003
  H  H19  1  0.151900  0.010600  0.241100  1.0  0.0897
  H  H20  1  0.152100  0.125700  0.247900  1.0  0.0628
  H  H21  1  0.347300  0.740800  0.867200  1.0  0.065
  H  H22  1  0.348500  0.735900  0.983300  1.0  0.097
  H  H23  1  0.253200  0.615300  0.027200  1.0  0.113
  H  H24  1  0.252600  0.528700  0.115600  1.0  0.0995
  H  H25  1  0.151900  0.489400  0.258900  1.0  0.0891
  H  H26  1  0.152100  0.374300  0.252100  1.0  0.0621
  H  H27  1  0.152700  0.759200  0.867200  1.0  0.0661
  H  H28  1  0.151500  0.764100  0.983300  1.0  0.0976
  H  H29  1  0.246800  0.884700  0.027200  1.0  0.1124
  H  H30  1  0.247400  0.971300  0.115600  1.0  0.1001
  H  H31  1  0.348100  0.010600  0.258900  1.0  0.0892
  H  H32  1  0.347900  0.125700  0.252100  1.0  0.0639
  H  H33  1  0.632800  0.152700  0.740800  1.0  0.0641
  H  H34  1  0.516700  0.151500  0.735900  1.0  0.0975
  H  H35  1  0.472800  0.246800  0.615300  1.0  0.1123
  H  H36  1  0.384400  0.247400  0.528700  1.0  0.0997
  H  H37  1  0.241100  0.348100  0.489400  1.0  0.0875
  H  H38  1  0.247900  0.347900  0.374300  1.0  0.0654
  H  H39  1  0.632800  0.347300  0.759200  1.0  0.064
  H  H40  1  0.516700  0.348500  0.764100  1.0  0.098
  H  H41  1  0.472800  0.253200  0.884700  1.0  0.1124
  H  H42  1  0.384400  0.252600  0.971300  1.0  0.0999
  H  H43  1  0.241100  0.151900  0.010600  1.0  0.0882
  H  H44  1  0.247900  0.152100  0.125700  1.0  0.0663
  H  H45  1  0.867200  0.347300  0.740800  1.0  0.063
  H  H46  1  0.983300  0.348500  0.735900  1.0  0.0976
  H  H47  1  0.027200  0.253200  0.615300  1.0  0.1143
  H  H48  1  0.115600  0.252600  0.528700  1.0  0.0995
  H  H49  1  0.258900  0.151900  0.489400  1.0  0.0873
  H  H50  1  0.252100  0.152100  0.374300  1.0  0.0657
  H  H51  1  0.867200  0.152700  0.759200  1.0  0.0635
  H  H52  1  0.983300  0.151500  0.764100  1.0  0.0979
  H  H53  1  0.027200  0.246800  0.884700  1.0  0.1134
  H  H54  1  0.115600  0.247400  0.971300  1.0  0.1003
  H  H55  1  0.258900  0.348100  0.010600  1.0  0.0878
  H  H56  1  0.252100  0.347900  0.125700  1.0  0.0658
  H  H57  1  0.740800  0.632800  0.152700  1.0  0.0643
  H  H58  1  0.735900  0.516700  0.151500  1.0  0.0981
  H  H59  1  0.615300  0.472800  0.246800  1.0  0.1129
  H  H60  1  0.528700  0.384400  0.247400  1.0  0.1019
  H  H61  1  0.489400  0.241100  0.348100  1.0  0.0901
  H  H62  1  0.374300  0.247900  0.347900  1.0  0.065
  H  H63  1  0.759200  0.632800  0.347300  1.0  0.0641
  H  H64  1  0.764100  0.516700  0.348500  1.0  0.0977
  H  H65  1  0.884700  0.472800  0.253200  1.0  0.1128
  H  H66  1  0.971300  0.384400  0.252600  1.0  0.1009
  H  H67  1  0.010600  0.241100  0.151900  1.0  0.0905
  H  H68  1  0.125700  0.247900  0.152100  1.0  0.0657
  H  H69  1  0.740800  0.867200  0.347300  1.0  0.0635
  H  H70  1  0.735900  0.983300  0.348500  1.0  0.0976
  H  H71  1  0.615300  0.027200  0.253200  1.0  0.1126
  H  H72  1  0.528700  0.115600  0.252600  1.0  0.103
  H  H73  1  0.489400  0.258900  0.151900  1.0  0.0902
  H  H74  1  0.374300  0.252100  0.152100  1.0  0.0658
  H  H75  1  0.759200  0.867200  0.152700  1.0  0.0636
  H  H76  1  0.764100  0.983300  0.151500  1.0  0.0982
  H  H77  1  0.884700  0.027200  0.246800  1.0  0.1127
  H  H78  1  0.971300  0.115600  0.247400  1.0  0.101
  H  H79  1  0.010600  0.258900  0.348100  1.0  0.0897
  H  H80  1  0.125700  0.252100  0.347900  1.0  0.0647
  H  H81  1  0.847300  0.259200  0.367200  1.0  0.0652
  H  H82  1  0.848500  0.264100  0.483300  1.0  0.0972
  H  H83  1  0.753200  0.384700  0.527200  1.0  0.1124
  H  H84  1  0.752600  0.471300  0.615600  1.0  0.1001
  H  H85  1  0.651900  0.510600  0.758900  1.0  0.0898
  H  H86  1  0.652100  0.625700  0.752100  1.0  0.0628
  H  H87  1  0.652700  0.240800  0.367200  1.0  0.066
  H  H88  1  0.651500  0.235900  0.483300  1.0  0.0976
  H  H89  1  0.746800  0.115300  0.527200  1.0  0.1129
  H  H90  1  0.747400  0.028700  0.615600  1.0  0.0995
  H  H91  1  0.848100  0.989400  0.758900  1.0  0.0898
  H  H92  1  0.847900  0.874300  0.752100  1.0  0.0631
  H  H93  1  0.652700  0.259200  0.132800  1.0  0.066
  H  H94  1  0.651500  0.264100  0.016700  1.0  0.0983
  H  H95  1  0.746800  0.384700  0.972800  1.0  0.1122
  H  H96  1  0.747400  0.471300  0.884400  1.0  0.1004
  H  H97  1  0.848100  0.510600  0.741100  1.0  0.0894
  H  H98  1  0.847900  0.625700  0.747900  1.0  0.0639
  H  H99  1  0.847300  0.240800  0.132800  1.0  0.0662
  H  H100  1  0.848500  0.235900  0.016700  1.0  0.0972
  H  H101  1  0.753200  0.115300  0.972800  1.0  0.1128
  H  H102  1  0.752600  0.028700  0.884400  1.0  0.0999
  H  H103  1  0.651900  0.989400  0.741100  1.0  0.0891
  H  H104  1  0.652100  0.874300  0.747900  1.0  0.0621
  H  H105  1  0.367200  0.847300  0.259200  1.0  0.0628
  H  H106  1  0.483300  0.848500  0.264100  1.0  0.0977
  H  H107  1  0.527200  0.753200  0.384700  1.0  0.1134
  H  H108  1  0.615600  0.752600  0.471300  1.0  0.1003
  H  H109  1  0.758900  0.651900  0.510600  1.0  0.088
  H  H110  1  0.752100  0.652100  0.625700  1.0  0.0662
  H  H111  1  0.367200  0.652700  0.240800  1.0  0.0637
  H  H112  1  0.483300  0.651500  0.235900  1.0  0.0976
  H  H113  1  0.527200  0.746800  0.115300  1.0  0.1143
  H  H114  1  0.615600  0.747400  0.028700  1.0  0.0996
  H  H115  1  0.758900  0.848100  0.989400  1.0  0.0872
  H  H116  1  0.752100  0.847900  0.874300  1.0  0.0652
  H  H117  1  0.132800  0.652700  0.259200  1.0  0.0641
  H  H118  1  0.016700  0.651500  0.264100  1.0  0.0977
  H  H119  1  0.972800  0.746800  0.384700  1.0  0.1123
  H  H120  1  0.884400  0.747400  0.471300  1.0  0.0998
  H  H121  1  0.741100  0.848100  0.510600  1.0  0.0881
  H  H122  1  0.747900  0.847900  0.625700  1.0  0.0659
  H  H123  1  0.132800  0.847300  0.240800  1.0  0.0642
  H  H124  1  0.016700  0.848500  0.235900  1.0  0.098
  H  H125  1  0.972800  0.753200  0.115300  1.0  0.1123
  H  H126  1  0.884400  0.752600  0.028700  1.0  0.0997
  H  H127  1  0.741100  0.651900  0.989400  1.0  0.0876
  H  H128  1  0.747900  0.652100  0.874300  1.0  0.0659
  H  H129  1  0.259200  0.367200  0.847300  1.0  0.0632
  H  H130  1  0.264100  0.483300  0.848500  1.0  0.0974
  H  H131  1  0.384700  0.527200  0.753200  1.0  0.1129
  H  H132  1  0.471300  0.615600  0.752600  1.0  0.1013
  H  H133  1  0.510600  0.758900  0.651900  1.0  0.0907
  H  H134  1  0.625700  0.752100  0.652100  1.0  0.0656
  H  H135  1  0.240800  0.367200  0.652700  1.0  0.0639
  H  H136  1  0.235900  0.483300  0.651500  1.0  0.0982
  H  H137  1  0.115300  0.527200  0.746800  1.0  0.1124
  H  H138  1  0.028700  0.615600  0.747400  1.0  0.1025
  H  H139  1  0.989400  0.758900  0.848100  1.0  0.0899
  H  H140  1  0.874300  0.752100  0.847900  1.0  0.0649
  H  H141  1  0.259200  0.132800  0.652700  1.0  0.0644
  H  H142  1  0.264100  0.016700  0.651500  1.0  0.0981
  H  H143  1  0.384700  0.972800  0.746800  1.0  0.1125
  H  H144  1  0.471300  0.884400  0.747400  1.0  0.1006
  H  H145  1  0.510600  0.741100  0.848100  1.0  0.0897
  H  H146  1  0.625700  0.747900  0.847900  1.0  0.0648
  H  H147  1  0.240800  0.132800  0.847300  1.0  0.064
  H  H148  1  0.235900  0.016700  0.848500  1.0  0.098
  H  H149  1  0.115300  0.972800  0.753200  1.0  0.1131
  H  H150  1  0.028700  0.884400  0.752600  1.0  0.1022
  H  H151  1  0.989400  0.741100  0.651900  1.0  0.0902
  H  H152  1  0.874300  0.747900  0.652100  1.0  0.066
  C  C153  1  0.193900  0.744100  0.609700  1.0  0.176
  C  C154  1  0.192700  0.742400  0.539100  1.0  -0.2111
  C  C155  1  0.248400  0.687800  0.392500  1.0  0.1421
  C  C156  1  0.247600  0.622800  0.426100  1.0  -0.1627
  C  C157  1  0.248400  0.575500  0.377600  1.0  -0.1436
  C  C158  1  0.251100  0.609700  0.312600  1.0  0.1582
  C  C159  1  0.306800  0.466700  0.245700  1.0  -0.1739
  C  C160  1  0.306400  0.396900  0.247900  1.0  0.1118
  C  C161  1  0.306100  0.755900  0.609700  1.0  0.1762
  C  C162  1  0.307300  0.757600  0.539100  1.0  -0.208
  C  C163  1  0.251600  0.812200  0.392500  1.0  0.1415
  C  C164  1  0.252400  0.877200  0.426100  1.0  -0.1597
  C  C165  1  0.251600  0.924500  0.377600  1.0  -0.1431
  C  C166  1  0.248900  0.890300  0.312600  1.0  0.1584
  C  C167  1  0.193200  0.033300  0.245700  1.0  -0.1754
  C  C168  1  0.193600  0.103100  0.247900  1.0  0.1125
  C  C169  1  0.306100  0.744100  0.890300  1.0  0.1742
  C  C170  1  0.307300  0.742400  0.960900  1.0  -0.2086
  C  C171  1  0.251600  0.687800  0.107500  1.0  0.1435
  C  C172  1  0.252400  0.622800  0.073900  1.0  -0.1596
  C  C173  1  0.251600  0.575500  0.122400  1.0  -0.1422
  C  C174  1  0.248900  0.609700  0.187400  1.0  0.1586
  C  C175  1  0.193200  0.466700  0.254300  1.0  -0.1744
  C  C176  1  0.193600  0.396900  0.252100  1.0  0.1136
  C  C177  1  0.193900  0.755900  0.890300  1.0  0.1756
  C  C178  1  0.192700  0.757600  0.960900  1.0  -0.2102
  C  C179  1  0.248400  0.812200  0.107500  1.0  0.1425
  C  C180  1  0.247600  0.877200  0.073900  1.0  -0.1603
  C  C181  1  0.248400  0.924500  0.122400  1.0  -0.1409
  C  C182  1  0.251100  0.890300  0.187400  1.0  0.1587
  C  C183  1  0.306800  0.033300  0.254300  1.0  -0.1724
  C  C184  1  0.306400  0.103100  0.252100  1.0  0.1145
  C  C185  1  0.609700  0.193900  0.744100  1.0  0.1739
  C  C186  1  0.539100  0.192700  0.742400  1.0  -0.2116
  C  C187  1  0.392500  0.248400  0.687800  1.0  0.1455
  C  C188  1  0.426100  0.247600  0.622800  1.0  -0.158
  C  C189  1  0.377600  0.248400  0.575500  1.0  -0.1395
  C  C190  1  0.312600  0.251100  0.609700  1.0  0.1579
  C  C191  1  0.245700  0.306800  0.466700  1.0  -0.1757
  C  C192  1  0.247900  0.306400  0.396900  1.0  0.1153
  C  C193  1  0.609700  0.306100  0.755900  1.0  0.1739
  C  C194  1  0.539100  0.307300  0.757600  1.0  -0.2096
  C  C195  1  0.392500  0.251600  0.812200  1.0  0.1452
  C  C196  1  0.426100  0.252400  0.877200  1.0  -0.1557
  C  C197  1  0.377600  0.251600  0.924500  1.0  -0.1396
  C  C198  1  0.312600  0.248900  0.890300  1.0  0.1569
  C  C199  1  0.245700  0.193200  0.033300  1.0  -0.1762
  C  C200  1  0.247900  0.193600  0.103100  1.0  0.1165
  C  C201  1  0.890300  0.306100  0.744100  1.0  0.1756
  C  C202  1  0.960900  0.307300  0.742400  1.0  -0.211
  C  C203  1  0.107500  0.251600  0.687800  1.0  0.1452
  C  C204  1  0.073900  0.252400  0.622800  1.0  -0.1583
  C  C205  1  0.122400  0.251600  0.575500  1.0  -0.1402
  C  C206  1  0.187400  0.248900  0.609700  1.0  0.1592
  C  C207  1  0.254300  0.193200  0.466700  1.0  -0.1745
  C  C208  1  0.252100  0.193600  0.396900  1.0  0.1182
  C  C209  1  0.890300  0.193900  0.755900  1.0  0.1763
  C  C210  1  0.960900  0.192700  0.757600  1.0  -0.2111
  C  C211  1  0.107500  0.248400  0.812200  1.0  0.1447
  C  C212  1  0.073900  0.247600  0.877200  1.0  -0.1591
  C  C213  1  0.122400  0.248400  0.924500  1.0  -0.1406
  C  C214  1  0.187400  0.251100  0.890300  1.0  0.1592
  C  C215  1  0.254300  0.306800  0.033300  1.0  -0.1751
  C  C216  1  0.252100  0.306400  0.103100  1.0  0.1189
  C  C217  1  0.744100  0.609700  0.193900  1.0  0.1744
  C  C218  1  0.742400  0.539100  0.192700  1.0  -0.2073
  C  C219  1  0.687800  0.392500  0.248400  1.0  0.1427
  C  C220  1  0.622800  0.426100  0.247600  1.0  -0.1603
  C  C221  1  0.575500  0.377600  0.248400  1.0  -0.1409
  C  C222  1  0.609700  0.312600  0.251100  1.0  0.1587
  C  C223  1  0.466700  0.245700  0.306800  1.0  -0.1728
  C  C224  1  0.396900  0.247900  0.306400  1.0  0.1167
  C  C225  1  0.755900  0.609700  0.306100  1.0  0.1766
  C  C226  1  0.757600  0.539100  0.307300  1.0  -0.2051
  C  C227  1  0.812200  0.392500  0.251600  1.0  0.1429
  C  C228  1  0.877200  0.426100  0.252400  1.0  -0.1586
  C  C229  1  0.924500  0.377600  0.251600  1.0  -0.1394
  C  C230  1  0.890300  0.312600  0.248900  1.0  0.1584
  C  C231  1  0.033300  0.245700  0.193200  1.0  -0.1738
  C  C232  1  0.103100  0.247900  0.193600  1.0  0.1155
  C  C233  1  0.744100  0.890300  0.306100  1.0  0.1745
  C  C234  1  0.742400  0.960900  0.307300  1.0  -0.2068
  C  C235  1  0.687800  0.107500  0.251600  1.0  0.1428
  C  C236  1  0.622800  0.073900  0.252400  1.0  -0.1614
  C  C237  1  0.575500  0.122400  0.251600  1.0  -0.1419
  C  C238  1  0.609700  0.187400  0.248900  1.0  0.1595
  C  C239  1  0.466700  0.254300  0.193200  1.0  -0.1726
  C  C240  1  0.396900  0.252100  0.193600  1.0  0.1135
  C  C241  1  0.755900  0.890300  0.193900  1.0  0.1759
  C  C242  1  0.757600  0.960900  0.192700  1.0  -0.2063
  C  C243  1  0.812200  0.107500  0.248400  1.0  0.1425
  C  C244  1  0.877200  0.073900  0.247600  1.0  -0.1608
  C  C245  1  0.924500  0.122400  0.248400  1.0  -0.1407
  C  C246  1  0.890300  0.187400  0.251100  1.0  0.1592
  C  C247  1  0.033300  0.254300  0.306800  1.0  -0.173
  C  C248  1  0.103100  0.252100  0.306400  1.0  0.1144
  C  C249  1  0.806100  0.255900  0.390300  1.0  0.1741
  C  C250  1  0.807300  0.257600  0.460900  1.0  -0.2092
  C  C251  1  0.751600  0.312200  0.607500  1.0  0.1425
  C  C252  1  0.752400  0.377200  0.573900  1.0  -0.1603
  C  C253  1  0.751600  0.424500  0.622400  1.0  -0.141
  C  C254  1  0.748900  0.390300  0.687400  1.0  0.1593
  C  C255  1  0.693200  0.533300  0.754300  1.0  -0.1753
  C  C256  1  0.693600  0.603100  0.752100  1.0  0.1126
  C  C257  1  0.693900  0.244100  0.390300  1.0  0.1756
  C  C258  1  0.692700  0.242400  0.460900  1.0  -0.2098
  C  C259  1  0.748400  0.187800  0.607500  1.0  0.1435
  C  C260  1  0.747600  0.122800  0.573900  1.0  -0.1599
  C  C261  1  0.748400  0.075500  0.622400  1.0  -0.1424
  C  C262  1  0.751100  0.109700  0.687400  1.0  0.1579
  C  C263  1  0.806800  0.966700  0.754300  1.0  -0.1738
  C  C264  1  0.806400  0.896900  0.752100  1.0  0.1118
  C  C265  1  0.693900  0.255900  0.109700  1.0  0.1761
  C  C266  1  0.692700  0.257600  0.039100  1.0  -0.2111
  C  C267  1  0.748400  0.312200  0.892500  1.0  0.1414
  C  C268  1  0.747600  0.377200  0.926100  1.0  -0.1595
  C  C269  1  0.748400  0.424500  0.877600  1.0  -0.1427
  C  C270  1  0.751100  0.390300  0.812600  1.0  0.158
  C  C271  1  0.806800  0.533300  0.745700  1.0  -0.1725
  C  C272  1  0.806400  0.603100  0.747900  1.0  0.1145
  C  C273  1  0.806100  0.244100  0.109700  1.0  0.1761
  C  C274  1  0.807300  0.242400  0.039100  1.0  -0.2077
  C  C275  1  0.751600  0.187800  0.892500  1.0  0.1421
  C  C276  1  0.752400  0.122800  0.926100  1.0  -0.1626
  C  C277  1  0.751600  0.075500  0.877600  1.0  -0.1437
  C  C278  1  0.748900  0.109700  0.812600  1.0  0.1588
  C  C279  1  0.693200  0.966700  0.745700  1.0  -0.1743
  C  C280  1  0.693600  0.896900  0.747900  1.0  0.1136
  C  C281  1  0.390300  0.806100  0.255900  1.0  0.1755
  C  C282  1  0.460900  0.807300  0.257600  1.0  -0.2111
  C  C283  1  0.607500  0.751600  0.312200  1.0  0.1447
  C  C284  1  0.573900  0.752400  0.377200  1.0  -0.1588
  C  C285  1  0.622400  0.751600  0.424500  1.0  -0.1401
  C  C286  1  0.687400  0.748900  0.390300  1.0  0.1587
  C  C287  1  0.754300  0.693200  0.533300  1.0  -0.1762
  C  C288  1  0.752100  0.693600  0.603100  1.0  0.1164
  C  C289  1  0.390300  0.693900  0.244100  1.0  0.1764
  C  C290  1  0.460900  0.692700  0.242400  1.0  -0.211
  C  C291  1  0.607500  0.748400  0.187800  1.0  0.1452
  C  C292  1  0.573900  0.747600  0.122800  1.0  -0.1585
  C  C293  1  0.622400  0.748400  0.075500  1.0  -0.1407
  C  C294  1  0.687400  0.751100  0.109700  1.0  0.1596
  C  C295  1  0.754300  0.806800  0.966700  1.0  -0.1756
  C  C296  1  0.752100  0.806400  0.896900  1.0  0.1152
  C  C297  1  0.109700  0.693900  0.255900  1.0  0.1736
  C  C298  1  0.039100  0.692700  0.257600  1.0  -0.2116
  C  C299  1  0.892500  0.748400  0.312200  1.0  0.1452
  C  C300  1  0.926100  0.747600  0.377200  1.0  -0.156
  C  C301  1  0.877600  0.748400  0.424500  1.0  -0.1398
  C  C302  1  0.812600  0.751100  0.390300  1.0  0.1575
  C  C303  1  0.745700  0.806800  0.533300  1.0  -0.1751
  C  C304  1  0.747900  0.806400  0.603100  1.0  0.1189
  C  C305  1  0.109700  0.806100  0.244100  1.0  0.1741
  C  C306  1  0.039100  0.807300  0.242400  1.0  -0.2093
  C  C307  1  0.892500  0.751600  0.187800  1.0  0.1455
  C  C308  1  0.926100  0.752400  0.122800  1.0  -0.1578
  C  C309  1  0.877600  0.751600  0.075500  1.0  -0.1392
  C  C310  1  0.812600  0.748900  0.109700  1.0  0.1578
  C  C311  1  0.745700  0.693200  0.966700  1.0  -0.1745
  C  C312  1  0.747900  0.693600  0.896900  1.0  0.1183
  C  C313  1  0.255900  0.390300  0.806100  1.0  0.1753
  C  C314  1  0.257600  0.460900  0.807300  1.0  -0.2062
  C  C315  1  0.312200  0.607500  0.751600  1.0  0.1426
  C  C316  1  0.377200  0.573900  0.752400  1.0  -0.1606
  C  C317  1  0.424500  0.622400  0.751600  1.0  -0.1406
  C  C318  1  0.390300  0.687400  0.748900  1.0  0.1594
  C  C319  1  0.533300  0.754300  0.693200  1.0  -0.1737
  C  C320  1  0.603100  0.752100  0.693600  1.0  0.1155
  C  C321  1  0.244100  0.390300  0.693900  1.0  0.1751
  C  C322  1  0.242400  0.460900  0.692700  1.0  -0.2062
  C  C323  1  0.187800  0.607500  0.748400  1.0  0.1427
  C  C324  1  0.122800  0.573900  0.747600  1.0  -0.1615
  C  C325  1  0.075500  0.622400  0.748400  1.0  -0.1418
  C  C326  1  0.109700  0.687400  0.751100  1.0  0.1594
  C  C327  1  0.966700  0.754300  0.806800  1.0  -0.1724
  C  C328  1  0.896900  0.752100  0.806400  1.0  0.1167
  C  C329  1  0.255900  0.109700  0.693900  1.0  0.1749
  C  C330  1  0.257600  0.039100  0.692700  1.0  -0.2074
  C  C331  1  0.312200  0.892500  0.748400  1.0  0.1426
  C  C332  1  0.377200  0.926100  0.747600  1.0  -0.159
  C  C333  1  0.424500  0.877600  0.748400  1.0  -0.1396
  C  C334  1  0.390300  0.812600  0.751100  1.0  0.1583
  C  C335  1  0.533300  0.745700  0.806800  1.0  -0.1732
  C  C336  1  0.603100  0.747900  0.806400  1.0  0.1143
  C  C337  1  0.244100  0.109700  0.806100  1.0  0.1757
  C  C338  1  0.242400  0.039100  0.807300  1.0  -0.2054
  C  C339  1  0.187800  0.892500  0.751600  1.0  0.143
  C  C340  1  0.122800  0.926100  0.752400  1.0  -0.16
  C  C341  1  0.075500  0.877600  0.751600  1.0  -0.141
  C  C342  1  0.109700  0.812600  0.748900  1.0  0.1587
  C  C343  1  0.966700  0.745700  0.693200  1.0  -0.1727
  C  C344  1  0.896900  0.747900  0.693600  1.0  0.1135
  C  C345  1  0.250000  0.750000  0.502500  1.0  0.1419
  C  C346  1  0.250000  0.750000  0.426500  1.0  -0.1095
  C  C347  1  0.250000  0.750000  0.997500  1.0  0.1414
  C  C348  1  0.250000  0.750000  0.073500  1.0  -0.1094
  C  C349  1  0.502500  0.250000  0.750000  1.0  0.142
  C  C350  1  0.426500  0.250000  0.750000  1.0  -0.109
  C  C351  1  0.997500  0.250000  0.750000  1.0  0.1422
  C  C352  1  0.073500  0.250000  0.750000  1.0  -0.11
  C  C353  1  0.750000  0.502500  0.250000  1.0  0.1414
  C  C354  1  0.750000  0.426500  0.250000  1.0  -0.1101
  C  C355  1  0.750000  0.997500  0.250000  1.0  0.1422
  C  C356  1  0.750000  0.073500  0.250000  1.0  -0.1103
  C  C357  1  0.750000  0.250000  0.497500  1.0  0.1414
  C  C358  1  0.750000  0.250000  0.573500  1.0  -0.1094
  C  C359  1  0.750000  0.250000  0.002500  1.0  0.1419
  C  C360  1  0.750000  0.250000  0.926500  1.0  -0.1095
  C  C361  1  0.497500  0.750000  0.250000  1.0  0.1422
  C  C362  1  0.573500  0.750000  0.250000  1.0  -0.11
  C  C363  1  0.002500  0.750000  0.250000  1.0  0.142
  C  C364  1  0.926500  0.750000  0.250000  1.0  -0.109
  C  C365  1  0.250000  0.497500  0.750000  1.0  0.1422
  C  C366  1  0.250000  0.573500  0.750000  1.0  -0.1103
  C  C367  1  0.250000  0.002500  0.750000  1.0  0.1414
  C  C368  1  0.250000  0.926500  0.750000  1.0  -0.1101
  C  C369  1  0.250000  0.577500  0.250000  1.0  -0.0632
  C  C370  1  0.250000  0.502500  0.250000  1.0  0.2005
  C  C371  1  0.250000  0.922500  0.250000  1.0  -0.0629
  C  C372  1  0.250000  0.997500  0.250000  1.0  0.2003
  C  C373  1  0.250000  0.250000  0.577500  1.0  -0.0636
  C  C374  1  0.250000  0.250000  0.502500  1.0  0.2
  C  C375  1  0.250000  0.250000  0.922500  1.0  -0.0629
  C  C376  1  0.250000  0.250000  0.997500  1.0  0.2008
  C  C377  1  0.577500  0.250000  0.250000  1.0  -0.0619
  C  C378  1  0.502500  0.250000  0.250000  1.0  0.1985
  C  C379  1  0.922500  0.250000  0.250000  1.0  -0.0614
  C  C380  1  0.997500  0.250000  0.250000  1.0  0.2003
  C  C381  1  0.750000  0.422500  0.750000  1.0  -0.0629
  C  C382  1  0.750000  0.497500  0.750000  1.0  0.2003
  C  C383  1  0.750000  0.077500  0.750000  1.0  -0.0632
  C  C384  1  0.750000  0.002500  0.750000  1.0  0.2005
  C  C385  1  0.750000  0.750000  0.422500  1.0  -0.0629
  C  C386  1  0.750000  0.750000  0.497500  1.0  0.2008
  C  C387  1  0.750000  0.750000  0.077500  1.0  -0.0636
  C  C388  1  0.750000  0.750000  0.002500  1.0  0.2
  C  C389  1  0.422500  0.750000  0.750000  1.0  -0.0614
  C  C390  1  0.497500  0.750000  0.750000  1.0  0.2003
  C  C391  1  0.077500  0.750000  0.750000  1.0  -0.0619
  C  C392  1  0.002500  0.750000  0.750000  1.0  0.1985
  N  N393  1  0.249800  0.679600  0.322400  1.0  -0.3817
  N  N394  1  0.250200  0.820400  0.322400  1.0  -0.3813
  N  N395  1  0.250200  0.679600  0.177600  1.0  -0.3806
  N  N396  1  0.249800  0.820400  0.177600  1.0  -0.3803
  N  N397  1  0.322400  0.249800  0.679600  1.0  -0.3832
  N  N398  1  0.322400  0.250200  0.820400  1.0  -0.3827
  N  N399  1  0.177600  0.250200  0.679600  1.0  -0.3854
  N  N400  1  0.177600  0.249800  0.820400  1.0  -0.3861
  N  N401  1  0.679600  0.322400  0.249800  1.0  -0.3858
  N  N402  1  0.820400  0.322400  0.250200  1.0  -0.3843
  N  N403  1  0.679600  0.177600  0.250200  1.0  -0.3861
  N  N404  1  0.820400  0.177600  0.249800  1.0  -0.3842
  N  N405  1  0.750200  0.320400  0.677600  1.0  -0.3802
  N  N406  1  0.749800  0.179600  0.677600  1.0  -0.3805
  N  N407  1  0.749800  0.320400  0.822400  1.0  -0.3814
  N  N408  1  0.750200  0.179600  0.822400  1.0  -0.3816
  N  N409  1  0.677600  0.750200  0.320400  1.0  -0.3862
  N  N410  1  0.677600  0.749800  0.179600  1.0  -0.3854
  N  N411  1  0.822400  0.749800  0.320400  1.0  -0.3827
  N  N412  1  0.822400  0.750200  0.179600  1.0  -0.3832
  N  N413  1  0.320400  0.677600  0.750200  1.0  -0.3841
  N  N414  1  0.179600  0.677600  0.749800  1.0  -0.386
  N  N415  1  0.320400  0.822400  0.749800  1.0  -0.3844
  N  N416  1  0.179600  0.822400  0.750200  1.0  -0.3858
  N  N417  1  0.250000  0.750000  0.645800  1.0  -0.2658
  N  N418  1  0.250000  0.750000  0.854200  1.0  -0.2663
  N  N419  1  0.645800  0.250000  0.750000  1.0  -0.259
  N  N420  1  0.854200  0.250000  0.750000  1.0  -0.2612
  N  N421  1  0.750000  0.645800  0.250000  1.0  -0.2669
  N  N422  1  0.750000  0.854200  0.250000  1.0  -0.2659
  N  N423  1  0.750000  0.250000  0.354200  1.0  -0.2663
  N  N424  1  0.750000  0.250000  0.145800  1.0  -0.2658
  N  N425  1  0.354200  0.750000  0.250000  1.0  -0.2612
  N  N426  1  0.145800  0.750000  0.250000  1.0  -0.259
  N  N427  1  0.250000  0.354200  0.750000  1.0  -0.2659
  N  N428  1  0.250000  0.145800  0.750000  1.0  -0.2669
  N  N429  1  0.250000  0.360100  0.250000  1.0  -0.3031
  N  N430  1  0.250000  0.139900  0.250000  1.0  -0.3023
  N  N431  1  0.250000  0.250000  0.360100  1.0  -0.3033
  N  N432  1  0.250000  0.250000  0.139900  1.0  -0.3042
  N  N433  1  0.360100  0.250000  0.250000  1.0  -0.3034
  N  N434  1  0.139900  0.250000  0.250000  1.0  -0.3029
  N  N435  1  0.750000  0.639900  0.750000  1.0  -0.3023
  N  N436  1  0.750000  0.860100  0.750000  1.0  -0.3031
  N  N437  1  0.750000  0.750000  0.639900  1.0  -0.3042
  N  N438  1  0.750000  0.750000  0.860100  1.0  -0.3033
  N  N439  1  0.639900  0.750000  0.750000  1.0  -0.3029
  N  N440  1  0.860100  0.750000  0.750000  1.0  -0.3034
