# generated using pymatgen
data_Cu3Mo3H24C40(N4O3)2
_symmetry_space_group_name_H-M   'P 1'
_cell_length_a   9.58790000
_cell_length_b   21.84440000
_cell_length_c   21.84530000
_cell_angle_alpha   90.00000000
_cell_angle_beta   98.78500000
_cell_angle_gamma   90.00000000
_symmetry_Int_Tables_number   1
_chemical_formula_structural   Cu3Mo3H24C40(N4O3)2
_chemical_formula_sum   'Cu12 Mo12 H96 C160 N32 O24'
_cell_volume   4521.64578821
_cell_formula_units_Z   4
loop_
 _symmetry_equiv_pos_site_id
 _symmetry_equiv_pos_as_xyz
  1  'x, y, z'
loop_
 _atom_site_type_symbol
 _atom_site_label
 _atom_site_symmetry_multiplicity
 _atom_site_fract_x
 _atom_site_fract_y
 _atom_site_fract_z
 _atom_site_occupancy
 _atom_site_charge
  Cu  Cu1  1  0.946210  0.689850  0.851590  1.0  0.5159
  Cu  Cu2  1  0.453760  0.671820  0.671620  1.0  0.8867
  Cu  Cu3  1  0.496840  0.760400  0.252110  1.0  0.6356
  Cu  Cu4  1  0.553790  0.189850  0.148410  1.0  0.5174
  Cu  Cu5  1  0.046240  0.171820  0.328380  1.0  0.8872
  Cu  Cu6  1  0.003160  0.260400  0.747890  1.0  0.6361
  Cu  Cu7  1  0.053790  0.310150  0.148410  1.0  0.5159
  Cu  Cu8  1  0.546240  0.328180  0.328380  1.0  0.8875
  Cu  Cu9  1  0.503160  0.239600  0.747890  1.0  0.6363
  Cu  Cu10  1  0.446210  0.810150  0.851590  1.0  0.5141
  Cu  Cu11  1  0.953760  0.828180  0.671620  1.0  0.8871
  Cu  Cu12  1  0.996840  0.739600  0.252110  1.0  0.6358
  Mo  Mo13  1  0.880180  0.673080  0.649340  1.0  0.6474
  Mo  Mo14  1  0.544390  0.663130  0.840410  1.0  0.5191
  Mo  Mo15  1  0.688280  0.750920  0.739710  1.0  1.5367
  Mo  Mo16  1  0.619820  0.173080  0.350660  1.0  0.6475
  Mo  Mo17  1  0.955610  0.163130  0.159590  1.0  0.5201
  Mo  Mo18  1  0.811720  0.250920  0.260290  1.0  1.5363
  Mo  Mo19  1  0.119820  0.326920  0.350660  1.0  0.647
  Mo  Mo20  1  0.455610  0.336870  0.159590  1.0  0.52
  Mo  Mo21  1  0.311720  0.249080  0.260290  1.0  1.536
  Mo  Mo22  1  0.380180  0.826920  0.649340  1.0  0.647
  Mo  Mo23  1  0.044390  0.836870  0.840410  1.0  0.518
  Mo  Mo24  1  0.188280  0.749080  0.739710  1.0  1.5368
  H  H25  1  0.906800  0.656400  0.981100  1.0  0.0683
  H  H26  1  0.237600  0.700200  0.908400  1.0  0.0539
  H  H27  1  0.028000  0.675900  0.079300  1.0  0.0995
  H  H28  1  0.365900  0.723200  0.003500  1.0  0.1199
  H  H29  1  0.715400  0.072900  0.178900  1.0  0.0489
  H  H30  1  0.317000  0.108800  0.162100  1.0  0.054
  H  H31  1  0.262500  0.006600  0.183600  1.0  0.1247
  H  H32  1  0.666300  0.969900  0.201600  1.0  0.0888
  H  H33  1  0.566100  0.829100  0.494100  1.0  0.1285
  H  H34  1  0.680100  0.836800  0.598100  1.0  0.0644
  H  H35  1  0.049500  0.815000  0.551300  1.0  0.0659
  H  H36  1  0.952800  0.805900  0.445000  1.0  0.1304
  H  H37  1  0.769900  0.421500  0.322800  1.0  0.0792
  H  H38  1  0.353100  0.430800  0.323800  1.0  0.0828
  H  H39  1  0.777500  0.529700  0.308200  1.0  0.1097
  H  H40  1  0.358400  0.535700  0.302200  1.0  0.0949
  H  H41  1  0.171500  0.827800  0.054200  1.0  0.1287
  H  H42  1  0.269100  0.924500  0.103600  1.0  0.118
  H  H43  1  0.576700  0.982500  0.318200  1.0  0.0979
  H  H44  1  0.671300  0.926600  0.410900  1.0  0.1269
  H  H45  1  0.789700  0.692500  0.456400  1.0  0.1076
  H  H46  1  0.719300  0.595600  0.402700  1.0  0.121
  H  H47  1  0.450600  0.539600  0.180200  1.0  0.1037
  H  H48  1  0.313300  0.595000  0.095600  1.0  0.1253
  H  H49  1  0.593200  0.156400  0.018900  1.0  0.0666
  H  H50  1  0.262400  0.200200  0.091600  1.0  0.0567
  H  H51  1  0.472000  0.175900  0.920700  1.0  0.1001
  H  H52  1  0.134100  0.223200  0.996500  1.0  0.1195
  H  H53  1  0.784600  0.572900  0.821100  1.0  0.0482
  H  H54  1  0.183000  0.608800  0.837900  1.0  0.0552
  H  H55  1  0.237500  0.506600  0.816400  1.0  0.1252
  H  H56  1  0.833700  0.469900  0.798400  1.0  0.0881
  H  H57  1  0.933900  0.329100  0.505900  1.0  0.1276
  H  H58  1  0.819900  0.336800  0.401900  1.0  0.0647
  H  H59  1  0.450500  0.315000  0.448700  1.0  0.0659
  H  H60  1  0.547200  0.305900  0.555000  1.0  0.1298
  H  H61  1  0.730100  0.921500  0.677200  1.0  0.081
  H  H62  1  0.146900  0.930800  0.676200  1.0  0.0811
  H  H63  1  0.722500  0.029700  0.691800  1.0  0.11
  H  H64  1  0.141600  0.035700  0.697800  1.0  0.0948
  H  H65  1  0.328500  0.327800  0.945800  1.0  0.1288
  H  H66  1  0.230900  0.424500  0.896400  1.0  0.118
  H  H67  1  0.923300  0.482500  0.681800  1.0  0.0976
  H  H68  1  0.828700  0.426600  0.589100  1.0  0.1279
  H  H69  1  0.710300  0.192500  0.543600  1.0  0.1101
  H  H70  1  0.780700  0.095600  0.597300  1.0  0.1208
  H  H71  1  0.049400  0.039600  0.819800  1.0  0.1033
  H  H72  1  0.186700  0.095000  0.904400  1.0  0.1259
  H  H73  1  0.093200  0.343600  0.018900  1.0  0.0668
  H  H74  1  0.762400  0.299800  0.091600  1.0  0.0552
  H  H75  1  0.972000  0.324100  0.920700  1.0  0.1002
  H  H76  1  0.634100  0.276800  0.996500  1.0  0.1197
  H  H77  1  0.284600  0.927100  0.821100  1.0  0.0486
  H  H78  1  0.683000  0.891200  0.837900  1.0  0.055
  H  H79  1  0.737500  0.993400  0.816400  1.0  0.1263
  H  H80  1  0.333700  0.030100  0.798400  1.0  0.0884
  H  H81  1  0.433900  0.170900  0.505900  1.0  0.1272
  H  H82  1  0.319900  0.163200  0.401900  1.0  0.0642
  H  H83  1  0.950500  0.185000  0.448700  1.0  0.0667
  H  H84  1  0.047200  0.194100  0.555000  1.0  0.1299
  H  H85  1  0.230100  0.578500  0.677200  1.0  0.0813
  H  H86  1  0.646900  0.569200  0.676200  1.0  0.0812
  H  H87  1  0.222500  0.470300  0.691800  1.0  0.1111
  H  H88  1  0.641600  0.464300  0.697800  1.0  0.0947
  H  H89  1  0.828500  0.172200  0.945800  1.0  0.1288
  H  H90  1  0.730900  0.075500  0.896400  1.0  0.1183
  H  H91  1  0.423300  0.017500  0.681800  1.0  0.0979
  H  H92  1  0.328700  0.073400  0.589100  1.0  0.1277
  H  H93  1  0.210300  0.307500  0.543600  1.0  0.1094
  H  H94  1  0.280700  0.404400  0.597300  1.0  0.1206
  H  H95  1  0.549400  0.460400  0.819800  1.0  0.1023
  H  H96  1  0.686700  0.405000  0.904400  1.0  0.1257
  H  H97  1  0.406800  0.843600  0.981100  1.0  0.0686
  H  H98  1  0.737600  0.799800  0.908400  1.0  0.057
  H  H99  1  0.528000  0.824100  0.079300  1.0  0.0996
  H  H100  1  0.865900  0.776800  0.003500  1.0  0.12
  H  H101  1  0.215400  0.427100  0.178900  1.0  0.0492
  H  H102  1  0.817000  0.391200  0.162100  1.0  0.0534
  H  H103  1  0.762500  0.493400  0.183600  1.0  0.1255
  H  H104  1  0.166300  0.530100  0.201600  1.0  0.0889
  H  H105  1  0.066100  0.670900  0.494100  1.0  0.1287
  H  H106  1  0.180100  0.663200  0.598100  1.0  0.0647
  H  H107  1  0.549500  0.685000  0.551300  1.0  0.0663
  H  H108  1  0.452800  0.694100  0.445000  1.0  0.1302
  H  H109  1  0.269900  0.078500  0.322800  1.0  0.0791
  H  H110  1  0.853100  0.069200  0.323800  1.0  0.0828
  H  H111  1  0.277500  0.970300  0.308200  1.0  0.1105
  H  H112  1  0.858400  0.964300  0.302200  1.0  0.095
  H  H113  1  0.671500  0.672200  0.054200  1.0  0.1286
  H  H114  1  0.769100  0.575500  0.103600  1.0  0.1181
  H  H115  1  0.076700  0.517500  0.318200  1.0  0.0977
  H  H116  1  0.171300  0.573400  0.410900  1.0  0.127
  H  H117  1  0.289700  0.807500  0.456400  1.0  0.1067
  H  H118  1  0.219300  0.904400  0.402700  1.0  0.1207
  H  H119  1  0.950600  0.960400  0.180200  1.0  0.1023
  H  H120  1  0.813300  0.905000  0.095600  1.0  0.1252
  C  C121  1  0.998500  0.671500  0.985900  1.0  0.1727
  C  C122  1  0.194800  0.697800  0.943800  1.0  0.1307
  C  C123  1  0.072400  0.683200  0.045100  1.0  -0.2047
  C  C124  1  0.272300  0.710700  0.000300  1.0  -0.1995
  C  C125  1  0.205600  0.704600  0.054100  1.0  0.1465
  C  C126  1  0.622700  0.060900  0.179800  1.0  0.148
  C  C127  1  0.390900  0.081000  0.170100  1.0  0.1599
  C  C128  1  0.355300  0.018900  0.183500  1.0  -0.2131
  C  C129  1  0.591900  0.997600  0.194000  1.0  -0.2039
  C  C130  1  0.467700  0.978600  0.196500  1.0  0.168
  C  C131  1  0.663200  0.824400  0.504600  1.0  -0.2169
  C  C132  1  0.733500  0.829400  0.566700  1.0  0.1684
  C  C133  1  0.751200  0.811800  0.460400  1.0  0.1364
  C  C134  1  0.952200  0.816500  0.539400  1.0  0.1749
  C  C135  1  0.894900  0.810500  0.475200  1.0  -0.1895
  C  C136  1  0.687900  0.444800  0.319300  1.0  0.1759
  C  C137  1  0.436700  0.450400  0.318900  1.0  0.1408
  C  C138  1  0.563400  0.541400  0.299900  1.0  0.1267
  C  C139  1  0.692400  0.509500  0.308900  1.0  -0.1996
  C  C140  1  0.441400  0.513000  0.306300  1.0  -0.1511
  C  C141  1  0.293700  0.722300  0.115300  1.0  -0.1225
  C  C142  1  0.304800  0.782700  0.131300  1.0  0.1932
  C  C143  1  0.235700  0.832000  0.090400  1.0  -0.1697
  C  C144  1  0.288400  0.885100  0.118500  1.0  -0.1883
  C  C145  1  0.378900  0.869200  0.175200  1.0  0.2235
  C  C146  1  0.452000  0.912700  0.216100  1.0  -0.1666
  C  C147  1  0.522600  0.897500  0.275500  1.0  0.2036
  C  C148  1  0.578800  0.940100  0.322400  1.0  -0.1637
  C  C149  1  0.634100  0.910000  0.372700  1.0  -0.1763
  C  C150  1  0.624200  0.843500  0.355200  1.0  0.2127
  C  C151  1  0.680400  0.797500  0.394400  1.0  -0.1445
  C  C152  1  0.679100  0.736600  0.376000  1.0  0.214
  C  C153  1  0.737000  0.688000  0.417300  1.0  -0.1678
  C  C154  1  0.699300  0.634900  0.387500  1.0  -0.1787
  C  C155  1  0.621000  0.651000  0.326900  1.0  0.2271
  C  C156  1  0.566500  0.609700  0.282600  1.0  -0.1396
  C  C157  1  0.482400  0.624200  0.226500  1.0  0.2332
  C  C158  1  0.433600  0.581500  0.178800  1.0  -0.1751
  C  C159  1  0.360100  0.611600  0.132300  1.0  -0.1778
  C  C160  1  0.366700  0.674600  0.149400  1.0  0.1993
  C  C161  1  0.501500  0.171500  0.014100  1.0  0.1719
  C  C162  1  0.305200  0.197800  0.056200  1.0  0.1303
  C  C163  1  0.427600  0.183200  0.954900  1.0  -0.2051
  C  C164  1  0.227700  0.210700  0.999700  1.0  -0.1968
  C  C165  1  0.294400  0.204600  0.945900  1.0  0.146
  C  C166  1  0.877300  0.560900  0.820200  1.0  0.1487
  C  C167  1  0.109100  0.581000  0.829900  1.0  0.1591
  C  C168  1  0.144700  0.518900  0.816500  1.0  -0.2128
  C  C169  1  0.908100  0.497600  0.806000  1.0  -0.2031
  C  C170  1  0.032300  0.478600  0.803500  1.0  0.1663
  C  C171  1  0.836800  0.324400  0.495400  1.0  -0.2118
  C  C172  1  0.766500  0.329400  0.433300  1.0  0.1671
  C  C173  1  0.748800  0.311800  0.539600  1.0  0.1385
  C  C174  1  0.547800  0.316500  0.460600  1.0  0.1738
  C  C175  1  0.605100  0.310500  0.524800  1.0  -0.1957
  C  C176  1  0.812100  0.944800  0.680700  1.0  0.1767
  C  C177  1  0.063300  0.950400  0.681100  1.0  0.1392
  C  C178  1  0.936600  0.041400  0.700100  1.0  0.1236
  C  C179  1  0.807600  0.009500  0.691100  1.0  -0.1982
  C  C180  1  0.058600  0.013000  0.693700  1.0  -0.1596
  C  C181  1  0.206300  0.222300  0.884700  1.0  -0.1241
  C  C182  1  0.195200  0.282700  0.868700  1.0  0.1933
  C  C183  1  0.264300  0.332000  0.909600  1.0  -0.1691
  C  C184  1  0.211600  0.385100  0.881500  1.0  -0.1874
  C  C185  1  0.121100  0.369200  0.824800  1.0  0.2249
  C  C186  1  0.048000  0.412700  0.783900  1.0  -0.1673
  C  C187  1  0.977400  0.397500  0.724500  1.0  0.2029
  C  C188  1  0.921200  0.440100  0.677600  1.0  -0.1655
  C  C189  1  0.865900  0.410000  0.627300  1.0  -0.1754
  C  C190  1  0.875800  0.343500  0.644800  1.0  0.2121
  C  C191  1  0.819600  0.297500  0.605600  1.0  -0.1447
  C  C192  1  0.820900  0.236600  0.624000  1.0  0.2135
  C  C193  1  0.763000  0.188000  0.582700  1.0  -0.1686
  C  C194  1  0.800700  0.134900  0.612500  1.0  -0.1793
  C  C195  1  0.879000  0.151000  0.673100  1.0  0.2262
  C  C196  1  0.933500  0.109700  0.717400  1.0  -0.1397
  C  C197  1  0.017600  0.124200  0.773500  1.0  0.2338
  C  C198  1  0.066400  0.081500  0.821200  1.0  -0.1744
  C  C199  1  0.139900  0.111600  0.867700  1.0  -0.1758
  C  C200  1  0.133300  0.174600  0.850600  1.0  0.1994
  C  C201  1  0.001500  0.328500  0.014100  1.0  0.172
  C  C202  1  0.805200  0.302200  0.056200  1.0  0.1302
  C  C203  1  0.927600  0.316800  0.954900  1.0  -0.2044
  C  C204  1  0.727700  0.289300  0.999700  1.0  -0.1969
  C  C205  1  0.794400  0.295400  0.945900  1.0  0.1463
  C  C206  1  0.377300  0.939100  0.820200  1.0  0.1487
  C  C207  1  0.609100  0.919000  0.829900  1.0  0.1591
  C  C208  1  0.644700  0.981100  0.816500  1.0  -0.2126
  C  C209  1  0.408100  0.002400  0.806000  1.0  -0.2024
  C  C210  1  0.532300  0.021400  0.803500  1.0  0.167
  C  C211  1  0.336800  0.175600  0.495400  1.0  -0.2112
  C  C212  1  0.266500  0.170600  0.433300  1.0  0.1667
  C  C213  1  0.248800  0.188200  0.539600  1.0  0.1397
  C  C214  1  0.047800  0.183500  0.460600  1.0  0.1741
  C  C215  1  0.105100  0.189500  0.524800  1.0  -0.1956
  C  C216  1  0.312100  0.555200  0.680700  1.0  0.1767
  C  C217  1  0.563300  0.549600  0.681100  1.0  0.1395
  C  C218  1  0.436600  0.458600  0.700100  1.0  0.1251
  C  C219  1  0.307600  0.490500  0.691100  1.0  -0.1977
  C  C220  1  0.558600  0.487000  0.693700  1.0  -0.1596
  C  C221  1  0.706300  0.277700  0.884700  1.0  -0.1238
  C  C222  1  0.695200  0.217300  0.868700  1.0  0.1935
  C  C223  1  0.764300  0.168000  0.909600  1.0  -0.1692
  C  C224  1  0.711600  0.114900  0.881500  1.0  -0.1878
  C  C225  1  0.621100  0.130800  0.824800  1.0  0.2251
  C  C226  1  0.548000  0.087300  0.783900  1.0  -0.1672
  C  C227  1  0.477400  0.102500  0.724500  1.0  0.2037
  C  C228  1  0.421200  0.059900  0.677600  1.0  -0.1654
  C  C229  1  0.365900  0.090000  0.627300  1.0  -0.1759
  C  C230  1  0.375800  0.156500  0.644800  1.0  0.2132
  C  C231  1  0.319600  0.202500  0.605600  1.0  -0.1445
  C  C232  1  0.320900  0.263400  0.624000  1.0  0.2138
  C  C233  1  0.263000  0.312000  0.582700  1.0  -0.1682
  C  C234  1  0.300700  0.365100  0.612500  1.0  -0.1783
  C  C235  1  0.379000  0.349000  0.673100  1.0  0.2263
  C  C236  1  0.433500  0.390300  0.717400  1.0  -0.14
  C  C237  1  0.517600  0.375800  0.773500  1.0  0.2341
  C  C238  1  0.566400  0.418500  0.821200  1.0  -0.1747
  C  C239  1  0.639900  0.388400  0.867700  1.0  -0.176
  C  C240  1  0.633300  0.325400  0.850600  1.0  0.1994
  C  C241  1  0.498500  0.828500  0.985900  1.0  0.1712
  C  C242  1  0.694800  0.802200  0.943800  1.0  0.1307
  C  C243  1  0.572400  0.816800  0.045100  1.0  -0.205
  C  C244  1  0.772300  0.789300  0.000300  1.0  -0.1985
  C  C245  1  0.705600  0.795400  0.054100  1.0  0.1466
  C  C246  1  0.122700  0.439100  0.179800  1.0  0.1474
  C  C247  1  0.890900  0.419000  0.170100  1.0  0.16
  C  C248  1  0.855300  0.481100  0.183500  1.0  -0.2133
  C  C249  1  0.091900  0.502400  0.194000  1.0  -0.2045
  C  C250  1  0.967700  0.521400  0.196500  1.0  0.1683
  C  C251  1  0.163200  0.675600  0.504600  1.0  -0.2165
  C  C252  1  0.233500  0.670600  0.566700  1.0  0.1687
  C  C253  1  0.251200  0.688200  0.460400  1.0  0.1373
  C  C254  1  0.452200  0.683500  0.539400  1.0  0.1744
  C  C255  1  0.394900  0.689500  0.475200  1.0  -0.1916
  C  C256  1  0.187900  0.055200  0.319300  1.0  0.176
  C  C257  1  0.936700  0.049600  0.318900  1.0  0.1402
  C  C258  1  0.063400  0.958600  0.299900  1.0  0.1278
  C  C259  1  0.192400  0.990500  0.308900  1.0  -0.1992
  C  C260  1  0.941400  0.987000  0.306300  1.0  -0.1532
  C  C261  1  0.793700  0.777700  0.115300  1.0  -0.123
  C  C262  1  0.804800  0.717300  0.131300  1.0  0.1929
  C  C263  1  0.735700  0.668000  0.090400  1.0  -0.17
  C  C264  1  0.788400  0.614900  0.118500  1.0  -0.1889
  C  C265  1  0.878900  0.630800  0.175200  1.0  0.224
  C  C266  1  0.952000  0.587300  0.216100  1.0  -0.1665
  C  C267  1  0.022600  0.602500  0.275500  1.0  0.2045
  C  C268  1  0.078800  0.559900  0.322400  1.0  -0.1639
  C  C269  1  0.134100  0.590000  0.372700  1.0  -0.1768
  C  C270  1  0.124200  0.656500  0.355200  1.0  0.2135
  C  C271  1  0.180400  0.702500  0.394400  1.0  -0.1444
  C  C272  1  0.179100  0.763400  0.376000  1.0  0.2136
  C  C273  1  0.237000  0.812000  0.417300  1.0  -0.1677
  C  C274  1  0.199300  0.865100  0.387500  1.0  -0.178
  C  C275  1  0.121000  0.849000  0.326900  1.0  0.2271
  C  C276  1  0.066500  0.890300  0.282600  1.0  -0.1399
  C  C277  1  0.982400  0.875800  0.226500  1.0  0.2339
  C  C278  1  0.933600  0.918500  0.178800  1.0  -0.1744
  C  C279  1  0.860100  0.888400  0.132300  1.0  -0.1772
  C  C280  1  0.866700  0.825400  0.149400  1.0  0.1992
  N  N281  1  0.058200  0.681800  0.938400  1.0  -0.2897
  N  N282  1  0.518700  0.101500  0.168100  1.0  -0.2963
  N  N283  1  0.871700  0.823900  0.581300  1.0  -0.3518
  N  N284  1  0.566400  0.418800  0.323600  1.0  -0.3643
  N  N285  1  0.548000  0.838400  0.297400  1.0  -0.4118
  N  N286  1  0.606300  0.713400  0.321600  1.0  -0.4287
  N  N287  1  0.440900  0.681300  0.208700  1.0  -0.4214
  N  N288  1  0.386300  0.807100  0.183600  1.0  -0.4193
  N  N289  1  0.441800  0.181800  0.061600  1.0  -0.2888
  N  N290  1  0.981300  0.601500  0.831900  1.0  -0.296
  N  N291  1  0.628300  0.323900  0.418700  1.0  -0.3522
  N  N292  1  0.933600  0.918800  0.676400  1.0  -0.3651
  N  N293  1  0.952000  0.338400  0.702600  1.0  -0.4122
  N  N294  1  0.893700  0.213400  0.678400  1.0  -0.4273
  N  N295  1  0.059100  0.181300  0.791300  1.0  -0.4203
  N  N296  1  0.113700  0.307100  0.816400  1.0  -0.4201
  N  N297  1  0.941800  0.318200  0.061600  1.0  -0.2891
  N  N298  1  0.481300  0.898500  0.831900  1.0  -0.296
  N  N299  1  0.128300  0.176100  0.418700  1.0  -0.3526
  N  N300  1  0.433600  0.581200  0.676400  1.0  -0.3648
  N  N301  1  0.452000  0.161600  0.702600  1.0  -0.412
  N  N302  1  0.393700  0.286600  0.678400  1.0  -0.4269
  N  N303  1  0.559100  0.318700  0.791300  1.0  -0.4212
  N  N304  1  0.613700  0.192900  0.816400  1.0  -0.4201
  N  N305  1  0.558200  0.818200  0.938400  1.0  -0.289
  N  N306  1  0.018700  0.398500  0.168100  1.0  -0.2959
  N  N307  1  0.371700  0.676100  0.581300  1.0  -0.3516
  N  N308  1  0.066400  0.081200  0.323600  1.0  -0.3642
  N  N309  1  0.048000  0.661600  0.297400  1.0  -0.4112
  N  N310  1  0.106300  0.786600  0.321600  1.0  -0.4289
  N  N311  1  0.940900  0.818700  0.208700  1.0  -0.4206
  N  N312  1  0.886300  0.692900  0.183600  1.0  -0.4198
  O  O313  1  0.695600  0.687900  0.658000  1.0  -0.6486
  O  O314  1  0.754800  0.812600  0.703700  1.0  -0.7086
  O  O315  1  0.836500  0.705900  0.771400  1.0  -0.7119
  O  O316  1  0.937900  0.778600  0.869900  1.0  -0.596
  O  O317  1  0.000100  0.738700  0.677300  1.0  -0.7372
  O  O318  1  0.553600  0.672300  0.757600  1.0  -0.7032
  O  O319  1  0.804400  0.187900  0.342000  1.0  -0.6492
  O  O320  1  0.745200  0.312600  0.296300  1.0  -0.7087
  O  O321  1  0.663500  0.205900  0.228600  1.0  -0.7116
  O  O322  1  0.562100  0.278600  0.130100  1.0  -0.5964
  O  O323  1  0.499900  0.238700  0.322700  1.0  -0.7373
  O  O324  1  0.946400  0.172300  0.242400  1.0  -0.703
  O  O325  1  0.304400  0.312100  0.342000  1.0  -0.6493
  O  O326  1  0.245200  0.187400  0.296300  1.0  -0.709
  O  O327  1  0.163500  0.294100  0.228600  1.0  -0.7116
  O  O328  1  0.062100  0.221400  0.130100  1.0  -0.5987
  O  O329  1  0.999900  0.261300  0.322700  1.0  -0.7366
  O  O330  1  0.446400  0.327700  0.242400  1.0  -0.7027
  O  O331  1  0.195600  0.812100  0.658000  1.0  -0.6487
  O  O332  1  0.254800  0.687400  0.703700  1.0  -0.709
  O  O333  1  0.336500  0.794100  0.771400  1.0  -0.7119
  O  O334  1  0.437900  0.721400  0.869900  1.0  -0.5987
  O  O335  1  0.500100  0.761300  0.677300  1.0  -0.7368
  O  O336  1  0.053600  0.827700  0.757600  1.0  -0.703
