# generated using pymatgen
data_Co3H40C52O19
_symmetry_space_group_name_H-M   'P 1'
_cell_length_a   10.93810000
_cell_length_b   13.51960000
_cell_length_c   34.32600000
_cell_angle_alpha   99.06190000
_cell_angle_beta   90.00000000
_cell_angle_gamma   113.86200000
_symmetry_Int_Tables_number   1
_chemical_formula_structural   Co3H40C52O19
_chemical_formula_sum   'Co6 H80 C104 O38'
_cell_volume   4572.83078884
_cell_formula_units_Z   2
loop_
 _symmetry_equiv_pos_site_id
 _symmetry_equiv_pos_as_xyz
  1  'x, y, z'
loop_
 _atom_site_type_symbol
 _atom_site_label
 _atom_site_symmetry_multiplicity
 _atom_site_fract_x
 _atom_site_fract_y
 _atom_site_fract_z
 _atom_site_occupancy
 _atom_site_charge
  Co  Co1  1  0.775800  0.633580  0.497180  1.0  1.0906
  Co  Co2  1  0.142220  0.366420  0.002820  1.0  1.0895
  Co  Co3  1  0.224200  0.366420  0.502820  1.0  1.0898
  Co  Co4  1  0.857780  0.633580  0.997180  1.0  1.093
  Co  Co5  1  0.000000  0.500000  0.500000  1.0  1.2829
  Co  Co6  1  0.500000  0.500000  0.000000  1.0  1.2829
  H  H7  1  0.430300  0.028400  0.208000  1.0  0.0719
  H  H8  1  0.457300  0.111800  0.247900  1.0  0.0724
  H  H9  1  0.808400  0.265200  0.241200  1.0  0.0644
  H  H10  1  0.739500  0.174600  0.267400  1.0  0.068
  H  H11  1  0.548100  0.259600  0.204900  1.0  0.0663
  H  H12  1  0.535800  0.173600  0.166700  1.0  0.0602
  H  H13  1  0.721600  0.042000  0.206500  1.0  0.058
  H  H14  1  0.770900  0.132000  0.179100  1.0  0.0608
  H  H15  1  0.877100  0.310800  0.313400  1.0  0.117
  H  H16  1  0.940200  0.399200  0.378400  1.0  0.0889
  H  H17  1  0.630000  0.480400  0.379600  1.0  0.0922
  H  H18  1  0.566900  0.392000  0.316000  1.0  0.1099
  H  H19  1  0.527600  0.314200  0.139000  1.0  0.1239
  H  H20  1  0.550100  0.396000  0.083500  1.0  0.0971
  H  H21  1  0.940200  0.462200  0.088200  1.0  0.096
  H  H22  1  0.919200  0.385800  0.144600  1.0  0.1255
  H  H23  1  0.438200  0.864200  0.109800  1.0  0.1284
  H  H24  1  0.476000  0.750000  0.058400  1.0  0.0999
  H  H25  1  0.866100  0.897600  0.088200  1.0  0.1055
  H  H26  1  0.829000  0.007000  0.141800  1.0  0.124
  H  H27  1  0.401900  0.971600  0.292000  1.0  0.0708
  H  H28  1  0.345500  0.888200  0.252100  1.0  0.072
  H  H29  1  0.543200  0.734800  0.258800  1.0  0.0636
  H  H30  1  0.564900  0.825400  0.232600  1.0  0.0681
  H  H31  1  0.288500  0.740400  0.295100  1.0  0.0662
  H  H32  1  0.362200  0.826400  0.333333  1.0  0.0605
  H  H33  1  0.679600  0.958000  0.293500  1.0  0.0586
  H  H34  1  0.638900  0.868000  0.320900  1.0  0.0608
  H  H35  1  0.566300  0.689200  0.186600  1.0  0.1177
  H  H36  1  0.541000  0.600800  0.121600  1.0  0.0884
  H  H37  1  0.149600  0.519600  0.120400  1.0  0.0922
  H  H38  1  0.174900  0.608000  0.184000  1.0  0.1087
  H  H39  1  0.213400  0.685800  0.361000  1.0  0.1257
  H  H40  1  0.154100  0.604000  0.416500  1.0  0.0971
  H  H41  1  0.478000  0.537800  0.411800  1.0  0.0963
  H  H42  1  0.533400  0.614200  0.355400  1.0  0.1264
  H  H43  1  0.574000  0.135800  0.390200  1.0  0.1262
  H  H44  1  0.726000  0.250000  0.441600  1.0  0.1005
  H  H45  1  0.968500  0.102400  0.411800  1.0  0.1053
  H  H46  1  0.822000  0.993000  0.358200  1.0  0.1237
  H  H47  1  0.569700  0.971600  0.792000  1.0  0.0709
  H  H48  1  0.542700  0.888200  0.752100  1.0  0.0724
  H  H49  1  0.191600  0.734800  0.758800  1.0  0.0637
  H  H50  1  0.260500  0.825400  0.732600  1.0  0.068
  H  H51  1  0.451900  0.740400  0.795100  1.0  0.0657
  H  H52  1  0.464200  0.826400  0.833300  1.0  0.0603
  H  H53  1  0.278400  0.958000  0.793500  1.0  0.0589
  H  H54  1  0.229100  0.868000  0.820900  1.0  0.0609
  H  H55  1  0.122900  0.689200  0.686600  1.0  0.1176
  H  H56  1  0.059800  0.600800  0.621600  1.0  0.0877
  H  H57  1  0.370000  0.519600  0.620400  1.0  0.0923
  H  H58  1  0.433100  0.608000  0.684000  1.0  0.1087
  H  H59  1  0.472400  0.685800  0.861000  1.0  0.1251
  H  H60  1  0.449900  0.604000  0.916500  1.0  0.0973
  H  H61  1  0.059800  0.537800  0.911800  1.0  0.0962
  H  H62  1  0.080800  0.614200  0.855400  1.0  0.1261
  H  H63  1  0.561800  0.135800  0.890200  1.0  0.1236
  H  H64  1  0.524000  0.250000  0.941600  1.0  0.0999
  H  H65  1  0.133900  0.102400  0.911800  1.0  0.1059
  H  H66  1  0.171000  0.993000  0.858200  1.0  0.1221
  H  H67  1  0.598100  0.028400  0.708000  1.0  0.0698
  H  H68  1  0.654500  0.111800  0.747900  1.0  0.0726
  H  H69  1  0.456800  0.265200  0.741200  1.0  0.0642
  H  H70  1  0.435100  0.174600  0.767400  1.0  0.0681
  H  H71  1  0.711500  0.259600  0.704900  1.0  0.0667
  H  H72  1  0.637800  0.173600  0.666667  1.0  0.0592
  H  H73  1  0.320400  0.042000  0.706500  1.0  0.0587
  H  H74  1  0.361100  0.132000  0.679100  1.0  0.0607
  H  H75  1  0.433700  0.310800  0.813400  1.0  0.1154
  H  H76  1  0.459000  0.399200  0.878400  1.0  0.0878
  H  H77  1  0.850400  0.480400  0.879600  1.0  0.0922
  H  H78  1  0.825100  0.392000  0.816000  1.0  0.1098
  H  H79  1  0.786600  0.314200  0.639000  1.0  0.125
  H  H80  1  0.845900  0.396000  0.583500  1.0  0.0973
  H  H81  1  0.522000  0.462200  0.588200  1.0  0.0962
  H  H82  1  0.466600  0.385800  0.644600  1.0  0.1256
  H  H83  1  0.426000  0.864200  0.609800  1.0  0.1249
  H  H84  1  0.274000  0.750000  0.558400  1.0  0.1
  H  H85  1  0.031500  0.897600  0.588200  1.0  0.1054
  H  H86  1  0.178000  0.007000  0.641800  1.0  0.124
  C  C87  1  0.625210  0.147620  0.215470  1.0  -0.0321
  C  C88  1  0.495240  0.070480  0.230090  1.0  0.0946
  C  C89  1  0.723510  0.219620  0.250430  1.0  0.066
  C  C90  1  0.593190  0.218980  0.189890  1.0  0.067
  C  C91  1  0.693110  0.082820  0.190490  1.0  0.0669
  C  C92  1  0.713890  0.338980  0.308710  1.0  0.3049
  C  C93  1  0.825640  0.343680  0.326840  1.0  -0.278
  C  C94  1  0.864220  0.398040  0.365860  1.0  -0.0231
  C  C95  1  0.792010  0.449620  0.386010  1.0  -0.1451
  C  C96  1  0.680500  0.445800  0.366650  1.0  -0.0472
  C  C97  1  0.642300  0.392400  0.328670  1.0  -0.204
  C  C98  1  0.831010  0.504020  0.428200  1.0  0.7162
  C  C99  1  0.720280  0.339960  0.146010  1.0  0.2992
  C  C100  1  0.610800  0.344200  0.128720  1.0  -0.268
  C  C101  1  0.624760  0.393920  0.095640  1.0  -0.0406
  C  C102  1  0.749280  0.440560  0.080540  1.0  -0.1296
  C  C103  1  0.857010  0.434020  0.098610  1.0  -0.0365
  C  C104  1  0.844500  0.386400  0.131880  1.0  -0.1555
  C  C105  1  0.766310  0.496420  0.045580  1.0  0.6712
  C  C106  1  0.629540  0.946480  0.130760  1.0  0.311
  C  C107  1  0.525000  0.870600  0.105880  1.0  -0.2864
  C  C108  1  0.547970  0.802940  0.074790  1.0  -0.0233
  C  C109  1  0.675010  0.813220  0.067880  1.0  -0.1368
  C  C110  1  0.779110  0.889820  0.092760  1.0  -0.0276
  C  C111  1  0.757500  0.956400  0.124720  1.0  -0.2592
  C  C112  1  0.695470  0.737140  0.034200  1.0  0.7101
  C  C113  1  0.477590  0.852380  0.284530  1.0  -0.0319
  C  C114  1  0.424760  0.929520  0.269910  1.0  0.0983
  C  C115  1  0.503890  0.780380  0.249570  1.0  0.0651
  C  C116  1  0.374210  0.781020  0.310110  1.0  0.0697
  C  C117  1  0.610290  0.917180  0.309510  1.0  0.0658
  C  C118  1  0.374910  0.661020  0.191290  1.0  0.3148
  C  C119  1  0.481960  0.656320  0.173160  1.0  -0.2775
  C  C120  1  0.466180  0.601960  0.134140  1.0  -0.0226
  C  C121  1  0.342390  0.550380  0.113990  1.0  -0.1478
  C  C122  1  0.234700  0.554200  0.133350  1.0  -0.0468
  C  C123  1  0.249900  0.607600  0.171330  1.0  -0.2049
  C  C124  1  0.326990  0.495980  0.071800  1.0  0.7134
  C  C125  1  0.380320  0.660040  0.353990  1.0  0.3076
  C  C126  1  0.266600  0.655800  0.371280  1.0  -0.2695
  C  C127  1  0.230840  0.606080  0.404360  1.0  -0.0385
  C  C128  1  0.308720  0.559440  0.419460  1.0  -0.1306
  C  C129  1  0.422990  0.565980  0.401390  1.0  -0.0364
  C  C130  1  0.458100  0.613600  0.368120  1.0  -0.156
  C  C131  1  0.269890  0.503580  0.454420  1.0  0.6722
  C  C132  1  0.683060  0.053520  0.369240  1.0  0.3041
  C  C133  1  0.654400  0.129400  0.394120  1.0  -0.2861
  C  C134  1  0.745030  0.197060  0.425210  1.0  -0.0237
  C  C135  1  0.861790  0.186780  0.432120  1.0  -0.1382
  C  C136  1  0.889290  0.110180  0.407240  1.0  -0.0284
  C  C137  1  0.801100  0.043600  0.375280  1.0  -0.2594
  C  C138  1  0.958330  0.262860  0.465800  1.0  0.7091
  C  C139  1  0.374790  0.852380  0.784530  1.0  -0.0312
  C  C140  1  0.504760  0.929520  0.769910  1.0  0.0934
  C  C141  1  0.276490  0.780380  0.749570  1.0  0.0654
  C  C142  1  0.406810  0.781020  0.810110  1.0  0.0674
  C  C143  1  0.306890  0.917180  0.809510  1.0  0.0669
  C  C144  1  0.286110  0.661020  0.691290  1.0  0.3144
  C  C145  1  0.174360  0.656320  0.673160  1.0  -0.2807
  C  C146  1  0.135780  0.601960  0.634140  1.0  -0.0221
  C  C147  1  0.207990  0.550380  0.613990  1.0  -0.1459
  C  C148  1  0.319500  0.554200  0.633350  1.0  -0.0473
  C  C149  1  0.357700  0.607600  0.671330  1.0  -0.1994
  C  C150  1  0.168990  0.495980  0.571800  1.0  0.7133
  C  C151  1  0.279720  0.660040  0.853990  1.0  0.3077
  C  C152  1  0.389200  0.655800  0.871280  1.0  -0.2684
  C  C153  1  0.375240  0.606080  0.904360  1.0  -0.0398
  C  C154  1  0.250720  0.559440  0.919460  1.0  -0.1311
  C  C155  1  0.142990  0.565980  0.901390  1.0  -0.036
  C  C156  1  0.155500  0.613600  0.868120  1.0  -0.1584
  C  C157  1  0.233690  0.503580  0.954420  1.0  0.6715
  C  C158  1  0.370460  0.053520  0.869240  1.0  0.3128
  C  C159  1  0.475000  0.129400  0.894120  1.0  -0.28
  C  C160  1  0.452030  0.197060  0.925210  1.0  -0.0225
  C  C161  1  0.324990  0.186780  0.932120  1.0  -0.1386
  C  C162  1  0.220890  0.110180  0.907240  1.0  -0.0268
  C  C163  1  0.242500  0.043600  0.875280  1.0  -0.264
  C  C164  1  0.304530  0.262860  0.965800  1.0  0.7063
  C  C165  1  0.522410  0.147620  0.715470  1.0  -0.0318
  C  C166  1  0.575240  0.070480  0.730090  1.0  0.0905
  C  C167  1  0.496110  0.219620  0.750430  1.0  0.0655
  C  C168  1  0.625790  0.218980  0.689890  1.0  0.0681
  C  C169  1  0.389710  0.082820  0.690490  1.0  0.0671
  C  C170  1  0.625090  0.338980  0.808710  1.0  0.3068
  C  C171  1  0.518040  0.343680  0.826840  1.0  -0.278
  C  C172  1  0.533820  0.398040  0.865860  1.0  -0.0217
  C  C173  1  0.657610  0.449620  0.886010  1.0  -0.1448
  C  C174  1  0.765300  0.445800  0.866650  1.0  -0.048
  C  C175  1  0.750100  0.392400  0.828670  1.0  -0.2007
  C  C176  1  0.673010  0.504020  0.928200  1.0  0.7146
  C  C177  1  0.619680  0.339960  0.646010  1.0  0.2981
  C  C178  1  0.733400  0.344200  0.628720  1.0  -0.2682
  C  C179  1  0.769160  0.393920  0.595640  1.0  -0.0413
  C  C180  1  0.691280  0.440560  0.580540  1.0  -0.1299
  C  C181  1  0.577010  0.434020  0.598610  1.0  -0.0361
  C  C182  1  0.541900  0.386400  0.631880  1.0  -0.157
  C  C183  1  0.730110  0.496420  0.545580  1.0  0.671
  C  C184  1  0.316940  0.946480  0.630760  1.0  0.3112
  C  C185  1  0.345600  0.870600  0.605880  1.0  -0.2873
  C  C186  1  0.254970  0.802940  0.574790  1.0  -0.0237
  C  C187  1  0.138210  0.813220  0.567880  1.0  -0.1379
  C  C188  1  0.110710  0.889820  0.592760  1.0  -0.026
  C  C189  1  0.198900  0.956400  0.624720  1.0  -0.2635
  C  C190  1  0.041670  0.737140  0.534200  1.0  0.7121
  O  O191  1  0.663130  0.286260  0.271370  1.0  -0.276
  O  O192  1  0.717750  0.291900  0.178680  1.0  -0.2767
  O  O193  1  0.593750  0.009100  0.159740  1.0  -0.2766
  O  O194  1  0.925920  0.495040  0.444710  1.0  -0.6196
  O  O195  1  0.763780  0.555760  0.443870  1.0  -0.649
  O  O196  1  0.884760  0.550520  0.036850  1.0  -0.6112
  O  O197  1  0.669020  0.491040  0.025940  1.0  -0.6795
  O  O198  1  0.594350  0.669900  0.012500  1.0  -0.6324
  O  O199  1  0.813580  0.746560  0.029450  1.0  -0.6048
  O  O200  1  0.376870  0.713740  0.228630  1.0  -0.2764
  O  O201  1  0.425850  0.708100  0.321320  1.0  -0.2788
  O  O202  1  0.584650  0.990900  0.340260  1.0  -0.2767
  O  O203  1  0.430880  0.504960  0.055290  1.0  -0.6186
  O  O204  1  0.208020  0.444240  0.056130  1.0  -0.6488
  O  O205  1  0.334240  0.449480  0.463150  1.0  -0.5966
  O  O206  1  0.177980  0.508960  0.474060  1.0  -0.6795
  O  O207  1  0.924450  0.330100  0.487500  1.0  -0.6319
  O  O208  1  0.067020  0.253440  0.470550  1.0  -0.6036
  O  O209  1  0.336870  0.713740  0.728630  1.0  -0.2763
  O  O210  1  0.282250  0.708100  0.821320  1.0  -0.2795
  O  O211  1  0.406250  0.990900  0.840260  1.0  -0.2767
  O  O212  1  0.074080  0.504960  0.555290  1.0  -0.6187
  O  O213  1  0.236220  0.444240  0.556130  1.0  -0.6489
  O  O214  1  0.115240  0.449480  0.963150  1.0  -0.6115
  O  O215  1  0.330980  0.508960  0.974060  1.0  -0.6802
  O  O216  1  0.405650  0.330100  0.987500  1.0  -0.633
  O  O217  1  0.186420  0.253440  0.970550  1.0  -0.6028
  O  O218  1  0.623130  0.286260  0.771370  1.0  -0.2757
  O  O219  1  0.574150  0.291900  0.678680  1.0  -0.2778
  O  O220  1  0.415350  0.009100  0.659740  1.0  -0.2771
  O  O221  1  0.569120  0.495040  0.944710  1.0  -0.6193
  O  O222  1  0.791980  0.555760  0.943870  1.0  -0.6492
  O  O223  1  0.665760  0.550520  0.536850  1.0  -0.6002
  O  O224  1  0.822020  0.491040  0.525940  1.0  -0.6827
  O  O225  1  0.075550  0.669900  0.512500  1.0  -0.6343
  O  O226  1  0.932980  0.746560  0.529450  1.0  -0.6036
  O  O227  1  0.528800  0.000000  0.250000  1.0  -0.3119
  O  O228  1  0.471200  0.000000  0.750000  1.0  -0.3104
