# generated using pymatgen
data_Co3H52C70(N3O10)2
_symmetry_space_group_name_H-M   'P 1'
_cell_length_a   14.82500000
_cell_length_b   16.67220000
_cell_length_c   16.67220000
_cell_angle_alpha   118.83500000
_cell_angle_beta   96.31730000
_cell_angle_gamma   96.31730000
_symmetry_Int_Tables_number   1
_chemical_formula_structural   Co3H52C70(N3O10)2
_chemical_formula_sum   'Co3 H52 C70 N6 O20'
_cell_volume   3524.42889421
_cell_formula_units_Z   1
loop_
 _symmetry_equiv_pos_site_id
 _symmetry_equiv_pos_as_xyz
  1  'x, y, z'
loop_
 _atom_site_type_symbol
 _atom_site_label
 _atom_site_symmetry_multiplicity
 _atom_site_fract_x
 _atom_site_fract_y
 _atom_site_fract_z
 _atom_site_occupancy
 _atom_site_charge
  Co  Co1  1  0.009390  0.010890  0.200950  1.0  1.0375
  Co  Co2  1  0.990610  0.799050  0.989110  1.0  1.0375
  Co  Co3  1  0.000000  0.802030  0.197970  1.0  1.0577
  H  H4  1  0.722000  0.154600  0.695200  1.0  0.0774
  H  H5  1  0.647100  0.146500  0.615500  1.0  0.0656
  H  H6  1  0.455300  0.038500  0.663100  1.0  0.067
  H  H7  1  0.511100  0.989600  0.582800  1.0  0.0561
  H  H8  1  0.561600  0.233200  0.738400  1.0  0.0822
  H  H9  1  0.630000  0.231800  0.816400  1.0  0.0725
  H  H10  1  0.629200  0.988400  0.699800  1.0  0.0807
  H  H11  1  0.565200  0.035600  0.772400  1.0  0.0755
  H  H12  1  0.358100  0.942300  0.514100  1.0  0.1292
  H  H13  1  0.703500  0.931700  0.765700  1.0  0.1181
  H  H14  1  0.772300  0.178400  0.979800  1.0  0.1045
  H  H15  1  0.772500  0.144000  0.546200  1.0  0.1168
  H  H16  1  0.845700  0.106000  0.424400  1.0  0.1076
  H  H17  1  0.800300  0.842400  0.358600  1.0  0.0939
  H  H18  1  0.710700  0.873900  0.471300  1.0  0.134
  H  H19  1  0.998600  0.835400  0.397000  1.0  0.1017
  H  H20  1  0.996300  0.757100  0.476700  1.0  0.1153
  H  H21  1  0.262700  0.139000  0.418800  1.0  0.1044
  H  H22  1  0.398400  0.185000  0.521400  1.0  0.1381
  H  H23  1  0.216900  0.901100  0.418300  1.0  0.1006
  H  H24  1  0.988700  0.831800  0.823000  1.0  0.1005
  H  H25  1  0.992300  0.754100  0.666300  1.0  0.1089
  H  H26  1  0.986300  0.518200  0.675000  1.0  0.1254
  H  H27  1  0.980300  0.599200  0.828200  1.0  0.0843
  H  H28  1  0.841600  0.122000  0.063600  1.0  0.0894
  H  H29  1  0.798700  0.877300  0.843300  1.0  0.0979
  H  H30  1  0.278000  0.304800  0.845400  1.0  0.0755
  H  H31  1  0.352900  0.384500  0.853500  1.0  0.0656
  H  H32  1  0.544700  0.336900  0.961500  1.0  0.0655
  H  H33  1  0.488900  0.417200  0.010400  1.0  0.0569
  H  H34  1  0.438400  0.261600  0.766800  1.0  0.084
  H  H35  1  0.370000  0.183600  0.768200  1.0  0.0718
  H  H36  1  0.370800  0.300200  0.011600  1.0  0.0812
  H  H37  1  0.434800  0.227600  0.964400  1.0  0.0743
  H  H38  1  0.641900  0.485900  0.057700  1.0  0.1291
  H  H39  1  0.296500  0.234300  0.068300  1.0  0.1198
  H  H40  1  0.227700  0.020200  0.821600  1.0  0.1042
  H  H41  1  0.227500  0.453800  0.856000  1.0  0.1158
  H  H42  1  0.154300  0.575600  0.894000  1.0  0.1082
  H  H43  1  0.199700  0.641400  0.157600  1.0  0.0951
  H  H44  1  0.289300  0.528700  0.126100  1.0  0.1338
  H  H45  1  0.001400  0.603000  0.164600  1.0  0.1003
  H  H46  1  0.003700  0.523300  0.242900  1.0  0.1145
  H  H47  1  0.737300  0.581200  0.861000  1.0  0.1034
  H  H48  1  0.601600  0.478600  0.815000  1.0  0.1339
  H  H49  1  0.783100  0.581700  0.098900  1.0  0.1002
  H  H50  1  0.011300  0.177000  0.168200  1.0  0.1006
  H  H51  1  0.007700  0.333700  0.245900  1.0  0.1088
  H  H52  1  0.013700  0.325000  0.481800  1.0  0.1243
  H  H53  1  0.019700  0.171800  0.400800  1.0  0.0836
  H  H54  1  0.158400  0.936400  0.878000  1.0  0.0906
  H  H55  1  0.201300  0.156700  0.122700  1.0  0.099
  C  C56  1  0.590200  0.102500  0.698500  1.0  0.0009
  C  C57  1  0.666200  0.116400  0.650000  1.0  0.0692
  C  C58  1  0.502000  0.049400  0.631200  1.0  0.0824
  C  C59  1  0.574600  0.198000  0.769200  1.0  0.0667
  C  C60  1  0.615700  0.047600  0.745000  1.0  0.0822
  C  C61  1  0.388500  0.069300  0.530700  1.0  0.3262
  C  C62  1  0.337400  0.983600  0.497000  1.0  -0.2574
  C  C63  1  0.736200  0.061000  0.862400  1.0  0.2856
  C  C64  1  0.737600  0.973000  0.825000  1.0  -0.1763
  C  C65  1  0.775000  0.115300  0.950900  1.0  -0.1145
  C  C66  1  0.731700  0.014000  0.521000  1.0  0.2932
  C  C67  1  0.775000  0.081900  0.506500  1.0  -0.2112
  C  C68  1  0.820600  0.059700  0.435900  1.0  -0.0493
  C  C69  1  0.830900  0.969500  0.380300  1.0  -0.1422
  C  C70  1  0.791900  0.903200  0.395400  1.0  -0.0137
  C  C71  1  0.739700  0.921600  0.463600  1.0  -0.1457
  C  C72  1  0.998900  0.771700  0.365500  1.0  0.1511
  C  C73  1  0.998200  0.725200  0.413400  1.0  -0.0843
  C  C74  1  0.996300  0.577700  0.554100  1.0  0.3986
  C  C75  1  0.139200  0.980600  0.333200  1.0  0.725
  C  C76  1  0.226300  0.013100  0.404700  1.0  -0.1534
  C  C77  1  0.281300  0.099000  0.438800  1.0  -0.0344
  C  C78  1  0.361900  0.127100  0.500300  1.0  -0.2503
  C  C79  1  0.254500  0.957900  0.437100  1.0  -0.0283
  C  C80  1  0.988300  0.768100  0.792700  1.0  0.1308
  C  C81  1  0.991100  0.721800  0.698800  1.0  -0.0835
  C  C82  1  0.992200  0.627900  0.653300  1.0  -0.0898
  C  C83  1  0.987300  0.582000  0.703800  1.0  -0.1278
  C  C84  1  0.983700  0.631200  0.795400  1.0  0.177
  C  C85  1  0.880800  0.954600  0.014600  1.0  0.7223
  C  C86  1  0.883700  0.943600  0.302400  1.0  0.7187
  C  C87  1  0.829300  0.993200  0.962200  1.0  -0.085
  C  C88  1  0.818400  0.081900  0.000500  1.0  -0.0849
  C  C89  1  0.790900  0.939100  0.874100  1.0  -0.0731
  C  C90  1  0.409800  0.301500  0.897500  1.0  1e-04
  C  C91  1  0.333800  0.350000  0.883600  1.0  0.0705
  C  C92  1  0.498000  0.368800  0.950600  1.0  0.0792
  C  C93  1  0.425400  0.230800  0.802000  1.0  0.0639
  C  C94  1  0.384300  0.255000  0.952400  1.0  0.0778
  C  C95  1  0.611500  0.469300  0.930700  1.0  0.3253
  C  C96  1  0.662600  0.503000  0.016400  1.0  -0.2559
  C  C97  1  0.263800  0.137600  0.939000  1.0  0.2878
  C  C98  1  0.262400  0.175000  0.027000  1.0  -0.1766
  C  C99  1  0.225000  0.049100  0.884700  1.0  -0.1105
  C  C100  1  0.268300  0.479000  0.986000  1.0  0.292
  C  C101  1  0.225000  0.493500  0.918100  1.0  -0.2098
  C  C102  1  0.179400  0.564100  0.940300  1.0  -0.052
  C  C103  1  0.169100  0.619700  0.030500  1.0  -0.143
  C  C104  1  0.208100  0.604600  0.096800  1.0  -0.0113
  C  C105  1  0.260300  0.536400  0.078400  1.0  -0.1506
  C  C106  1  0.001100  0.634500  0.228300  1.0  0.1547
  C  C107  1  0.001800  0.586600  0.274800  1.0  -0.0806
  C  C108  1  0.003700  0.445900  0.422300  1.0  0.3992
  C  C109  1  0.860800  0.666800  0.019400  1.0  0.7259
  C  C110  1  0.773700  0.595300  0.986900  1.0  -0.1542
  C  C111  1  0.718700  0.561200  0.901000  1.0  -0.0326
  C  C112  1  0.638100  0.499700  0.872900  1.0  -0.246
  C  C113  1  0.745500  0.562900  0.042100  1.0  -0.0294
  C  C114  1  0.011700  0.207300  0.231900  1.0  0.1305
  C  C115  1  0.008900  0.301200  0.278200  1.0  -0.0841
  C  C116  1  0.007800  0.346700  0.372100  1.0  -0.0887
  C  C117  1  0.012700  0.296200  0.418000  1.0  -0.1319
  C  C118  1  0.016300  0.204600  0.368800  1.0  0.1735
  C  C119  1  0.119200  0.985400  0.045400  1.0  0.7237
  C  C120  1  0.116300  0.697600  0.056400  1.0  0.7089
  C  C121  1  0.170700  0.037800  0.006800  1.0  -0.0858
  C  C122  1  0.181600  0.999500  0.918100  1.0  -0.0873
  C  C123  1  0.209100  0.125900  0.060900  1.0  -0.0745
  C  C124  1  0.000000  0.630900  0.369100  1.0  -0.1145
  C  C125  1  0.000000  0.580300  0.419700  1.0  0.465
  N  N126  1  0.996700  0.627600  0.510600  1.0  -0.4737
  N  N127  1  0.984900  0.723400  0.842000  1.0  -0.3381
  N  N128  1  0.003300  0.489400  0.372400  1.0  -0.4757
  N  N129  1  0.015100  0.158000  0.276600  1.0  -0.3364
  N  N130  1  0.000000  0.728000  0.272000  1.0  -0.3334
  N  N131  1  0.000000  0.487300  0.512700  1.0  -0.4708
  O  O132  1  0.473100  0.102400  0.591400  1.0  -0.2691
  O  O133  1  0.696200  0.103200  0.816200  1.0  -0.3001
  O  O134  1  0.681500  0.026300  0.589100  1.0  -0.2744
  O  O135  1  0.093200  0.905220  0.312980  1.0  -0.6018
  O  O136  1  0.120500  0.031870  0.301330  1.0  -0.5978
  O  O137  1  0.915900  0.006530  0.285670  1.0  -0.6293
  O  O138  1  0.893100  0.861200  0.259400  1.0  -0.6096
  O  O139  1  0.904200  0.006800  0.100000  1.0  -0.6234
  O  O140  1  0.897200  0.875800  0.968400  1.0  -0.6229
  O  O141  1  0.526900  0.408600  0.897600  1.0  -0.2726
  O  O142  1  0.303800  0.183800  0.896800  1.0  -0.2981
  O  O143  1  0.318500  0.410900  0.973700  1.0  -0.2743
  O  O144  1  0.906800  0.687020  0.094780  1.0  -0.6002
  O  O145  1  0.879500  0.698670  0.968130  1.0  -0.5974
  O  O146  1  0.084100  0.714330  0.993470  1.0  -0.6307
  O  O147  1  0.106900  0.740600  0.138800  1.0  -0.608
  O  O148  1  0.095800  0.900000  0.993200  1.0  -0.6273
  O  O149  1  0.102800  0.031600  0.124200  1.0  -0.6197
  O  O150  1  0.000000  0.872200  0.127800  1.0  -0.8327
  O  O151  1  0.500000  0.188600  0.811400  1.0  -0.2861
