# generated using pymatgen
data_Co3H52C70(N2O7)3
_symmetry_space_group_name_H-M   'P 1'
_cell_length_a   15.06100000
_cell_length_b   17.06900000
_cell_length_c   28.35300000
_cell_angle_alpha   90.00000000
_cell_angle_beta   90.00000000
_cell_angle_gamma   100.65300000
_symmetry_Int_Tables_number   1
_chemical_formula_structural   Co3H52C70(N2O7)3
_chemical_formula_sum   'Co6 H104 C140 N12 O42'
_cell_volume   7163.25619399
_cell_formula_units_Z   2
loop_
 _symmetry_equiv_pos_site_id
 _symmetry_equiv_pos_as_xyz
  1  'x, y, z'
loop_
 _atom_site_type_symbol
 _atom_site_label
 _atom_site_symmetry_multiplicity
 _atom_site_fract_x
 _atom_site_fract_y
 _atom_site_fract_z
 _atom_site_occupancy
 _atom_site_charge
  Co  Co1  1  0.521740  0.867950  0.029950  1.0  1.0783
  Co  Co2  1  0.486350  0.240760  0.430850  1.0  1.1181
  Co  Co3  1  0.514670  0.653410  0.032950  1.0  0.9882
  Co  Co4  1  0.478260  0.132050  0.529950  1.0  1.0766
  Co  Co5  1  0.513650  0.759240  0.930850  1.0  1.1183
  Co  Co6  1  0.485330  0.346590  0.532950  1.0  0.9882
  H  H7  1  0.050700  0.719200  0.373400  1.0  0.1011
  H  H8  1  0.116700  0.744600  0.330800  1.0  0.0841
  H  H9  1  0.937200  0.762500  0.376000  1.0  0.0906
  H  H10  1  0.863100  0.729800  0.338300  1.0  0.0739
  H  H11  1  0.924100  0.587100  0.313300  1.0  0.0711
  H  H12  1  0.971000  0.518800  0.332900  1.0  0.0612
  H  H13  1  0.185400  0.633500  0.357900  1.0  0.0743
  H  H14  1  0.108200  0.600700  0.394000  1.0  0.0585
  H  H15  1  0.074200  0.555900  0.270700  1.0  0.0573
  H  H16  1  0.037800  0.633300  0.256700  1.0  0.0687
  H  H17  1  0.880000  0.909300  0.273100  1.0  0.0618
  H  H18  1  0.932400  0.840800  0.259500  1.0  0.0809
  H  H19  1  0.790000  0.837900  0.362500  1.0  0.0624
  H  H20  1  0.870400  0.874500  0.396000  1.0  0.0569
  H  H21  1  0.045300  0.888300  0.313500  1.0  0.0775
  H  H22  1  0.996800  0.957000  0.330900  1.0  0.0592
  H  H23  1  0.859800  0.604600  0.457200  1.0  0.1343
  H  H24  1  0.730800  0.528100  0.488200  1.0  0.0952
  H  H25  1  0.700900  0.395300  0.373800  1.0  0.0937
  H  H26  1  0.832200  0.469200  0.343100  1.0  0.1205
  H  H27  1  0.230600  0.569600  0.424900  1.0  0.1315
  H  H28  1  0.316100  0.494000  0.468200  1.0  0.0965
  H  H29  1  0.266800  0.322200  0.374200  1.0  0.0981
  H  H30  1  0.171700  0.390300  0.333200  1.0  0.1326
  H  H31  1  0.100700  0.571200  0.195100  1.0  0.1245
  H  H32  1  0.169500  0.564800  0.123800  1.0  0.0978
  H  H33  1  0.390400  0.704100  0.173200  1.0  0.1222
  H  H34  1  0.319700  0.711500  0.241500  1.0  0.1011
  H  H35  1  0.800100  0.911000  0.208100  1.0  0.1304
  H  H36  1  0.720300  0.895200  0.139100  1.0  0.0936
  H  H37  1  0.656200  0.671700  0.159700  1.0  0.0911
  H  H38  1  0.698200  0.688100  0.240900  1.0  0.1171
  H  H39  1  0.807900  0.087500  0.335600  1.0  0.1322
  H  H40  1  0.702900  0.151500  0.369700  1.0  0.1081
  H  H41  1  0.648200  0.980400  0.466400  1.0  0.0975
  H  H42  1  0.734600  0.904900  0.425600  1.0  0.1251
  H  H43  1  0.099200  0.899600  0.460500  1.0  0.1235
  H  H44  1  0.234100  0.975800  0.490000  1.0  0.115
  H  H45  1  0.280300  0.077100  0.365100  1.0  0.1058
  H  H46  1  0.150200  0.001200  0.336300  1.0  0.1298
  H  H47  1  0.518700  0.160400  0.046700  1.0  0.1194
  H  H48  1  0.532200  0.046700  0.010000  1.0  0.0904
  H  H49  1  0.533600  0.936100  0.128800  1.0  0.0974
  H  H50  1  0.521100  0.048700  0.168400  1.0  0.1121
  H  H51  1  0.516600  0.358700  0.048500  1.0  0.1247
  H  H52  1  0.517000  0.478400  0.012400  1.0  0.0866
  H  H53  1  0.515900  0.584300  0.132100  1.0  0.0723
  H  H54  1  0.516800  0.467500  0.173100  1.0  0.1356
  H  H55  1  0.505900  0.136200  0.265700  1.0  0.1147
  H  H56  1  0.493400  0.132800  0.346300  1.0  0.0922
  H  H57  1  0.489000  0.359800  0.349200  1.0  0.0852
  H  H58  1  0.493300  0.366500  0.269500  1.0  0.1183
  H  H59  1  0.949300  0.280800  0.873400  1.0  0.1027
  H  H60  1  0.883300  0.255400  0.830800  1.0  0.0848
  H  H61  1  0.062800  0.237500  0.876000  1.0  0.09
  H  H62  1  0.136900  0.270200  0.838300  1.0  0.0735
  H  H63  1  0.075900  0.412900  0.813300  1.0  0.0719
  H  H64  1  0.029000  0.481200  0.832900  1.0  0.0615
  H  H65  1  0.814600  0.366500  0.857900  1.0  0.075
  H  H66  1  0.891800  0.399300  0.894000  1.0  0.0593
  H  H67  1  0.925800  0.444100  0.770700  1.0  0.0582
  H  H68  1  0.962200  0.366700  0.756700  1.0  0.0678
  H  H69  1  0.120000  0.090700  0.773100  1.0  0.0602
  H  H70  1  0.067600  0.159200  0.759500  1.0  0.0802
  H  H71  1  0.210000  0.162100  0.862500  1.0  0.0628
  H  H72  1  0.129600  0.125500  0.896000  1.0  0.0558
  H  H73  1  0.954700  0.111700  0.813500  1.0  0.0779
  H  H74  1  0.003200  0.043000  0.830900  1.0  0.0573
  H  H75  1  0.140200  0.395400  0.957200  1.0  0.1337
  H  H76  1  0.269200  0.471900  0.988200  1.0  0.0954
  H  H77  1  0.299100  0.604700  0.873800  1.0  0.0939
  H  H78  1  0.167800  0.530800  0.843100  1.0  0.1204
  H  H79  1  0.769400  0.430400  0.924900  1.0  0.1321
  H  H80  1  0.683900  0.506000  0.968200  1.0  0.0964
  H  H81  1  0.733200  0.677800  0.874200  1.0  0.0983
  H  H82  1  0.828300  0.609700  0.833200  1.0  0.1329
  H  H83  1  0.899300  0.428800  0.695100  1.0  0.1246
  H  H84  1  0.830500  0.435200  0.623800  1.0  0.0982
  H  H85  1  0.609600  0.295900  0.673200  1.0  0.123
  H  H86  1  0.680300  0.288500  0.741500  1.0  0.1018
  H  H87  1  0.199900  0.089000  0.708100  1.0  0.1339
  H  H88  1  0.279700  0.104800  0.639100  1.0  0.0902
  H  H89  1  0.343800  0.328300  0.659700  1.0  0.0899
  H  H90  1  0.301800  0.311900  0.740900  1.0  0.1161
  H  H91  1  0.192100  0.912500  0.835600  1.0  0.1315
  H  H92  1  0.297100  0.848500  0.869700  1.0  0.1072
  H  H93  1  0.351800  0.019600  0.966400  1.0  0.0975
  H  H94  1  0.265400  0.095100  0.925600  1.0  0.125
  H  H95  1  0.900800  0.100400  0.960500  1.0  0.1222
  H  H96  1  0.765900  0.024200  0.990000  1.0  0.1147
  H  H97  1  0.719700  0.922900  0.865100  1.0  0.1059
  H  H98  1  0.849800  0.998800  0.836300  1.0  0.1296
  H  H99  1  0.481300  0.839600  0.546700  1.0  0.1189
  H  H100  1  0.467800  0.953300  0.510000  1.0  0.0903
  H  H101  1  0.466400  0.063900  0.628800  1.0  0.0968
  H  H102  1  0.478900  0.951300  0.668400  1.0  0.1114
  H  H103  1  0.483400  0.641300  0.548500  1.0  0.1248
  H  H104  1  0.483000  0.521600  0.512400  1.0  0.0862
  H  H105  1  0.484100  0.415700  0.632100  1.0  0.0726
  H  H106  1  0.483200  0.532500  0.673100  1.0  0.136
  H  H107  1  0.494100  0.863800  0.765700  1.0  0.115
  H  H108  1  0.506600  0.867200  0.846300  1.0  0.0929
  H  H109  1  0.511000  0.640200  0.849200  1.0  0.085
  H  H110  1  0.506700  0.633500  0.769500  1.0  0.1181
  C  C111  1  0.058900  0.712900  0.339800  1.0  0.0545
  C  C112  1  0.921000  0.764700  0.343000  1.0  0.0749
  C  C113  1  0.056500  0.624700  0.327900  1.0  0.0097
  C  C114  1  0.913600  0.849000  0.330000  1.0  0.0171
  C  C115  1  0.967100  0.574600  0.336200  1.0  0.0737
  C  C116  1  0.127400  0.598300  0.361500  1.0  0.0852
  C  C117  1  0.079300  0.612400  0.277200  1.0  0.0792
  C  C118  1  0.886700  0.855100  0.280300  1.0  0.0823
  C  C119  1  0.847500  0.874400  0.364000  1.0  0.073
  C  C120  1  0.002600  0.902000  0.336200  1.0  0.0771
  C  C121  1  0.859000  0.542100  0.397600  1.0  0.3261
  C  C122  1  0.828600  0.561400  0.440400  1.0  -0.2192
  C  C123  1  0.750400  0.515500  0.458500  1.0  -0.0186
  C  C124  1  0.700800  0.452500  0.434700  1.0  -0.066
  C  C125  1  0.732900  0.437000  0.391500  1.0  -0.0194
  C  C126  1  0.812000  0.481500  0.372700  1.0  -0.2942
  C  C127  1  0.619500  0.402800  0.453600  1.0  0.724
  C  C128  1  0.191500  0.484600  0.376200  1.0  0.3339
  C  C129  1  0.235700  0.518600  0.415300  1.0  -0.2766
  C  C130  1  0.288800  0.473600  0.440300  1.0  -0.0126
  C  C131  1  0.301700  0.401000  0.425100  1.0  -0.1335
  C  C132  1  0.258300  0.371600  0.385200  1.0  -0.0091
  C  C133  1  0.201700  0.412300  0.360200  1.0  -0.2184
  C  C134  1  0.362400  0.356200  0.449700  1.0  0.7251
  C  C135  1  0.204600  0.641100  0.225200  1.0  0.3722
  C  C136  1  0.159700  0.597900  0.190500  1.0  -0.3173
  C  C137  1  0.201600  0.593400  0.148300  1.0  -0.0395
  C  C138  1  0.288800  0.629200  0.140700  1.0  -0.1326
  C  C139  1  0.331900  0.676000  0.177300  1.0  -0.12
  C  C140  1  0.289700  0.680200  0.217500  1.0  -0.1243
  C  C141  1  0.336100  0.626200  0.095300  1.0  0.697
  C  C142  1  0.762800  0.797000  0.230000  1.0  0.3661
  C  C143  1  0.766000  0.861500  0.200100  1.0  -0.2756
  C  C144  1  0.718900  0.851400  0.158800  1.0  -0.0426
  C  C145  1  0.671100  0.781800  0.145500  1.0  0.0974
  C  C146  1  0.676300  0.722600  0.171800  1.0  -0.087
  C  C147  1  0.711500  0.729500  0.219300  1.0  -0.1328
  C  C148  1  0.620000  0.773800  0.099500  1.0  0.7443
  C  C149  1  0.781100  0.988800  0.377600  1.0  0.3126
  C  C150  1  0.773200  0.064600  0.360900  1.0  -0.1889
  C  C151  1  0.713700  0.104100  0.382600  1.0  -0.0249
  C  C152  1  0.668500  0.074500  0.424000  1.0  -0.1422
  C  C153  1  0.678400  0.001100  0.439200  1.0  -0.028
  C  C154  1  0.732000  0.956400  0.415600  1.0  -0.2655
  C  C155  1  0.604100  0.119900  0.446700  1.0  0.7201
  C  C156  1  0.115200  0.944700  0.396800  1.0  0.2833
  C  C157  1  0.136400  0.935700  0.441200  1.0  -0.2244
  C  C158  1  0.216800  0.982100  0.459000  1.0  -0.0436
  C  C159  1  0.268600  0.036000  0.430500  1.0  -0.1513
  C  C160  1  0.243800  0.041500  0.385000  1.0  -0.0302
  C  C161  1  0.166800  0.996500  0.367600  1.0  -0.2529
  C  C162  1  0.351300  0.089300  0.449600  1.0  0.7039
  C  C163  1  0.518200  0.193400  0.138600  1.0  0.3818
  C  C164  1  0.515400  0.324800  0.140200  1.0  0.447
  C  C165  1  0.509200  0.255800  0.206800  1.0  0.4357
  C  C166  1  0.522600  0.119500  0.112800  1.0  -0.0335
  C  C167  1  0.522900  0.115400  0.064400  1.0  -0.1409
  C  C168  1  0.529000  0.047200  0.042700  1.0  0.1773
  C  C169  1  0.530100  0.982000  0.111800  1.0  0.1627
  C  C170  1  0.524100  0.050000  0.135600  1.0  -0.0629
  C  C171  1  0.515400  0.400000  0.114900  1.0  -0.08
  C  C172  1  0.516200  0.404200  0.066500  1.0  -0.1509
  C  C173  1  0.516400  0.476200  0.045200  1.0  0.1659
  C  C174  1  0.515900  0.537700  0.115100  1.0  0.1868
  C  C175  1  0.516200  0.467800  0.140300  1.0  -0.1664
  C  C176  1  0.503400  0.252700  0.258200  1.0  -0.0918
  C  C177  1  0.502100  0.182500  0.282200  1.0  -0.1309
  C  C178  1  0.495200  0.180900  0.330600  1.0  0.1468
  C  C179  1  0.491600  0.313700  0.332200  1.0  0.1656
  C  C180  1  0.495700  0.318400  0.284500  1.0  -0.1403
  C  C181  1  0.941100  0.287100  0.839800  1.0  0.0549
  C  C182  1  0.079000  0.235300  0.843000  1.0  0.0749
  C  C183  1  0.943500  0.375300  0.827900  1.0  0.0097
  C  C184  1  0.086400  0.151000  0.830000  1.0  0.0175
  C  C185  1  0.032900  0.425400  0.836200  1.0  0.0701
  C  C186  1  0.872600  0.401700  0.861500  1.0  0.0857
  C  C187  1  0.920700  0.387600  0.777200  1.0  0.076
  C  C188  1  0.113300  0.144900  0.780300  1.0  0.0813
  C  C189  1  0.152500  0.125600  0.864000  1.0  0.0724
  C  C190  1  0.997400  0.098000  0.836200  1.0  0.0793
  C  C191  1  0.141000  0.457900  0.897600  1.0  0.3263
  C  C192  1  0.171400  0.438600  0.940400  1.0  -0.2195
  C  C193  1  0.249600  0.484500  0.958500  1.0  -0.0189
  C  C194  1  0.299200  0.547500  0.934700  1.0  -0.0666
  C  C195  1  0.267100  0.563000  0.891500  1.0  -0.0209
  C  C196  1  0.188000  0.518500  0.872700  1.0  -0.2971
  C  C197  1  0.380500  0.597200  0.953600  1.0  0.7225
  C  C198  1  0.808500  0.515400  0.876200  1.0  0.3326
  C  C199  1  0.764300  0.481400  0.915300  1.0  -0.2762
  C  C200  1  0.711200  0.526400  0.940300  1.0  -0.0138
  C  C201  1  0.698300  0.599000  0.925100  1.0  -0.133
  C  C202  1  0.741700  0.628400  0.885200  1.0  -0.01
  C  C203  1  0.798300  0.587700  0.860200  1.0  -0.219
  C  C204  1  0.637600  0.643800  0.949700  1.0  0.725
  C  C205  1  0.795400  0.358900  0.725200  1.0  0.3722
  C  C206  1  0.840300  0.402100  0.690500  1.0  -0.3164
  C  C207  1  0.798400  0.406600  0.648300  1.0  -0.0435
  C  C208  1  0.711200  0.370800  0.640700  1.0  -0.1316
  C  C209  1  0.668100  0.324000  0.677300  1.0  -0.1178
  C  C210  1  0.710300  0.319800  0.717500  1.0  -0.1254
  C  C211  1  0.663900  0.373800  0.595300  1.0  0.6972
  C  C212  1  0.237200  0.203000  0.730000  1.0  0.3664
  C  C213  1  0.234000  0.138500  0.700100  1.0  -0.2752
  C  C214  1  0.281100  0.148600  0.658800  1.0  -0.0415
  C  C215  1  0.328900  0.218200  0.645500  1.0  0.0993
  C  C216  1  0.323700  0.277400  0.671800  1.0  -0.0863
  C  C217  1  0.288500  0.270500  0.719300  1.0  -0.1328
  C  C218  1  0.380000  0.226200  0.599500  1.0  0.7442
  C  C219  1  0.218900  0.011200  0.877600  1.0  0.313
  C  C220  1  0.226800  0.935400  0.860900  1.0  -0.1872
  C  C221  1  0.286300  0.895900  0.882600  1.0  -0.0252
  C  C222  1  0.331500  0.925500  0.924000  1.0  -0.1415
  C  C223  1  0.321600  0.998900  0.939200  1.0  -0.0275
  C  C224  1  0.268000  0.043600  0.915600  1.0  -0.2656
  C  C225  1  0.395900  0.880100  0.946700  1.0  0.7182
  C  C226  1  0.884800  0.055300  0.896800  1.0  0.2827
  C  C227  1  0.863600  0.064300  0.941200  1.0  -0.2218
  C  C228  1  0.783200  0.017900  0.959000  1.0  -0.0441
  C  C229  1  0.731400  0.964000  0.930500  1.0  -0.1512
  C  C230  1  0.756200  0.958500  0.885000  1.0  -0.03
  C  C231  1  0.833200  0.003500  0.867600  1.0  -0.2519
  C  C232  1  0.648700  0.910700  0.949600  1.0  0.7047
  C  C233  1  0.481800  0.806600  0.638600  1.0  0.3822
  C  C234  1  0.484600  0.675200  0.640200  1.0  0.4471
  C  C235  1  0.490800  0.744200  0.706800  1.0  0.436
  C  C236  1  0.477400  0.880500  0.612800  1.0  -0.0339
  C  C237  1  0.477100  0.884600  0.564400  1.0  -0.1421
  C  C238  1  0.471000  0.952800  0.542700  1.0  0.1773
  C  C239  1  0.469900  0.018000  0.611800  1.0  0.1618
  C  C240  1  0.475900  0.950000  0.635600  1.0  -0.0629
  C  C241  1  0.484600  0.600000  0.614900  1.0  -0.0789
  C  C242  1  0.483800  0.595800  0.566500  1.0  -0.1515
  C  C243  1  0.483600  0.523800  0.545200  1.0  0.1663
  C  C244  1  0.484100  0.462300  0.615100  1.0  0.1874
  C  C245  1  0.483800  0.532200  0.640300  1.0  -0.1675
  C  C246  1  0.496600  0.747300  0.758200  1.0  -0.0917
  C  C247  1  0.497900  0.817500  0.782200  1.0  -0.1308
  C  C248  1  0.504800  0.819100  0.830600  1.0  0.1469
  C  C249  1  0.508400  0.686300  0.832200  1.0  0.1657
  C  C250  1  0.504300  0.681600  0.784500  1.0  -0.1404
  N  N251  1  0.519500  0.260900  0.113900  1.0  -0.5788
  N  N252  1  0.512200  0.326400  0.185800  1.0  -0.4249
  N  N253  1  0.514400  0.188500  0.185500  1.0  -0.4636
  N  N254  1  0.530900  0.979300  0.066100  1.0  -0.3121
  N  N255  1  0.515700  0.542200  0.068800  1.0  -0.3019
  N  N256  1  0.491100  0.246400  0.355800  1.0  -0.2986
  N  N257  1  0.480500  0.739100  0.613900  1.0  -0.5787
  N  N258  1  0.487800  0.673600  0.685800  1.0  -0.4247
  N  N259  1  0.485600  0.811500  0.685500  1.0  -0.4645
  N  N260  1  0.469100  0.020700  0.566100  1.0  -0.3123
  N  N261  1  0.484300  0.457800  0.568800  1.0  -0.3019
  N  N262  1  0.508900  0.753600  0.855800  1.0  -0.2985
  O  O263  1  0.988000  0.738100  0.314500  1.0  -0.296
  O  O264  1  0.404300  0.827800  0.076000  1.0  -0.3263
  O  O265  1  0.937800  0.589600  0.383000  1.0  -0.2609
  O  O266  1  0.134800  0.520900  0.349900  1.0  -0.2747
  O  O267  1  0.169000  0.652500  0.268800  1.0  -0.256
  O  O268  1  0.801700  0.801000  0.273400  1.0  -0.2668
  O  O269  1  0.836600  0.951100  0.351200  1.0  -0.2678
  O  O270  1  0.034500  0.893600  0.382100  1.0  -0.2823
  O  O271  1  0.573800  0.353500  0.426500  1.0  -0.6225
  O  O272  1  0.598500  0.411100  0.496000  1.0  -0.6036
  O  O273  1  0.395100  0.382000  0.488200  1.0  -0.6188
  O  O274  1  0.376400  0.294400  0.430900  1.0  -0.6207
  O  O275  1  0.295500  0.568500  0.066800  1.0  -0.5316
  O  O276  1  0.407800  0.668500  0.086500  1.0  -0.5842
  O  O277  1  0.601900  0.707100  0.082700  1.0  -0.6159
  O  O278  1  0.599600  0.835300  0.083300  1.0  -0.5987
  O  O279  1  0.566100  0.091200  0.482900  1.0  -0.6049
  O  O280  1  0.596000  0.183600  0.427100  1.0  -0.6
  O  O281  1  0.400500  0.134700  0.421500  1.0  -0.6273
  O  O282  1  0.365600  0.084200  0.493700  1.0  -0.6073
  O  O283  1  0.492300  0.755700  0.002700  1.0  -0.8481
  O  O284  1  0.012000  0.261900  0.814500  1.0  -0.2963
  O  O285  1  0.595700  0.172200  0.576000  1.0  -0.325
  O  O286  1  0.062200  0.410400  0.883000  1.0  -0.261
  O  O287  1  0.865200  0.479100  0.849900  1.0  -0.2735
  O  O288  1  0.831000  0.347500  0.768800  1.0  -0.2574
  O  O289  1  0.198300  0.199000  0.773400  1.0  -0.2666
  O  O290  1  0.163400  0.048900  0.851200  1.0  -0.2699
  O  O291  1  0.965500  0.106400  0.882100  1.0  -0.2844
  O  O292  1  0.426200  0.646500  0.926500  1.0  -0.6231
  O  O293  1  0.401500  0.588900  0.996000  1.0  -0.604
  O  O294  1  0.604900  0.618000  0.988200  1.0  -0.6195
  O  O295  1  0.623600  0.705600  0.930900  1.0  -0.6185
  O  O296  1  0.704500  0.431500  0.566800  1.0  -0.5318
  O  O297  1  0.592200  0.331500  0.586500  1.0  -0.5837
  O  O298  1  0.398100  0.292900  0.582700  1.0  -0.6167
  O  O299  1  0.400400  0.164700  0.583300  1.0  -0.5982
  O  O300  1  0.433900  0.908800  0.982900  1.0  -0.6054
  O  O301  1  0.404000  0.816400  0.927100  1.0  -0.6003
  O  O302  1  0.599500  0.865300  0.921500  1.0  -0.6278
  O  O303  1  0.634400  0.915800  0.993700  1.0  -0.6074
  O  O304  1  0.507700  0.244300  0.502700  1.0  -0.8482
