# generated using pymatgen
data_CdH7C5NO4
_symmetry_space_group_name_H-M   'P 1'
_cell_length_a   7.26600000
_cell_length_b   10.77680000
_cell_length_c   11.58570000
_cell_angle_alpha   90.00000000
_cell_angle_beta   90.00000000
_cell_angle_gamma   90.00000000
_symmetry_Int_Tables_number   1
_chemical_formula_structural   CdH7C5NO4
_chemical_formula_sum   'Cd4 H28 C20 N4 O16'
_cell_volume   907.20930361
_cell_formula_units_Z   4
loop_
 _symmetry_equiv_pos_site_id
 _symmetry_equiv_pos_as_xyz
  1  'x, y, z'
loop_
 _atom_site_type_symbol
 _atom_site_label
 _atom_site_symmetry_multiplicity
 _atom_site_fract_x
 _atom_site_fract_y
 _atom_site_fract_z
 _atom_site_occupancy
 _atom_site_charge
  Cd  Cd1  1  0.110490  0.066450  0.959150  1.0  1.0
  Cd  Cd2  1  0.389510  0.933550  0.459150  1.0  1.0017
  Cd  Cd3  1  0.889510  0.566450  0.540850  1.0  0.9999
  Cd  Cd4  1  0.610490  0.433550  0.040850  1.0  1.0015
  H  H5  1  0.149300  0.276800  0.233300  1.0  0.0959
  H  H6  1  0.871100  0.232200  0.318400  1.0  0.0955
  H  H7  1  0.005500  0.121200  0.341000  1.0  0.0898
  H  H8  1  0.860400  0.007000  0.194800  1.0  0.1118
  H  H9  1  0.726000  0.117900  0.172300  1.0  0.1285
  H  H10  1  0.306300  0.147000  0.144400  1.0  0.3388
  H  H11  1  0.183100  0.052000  0.188800  1.0  0.3198
  H  H12  1  0.350700  0.723200  0.733300  1.0  0.0955
  H  H13  1  0.628900  0.767800  0.818400  1.0  0.0971
  H  H14  1  0.494500  0.878800  0.841000  1.0  0.0893
  H  H15  1  0.639600  0.993000  0.694800  1.0  0.1124
  H  H16  1  0.774000  0.882100  0.672300  1.0  0.128
  H  H17  1  0.193700  0.853000  0.644400  1.0  0.3382
  H  H18  1  0.316900  0.948000  0.688800  1.0  0.3197
  H  H19  1  0.850700  0.776800  0.266700  1.0  0.0958
  H  H20  1  0.128900  0.732200  0.181600  1.0  0.0964
  H  H21  1  0.994500  0.621200  0.159000  1.0  0.0914
  H  H22  1  0.139600  0.507000  0.305200  1.0  0.1116
  H  H23  1  0.274000  0.617900  0.327700  1.0  0.1274
  H  H24  1  0.693700  0.647000  0.355600  1.0  0.3376
  H  H25  1  0.816900  0.552000  0.311200  1.0  0.3194
  H  H26  1  0.649300  0.223200  0.766700  1.0  0.0963
  H  H27  1  0.371100  0.267800  0.681600  1.0  0.0956
  H  H28  1  0.505500  0.378800  0.659000  1.0  0.0905
  H  H29  1  0.360400  0.493000  0.805200  1.0  0.1119
  H  H30  1  0.226000  0.382100  0.827700  1.0  0.1279
  H  H31  1  0.806300  0.353000  0.855600  1.0  0.338
  H  H32  1  0.683100  0.448000  0.811200  1.0  0.32
  C  C33  1  0.963000  0.288000  0.099500  1.0  0.6438
  C  C34  1  0.070000  0.217100  0.193340  1.0  0.034
  C  C35  1  0.935900  0.164100  0.281700  1.0  -0.1306
  C  C36  1  0.795600  0.075000  0.231570  1.0  -0.3161
  C  C37  1  0.663000  0.022400  0.318900  1.0  0.7081
  C  C38  1  0.537000  0.712000  0.599500  1.0  0.6433
  C  C39  1  0.430000  0.782900  0.693340  1.0  0.0343
  C  C40  1  0.564100  0.835900  0.781700  1.0  -0.1302
  C  C41  1  0.704400  0.925000  0.731570  1.0  -0.3178
  C  C42  1  0.837000  0.977600  0.818900  1.0  0.7064
  C  C43  1  0.037000  0.788000  0.400500  1.0  0.6433
  C  C44  1  0.930000  0.717100  0.306660  1.0  0.033
  C  C45  1  0.064100  0.664100  0.218300  1.0  -0.1306
  C  C46  1  0.204400  0.575000  0.268430  1.0  -0.315
  C  C47  1  0.337000  0.522400  0.181100  1.0  0.7061
  C  C48  1  0.463000  0.212000  0.900500  1.0  0.6445
  C  C49  1  0.570000  0.282900  0.806660  1.0  0.0333
  C  C50  1  0.435900  0.335900  0.718300  1.0  -0.1296
  C  C51  1  0.295600  0.425000  0.768430  1.0  -0.3152
  C  C52  1  0.163000  0.477600  0.681100  1.0  0.7084
  N  N53  1  0.189100  0.119990  0.143870  1.0  -0.6819
  N  N54  1  0.310900  0.880010  0.643870  1.0  -0.6808
  N  N55  1  0.810900  0.619990  0.356130  1.0  -0.6801
  N  N56  1  0.689100  0.380010  0.856130  1.0  -0.6834
  O  O57  1  0.971300  0.252660  0.996560  1.0  -0.5903
  O  O58  1  0.868500  0.377270  0.135110  1.0  -0.6002
  O  O59  1  0.526100  0.961540  0.281000  1.0  -0.6288
  O  O60  1  0.684200  0.037560  0.425010  1.0  -0.6187
  O  O61  1  0.528700  0.747340  0.496560  1.0  -0.5902
  O  O62  1  0.631500  0.622730  0.635110  1.0  -0.6009
  O  O63  1  0.973900  0.038460  0.781000  1.0  -0.6288
  O  O64  1  0.815800  0.962440  0.925010  1.0  -0.6185
  O  O65  1  0.028700  0.752660  0.503440  1.0  -0.5905
  O  O66  1  0.131500  0.877270  0.364890  1.0  -0.5999
  O  O67  1  0.473900  0.461540  0.219000  1.0  -0.6285
  O  O68  1  0.315800  0.537560  0.074990  1.0  -0.6178
  O  O69  1  0.471300  0.247340  0.003440  1.0  -0.5906
  O  O70  1  0.368500  0.122730  0.864890  1.0  -0.6005
  O  O71  1  0.026100  0.538460  0.719000  1.0  -0.6288
  O  O72  1  0.184200  0.462440  0.574990  1.0  -0.6175
