# generated using pymatgen
data_CdH7C5NO4
_symmetry_space_group_name_H-M   'P 1'
_cell_length_a   7.28600000
_cell_length_b   10.79000000
_cell_length_c   11.61000000
_cell_angle_alpha   90.00000000
_cell_angle_beta   90.00000000
_cell_angle_gamma   90.00000000
_symmetry_Int_Tables_number   1
_chemical_formula_structural   CdH7C5NO4
_chemical_formula_sum   'Cd4 H28 C20 N4 O16'
_cell_volume   912.73106340
_cell_formula_units_Z   4
loop_
 _symmetry_equiv_pos_site_id
 _symmetry_equiv_pos_as_xyz
  1  'x, y, z'
loop_
 _atom_site_type_symbol
 _atom_site_label
 _atom_site_symmetry_multiplicity
 _atom_site_fract_x
 _atom_site_fract_y
 _atom_site_fract_z
 _atom_site_occupancy
 _atom_site_charge
  Cd  Cd1  1  0.639100  0.816400  0.709100  1.0  0.9928
  Cd  Cd2  1  0.139100  0.183600  0.790900  1.0  0.994
  Cd  Cd3  1  0.860900  0.316400  0.290900  1.0  0.9936
  Cd  Cd4  1  0.360900  0.683600  0.209100  1.0  0.9937
  H  H5  1  0.065500  0.201400  0.558700  1.0  0.2951
  H  H6  1  0.936400  0.099300  0.606600  1.0  0.3045
  H  H7  1  0.089800  0.971400  0.515400  1.0  0.0998
  H  H8  1  0.383300  0.011700  0.430100  1.0  0.1065
  H  H9  1  0.236400  0.133200  0.406200  1.0  0.0974
  H  H10  1  0.384300  0.249300  0.556800  1.0  0.1197
  H  H11  1  0.530700  0.127700  0.581300  1.0  0.1261
  H  H12  1  0.565500  0.798600  0.941300  1.0  0.3037
  H  H13  1  0.436400  0.900700  0.893400  1.0  0.3069
  H  H14  1  0.589800  0.028600  0.984600  1.0  0.0997
  H  H15  1  0.883300  0.988300  0.069900  1.0  0.1066
  H  H16  1  0.736400  0.866800  0.093800  1.0  0.0974
  H  H17  1  0.884300  0.750700  0.943200  1.0  0.1195
  H  H18  1  0.030700  0.872300  0.918700  1.0  0.1254
  H  H19  1  0.434500  0.701400  0.441300  1.0  0.2989
  H  H20  1  0.563600  0.599300  0.393400  1.0  0.309
  H  H21  1  0.410200  0.471400  0.484600  1.0  0.0997
  H  H22  1  0.116700  0.511700  0.569900  1.0  0.1078
  H  H23  1  0.263600  0.633200  0.593800  1.0  0.0977
  H  H24  1  0.115700  0.749300  0.443200  1.0  0.12
  H  H25  1  0.969300  0.627700  0.418700  1.0  0.126
  H  H26  1  0.934500  0.298600  0.058700  1.0  0.3041
  H  H27  1  0.063600  0.400700  0.106600  1.0  0.3089
  H  H28  1  0.910200  0.528600  0.015400  1.0  0.0998
  H  H29  1  0.616700  0.488300  0.930100  1.0  0.1071
  H  H30  1  0.763600  0.366800  0.906200  1.0  0.0983
  H  H31  1  0.615700  0.250700  0.056800  1.0  0.1193
  H  H32  1  0.469300  0.372300  0.081300  1.0  0.1261
  C  C33  1  0.180500  0.032600  0.556700  1.0  0.0452
  C  C34  1  0.285300  0.963100  0.649800  1.0  0.6599
  C  C35  1  0.313000  0.085700  0.468900  1.0  -0.1469
  C  C36  1  0.454600  0.175100  0.518400  1.0  -0.316
  C  C37  1  0.587400  0.227500  0.430800  1.0  0.7159
  C  C38  1  0.680500  0.967400  0.943300  1.0  0.0459
  C  C39  1  0.785300  0.036900  0.850200  1.0  0.6563
  C  C40  1  0.813000  0.914300  0.031100  1.0  -0.1476
  C  C41  1  0.954600  0.824900  0.981600  1.0  -0.3155
  C  C42  1  0.087400  0.772500  0.069200  1.0  0.7166
  C  C43  1  0.319500  0.532600  0.443300  1.0  0.0463
  C  C44  1  0.214700  0.463100  0.350200  1.0  0.6582
  C  C45  1  0.187000  0.585700  0.531100  1.0  -0.1476
  C  C46  1  0.045400  0.675100  0.481600  1.0  -0.3152
  C  C47  1  0.912600  0.727500  0.569200  1.0  0.719
  C  C48  1  0.819500  0.467400  0.056700  1.0  0.0455
  C  C49  1  0.714700  0.536900  0.149800  1.0  0.6579
  C  C50  1  0.687000  0.414300  0.968900  1.0  -0.1464
  C  C51  1  0.545400  0.324900  0.018400  1.0  -0.3154
  C  C52  1  0.412600  0.272500  0.930800  1.0  0.7182
  N  N53  1  0.058800  0.129600  0.606000  1.0  -0.6818
  N  N54  1  0.558800  0.870400  0.894000  1.0  -0.6818
  N  N55  1  0.441200  0.629600  0.394000  1.0  -0.683
  N  N56  1  0.941200  0.370400  0.106000  1.0  -0.6832
  O  O57  1  0.278700  0.998100  0.753100  1.0  -0.5862
  O  O58  1  0.382600  0.872900  0.614500  1.0  -0.6102
  O  O59  1  0.724300  0.288000  0.469200  1.0  -0.6255
  O  O60  1  0.565100  0.213000  0.324800  1.0  -0.6063
  O  O61  1  0.778700  0.001900  0.746900  1.0  -0.5858
  O  O62  1  0.882600  0.127100  0.885500  1.0  -0.6089
  O  O63  1  0.224300  0.712000  0.030800  1.0  -0.6251
  O  O64  1  0.065100  0.787000  0.175200  1.0  -0.6057
  O  O65  1  0.221300  0.498100  0.246900  1.0  -0.5858
  O  O66  1  0.117400  0.372900  0.385500  1.0  -0.61
  O  O67  1  0.775700  0.788000  0.530800  1.0  -0.6255
  O  O68  1  0.934900  0.713000  0.675200  1.0  -0.6064
  O  O69  1  0.721300  0.501900  0.253100  1.0  -0.5863
  O  O70  1  0.617400  0.627100  0.114500  1.0  -0.6095
  O  O71  1  0.275700  0.212000  0.969200  1.0  -0.6257
  O  O72  1  0.434900  0.287000  0.824800  1.0  -0.6065
