# generated using pymatgen
data_CdH7C5NO4
_symmetry_space_group_name_H-M   'P 1'
_cell_length_a   7.24700000
_cell_length_b   10.71800000
_cell_length_c   11.54500000
_cell_angle_alpha   90.00000000
_cell_angle_beta   90.00000000
_cell_angle_gamma   90.00000000
_symmetry_Int_Tables_number   1
_chemical_formula_structural   CdH7C5NO4
_chemical_formula_sum   'Cd4 H28 C20 N4 O16'
_cell_volume   896.73877957
_cell_formula_units_Z   4
loop_
 _symmetry_equiv_pos_site_id
 _symmetry_equiv_pos_as_xyz
  1  'x, y, z'
loop_
 _atom_site_type_symbol
 _atom_site_label
 _atom_site_symmetry_multiplicity
 _atom_site_fract_x
 _atom_site_fract_y
 _atom_site_fract_z
 _atom_site_occupancy
 _atom_site_charge
  Cd  Cd1  1  0.611200  0.433900  0.460100  1.0  1.0137
  Cd  Cd2  1  0.888800  0.566100  0.960100  1.0  1.0136
  Cd  Cd3  1  0.388800  0.933900  0.039900  1.0  0.9844
  Cd  Cd4  1  0.111200  0.066100  0.539900  1.0  0.9691
  H  H5  1  0.164450  0.288880  0.260500  1.0  0.0865
  H  H6  1  0.847730  0.248610  0.176110  1.0  0.0947
  H  H7  1  0.724410  0.107370  0.345150  1.0  0.0892
  H  H8  1  0.335550  0.711120  0.760500  1.0  0.0952
  H  H9  1  0.484680  0.876120  0.637060  1.0  0.0867
  H  H10  1  0.652270  0.751390  0.676110  1.0  0.0945
  H  H11  1  0.775590  0.892630  0.845150  1.0  0.0902
  H  H12  1  0.835550  0.788880  0.239500  1.0  0.0952
  H  H13  1  0.152270  0.748610  0.323890  1.0  0.0909
  H  H14  1  0.275590  0.607370  0.154850  1.0  0.0903
  H  H15  1  0.114600  0.481700  0.202050  1.0  0.1301
  H  H16  1  0.664450  0.211120  0.739500  1.0  0.0894
  H  H17  1  0.515320  0.376120  0.862940  1.0  0.0878
  H  H18  1  0.347730  0.251390  0.823890  1.0  0.0928
  H  H19  1  0.224410  0.392630  0.654850  1.0  0.0937
  H  H20  1  0.385400  0.518300  0.702050  1.0  0.114
  H  H21  1  0.614600  0.018300  0.797950  1.0  0.1296
  H  H22  1  0.015320  0.123880  0.137060  1.0  0.0883
  H  H23  1  0.984680  0.623880  0.362940  1.0  0.085
  H  H24  1  0.885400  0.981700  0.297950  1.0  0.1291
  H  H25  1  0.193980  0.031030  0.321060  1.0  0.1569
  H  H26  1  0.273160  0.152090  0.433450  1.0  0.1931
  H  H27  1  0.160880  0.870040  0.841600  1.0  0.1675
  H  H28  1  0.371990  0.946850  0.912910  1.0  0.2857
  H  H29  1  0.871990  0.553150  0.087090  1.0  0.2861
  H  H30  1  0.660880  0.629960  0.158400  1.0  0.1677
  H  H31  1  0.821510  0.344380  0.604090  1.0  0.1534
  H  H32  1  0.645620  0.472510  0.641410  1.0  0.2457
  C  C33  1  0.970000  0.286000  0.399000  1.0  0.5621
  C  C34  1  0.071000  0.218000  0.305000  1.0  0.0484
  C  C35  1  0.934000  0.168000  0.211000  1.0  -0.133
  C  C36  1  0.800000  0.065000  0.268000  1.0  -0.126
  C  C37  1  0.662000  0.024000  0.178000  1.0  0.6268
  C  C38  1  0.530000  0.714000  0.899000  1.0  0.5774
  C  C39  1  0.429000  0.782000  0.805000  1.0  0.0434
  C  C40  1  0.566000  0.832000  0.711000  1.0  -0.1466
  C  C41  1  0.700000  0.935000  0.768000  1.0  -0.1316
  C  C42  1  0.838000  0.976000  0.678000  1.0  0.628
  C  C43  1  0.030000  0.786000  0.101000  1.0  0.5759
  C  C44  1  0.929000  0.718000  0.195000  1.0  0.0425
  C  C45  1  0.066000  0.668000  0.289000  1.0  -0.145
  C  C46  1  0.200000  0.565000  0.232000  1.0  -0.1299
  C  C47  1  0.338000  0.524000  0.322000  1.0  0.6264
  C  C48  1  0.470000  0.214000  0.601000  1.0  0.5467
  C  C49  1  0.571000  0.282000  0.695000  1.0  0.0454
  C  C50  1  0.434000  0.332000  0.789000  1.0  -0.1214
  C  C51  1  0.300000  0.435000  0.732000  1.0  -0.1327
  C  C52  1  0.162000  0.476000  0.822000  1.0  0.6293
  N  N53  1  0.188000  0.127000  0.357000  1.0  -0.3943
  N  N54  1  0.312000  0.873000  0.857000  1.0  -0.3973
  N  N55  1  0.812000  0.627000  0.143000  1.0  -0.3953
  N  N56  1  0.688000  0.373000  0.643000  1.0  -0.3974
  O  O57  1  0.969000  0.251000  0.503000  1.0  -0.6237
  O  O58  1  0.866000  0.382000  0.363000  1.0  -0.5904
  O  O59  1  0.521000  0.958000  0.214000  1.0  -0.6221
  O  O60  1  0.681000  0.038000  0.074000  1.0  -0.6041
  O  O61  1  0.531000  0.749000  0.003000  1.0  -0.647
  O  O62  1  0.634000  0.618000  0.863000  1.0  -0.6001
  O  O63  1  0.979000  0.042000  0.714000  1.0  -0.6331
  O  O64  1  0.819000  0.962000  0.574000  1.0  -0.6188
  O  O65  1  0.031000  0.751000  0.997000  1.0  -0.6479
  O  O66  1  0.134000  0.882000  0.137000  1.0  -0.5925
  O  O67  1  0.479000  0.458000  0.286000  1.0  -0.634
  O  O68  1  0.319000  0.538000  0.426000  1.0  -0.622
  O  O69  1  0.469000  0.249000  0.497000  1.0  -0.6179
  O  O70  1  0.366000  0.118000  0.637000  1.0  -0.6116
  O  O71  1  0.021000  0.542000  0.786000  1.0  -0.6212
  O  O72  1  0.181000  0.462000  0.926000  1.0  -0.6055
