# generated using pymatgen
data_CdH7C5NO4
_symmetry_space_group_name_H-M   'P 1'
_cell_length_a   7.28600000
_cell_length_b   10.79000000
_cell_length_c   11.61000000
_cell_angle_alpha   90.00000000
_cell_angle_beta   90.00000000
_cell_angle_gamma   90.00000000
_symmetry_Int_Tables_number   1
_chemical_formula_structural   CdH7C5NO4
_chemical_formula_sum   'Cd4 H28 C20 N4 O16'
_cell_volume   912.73106340
_cell_formula_units_Z   4
loop_
 _symmetry_equiv_pos_site_id
 _symmetry_equiv_pos_as_xyz
  1  'x, y, z'
loop_
 _atom_site_type_symbol
 _atom_site_label
 _atom_site_symmetry_multiplicity
 _atom_site_fract_x
 _atom_site_fract_y
 _atom_site_fract_z
 _atom_site_occupancy
 _atom_site_charge
  Cd  Cd1  1  0.638000  0.817300  0.709300  1.0  1.0037
  Cd  Cd2  1  0.138000  0.182700  0.790700  1.0  1.0022
  Cd  Cd3  1  0.862000  0.317300  0.290700  1.0  1.002
  Cd  Cd4  1  0.362000  0.682700  0.209300  1.0  1.0028
  H  H5  1  0.046000  0.200000  0.549000  1.0  0.2976
  H  H6  1  0.941000  0.095000  0.625000  1.0  0.2994
  H  H7  1  0.097000  0.962000  0.511000  1.0  0.0949
  H  H8  1  0.390000  0.005000  0.432000  1.0  0.1016
  H  H9  1  0.235000  0.138000  0.403000  1.0  0.0968
  H  H10  1  0.388000  0.247000  0.559000  1.0  0.1208
  H  H11  1  0.538000  0.125000  0.587000  1.0  0.1222
  H  H12  1  0.546000  0.800000  0.951000  1.0  0.3015
  H  H13  1  0.441000  0.905000  0.875000  1.0  0.2997
  H  H14  1  0.597000  0.038000  0.989000  1.0  0.0952
  H  H15  1  0.890000  0.995000  0.068000  1.0  0.1021
  H  H16  1  0.735000  0.862000  0.097000  1.0  0.0966
  H  H17  1  0.888000  0.753000  0.941000  1.0  0.1199
  H  H18  1  0.038000  0.875000  0.913000  1.0  0.1218
  H  H19  1  0.454000  0.700000  0.451000  1.0  0.2975
  H  H20  1  0.559000  0.595000  0.375000  1.0  0.3009
  H  H21  1  0.403000  0.462000  0.489000  1.0  0.0959
  H  H22  1  0.110000  0.505000  0.568000  1.0  0.1025
  H  H23  1  0.265000  0.638000  0.597000  1.0  0.0968
  H  H24  1  0.112000  0.747000  0.441000  1.0  0.1206
  H  H25  1  0.962000  0.625000  0.413000  1.0  0.1221
  H  H26  1  0.954000  0.300000  0.049000  1.0  0.2995
  H  H27  1  0.059000  0.405000  0.125000  1.0  0.2999
  H  H28  1  0.903000  0.538000  0.011000  1.0  0.0947
  H  H29  1  0.610000  0.495000  0.932000  1.0  0.1021
  H  H30  1  0.765000  0.362000  0.903000  1.0  0.0971
  H  H31  1  0.612000  0.253000  0.059000  1.0  0.12
  H  H32  1  0.462000  0.375000  0.087000  1.0  0.1225
  C  C33  1  0.178600  0.032300  0.556800  1.0  0.0416
  C  C34  1  0.287400  0.963300  0.650200  1.0  0.6519
  C  C35  1  0.313300  0.086500  0.468200  1.0  -0.1632
  C  C36  1  0.458000  0.174800  0.519100  1.0  -0.3095
  C  C37  1  0.587000  0.228700  0.431400  1.0  0.7107
  C  C38  1  0.678600  0.967700  0.943200  1.0  0.0428
  C  C39  1  0.787400  0.036700  0.849800  1.0  0.6499
  C  C40  1  0.813300  0.913500  0.031800  1.0  -0.1631
  C  C41  1  0.958000  0.825200  0.980900  1.0  -0.3096
  C  C42  1  0.087000  0.771300  0.068600  1.0  0.7111
  C  C43  1  0.321400  0.532300  0.443200  1.0  0.0434
  C  C44  1  0.212600  0.463300  0.349800  1.0  0.652
  C  C45  1  0.186700  0.586500  0.531800  1.0  -0.1633
  C  C46  1  0.042000  0.674800  0.480900  1.0  -0.3096
  C  C47  1  0.913000  0.728700  0.568600  1.0  0.7117
  C  C48  1  0.821400  0.467700  0.056800  1.0  0.0429
  C  C49  1  0.712600  0.536700  0.150200  1.0  0.6505
  C  C50  1  0.686700  0.413500  0.968200  1.0  -0.1633
  C  C51  1  0.542000  0.325200  0.019100  1.0  -0.3099
  C  C52  1  0.413000  0.271300  0.931400  1.0  0.7116
  N  N53  1  0.059000  0.130500  0.606700  1.0  -0.6607
  N  N54  1  0.559000  0.869500  0.893300  1.0  -0.6616
  N  N55  1  0.441000  0.630500  0.393300  1.0  -0.6625
  N  N56  1  0.941000  0.369500  0.106700  1.0  -0.6618
  O  O57  1  0.276200  0.996000  0.752900  1.0  -0.5822
  O  O58  1  0.382400  0.875300  0.614500  1.0  -0.5988
  O  O59  1  0.725400  0.287000  0.469400  1.0  -0.6149
  O  O60  1  0.565200  0.212100  0.325000  1.0  -0.6127
  O  O61  1  0.776200  0.004000  0.747100  1.0  -0.583
  O  O62  1  0.882400  0.124700  0.885500  1.0  -0.5976
  O  O63  1  0.225400  0.713000  0.030600  1.0  -0.6146
  O  O64  1  0.065200  0.787900  0.175000  1.0  -0.6129
  O  O65  1  0.223800  0.496000  0.247100  1.0  -0.5828
  O  O66  1  0.117600  0.375300  0.385500  1.0  -0.5992
  O  O67  1  0.774600  0.787000  0.530600  1.0  -0.6139
  O  O68  1  0.934800  0.712100  0.675000  1.0  -0.614
  O  O69  1  0.723800  0.504000  0.252900  1.0  -0.5825
  O  O70  1  0.617600  0.624700  0.114500  1.0  -0.5988
  O  O71  1  0.274600  0.213000  0.969400  1.0  -0.615
  O  O72  1  0.434800  0.287900  0.825000  1.0  -0.612
