# generated using pymatgen
data_CdH7C5NO4
_symmetry_space_group_name_H-M   'P 1'
_cell_length_a   7.25560000
_cell_length_b   10.76390000
_cell_length_c   11.57470000
_cell_angle_alpha   90.00000000
_cell_angle_beta   90.00000000
_cell_angle_gamma   90.00000000
_symmetry_Int_Tables_number   1
_chemical_formula_structural   CdH7C5NO4
_chemical_formula_sum   'Cd4 H28 C20 N4 O16'
_cell_volume   903.96731956
_cell_formula_units_Z   4
loop_
 _symmetry_equiv_pos_site_id
 _symmetry_equiv_pos_as_xyz
  1  'x, y, z'
loop_
 _atom_site_type_symbol
 _atom_site_label
 _atom_site_symmetry_multiplicity
 _atom_site_fract_x
 _atom_site_fract_y
 _atom_site_fract_z
 _atom_site_occupancy
 _atom_site_charge
  Cd  Cd1  1  0.360600  0.683640  0.209060  1.0  0.9917
  Cd  Cd2  1  0.860600  0.316360  0.290940  1.0  0.9933
  Cd  Cd3  1  0.139400  0.183640  0.790940  1.0  0.9912
  Cd  Cd4  1  0.639400  0.816360  0.709060  1.0  0.994
  H  H5  1  0.394000  0.477000  0.479000  1.0  0.0983
  H  H6  1  0.121000  0.503000  0.568000  1.0  0.0826
  H  H7  1  0.244000  0.617000  0.592000  1.0  0.0939
  H  H8  1  0.977000  0.635000  0.416000  1.0  0.1261
  H  H9  1  0.097000  0.749000  0.441000  1.0  0.1201
  H  H10  1  0.539000  0.607000  0.389000  1.0  0.3155
  H  H11  1  0.459000  0.689000  0.443000  1.0  0.3319
  H  H12  1  0.894000  0.523000  0.021000  1.0  0.101
  H  H13  1  0.621000  0.497000  0.932000  1.0  0.0823
  H  H14  1  0.744000  0.383000  0.908000  1.0  0.0941
  H  H15  1  0.477000  0.365000  0.084000  1.0  0.1258
  H  H16  1  0.597000  0.251000  0.059000  1.0  0.1206
  H  H17  1  0.039000  0.393000  0.111000  1.0  0.315
  H  H18  1  0.959000  0.311000  0.057000  1.0  0.3275
  H  H19  1  0.106000  0.977000  0.521000  1.0  0.0983
  H  H20  1  0.379000  0.003000  0.432000  1.0  0.0838
  H  H21  1  0.256000  0.117000  0.408000  1.0  0.0929
  H  H22  1  0.523000  0.135000  0.584000  1.0  0.1254
  H  H23  1  0.403000  0.249000  0.559000  1.0  0.1201
  H  H24  1  0.961000  0.107000  0.611000  1.0  0.3172
  H  H25  1  0.041000  0.189000  0.557000  1.0  0.3293
  H  H26  1  0.606000  0.023000  0.979000  1.0  0.0997
  H  H27  1  0.879000  0.997000  0.068000  1.0  0.082
  H  H28  1  0.756000  0.883000  0.092000  1.0  0.0943
  H  H29  1  0.023000  0.865000  0.916000  1.0  0.1252
  H  H30  1  0.903000  0.751000  0.941000  1.0  0.1208
  H  H31  1  0.461000  0.893000  0.889000  1.0  0.318
  H  H32  1  0.541000  0.811000  0.943000  1.0  0.3235
  C  C33  1  0.214400  0.462100  0.350100  1.0  0.632
  C  C34  1  0.321200  0.532700  0.443200  1.0  0.0569
  C  C35  1  0.185800  0.585600  0.531900  1.0  -0.1031
  C  C36  1  0.046400  0.674800  0.480300  1.0  -0.3251
  C  C37  1  0.912800  0.727800  0.568900  1.0  0.693
  C  C38  1  0.714400  0.537900  0.149900  1.0  0.6313
  C  C39  1  0.821200  0.467300  0.056800  1.0  0.0554
  C  C40  1  0.685800  0.414400  0.968100  1.0  -0.1026
  C  C41  1  0.546400  0.325200  0.019700  1.0  -0.325
  C  C42  1  0.412800  0.272200  0.931100  1.0  0.6931
  C  C43  1  0.285600  0.962100  0.649900  1.0  0.6325
  C  C44  1  0.178800  0.032700  0.556800  1.0  0.0547
  C  C45  1  0.314200  0.085600  0.468100  1.0  -0.1024
  C  C46  1  0.453600  0.174800  0.519700  1.0  -0.3247
  C  C47  1  0.587200  0.227800  0.431100  1.0  0.6925
  C  C48  1  0.785600  0.037900  0.850100  1.0  0.631
  C  C49  1  0.678800  0.967300  0.943200  1.0  0.057
  C  C50  1  0.814200  0.914400  0.031900  1.0  -0.1038
  C  C51  1  0.953600  0.825200  0.980300  1.0  -0.3261
  C  C52  1  0.087200  0.772200  0.068900  1.0  0.6927
  N  N53  1  0.439500  0.630000  0.394000  1.0  -0.6679
  N  N54  1  0.939500  0.370000  0.106000  1.0  -0.6663
  N  N55  1  0.060500  0.130000  0.606000  1.0  -0.6656
  N  N56  1  0.560500  0.870000  0.894000  1.0  -0.666
  O  O57  1  0.222200  0.497600  0.246600  1.0  -0.5911
  O  O58  1  0.119200  0.372500  0.385300  1.0  -0.6023
  O  O59  1  0.775600  0.788500  0.531200  1.0  -0.6281
  O  O60  1  0.935000  0.712800  0.674900  1.0  -0.6231
  O  O61  1  0.722200  0.502400  0.253400  1.0  -0.5924
  O  O62  1  0.619200  0.627500  0.114700  1.0  -0.6016
  O  O63  1  0.275600  0.211500  0.968800  1.0  -0.6282
  O  O64  1  0.435000  0.287200  0.825100  1.0  -0.6217
  O  O65  1  0.277800  0.997600  0.753400  1.0  -0.5926
  O  O66  1  0.380800  0.872500  0.614700  1.0  -0.6023
  O  O67  1  0.724400  0.288500  0.468800  1.0  -0.629
  O  O68  1  0.565000  0.212800  0.325100  1.0  -0.6219
  O  O69  1  0.777800  0.002400  0.746600  1.0  -0.5911
  O  O70  1  0.880800  0.127500  0.885300  1.0  -0.6019
  O  O71  1  0.224400  0.711500  0.031200  1.0  -0.6281
  O  O72  1  0.065000  0.787200  0.174900  1.0  -0.6229
