# generated using pymatgen
data_Ba3P4H8C4(NO6)2
_symmetry_space_group_name_H-M   'P 1'
_cell_length_a   7.18620000
_cell_length_b   13.48360000
_cell_length_c   13.48360000
_cell_angle_alpha   119.43100000
_cell_angle_beta   97.53290000
_cell_angle_gamma   82.46710000
_symmetry_Int_Tables_number   1
_chemical_formula_structural   Ba3P4H8C4(NO6)2
_chemical_formula_sum   'Ba6 P8 H16 C8 N4 O24'
_cell_volume   1124.70874897
_cell_formula_units_Z   2
loop_
 _symmetry_equiv_pos_site_id
 _symmetry_equiv_pos_as_xyz
  1  'x, y, z'
loop_
 _atom_site_type_symbol
 _atom_site_label
 _atom_site_symmetry_multiplicity
 _atom_site_fract_x
 _atom_site_fract_y
 _atom_site_fract_z
 _atom_site_occupancy
 _atom_site_charge
  Ba  Ba1  1  0.109590  0.331810  0.848710  1.0  1.7114
  Ba  Ba2  1  0.390410  0.848710  0.331810  1.0  1.7122
  Ba  Ba3  1  0.890410  0.668190  0.151290  1.0  1.7122
  Ba  Ba4  1  0.609590  0.151290  0.668190  1.0  1.7106
  Ba  Ba5  1  0.250000  0.100620  0.100620  1.0  1.6402
  Ba  Ba6  1  0.750000  0.899380  0.899380  1.0  1.6425
  P  P7  1  0.645340  0.439780  0.854320  1.0  1.4392
  P  P8  1  0.102050  0.802780  0.034160  1.0  1.5224
  P  P9  1  0.854660  0.854320  0.439780  1.0  1.4374
  P  P10  1  0.397950  0.034160  0.802780  1.0  1.5223
  P  P11  1  0.354660  0.560220  0.145680  1.0  1.4408
  P  P12  1  0.897950  0.197220  0.965840  1.0  1.5223
  P  P13  1  0.145340  0.145680  0.560220  1.0  1.4405
  P  P14  1  0.602050  0.965840  0.197220  1.0  1.5212
  H  H15  1  0.622000  0.606000  0.876000  1.0  0.1686
  H  H16  1  0.473000  0.558000  0.790000  1.0  0.1885
  H  H17  1  0.270000  0.728000  0.874000  1.0  0.1483
  H  H18  1  0.399000  0.792000  0.986000  1.0  0.1677
  H  H19  1  0.878000  0.876000  0.606000  1.0  0.1768
  H  H20  1  0.027000  0.790000  0.558000  1.0  0.1778
  H  H21  1  0.230000  0.874000  0.728000  1.0  0.1473
  H  H22  1  0.101000  0.986000  0.792000  1.0  0.1677
  H  H23  1  0.378000  0.394000  0.124000  1.0  0.1836
  H  H24  1  0.527000  0.442000  0.210000  1.0  0.1905
  H  H25  1  0.730000  0.272000  0.126000  1.0  0.148
  H  H26  1  0.601000  0.208000  0.014000  1.0  0.1692
  H  H27  1  0.122000  0.124000  0.394000  1.0  0.1688
  H  H28  1  0.973000  0.210000  0.442000  1.0  0.1828
  H  H29  1  0.770000  0.126000  0.272000  1.0  0.1475
  H  H30  1  0.899000  0.014000  0.208000  1.0  0.1675
  C  C31  1  0.531200  0.569200  0.855800  1.0  -0.4041
  C  C32  1  0.307500  0.738850  0.951150  1.0  -0.4741
  C  C33  1  0.968800  0.855800  0.569200  1.0  -0.4069
  C  C34  1  0.192500  0.951150  0.738850  1.0  -0.4746
  C  C35  1  0.468800  0.430800  0.144200  1.0  -0.408
  C  C36  1  0.692500  0.261150  0.048850  1.0  -0.4736
  C  C37  1  0.031200  0.144200  0.430800  1.0  -0.407
  C  C38  1  0.807500  0.048850  0.261150  1.0  -0.4742
  N  N39  1  0.390000  0.628320  0.942680  1.0  0.1438
  N  N40  1  0.110000  0.942680  0.628320  1.0  0.1462
  N  N41  1  0.610000  0.371680  0.057320  1.0  0.1466
  N  N42  1  0.890000  0.057320  0.371680  1.0  0.1426
  O  O43  1  0.790100  0.476370  0.956030  1.0  -0.9
  O  O44  1  0.490000  0.376290  0.859910  1.0  -0.8312
  O  O45  1  0.738200  0.372570  0.741430  1.0  -0.8669
  O  O46  1  0.147500  0.806950  0.148450  1.0  -0.9344
  O  O47  1  0.070900  0.918480  0.038520  1.0  -0.9697
  O  O48  1  0.936900  0.730590  0.966010  1.0  -0.9345
  O  O49  1  0.709900  0.956030  0.476370  1.0  -0.8985
  O  O50  1  0.010000  0.859910  0.376290  1.0  -0.8312
  O  O51  1  0.761800  0.741430  0.372570  1.0  -0.8624
  O  O52  1  0.352500  0.148450  0.806950  1.0  -0.9316
  O  O53  1  0.429100  0.038520  0.918480  1.0  -0.9731
  O  O54  1  0.563100  0.966010  0.730590  1.0  -0.9378
  O  O55  1  0.209900  0.523630  0.043970  1.0  -0.8977
  O  O56  1  0.510000  0.623710  0.140090  1.0  -0.8333
  O  O57  1  0.261800  0.627430  0.258570  1.0  -0.8612
  O  O58  1  0.852500  0.193050  0.851550  1.0  -0.932
  O  O59  1  0.929100  0.081520  0.961480  1.0  -0.9705
  O  O60  1  0.063100  0.269410  0.033990  1.0  -0.9364
  O  O61  1  0.290100  0.043970  0.523630  1.0  -0.8989
  O  O62  1  0.990000  0.140090  0.623710  1.0  -0.8316
  O  O63  1  0.238200  0.258570  0.627430  1.0  -0.8616
  O  O64  1  0.647500  0.851550  0.193050  1.0  -0.9324
  O  O65  1  0.570900  0.961480  0.081520  1.0  -0.9702
  O  O66  1  0.436900  0.033990  0.269410  1.0  -0.9356
