# generated using pymatgen
data_Cu3H15C22(NO)6
_symmetry_space_group_name_H-M   'P 1'
_cell_length_a   22.38690000
_cell_length_b   22.38690000
_cell_length_c   22.38690000
_cell_angle_alpha   90.00000000
_cell_angle_beta   90.00000000
_cell_angle_gamma   90.00000000
_symmetry_Int_Tables_number   1
_chemical_formula_structural   Cu3H15C22(NO)6
_chemical_formula_sum   'Cu24 H120 C176 N48 O48'
_cell_volume   11219.71636194
_cell_formula_units_Z   8
loop_
 _symmetry_equiv_pos_site_id
 _symmetry_equiv_pos_as_xyz
  1  'x, y, z'
loop_
 _atom_site_type_symbol
 _atom_site_label
 _atom_site_symmetry_multiplicity
 _atom_site_fract_x
 _atom_site_fract_y
 _atom_site_fract_z
 _atom_site_occupancy
 _atom_site_charge
  Cu  Cu1  1  0.337540  0.082620  0.744080  1.0  0.7658
  Cu  Cu2  1  0.330010  0.959190  0.705320  1.0  0.6972
  Cu  Cu3  1  0.162460  0.917380  0.244080  1.0  0.7652
  Cu  Cu4  1  0.169990  0.040810  0.205320  1.0  0.6983
  Cu  Cu5  1  0.662460  0.582620  0.755920  1.0  0.7649
  Cu  Cu6  1  0.669990  0.459190  0.794680  1.0  0.6992
  Cu  Cu7  1  0.837540  0.417380  0.255920  1.0  0.7655
  Cu  Cu8  1  0.830010  0.540810  0.294680  1.0  0.6957
  Cu  Cu9  1  0.744080  0.337540  0.082620  1.0  0.7652
  Cu  Cu10  1  0.705320  0.330010  0.959190  1.0  0.6991
  Cu  Cu11  1  0.244080  0.162460  0.917380  1.0  0.7651
  Cu  Cu12  1  0.205320  0.169990  0.040810  1.0  0.6968
  Cu  Cu13  1  0.755920  0.662460  0.582620  1.0  0.7656
  Cu  Cu14  1  0.794680  0.669990  0.459190  1.0  0.6938
  Cu  Cu15  1  0.255920  0.837540  0.417380  1.0  0.7654
  Cu  Cu16  1  0.294680  0.830010  0.540810  1.0  0.6951
  Cu  Cu17  1  0.082620  0.744080  0.337540  1.0  0.766
  Cu  Cu18  1  0.959190  0.705320  0.330010  1.0  0.6947
  Cu  Cu19  1  0.917380  0.244080  0.162460  1.0  0.7646
  Cu  Cu20  1  0.040810  0.205320  0.169990  1.0  0.6964
  Cu  Cu21  1  0.582620  0.755920  0.662460  1.0  0.7665
  Cu  Cu22  1  0.459190  0.794680  0.669990  1.0  0.6991
  Cu  Cu23  1  0.417380  0.255920  0.837540  1.0  0.765
  Cu  Cu24  1  0.540810  0.294680  0.830010  1.0  0.7005
  H  H25  1  0.624800  0.068000  0.589200  1.0  0.4084
  H  H26  1  0.469700  0.186700  0.739000  1.0  0.0848
  H  H27  1  0.445700  0.989100  0.609900  1.0  0.088
  H  H28  1  0.541100  0.010100  0.574500  1.0  0.1047
  H  H29  1  0.545100  0.159100  0.673000  1.0  0.0968
  H  H30  1  0.091800  0.079300  0.539000  1.0  0.4232
  H  H31  1  0.236800  0.945900  0.565700  1.0  0.0815
  H  H32  1  0.206800  0.114700  0.730200  1.0  0.0923
  H  H33  1  0.130200  0.149000  0.669000  1.0  0.1151
  H  H34  1  0.160500  0.012900  0.553600  1.0  0.1101
  H  H35  1  0.875200  0.932000  0.089200  1.0  0.4042
  H  H36  1  0.030300  0.813300  0.239000  1.0  0.0855
  H  H37  1  0.054300  0.010900  0.109900  1.0  0.0874
  H  H38  1  0.958900  0.989900  0.074500  1.0  0.1042
  H  H39  1  0.954900  0.840900  0.173000  1.0  0.0968
  H  H40  1  0.408200  0.920700  0.039000  1.0  0.4243
  H  H41  1  0.263200  0.054100  0.065700  1.0  0.0815
  H  H42  1  0.293200  0.885300  0.230200  1.0  0.0918
  H  H43  1  0.369800  0.851000  0.169000  1.0  0.1146
  H  H44  1  0.339500  0.987100  0.053600  1.0  0.1108
  H  H45  1  0.375200  0.568000  0.910800  1.0  0.4071
  H  H46  1  0.530300  0.686700  0.761000  1.0  0.0855
  H  H47  1  0.554300  0.489100  0.890100  1.0  0.0874
  H  H48  1  0.458900  0.510100  0.925500  1.0  0.1035
  H  H49  1  0.454900  0.659100  0.827000  1.0  0.0976
  H  H50  1  0.908200  0.579300  0.961000  1.0  0.4245
  H  H51  1  0.763200  0.445900  0.934300  1.0  0.0801
  H  H52  1  0.793200  0.614700  0.769800  1.0  0.0929
  H  H53  1  0.869800  0.649000  0.831000  1.0  0.1161
  H  H54  1  0.839500  0.512900  0.946400  1.0  0.1099
  H  H55  1  0.124800  0.432000  0.410800  1.0  0.4047
  H  H56  1  0.969700  0.313300  0.261000  1.0  0.0859
  H  H57  1  0.945700  0.510900  0.390100  1.0  0.0874
  H  H58  1  0.041100  0.489900  0.425500  1.0  0.1044
  H  H59  1  0.045100  0.340900  0.327000  1.0  0.0971
  H  H60  1  0.591800  0.420700  0.461000  1.0  0.4229
  H  H61  1  0.736800  0.554100  0.434300  1.0  0.0808
  H  H62  1  0.706800  0.385300  0.269800  1.0  0.0925
  H  H63  1  0.630200  0.351000  0.331000  1.0  0.1146
  H  H64  1  0.660500  0.487100  0.446400  1.0  0.1095
  H  H65  1  0.589200  0.624800  0.068000  1.0  0.403
  H  H66  1  0.739000  0.469700  0.186700  1.0  0.0871
  H  H67  1  0.609900  0.445700  0.989100  1.0  0.0872
  H  H68  1  0.574500  0.541100  0.010100  1.0  0.1047
  H  H69  1  0.673000  0.545100  0.159100  1.0  0.0984
  H  H70  1  0.539000  0.091800  0.079300  1.0  0.4223
  H  H71  1  0.565700  0.236800  0.945900  1.0  0.0803
  H  H72  1  0.730200  0.206800  0.114700  1.0  0.0931
  H  H73  1  0.669000  0.130200  0.149000  1.0  0.1149
  H  H74  1  0.553600  0.160500  0.012900  1.0  0.1078
  H  H75  1  0.089200  0.875200  0.932000  1.0  0.4037
  H  H76  1  0.239000  0.030300  0.813300  1.0  0.0871
  H  H77  1  0.109900  0.054300  0.010900  1.0  0.087
  H  H78  1  0.074500  0.958900  0.989900  1.0  0.1047
  H  H79  1  0.173000  0.954900  0.840900  1.0  0.0982
  H  H80  1  0.039000  0.408200  0.920700  1.0  0.4254
  H  H81  1  0.065700  0.263200  0.054100  1.0  0.08
  H  H82  1  0.230200  0.293200  0.885300  1.0  0.0922
  H  H83  1  0.169000  0.369800  0.851000  1.0  0.1146
  H  H84  1  0.053600  0.339500  0.987100  1.0  0.1077
  H  H85  1  0.910800  0.375200  0.568000  1.0  0.4027
  H  H86  1  0.761000  0.530300  0.686700  1.0  0.0868
  H  H87  1  0.890100  0.554300  0.489100  1.0  0.0871
  H  H88  1  0.925500  0.458900  0.510100  1.0  0.1049
  H  H89  1  0.827000  0.454900  0.659100  1.0  0.0986
  H  H90  1  0.961000  0.908200  0.579300  1.0  0.4245
  H  H91  1  0.934300  0.763200  0.445900  1.0  0.0804
  H  H92  1  0.769800  0.793200  0.614700  1.0  0.0924
  H  H93  1  0.831000  0.869800  0.649000  1.0  0.1148
  H  H94  1  0.946400  0.839500  0.512900  1.0  0.1082
  H  H95  1  0.410800  0.124800  0.432000  1.0  0.4042
  H  H96  1  0.261000  0.969700  0.313300  1.0  0.0869
  H  H97  1  0.390100  0.945700  0.510900  1.0  0.0873
  H  H98  1  0.425500  0.041100  0.489900  1.0  0.1046
  H  H99  1  0.327000  0.045100  0.340900  1.0  0.0984
  H  H100  1  0.461000  0.591800  0.420700  1.0  0.4249
  H  H101  1  0.434300  0.736800  0.554100  1.0  0.0806
  H  H102  1  0.269800  0.706800  0.385300  1.0  0.093
  H  H103  1  0.331000  0.630200  0.351000  1.0  0.1146
  H  H104  1  0.446400  0.660500  0.487100  1.0  0.1079
  H  H105  1  0.068000  0.589200  0.624800  1.0  0.4032
  H  H106  1  0.186700  0.739000  0.469700  1.0  0.0866
  H  H107  1  0.989100  0.609900  0.445700  1.0  0.0856
  H  H108  1  0.010100  0.574500  0.541100  1.0  0.1057
  H  H109  1  0.159100  0.673000  0.545100  1.0  0.0967
  H  H110  1  0.079300  0.539000  0.091800  1.0  0.4257
  H  H111  1  0.945900  0.565700  0.236800  1.0  0.0822
  H  H112  1  0.114700  0.730200  0.206800  1.0  0.0946
  H  H113  1  0.149000  0.669000  0.130200  1.0  0.1154
  H  H114  1  0.012900  0.553600  0.160500  1.0  0.1099
  H  H115  1  0.932000  0.089200  0.875200  1.0  0.3994
  H  H116  1  0.813300  0.239000  0.030300  1.0  0.0862
  H  H117  1  0.010900  0.109900  0.054300  1.0  0.0856
  H  H118  1  0.989900  0.074500  0.958900  1.0  0.1053
  H  H119  1  0.840900  0.173000  0.954900  1.0  0.0982
  H  H120  1  0.920700  0.039000  0.408200  1.0  0.4244
  H  H121  1  0.054100  0.065700  0.263200  1.0  0.0816
  H  H122  1  0.885300  0.230200  0.293200  1.0  0.094
  H  H123  1  0.851000  0.169000  0.369800  1.0  0.114
  H  H124  1  0.987100  0.053600  0.339500  1.0  0.1098
  H  H125  1  0.568000  0.910800  0.375200  1.0  0.4018
  H  H126  1  0.686700  0.761000  0.530300  1.0  0.0859
  H  H127  1  0.489100  0.890100  0.554300  1.0  0.0863
  H  H128  1  0.510100  0.925500  0.458900  1.0  0.1058
  H  H129  1  0.659100  0.827000  0.454900  1.0  0.0973
  H  H130  1  0.579300  0.961000  0.908200  1.0  0.425
  H  H131  1  0.445900  0.934300  0.763200  1.0  0.0823
  H  H132  1  0.614700  0.769800  0.793200  1.0  0.0947
  H  H133  1  0.649000  0.831000  0.869800  1.0  0.1147
  H  H134  1  0.512900  0.946400  0.839500  1.0  0.1093
  H  H135  1  0.432000  0.410800  0.124800  1.0  0.4033
  H  H136  1  0.313300  0.261000  0.969700  1.0  0.0869
  H  H137  1  0.510900  0.390100  0.945700  1.0  0.0854
  H  H138  1  0.489900  0.425500  0.041100  1.0  0.1054
  H  H139  1  0.340900  0.327000  0.045100  1.0  0.0976
  H  H140  1  0.420700  0.461000  0.591800  1.0  0.4274
  H  H141  1  0.554100  0.434300  0.736800  1.0  0.0824
  H  H142  1  0.385300  0.269800  0.706800  1.0  0.094
  H  H143  1  0.351000  0.331000  0.630200  1.0  0.1145
  H  H144  1  0.487100  0.446400  0.660500  1.0  0.1092
  C  C145  1  0.446000  0.153000  0.729100  1.0  0.1103
  C  C146  1  0.467800  0.113100  0.684800  1.0  -0.0946
  C  C147  1  0.437600  0.059600  0.665700  1.0  0.2957
  C  C148  1  0.465800  0.023700  0.624000  1.0  -0.1607
  C  C149  1  0.522300  0.036300  0.602100  1.0  -0.2364
  C  C150  1  0.550900  0.087800  0.621200  1.0  0.2667
  C  C151  1  0.524400  0.124100  0.660700  1.0  -0.1356
  C  C152  1  0.249600  0.962000  0.602800  1.0  0.1454
  C  C153  1  0.219100  0.013800  0.625100  1.0  -0.0716
  C  C154  1  0.232100  0.042800  0.679800  1.0  0.3024
  C  C155  1  0.198100  0.093800  0.694300  1.0  -0.2432
  C  C156  1  0.152200  0.114500  0.657900  1.0  -0.1375
  C  C157  1  0.138600  0.084600  0.605200  1.0  0.2685
  C  C158  1  0.170800  0.034100  0.588900  1.0  -0.1453
  C  C159  1  0.054000  0.847000  0.229100  1.0  0.1103
  C  C160  1  0.032200  0.886900  0.184800  1.0  -0.0956
  C  C161  1  0.062400  0.940400  0.165700  1.0  0.2964
  C  C162  1  0.034200  0.976300  0.124000  1.0  -0.16
  C  C163  1  0.977700  0.963700  0.102100  1.0  -0.2366
  C  C164  1  0.949100  0.912200  0.121200  1.0  0.2668
  C  C165  1  0.975600  0.875900  0.160700  1.0  -0.1377
  C  C166  1  0.250400  0.038000  0.102800  1.0  0.1448
  C  C167  1  0.280900  0.986200  0.125100  1.0  -0.0732
  C  C168  1  0.267900  0.957200  0.179800  1.0  0.3022
  C  C169  1  0.301900  0.906200  0.194300  1.0  -0.2444
  C  C170  1  0.347800  0.885500  0.157900  1.0  -0.1369
  C  C171  1  0.361400  0.915400  0.105200  1.0  0.2683
  C  C172  1  0.329200  0.965900  0.088900  1.0  -0.1447
  C  C173  1  0.554000  0.653000  0.770900  1.0  0.1096
  C  C174  1  0.532200  0.613100  0.815200  1.0  -0.0946
  C  C175  1  0.562400  0.559600  0.834300  1.0  0.2959
  C  C176  1  0.534200  0.523700  0.876000  1.0  -0.1599
  C  C177  1  0.477700  0.536300  0.897900  1.0  -0.2378
  C  C178  1  0.449100  0.587800  0.878800  1.0  0.2666
  C  C179  1  0.475600  0.624100  0.839300  1.0  -0.1375
  C  C180  1  0.750400  0.462000  0.897200  1.0  0.146
  C  C181  1  0.780900  0.513800  0.874900  1.0  -0.0737
  C  C182  1  0.767900  0.542800  0.820200  1.0  0.3018
  C  C183  1  0.801900  0.593800  0.805700  1.0  -0.244
  C  C184  1  0.847800  0.614500  0.842100  1.0  -0.1367
  C  C185  1  0.861400  0.584600  0.894800  1.0  0.2686
  C  C186  1  0.829200  0.534100  0.911100  1.0  -0.1443
  C  C187  1  0.946000  0.347000  0.270900  1.0  0.1107
  C  C188  1  0.967800  0.386900  0.315200  1.0  -0.0962
  C  C189  1  0.937600  0.440400  0.334300  1.0  0.2954
  C  C190  1  0.965800  0.476300  0.376000  1.0  -0.1603
  C  C191  1  0.022300  0.463700  0.397900  1.0  -0.2368
  C  C192  1  0.050900  0.412200  0.378800  1.0  0.2666
  C  C193  1  0.024400  0.375900  0.339300  1.0  -0.138
  C  C194  1  0.749600  0.538000  0.397200  1.0  0.1456
  C  C195  1  0.719100  0.486200  0.374900  1.0  -0.0726
  C  C196  1  0.732100  0.457200  0.320200  1.0  0.302
  C  C197  1  0.698100  0.406200  0.305700  1.0  -0.2448
  C  C198  1  0.652200  0.385500  0.342100  1.0  -0.1372
  C  C199  1  0.638600  0.415400  0.394800  1.0  0.2693
  C  C200  1  0.670800  0.465900  0.411100  1.0  -0.1463
  C  C201  1  0.729100  0.446000  0.153000  1.0  0.1115
  C  C202  1  0.684800  0.467800  0.113100  1.0  -0.093
  C  C203  1  0.665700  0.437600  0.059600  1.0  0.2943
  C  C204  1  0.624000  0.465800  0.023700  1.0  -0.1579
  C  C205  1  0.602100  0.522300  0.036300  1.0  -0.2397
  C  C206  1  0.621200  0.550900  0.087800  1.0  0.2693
  C  C207  1  0.660700  0.524400  0.124100  1.0  -0.1395
  C  C208  1  0.602800  0.249600  0.962000  1.0  0.1426
  C  C209  1  0.625100  0.219100  0.013800  1.0  -0.0726
  C  C210  1  0.679800  0.232100  0.042800  1.0  0.3028
  C  C211  1  0.694300  0.198100  0.093800  1.0  -0.2464
  C  C212  1  0.657900  0.152200  0.114500  1.0  -0.1378
  C  C213  1  0.605200  0.138600  0.084600  1.0  0.2695
  C  C214  1  0.588900  0.170800  0.034100  1.0  -0.1438
  C  C215  1  0.229100  0.054000  0.847000  1.0  0.1105
  C  C216  1  0.184800  0.032200  0.886900  1.0  -0.094
  C  C217  1  0.165700  0.062400  0.940400  1.0  0.2937
  C  C218  1  0.124000  0.034200  0.976300  1.0  -0.1556
  C  C219  1  0.102100  0.977700  0.963700  1.0  -0.2391
  C  C220  1  0.121200  0.949100  0.912200  1.0  0.2683
  C  C221  1  0.160700  0.975600  0.875900  1.0  -0.1407
  C  C222  1  0.102800  0.250400  0.038000  1.0  0.1416
  C  C223  1  0.125100  0.280900  0.986200  1.0  -0.0728
  C  C224  1  0.179800  0.267900  0.957200  1.0  0.3033
  C  C225  1  0.194300  0.301900  0.906200  1.0  -0.2462
  C  C226  1  0.157900  0.347800  0.885500  1.0  -0.1383
  C  C227  1  0.105200  0.361400  0.915400  1.0  0.2661
  C  C228  1  0.088900  0.329200  0.965900  1.0  -0.1434
  C  C229  1  0.770900  0.554000  0.653000  1.0  0.1113
  C  C230  1  0.815200  0.532200  0.613100  1.0  -0.0934
  C  C231  1  0.834300  0.562400  0.559600  1.0  0.2939
  C  C232  1  0.876000  0.534200  0.523700  1.0  -0.1557
  C  C233  1  0.897900  0.477700  0.536300  1.0  -0.2393
  C  C234  1  0.878800  0.449100  0.587800  1.0  0.2694
  C  C235  1  0.839300  0.475600  0.624100  1.0  -0.1437
  C  C236  1  0.897200  0.750400  0.462000  1.0  0.143
  C  C237  1  0.874900  0.780900  0.513800  1.0  -0.0731
  C  C238  1  0.820200  0.767900  0.542800  1.0  0.3021
  C  C239  1  0.805700  0.801900  0.593800  1.0  -0.2467
  C  C240  1  0.842100  0.847800  0.614500  1.0  -0.138
  C  C241  1  0.894800  0.861400  0.584600  1.0  0.2677
  C  C242  1  0.911100  0.829200  0.534100  1.0  -0.1422
  C  C243  1  0.270900  0.946000  0.347000  1.0  0.1107
  C  C244  1  0.315200  0.967800  0.386900  1.0  -0.0934
  C  C245  1  0.334300  0.937600  0.440400  1.0  0.2936
  C  C246  1  0.376000  0.965800  0.476300  1.0  -0.1547
  C  C247  1  0.397900  0.022300  0.463700  1.0  -0.2383
  C  C248  1  0.378800  0.050900  0.412200  1.0  0.268
  C  C249  1  0.339300  0.024400  0.375900  1.0  -0.142
  C  C250  1  0.397200  0.749600  0.538000  1.0  0.1435
  C  C251  1  0.374900  0.719100  0.486200  1.0  -0.0736
  C  C252  1  0.320200  0.732100  0.457200  1.0  0.3031
  C  C253  1  0.305700  0.698100  0.406200  1.0  -0.2464
  C  C254  1  0.342100  0.652200  0.385500  1.0  -0.1384
  C  C255  1  0.394800  0.638600  0.415400  1.0  0.2647
  C  C256  1  0.411100  0.670800  0.465900  1.0  -0.1421
  C  C257  1  0.153000  0.729100  0.446000  1.0  0.1098
  C  C258  1  0.113100  0.684800  0.467800  1.0  -0.0972
  C  C259  1  0.059600  0.665700  0.437600  1.0  0.3025
  C  C260  1  0.023700  0.624000  0.465800  1.0  -0.159
  C  C261  1  0.036300  0.602100  0.522300  1.0  -0.2388
  C  C262  1  0.087800  0.621200  0.550900  1.0  0.2783
  C  C263  1  0.124100  0.660700  0.524400  1.0  -0.139
  C  C264  1  0.962000  0.602800  0.249600  1.0  0.1438
  C  C265  1  0.013800  0.625100  0.219100  1.0  -0.0708
  C  C266  1  0.042800  0.679800  0.232100  1.0  0.3011
  C  C267  1  0.093800  0.694300  0.198100  1.0  -0.2426
  C  C268  1  0.114500  0.657900  0.152200  1.0  -0.1386
  C  C269  1  0.084600  0.605200  0.138600  1.0  0.2675
  C  C270  1  0.034100  0.588900  0.170800  1.0  -0.1428
  C  C271  1  0.847000  0.229100  0.054000  1.0  0.1094
  C  C272  1  0.886900  0.184800  0.032200  1.0  -0.0954
  C  C273  1  0.940400  0.165700  0.062400  1.0  0.2991
  C  C274  1  0.976300  0.124000  0.034200  1.0  -0.1574
  C  C275  1  0.963700  0.102100  0.977700  1.0  -0.2367
  C  C276  1  0.912200  0.121200  0.949100  1.0  0.2698
  C  C277  1  0.875900  0.160700  0.975600  1.0  -0.1416
  C  C278  1  0.038000  0.102800  0.250400  1.0  0.1451
  C  C279  1  0.986200  0.125100  0.280900  1.0  -0.0711
  C  C280  1  0.957200  0.179800  0.267900  1.0  0.3007
  C  C281  1  0.906200  0.194300  0.301900  1.0  -0.2431
  C  C282  1  0.885500  0.157900  0.347800  1.0  -0.1404
  C  C283  1  0.915400  0.105200  0.361400  1.0  0.2702
  C  C284  1  0.965900  0.088900  0.329200  1.0  -0.1422
  C  C285  1  0.653000  0.770900  0.554000  1.0  0.1099
  C  C286  1  0.613100  0.815200  0.532200  1.0  -0.0966
  C  C287  1  0.559600  0.834300  0.562400  1.0  0.3
  C  C288  1  0.523700  0.876000  0.534200  1.0  -0.1583
  C  C289  1  0.536300  0.897900  0.477700  1.0  -0.238
  C  C290  1  0.587800  0.878800  0.449100  1.0  0.2702
  C  C291  1  0.624100  0.839300  0.475600  1.0  -0.1404
  C  C292  1  0.462000  0.897200  0.750400  1.0  0.1433
  C  C293  1  0.513800  0.874900  0.780900  1.0  -0.0706
  C  C294  1  0.542800  0.820200  0.767900  1.0  0.3005
  C  C295  1  0.593800  0.805700  0.801900  1.0  -0.2444
  C  C296  1  0.614500  0.842100  0.847800  1.0  -0.1372
  C  C297  1  0.584600  0.894800  0.861400  1.0  0.2706
  C  C298  1  0.534100  0.911100  0.829200  1.0  -0.1446
  C  C299  1  0.347000  0.270900  0.946000  1.0  0.1096
  C  C300  1  0.386900  0.315200  0.967800  1.0  -0.0969
  C  C301  1  0.440400  0.334300  0.937600  1.0  0.3007
  C  C302  1  0.476300  0.376000  0.965800  1.0  -0.158
  C  C303  1  0.463700  0.397900  0.022300  1.0  -0.2379
  C  C304  1  0.412200  0.378800  0.050900  1.0  0.2775
  C  C305  1  0.375900  0.339300  0.024400  1.0  -0.1412
  C  C306  1  0.538000  0.397200  0.749600  1.0  0.1431
  C  C307  1  0.486200  0.374900  0.719100  1.0  -0.0708
  C  C308  1  0.457200  0.320200  0.732100  1.0  0.3009
  C  C309  1  0.406200  0.305700  0.698100  1.0  -0.2433
  C  C310  1  0.385500  0.342100  0.652200  1.0  -0.1385
  C  C311  1  0.415400  0.394800  0.638600  1.0  0.2692
  C  C312  1  0.465900  0.411100  0.670800  1.0  -0.1432
  C  C313  1  0.329700  0.170300  0.829700  1.0  0.491
  C  C314  1  0.170300  0.829700  0.329700  1.0  0.4899
  C  C315  1  0.670300  0.670300  0.670300  1.0  0.49
  C  C316  1  0.829700  0.329700  0.170300  1.0  0.4907
  C  C317  1  0.366300  0.866300  0.633700  1.0  0.4743
  C  C318  1  0.133700  0.133700  0.133700  1.0  0.4722
  C  C319  1  0.633700  0.366300  0.866300  1.0  0.4732
  C  C320  1  0.866300  0.633700  0.366300  1.0  0.4747
  N  N321  1  0.379000  0.187000  0.800800  1.0  -0.3811
  N  N322  1  0.394500  0.145900  0.757300  1.0  -0.3102
  N  N323  1  0.318600  0.885500  0.603700  1.0  -0.3016
  N  N324  1  0.293300  0.935900  0.630000  1.0  -0.3103
  N  N325  1  0.121000  0.813000  0.300800  1.0  -0.3813
  N  N326  1  0.105500  0.854100  0.257300  1.0  -0.3105
  N  N327  1  0.181400  0.114500  0.103700  1.0  -0.302
  N  N328  1  0.206700  0.064100  0.130000  1.0  -0.309
  N  N329  1  0.621000  0.687000  0.699200  1.0  -0.381
  N  N330  1  0.605500  0.645900  0.742700  1.0  -0.3101
  N  N331  1  0.681400  0.385500  0.896300  1.0  -0.3035
  N  N332  1  0.706700  0.435900  0.870000  1.0  -0.3091
  N  N333  1  0.879000  0.313000  0.199200  1.0  -0.3813
  N  N334  1  0.894500  0.354100  0.242700  1.0  -0.3107
  N  N335  1  0.818600  0.614500  0.396300  1.0  -0.303
  N  N336  1  0.793300  0.564100  0.370000  1.0  -0.3106
  N  N337  1  0.800800  0.379000  0.187000  1.0  -0.3746
  N  N338  1  0.757300  0.394500  0.145900  1.0  -0.3117
  N  N339  1  0.603700  0.318600  0.885500  1.0  -0.3061
  N  N340  1  0.630000  0.293300  0.935900  1.0  -0.3097
  N  N341  1  0.300800  0.121000  0.813000  1.0  -0.3751
  N  N342  1  0.257300  0.105500  0.854100  1.0  -0.3113
  N  N343  1  0.103700  0.181400  0.114500  1.0  -0.3034
  N  N344  1  0.130000  0.206700  0.064100  1.0  -0.3088
  N  N345  1  0.699200  0.621000  0.687000  1.0  -0.3747
  N  N346  1  0.742700  0.605500  0.645900  1.0  -0.3113
  N  N347  1  0.896300  0.681400  0.385500  1.0  -0.3052
  N  N348  1  0.870000  0.706700  0.435900  1.0  -0.3095
  N  N349  1  0.199200  0.879000  0.313000  1.0  -0.3749
  N  N350  1  0.242700  0.894500  0.354100  1.0  -0.3102
  N  N351  1  0.396300  0.818600  0.614500  1.0  -0.3045
  N  N352  1  0.370000  0.793300  0.564100  1.0  -0.308
  N  N353  1  0.187000  0.800800  0.379000  1.0  -0.3752
  N  N354  1  0.145900  0.757300  0.394500  1.0  -0.3098
  N  N355  1  0.885500  0.603700  0.318600  1.0  -0.303
  N  N356  1  0.935900  0.630000  0.293300  1.0  -0.3096
  N  N357  1  0.813000  0.300800  0.121000  1.0  -0.375
  N  N358  1  0.854100  0.257300  0.105500  1.0  -0.3103
  N  N359  1  0.114500  0.103700  0.181400  1.0  -0.3025
  N  N360  1  0.064100  0.130000  0.206700  1.0  -0.3089
  N  N361  1  0.687000  0.699200  0.621000  1.0  -0.3756
  N  N362  1  0.645900  0.742700  0.605500  1.0  -0.3095
  N  N363  1  0.385500  0.896300  0.681400  1.0  -0.3017
  N  N364  1  0.435900  0.870000  0.706700  1.0  -0.3117
  N  N365  1  0.313000  0.199200  0.879000  1.0  -0.3752
  N  N366  1  0.354100  0.242700  0.894500  1.0  -0.3097
  N  N367  1  0.614500  0.396300  0.818600  1.0  -0.3026
  N  N368  1  0.564100  0.370000  0.793300  1.0  -0.3095
  O  O369  1  0.383000  0.045800  0.683300  1.0  -0.6649
  O  O370  1  0.607000  0.100200  0.596600  1.0  -0.4371
  O  O371  1  0.274500  0.025500  0.716100  1.0  -0.69
  O  O372  1  0.096900  0.104700  0.566100  1.0  -0.4581
  O  O373  1  0.117000  0.954200  0.183300  1.0  -0.6643
  O  O374  1  0.893000  0.899800  0.096600  1.0  -0.4355
  O  O375  1  0.225500  0.974500  0.216100  1.0  -0.6909
  O  O376  1  0.403100  0.895300  0.066100  1.0  -0.4571
  O  O377  1  0.617000  0.545800  0.816700  1.0  -0.6645
  O  O378  1  0.393000  0.600200  0.903400  1.0  -0.4388
  O  O379  1  0.725500  0.525500  0.783900  1.0  -0.69
  O  O380  1  0.903100  0.604700  0.933900  1.0  -0.456
  O  O381  1  0.883000  0.454200  0.316700  1.0  -0.6647
  O  O382  1  0.107000  0.399800  0.403400  1.0  -0.4366
  O  O383  1  0.774500  0.474500  0.283900  1.0  -0.6913
  O  O384  1  0.596900  0.395300  0.433900  1.0  -0.4556
  O  O385  1  0.683300  0.383000  0.045800  1.0  -0.6659
  O  O386  1  0.596600  0.607000  0.100200  1.0  -0.436
  O  O387  1  0.716100  0.274500  0.025500  1.0  -0.6883
  O  O388  1  0.566100  0.096900  0.104700  1.0  -0.4527
  O  O389  1  0.183300  0.117000  0.954200  1.0  -0.6664
  O  O390  1  0.096600  0.893000  0.899800  1.0  -0.4375
  O  O391  1  0.216100  0.225500  0.974500  1.0  -0.6899
  O  O392  1  0.066100  0.403100  0.895300  1.0  -0.4542
  O  O393  1  0.816700  0.617000  0.545800  1.0  -0.6659
  O  O394  1  0.903400  0.393000  0.600200  1.0  -0.437
  O  O395  1  0.783900  0.725500  0.525500  1.0  -0.6888
  O  O396  1  0.933900  0.903100  0.604700  1.0  -0.4521
  O  O397  1  0.316700  0.883000  0.454200  1.0  -0.6659
  O  O398  1  0.403400  0.107000  0.399800  1.0  -0.4363
  O  O399  1  0.283900  0.774500  0.474500  1.0  -0.6876
  O  O400  1  0.433900  0.596900  0.395300  1.0  -0.4515
  O  O401  1  0.045800  0.683300  0.383000  1.0  -0.6688
  O  O402  1  0.100200  0.596600  0.607000  1.0  -0.4389
  O  O403  1  0.025500  0.716100  0.274500  1.0  -0.6869
  O  O404  1  0.104700  0.566100  0.096900  1.0  -0.4527
  O  O405  1  0.954200  0.183300  0.117000  1.0  -0.6672
  O  O406  1  0.899800  0.096600  0.893000  1.0  -0.439
  O  O407  1  0.974500  0.216100  0.225500  1.0  -0.6888
  O  O408  1  0.895300  0.066100  0.403100  1.0  -0.4546
  O  O409  1  0.545800  0.816700  0.617000  1.0  -0.6673
  O  O410  1  0.600200  0.903400  0.393000  1.0  -0.4396
  O  O411  1  0.525500  0.783900  0.725500  1.0  -0.6882
  O  O412  1  0.604700  0.933900  0.903100  1.0  -0.4552
  O  O413  1  0.454200  0.316700  0.883000  1.0  -0.6683
  O  O414  1  0.399800  0.403400  0.107000  1.0  -0.4407
  O  O415  1  0.474500  0.283900  0.774500  1.0  -0.6879
  O  O416  1  0.395300  0.433900  0.596900  1.0  -0.454
