# generated using pymatgen
data_NdH2C8NO6
_symmetry_space_group_name_H-M   'P 1'
_cell_length_a   6.75100000
_cell_length_b   11.91600000
_cell_length_c   13.45700000
_cell_angle_alpha   90.00000000
_cell_angle_beta   100.42700000
_cell_angle_gamma   90.00000000
_symmetry_Int_Tables_number   1
_chemical_formula_structural   NdH2C8NO6
_chemical_formula_sum   'Nd4 H8 C32 N4 O24'
_cell_volume   1064.67036781
_cell_formula_units_Z   4
loop_
 _symmetry_equiv_pos_site_id
 _symmetry_equiv_pos_as_xyz
  1  'x, y, z'
loop_
 _atom_site_type_symbol
 _atom_site_label
 _atom_site_symmetry_multiplicity
 _atom_site_fract_x
 _atom_site_fract_y
 _atom_site_fract_z
 _atom_site_occupancy
 _atom_site_charge
  Nd  Nd1  1  0.947490  0.830540  0.744930  1.0  2.2709
  Nd  Nd2  1  0.052510  0.330540  0.755070  1.0  2.2702
  Nd  Nd3  1  0.052510  0.169460  0.255070  1.0  2.2703
  Nd  Nd4  1  0.947490  0.669460  0.244930  1.0  2.2709
  H  H5  1  0.211000  0.941000  0.543000  1.0  0.126
  H  H6  1  0.546000  0.808000  0.359000  1.0  0.1227
  H  H7  1  0.789000  0.441000  0.957000  1.0  0.1251
  H  H8  1  0.454000  0.308000  0.141000  1.0  0.1221
  H  H9  1  0.789000  0.059000  0.457000  1.0  0.1257
  H  H10  1  0.454000  0.192000  0.641000  1.0  0.1195
  H  H11  1  0.211000  0.559000  0.043000  1.0  0.1265
  H  H12  1  0.546000  0.692000  0.859000  1.0  0.1194
  C  C13  1  0.457500  0.896300  0.719100  1.0  0.7196
  C  C14  1  0.473100  0.879500  0.610100  1.0  0.1117
  C  C15  1  0.317200  0.903900  0.529700  1.0  -0.0298
  C  C16  1  0.345100  0.877600  0.433900  1.0  -0.0706
  C  C17  1  0.181800  0.900500  0.342800  1.0  0.7207
  C  C18  1  0.523200  0.826500  0.418800  1.0  -0.0437
  C  C19  1  0.674300  0.811700  0.501900  1.0  0.113
  C  C20  1  0.881800  0.766400  0.496200  1.0  0.7297
  C  C21  1  0.542500  0.396300  0.780900  1.0  0.7203
  C  C22  1  0.526900  0.379500  0.889900  1.0  0.1114
  C  C23  1  0.682800  0.403900  0.970300  1.0  -0.0308
  C  C24  1  0.654900  0.377600  0.066100  1.0  -0.0703
  C  C25  1  0.818200  0.400500  0.157200  1.0  0.7218
  C  C26  1  0.476800  0.326500  0.081200  1.0  -0.0442
  C  C27  1  0.325700  0.311700  0.998100  1.0  0.113
  C  C28  1  0.118200  0.266400  0.003800  1.0  0.7303
  C  C29  1  0.542500  0.103700  0.280900  1.0  0.7204
  C  C30  1  0.526900  0.120500  0.389900  1.0  0.1118
  C  C31  1  0.682800  0.096100  0.470300  1.0  -0.0306
  C  C32  1  0.654900  0.122400  0.566100  1.0  -0.0703
  C  C33  1  0.818200  0.099500  0.657200  1.0  0.7213
  C  C34  1  0.476800  0.173500  0.581200  1.0  -0.044
  C  C35  1  0.325700  0.188300  0.498100  1.0  0.1126
  C  C36  1  0.118200  0.233600  0.503800  1.0  0.7305
  C  C37  1  0.457500  0.603700  0.219100  1.0  0.7195
  C  C38  1  0.473100  0.620500  0.110100  1.0  0.1121
  C  C39  1  0.317200  0.596100  0.029700  1.0  -0.0301
  C  C40  1  0.345100  0.622400  0.933900  1.0  -0.0704
  C  C41  1  0.181800  0.599500  0.842800  1.0  0.7207
  C  C42  1  0.523200  0.673500  0.918800  1.0  -0.0431
  C  C43  1  0.674300  0.688300  0.001900  1.0  0.1121
  C  C44  1  0.881800  0.733600  0.996200  1.0  0.7301
  N  N45  1  0.650100  0.837800  0.595800  1.0  -0.498
  N  N46  1  0.349900  0.337800  0.904200  1.0  -0.4982
  N  N47  1  0.349900  0.162200  0.404200  1.0  -0.4973
  N  N48  1  0.650100  0.662200  0.095800  1.0  -0.4981
  O  O49  1  0.622500  0.901000  0.781100  1.0  -0.6978
  O  O50  1  0.288000  0.906500  0.742100  1.0  -0.7103
  O  O51  1  0.165500  0.832100  0.270800  1.0  -0.7111
  O  O52  1  0.074900  0.986600  0.345500  1.0  -0.7038
  O  O53  1  0.922800  0.743100  0.411500  1.0  -0.7613
  O  O54  1  0.001500  0.756600  0.579100  1.0  -0.687
  O  O55  1  0.377500  0.401000  0.718900  1.0  -0.6977
  O  O56  1  0.712000  0.406500  0.757900  1.0  -0.7108
  O  O57  1  0.834500  0.332100  0.229200  1.0  -0.7093
  O  O58  1  0.925100  0.486600  0.154500  1.0  -0.7036
  O  O59  1  0.077200  0.243100  0.088500  1.0  -0.7622
  O  O60  1  0.998500  0.256600  0.920900  1.0  -0.6886
  O  O61  1  0.377500  0.099000  0.218900  1.0  -0.6965
  O  O62  1  0.712000  0.093500  0.257900  1.0  -0.7103
  O  O63  1  0.834500  0.167900  0.729200  1.0  -0.7087
  O  O64  1  0.925100  0.013400  0.654500  1.0  -0.7032
  O  O65  1  0.077200  0.256900  0.588500  1.0  -0.7623
  O  O66  1  0.998500  0.243400  0.420900  1.0  -0.6883
  O  O67  1  0.622500  0.599000  0.281100  1.0  -0.6969
  O  O68  1  0.288000  0.593500  0.242100  1.0  -0.7098
  O  O69  1  0.165500  0.667900  0.770800  1.0  -0.7103
  O  O70  1  0.074900  0.513400  0.845500  1.0  -0.7039
  O  O71  1  0.922800  0.756900  0.911500  1.0  -0.7621
  O  O72  1  0.001500  0.743400  0.079100  1.0  -0.6868
