# generated using pymatgen
data_PrH2C8NO6
_symmetry_space_group_name_H-M   'P 1'
_cell_length_a   6.75400000
_cell_length_b   11.93700000
_cell_length_c   13.45600000
_cell_angle_alpha   90.00000000
_cell_angle_beta   100.38100000
_cell_angle_gamma   90.00000000
_symmetry_Int_Tables_number   1
_chemical_formula_structural   PrH2C8NO6
_chemical_formula_sum   'Pr4 H8 C32 N4 O24'
_cell_volume   1067.09862261
_cell_formula_units_Z   4
loop_
 _symmetry_equiv_pos_site_id
 _symmetry_equiv_pos_as_xyz
  1  'x, y, z'
loop_
 _atom_site_type_symbol
 _atom_site_label
 _atom_site_symmetry_multiplicity
 _atom_site_fract_x
 _atom_site_fract_y
 _atom_site_fract_z
 _atom_site_occupancy
 _atom_site_charge
  Pr  Pr1  1  0.051960  0.831130  0.754930  1.0  2.1914
  Pr  Pr2  1  0.948040  0.331130  0.745070  1.0  2.1916
  Pr  Pr3  1  0.948040  0.168870  0.245070  1.0  2.1916
  Pr  Pr4  1  0.051960  0.668870  0.254930  1.0  2.1914
  H  H5  1  0.800300  0.938500  0.958900  1.0  0.1226
  H  H6  1  0.459000  0.804000  0.145100  1.0  0.1188
  H  H7  1  0.199700  0.438500  0.541100  1.0  0.1225
  H  H8  1  0.541000  0.304000  0.354900  1.0  0.1192
  H  H9  1  0.199700  0.061500  0.041100  1.0  0.1224
  H  H10  1  0.541000  0.196000  0.854900  1.0  0.1182
  H  H11  1  0.800300  0.561500  0.458900  1.0  0.1227
  H  H12  1  0.459000  0.696000  0.645100  1.0  0.1182
  C  C13  1  0.542000  0.897700  0.780700  1.0  0.7166
  C  C14  1  0.527200  0.880000  0.890200  1.0  0.1112
  C  C15  1  0.682100  0.904800  0.970100  1.0  -0.0479
  C  C16  1  0.654900  0.877700  0.066800  1.0  -0.0773
  C  C17  1  0.819300  0.900700  0.157100  1.0  0.7177
  C  C18  1  0.476300  0.827200  0.081300  1.0  -0.0461
  C  C19  1  0.324900  0.812700  0.997600  1.0  0.1256
  C  C20  1  0.117500  0.767000  0.004000  1.0  0.7174
  C  C21  1  0.458000  0.397700  0.719300  1.0  0.7156
  C  C22  1  0.472800  0.380000  0.609800  1.0  0.1105
  C  C23  1  0.317900  0.404800  0.529900  1.0  -0.0477
  C  C24  1  0.345100  0.377700  0.433200  1.0  -0.0778
  C  C25  1  0.180700  0.400700  0.342900  1.0  0.7174
  C  C26  1  0.523700  0.327200  0.418700  1.0  -0.0468
  C  C27  1  0.675100  0.312700  0.502400  1.0  0.1255
  C  C28  1  0.882500  0.267000  0.496000  1.0  0.7159
  C  C29  1  0.458000  0.102300  0.219300  1.0  0.7157
  C  C30  1  0.472800  0.120000  0.109800  1.0  0.1112
  C  C31  1  0.317900  0.095200  0.029900  1.0  -0.0474
  C  C32  1  0.345100  0.122300  0.933200  1.0  -0.0773
  C  C33  1  0.180700  0.099300  0.842900  1.0  0.7173
  C  C34  1  0.523700  0.172800  0.918700  1.0  -0.0476
  C  C35  1  0.675100  0.187300  0.002400  1.0  0.1248
  C  C36  1  0.882500  0.233000  0.996000  1.0  0.7159
  C  C37  1  0.542000  0.602300  0.280700  1.0  0.7168
  C  C38  1  0.527200  0.620000  0.390200  1.0  0.1118
  C  C39  1  0.682100  0.595200  0.470100  1.0  -0.047
  C  C40  1  0.654900  0.622300  0.566800  1.0  -0.077
  C  C41  1  0.819300  0.599300  0.657100  1.0  0.7171
  C  C42  1  0.476300  0.672800  0.581300  1.0  -0.047
  C  C43  1  0.324900  0.687300  0.497600  1.0  0.1249
  C  C44  1  0.117500  0.733000  0.504000  1.0  0.7169
  N  N45  1  0.349600  0.838500  0.904300  1.0  -0.4749
  N  N46  1  0.650400  0.338500  0.595700  1.0  -0.4747
  N  N47  1  0.650400  0.161500  0.095700  1.0  -0.4752
  N  N48  1  0.349600  0.661500  0.404300  1.0  -0.4741
  O  O49  1  0.376800  0.901100  0.719200  1.0  -0.6899
  O  O50  1  0.712300  0.907200  0.758100  1.0  -0.7055
  O  O51  1  0.833900  0.832100  0.229100  1.0  -0.7009
  O  O52  1  0.925900  0.985900  0.154700  1.0  -0.6794
  O  O53  1  0.077200  0.742700  0.088400  1.0  -0.7426
  O  O54  1  0.997600  0.757200  0.920500  1.0  -0.6554
  O  O55  1  0.623200  0.401100  0.780800  1.0  -0.69
  O  O56  1  0.287700  0.407200  0.741900  1.0  -0.7054
  O  O57  1  0.166100  0.332100  0.270900  1.0  -0.7025
  O  O58  1  0.074100  0.485900  0.345300  1.0  -0.6798
  O  O59  1  0.922800  0.242700  0.411600  1.0  -0.7419
  O  O60  1  0.002400  0.257200  0.579500  1.0  -0.6547
  O  O61  1  0.623200  0.098900  0.280800  1.0  -0.689
  O  O62  1  0.287700  0.092800  0.241900  1.0  -0.7048
  O  O63  1  0.166100  0.167900  0.770900  1.0  -0.702
  O  O64  1  0.074100  0.014100  0.845300  1.0  -0.6798
  O  O65  1  0.922800  0.257300  0.911600  1.0  -0.7423
  O  O66  1  0.002400  0.242800  0.079500  1.0  -0.6546
  O  O67  1  0.376800  0.598900  0.219200  1.0  -0.6885
  O  O68  1  0.712300  0.592800  0.258100  1.0  -0.705
  O  O69  1  0.833900  0.667900  0.729100  1.0  -0.7002
  O  O70  1  0.925900  0.514100  0.654700  1.0  -0.6786
  O  O71  1  0.077200  0.757300  0.588400  1.0  -0.7428
  O  O72  1  0.997600  0.742800  0.420500  1.0  -0.655
