# generated using pymatgen
data_Gd2H9C24(NO6)3
_symmetry_space_group_name_H-M   'P 1'
_cell_length_a   13.69080000
_cell_length_b   13.69080000
_cell_length_c   16.31700000
_cell_angle_alpha   67.02190000
_cell_angle_beta   67.02190000
_cell_angle_gamma   75.69340000
_symmetry_Int_Tables_number   1
_chemical_formula_structural   Gd2H9C24(NO6)3
_chemical_formula_sum   'Gd4 H18 C48 N6 O36'
_cell_volume   2576.09843123
_cell_formula_units_Z   2
loop_
 _symmetry_equiv_pos_site_id
 _symmetry_equiv_pos_as_xyz
  1  'x, y, z'
loop_
 _atom_site_type_symbol
 _atom_site_label
 _atom_site_symmetry_multiplicity
 _atom_site_fract_x
 _atom_site_fract_y
 _atom_site_fract_z
 _atom_site_occupancy
 _atom_site_charge
  Gd  Gd1  1  0.167690  0.454490  0.997860  1.0  2.1788
  Gd  Gd2  1  0.545510  0.832310  0.502140  1.0  2.1794
  Gd  Gd3  1  0.832310  0.545510  0.002140  1.0  2.1778
  Gd  Gd4  1  0.454490  0.167690  0.497860  1.0  2.1784
  H  H5  1  0.081900  0.345500  0.564400  1.0  0.1216
  H  H6  1  0.082400  0.127800  0.151100  1.0  0.1288
  H  H7  1  0.225200  0.338400  0.743200  1.0  0.1175
  H  H8  1  0.911800  0.454000  0.785500  1.0  0.1209
  H  H9  1  0.654500  0.918100  0.935600  1.0  0.1226
  H  H10  1  0.872200  0.917600  0.348900  1.0  0.1288
  H  H11  1  0.661600  0.774800  0.756800  1.0  0.1183
  H  H12  1  0.546000  0.088200  0.714500  1.0  0.1226
  H  H13  1  0.918100  0.654500  0.435600  1.0  0.1222
  H  H14  1  0.917600  0.872200  0.848900  1.0  0.1288
  H  H15  1  0.774800  0.661600  0.256800  1.0  0.1181
  H  H16  1  0.088200  0.546000  0.214500  1.0  0.1213
  H  H17  1  0.345500  0.081900  0.064400  1.0  0.1216
  H  H18  1  0.127800  0.082400  0.651100  1.0  0.1285
  H  H19  1  0.338400  0.225200  0.243200  1.0  0.118
  H  H20  1  0.454000  0.911800  0.285500  1.0  0.122
  H  H21  1  0.767800  0.232200  0.250000  1.0  0.1159
  H  H22  1  0.232200  0.767800  0.750000  1.0  0.1159
  C  C23  1  0.927620  0.196860  0.189390  1.0  -0.1584
  C  C24  1  0.079030  0.358250  0.618550  1.0  -0.0137
  C  C25  1  0.951140  0.308160  0.122280  1.0  0.8073
  C  C26  1  0.063800  0.428320  0.858830  1.0  0.8116
  C  C27  1  0.011190  0.114330  0.190350  1.0  -0.0081
  C  C28  1  0.163800  0.355360  0.724470  1.0  0.0182
  C  C29  1  0.068680  0.402040  0.775770  1.0  -0.1701
  C  C30  1  0.169050  0.333490  0.646100  1.0  -0.1256
  C  C31  1  0.270120  0.281540  0.590760  1.0  0.6792
  C  C32  1  0.977450  0.424250  0.750210  1.0  -0.0047
  C  C33  1  0.985260  0.401800  0.671950  1.0  -0.0197
  C  C34  1  0.803140  0.072380  0.310610  1.0  -0.1599
  C  C35  1  0.641750  0.920970  0.881450  1.0  -0.0129
  C  C36  1  0.691840  0.048860  0.377720  1.0  0.8077
  C  C37  1  0.571680  0.936200  0.641170  1.0  0.8101
  C  C38  1  0.885670  0.988810  0.309650  1.0  -0.0087
  C  C39  1  0.644640  0.836200  0.775530  1.0  0.0177
  C  C40  1  0.597960  0.931320  0.724230  1.0  -0.1687
  C  C41  1  0.666510  0.830950  0.853900  1.0  -0.1258
  C  C42  1  0.718460  0.729880  0.909240  1.0  0.6823
  C  C43  1  0.575750  0.022550  0.749790  1.0  -0.0031
  C  C44  1  0.598200  0.014740  0.828050  1.0  -0.0191
  C  C45  1  0.072380  0.803140  0.810610  1.0  -0.1592
  C  C46  1  0.920970  0.641750  0.381450  1.0  -0.0115
  C  C47  1  0.048860  0.691840  0.877720  1.0  0.8064
  C  C48  1  0.936200  0.571680  0.141170  1.0  0.8108
  C  C49  1  0.988810  0.885670  0.809650  1.0  -0.0085
  C  C50  1  0.836200  0.644640  0.275530  1.0  0.0176
  C  C51  1  0.931320  0.597960  0.224230  1.0  -0.169
  C  C52  1  0.830950  0.666510  0.353900  1.0  -0.125
  C  C53  1  0.729880  0.718460  0.409240  1.0  0.681
  C  C54  1  0.022550  0.575750  0.249790  1.0  -0.0049
  C  C55  1  0.014740  0.598200  0.328050  1.0  -0.0195
  C  C56  1  0.196860  0.927620  0.689390  1.0  -0.1595
  C  C57  1  0.358250  0.079030  0.118550  1.0  -0.0151
  C  C58  1  0.308160  0.951140  0.622280  1.0  0.8055
  C  C59  1  0.428320  0.063800  0.358830  1.0  0.8114
  C  C60  1  0.114330  0.011190  0.690350  1.0  -0.0076
  C  C61  1  0.355360  0.163800  0.224470  1.0  0.0176
  C  C62  1  0.402040  0.068680  0.275770  1.0  -0.1695
  C  C63  1  0.333490  0.169050  0.146100  1.0  -0.1254
  C  C64  1  0.281540  0.270120  0.090760  1.0  0.6804
  C  C65  1  0.424250  0.977450  0.250210  1.0  -0.0031
  C  C66  1  0.401800  0.985260  0.171950  1.0  -0.0187
  C  C67  1  0.824360  0.175640  0.250000  1.0  0.0276
  C  C68  1  0.987760  0.012240  0.250000  1.0  -0.0467
  C  C69  1  0.175640  0.824360  0.750000  1.0  0.0288
  C  C70  1  0.012240  0.987760  0.750000  1.0  -0.0476
  N  N71  1  0.889240  0.423540  0.644540  1.0  0.6054
  N  N72  1  0.576460  0.110760  0.855460  1.0  0.6036
  N  N73  1  0.110760  0.576460  0.355460  1.0  0.6043
  N  N74  1  0.423540  0.889240  0.144540  1.0  0.6048
  N  N75  1  0.075330  0.924670  0.250000  1.0  0.602
  N  N76  1  0.924670  0.075330  0.750000  1.0  0.6027
  O  O77  1  0.872910  0.375490  0.108910  1.0  -0.7883
  O  O78  1  0.048170  0.324030  0.085130  1.0  -0.699
  O  O79  1  0.148510  0.408330  0.878550  1.0  -0.6933
  O  O80  1  0.975330  0.469250  0.902550  1.0  -0.8076
  O  O81  1  0.273440  0.273620  0.515370  1.0  -0.6438
  O  O82  1  0.348160  0.245740  0.622190  1.0  -0.7019
  O  O83  1  0.167740  0.947440  0.209740  1.0  -0.3632
  O  O84  1  0.901420  0.422160  0.566370  1.0  -0.3684
  O  O85  1  0.802240  0.442340  0.700930  1.0  -0.3779
  O  O86  1  0.624510  0.127090  0.391090  1.0  -0.7847
  O  O87  1  0.675970  0.951830  0.414870  1.0  -0.6971
  O  O88  1  0.591670  0.851490  0.621450  1.0  -0.6878
  O  O89  1  0.530750  0.024670  0.597450  1.0  -0.8086
  O  O90  1  0.726380  0.726560  0.984630  1.0  -0.6445
  O  O91  1  0.754260  0.651840  0.877810  1.0  -0.6971
  O  O92  1  0.052560  0.832260  0.290260  1.0  -0.3653
  O  O93  1  0.577840  0.098580  0.933630  1.0  -0.3678
  O  O94  1  0.557660  0.197760  0.799070  1.0  -0.3775
  O  O95  1  0.127090  0.624510  0.891090  1.0  -0.7881
  O  O96  1  0.951830  0.675970  0.914870  1.0  -0.6991
  O  O97  1  0.851490  0.591670  0.121450  1.0  -0.693
  O  O98  1  0.024670  0.530750  0.097450  1.0  -0.8077
  O  O99  1  0.726560  0.726380  0.484630  1.0  -0.643
  O  O100  1  0.651840  0.754260  0.377810  1.0  -0.6979
  O  O101  1  0.832260  0.052560  0.790260  1.0  -0.3657
  O  O102  1  0.098580  0.577840  0.433630  1.0  -0.3696
  O  O103  1  0.197760  0.557660  0.299070  1.0  -0.3787
  O  O104  1  0.375490  0.872910  0.608910  1.0  -0.7828
  O  O105  1  0.324030  0.048170  0.585130  1.0  -0.6983
  O  O106  1  0.408330  0.148510  0.378550  1.0  -0.6908
  O  O107  1  0.469250  0.975330  0.402550  1.0  -0.807
  O  O108  1  0.273620  0.273440  0.015370  1.0  -0.6449
  O  O109  1  0.245740  0.348160  0.122190  1.0  -0.7037
  O  O110  1  0.947440  0.167740  0.709740  1.0  -0.3673
  O  O111  1  0.422160  0.901420  0.066370  1.0  -0.3682
  O  O112  1  0.442340  0.802240  0.200930  1.0  -0.383
