# generated using pymatgen
data_ZnH6(CO)8
_symmetry_space_group_name_H-M   'P 1'
_cell_length_a   14.11530000
_cell_length_b   8.85050000
_cell_length_c   13.57040000
_cell_angle_alpha   90.00000000
_cell_angle_beta   111.76100000
_cell_angle_gamma   90.00000000
_symmetry_Int_Tables_number   1
_chemical_formula_structural   ZnH6(CO)8
_chemical_formula_sum   'Zn4 H24 C32 O32'
_cell_volume   1574.50472374
_cell_formula_units_Z   4
loop_
 _symmetry_equiv_pos_site_id
 _symmetry_equiv_pos_as_xyz
  1  'x, y, z'
loop_
 _atom_site_type_symbol
 _atom_site_label
 _atom_site_symmetry_multiplicity
 _atom_site_fract_x
 _atom_site_fract_y
 _atom_site_fract_z
 _atom_site_occupancy
 _atom_site_charge
  Zn  Zn1  1  0.500000  0.500290  0.750000  1.0  1.0461
  Zn  Zn2  1  0.000000  0.000290  0.750000  1.0  1.0461
  Zn  Zn3  1  0.500000  0.499710  0.250000  1.0  1.0452
  Zn  Zn4  1  0.000000  0.999710  0.250000  1.0  1.0452
  H  H5  1  0.211100  0.618000  0.437800  1.0  0.1422
  H  H6  1  0.282700  0.782300  0.349600  1.0  0.1865
  H  H7  1  0.383600  0.791800  0.449400  1.0  0.1934
  H  H8  1  0.711100  0.118000  0.437800  1.0  0.1422
  H  H9  1  0.782700  0.282300  0.349600  1.0  0.1865
  H  H10  1  0.883600  0.291800  0.449400  1.0  0.1934
  H  H11  1  0.788900  0.618000  0.062200  1.0  0.1437
  H  H12  1  0.717300  0.782300  0.150400  1.0  0.1874
  H  H13  1  0.616400  0.791800  0.050600  1.0  0.1942
  H  H14  1  0.288900  0.118000  0.062200  1.0  0.1437
  H  H15  1  0.217300  0.282300  0.150400  1.0  0.1874
  H  H16  1  0.116400  0.291800  0.050600  1.0  0.1942
  H  H17  1  0.788900  0.382000  0.562200  1.0  0.1432
  H  H18  1  0.717300  0.217700  0.650400  1.0  0.1883
  H  H19  1  0.616400  0.208200  0.550600  1.0  0.1936
  H  H20  1  0.288900  0.882000  0.562200  1.0  0.1432
  H  H21  1  0.217300  0.717700  0.650400  1.0  0.1883
  H  H22  1  0.116400  0.708200  0.550600  1.0  0.1936
  H  H23  1  0.211100  0.382000  0.937800  1.0  0.1425
  H  H24  1  0.282700  0.217700  0.849600  1.0  0.1866
  H  H25  1  0.383600  0.208200  0.949400  1.0  0.1925
  H  H26  1  0.711100  0.882000  0.937800  1.0  0.1425
  H  H27  1  0.782700  0.717700  0.849600  1.0  0.1866
  H  H28  1  0.883600  0.708200  0.949400  1.0  0.1925
  C  C29  1  0.336900  0.584600  0.574400  1.0  0.6752
  C  C30  1  0.374200  0.597000  0.364500  1.0  0.7373
  C  C31  1  0.270000  0.679400  0.480100  1.0  -0.0727
  C  C32  1  0.328600  0.724700  0.409000  1.0  -0.3516
  C  C33  1  0.836900  0.084600  0.574400  1.0  0.6752
  C  C34  1  0.874200  0.097000  0.364500  1.0  0.7373
  C  C35  1  0.770000  0.179400  0.480100  1.0  -0.0727
  C  C36  1  0.828600  0.224700  0.409000  1.0  -0.3516
  C  C37  1  0.663100  0.584600  0.925600  1.0  0.6752
  C  C38  1  0.625800  0.597000  0.135500  1.0  0.7373
  C  C39  1  0.730000  0.679400  0.019900  1.0  -0.0723
  C  C40  1  0.671400  0.724700  0.091000  1.0  -0.3504
  C  C41  1  0.163100  0.084600  0.925600  1.0  0.6752
  C  C42  1  0.125800  0.097000  0.135500  1.0  0.7373
  C  C43  1  0.230000  0.179400  0.019900  1.0  -0.0723
  C  C44  1  0.171400  0.224700  0.091000  1.0  -0.3504
  C  C45  1  0.663100  0.415400  0.425600  1.0  0.6741
  C  C46  1  0.625800  0.403000  0.635500  1.0  0.7371
  C  C47  1  0.730000  0.320600  0.519900  1.0  -0.0726
  C  C48  1  0.671400  0.275300  0.591000  1.0  -0.3488
  C  C49  1  0.163100  0.915400  0.425600  1.0  0.6741
  C  C50  1  0.125800  0.903000  0.635500  1.0  0.7371
  C  C51  1  0.230000  0.820600  0.519900  1.0  -0.0726
  C  C52  1  0.171400  0.775300  0.591000  1.0  -0.3488
  C  C53  1  0.336900  0.415400  0.074400  1.0  0.6726
  C  C54  1  0.374200  0.403000  0.864500  1.0  0.7377
  C  C55  1  0.270000  0.320600  0.980100  1.0  -0.0728
  C  C56  1  0.328600  0.275300  0.909000  1.0  -0.3504
  C  C57  1  0.836900  0.915400  0.074400  1.0  0.6726
  C  C58  1  0.874200  0.903000  0.864500  1.0  0.7377
  C  C59  1  0.770000  0.820600  0.980100  1.0  -0.0728
  C  C60  1  0.828600  0.775300  0.909000  1.0  -0.3504
  O  O61  1  0.418530  0.648600  0.640400  1.0  -0.5517
  O  O62  1  0.314300  0.453500  0.587800  1.0  -0.4915
  O  O63  1  0.348000  0.465700  0.364800  1.0  -0.4431
  O  O64  1  0.440490  0.642500  0.325320  1.0  -0.5514
  O  O65  1  0.918530  0.148600  0.640400  1.0  -0.5517
  O  O66  1  0.814300  0.953500  0.587800  1.0  -0.4915
  O  O67  1  0.848000  0.965700  0.364800  1.0  -0.4431
  O  O68  1  0.940490  0.142500  0.325320  1.0  -0.5514
  O  O69  1  0.581470  0.648600  0.859600  1.0  -0.5518
  O  O70  1  0.685700  0.453500  0.912200  1.0  -0.4928
  O  O71  1  0.652000  0.465700  0.135200  1.0  -0.4415
  O  O72  1  0.559510  0.642500  0.174680  1.0  -0.5516
  O  O73  1  0.081470  0.148600  0.859600  1.0  -0.5518
  O  O74  1  0.185700  0.953500  0.912200  1.0  -0.4928
  O  O75  1  0.152000  0.965700  0.135200  1.0  -0.4415
  O  O76  1  0.059510  0.142500  0.174680  1.0  -0.5516
  O  O77  1  0.581470  0.351400  0.359600  1.0  -0.5526
  O  O78  1  0.685700  0.546500  0.412200  1.0  -0.4865
  O  O79  1  0.652000  0.534300  0.635200  1.0  -0.4417
  O  O80  1  0.559510  0.357500  0.674680  1.0  -0.5517
  O  O81  1  0.081470  0.851400  0.359600  1.0  -0.5526
  O  O82  1  0.185700  0.046500  0.412200  1.0  -0.4865
  O  O83  1  0.152000  0.034300  0.635200  1.0  -0.4417
  O  O84  1  0.059510  0.857500  0.674680  1.0  -0.5517
  O  O85  1  0.418530  0.351400  0.140400  1.0  -0.5514
  O  O86  1  0.314300  0.546500  0.087800  1.0  -0.4865
  O  O87  1  0.348000  0.534300  0.864800  1.0  -0.4433
  O  O88  1  0.440490  0.357500  0.825320  1.0  -0.5512
  O  O89  1  0.918530  0.851400  0.140400  1.0  -0.5514
  O  O90  1  0.814300  0.046500  0.087800  1.0  -0.4865
  O  O91  1  0.848000  0.034300  0.864800  1.0  -0.4433
  O  O92  1  0.940490  0.857500  0.825320  1.0  -0.5512
