# generated using pymatgen
data_Dy2Mn3H18C42(NO4)6
_symmetry_space_group_name_H-M   'P 1'
_cell_length_a   15.27700000
_cell_length_b   15.27700000
_cell_length_c   15.77600000
_cell_angle_alpha   90.00000000
_cell_angle_beta   90.00000000
_cell_angle_gamma   120.00000000
_symmetry_Int_Tables_number   1
_chemical_formula_structural   Dy2Mn3H18C42(NO4)6
_chemical_formula_sum   'Dy4 Mn6 H36 C84 N12 O48'
_cell_volume   3188.62676021
_cell_formula_units_Z   2
loop_
 _symmetry_equiv_pos_site_id
 _symmetry_equiv_pos_as_xyz
  1  'x, y, z'
loop_
 _atom_site_type_symbol
 _atom_site_label
 _atom_site_symmetry_multiplicity
 _atom_site_fract_x
 _atom_site_fract_y
 _atom_site_fract_z
 _atom_site_occupancy
 _atom_site_charge
  Dy  Dy1  1  0.333333  0.666667  0.750000  1.0  2.1298
  Dy  Dy2  1  0.666667  0.333333  0.750000  1.0  2.1298
  Dy  Dy3  1  0.666667  0.333333  0.250000  1.0  2.1298
  Dy  Dy4  1  0.333333  0.666667  0.250000  1.0  2.1298
  Mn  Mn5  1  0.500000  0.000000  0.000000  1.0  1.2634
  Mn  Mn6  1  0.500000  0.500000  0.000000  1.0  1.2635
  Mn  Mn7  1  0.000000  0.500000  0.000000  1.0  1.2634
  Mn  Mn8  1  0.500000  0.000000  0.500000  1.0  1.2634
  Mn  Mn9  1  0.000000  0.500000  0.500000  1.0  1.2634
  Mn  Mn10  1  0.500000  0.500000  0.500000  1.0  1.2635
  H  H11  1  0.710800  0.943800  0.844400  1.0  0.1141
  H  H12  1  0.233000  0.289200  0.844400  1.0  0.1151
  H  H13  1  0.056200  0.767000  0.844400  1.0  0.1149
  H  H14  1  0.289200  0.056200  0.844400  1.0  0.1141
  H  H15  1  0.767000  0.710800  0.844400  1.0  0.115
  H  H16  1  0.943800  0.233000  0.844400  1.0  0.1145
  H  H17  1  0.767000  0.056200  0.655600  1.0  0.114
  H  H18  1  0.943800  0.710800  0.655600  1.0  0.115
  H  H19  1  0.289200  0.233000  0.655600  1.0  0.1146
  H  H20  1  0.233000  0.943800  0.655600  1.0  0.1138
  H  H21  1  0.056200  0.289200  0.655600  1.0  0.1148
  H  H22  1  0.710800  0.767000  0.655600  1.0  0.1146
  H  H23  1  0.289200  0.056200  0.155600  1.0  0.1137
  H  H24  1  0.767000  0.710800  0.155600  1.0  0.115
  H  H25  1  0.943800  0.233000  0.155600  1.0  0.1144
  H  H26  1  0.710800  0.943800  0.155600  1.0  0.1141
  H  H27  1  0.233000  0.289200  0.155600  1.0  0.115
  H  H28  1  0.056200  0.767000  0.155600  1.0  0.1148
  H  H29  1  0.233000  0.943800  0.344400  1.0  0.114
  H  H30  1  0.056200  0.289200  0.344400  1.0  0.1149
  H  H31  1  0.710800  0.767000  0.344400  1.0  0.1147
  H  H32  1  0.767000  0.056200  0.344400  1.0  0.1141
  H  H33  1  0.943800  0.710800  0.344400  1.0  0.115
  H  H34  1  0.289200  0.233000  0.344400  1.0  0.1147
  H  H35  1  0.799900  0.899950  0.750000  1.0  0.0927
  H  H36  1  0.100050  0.200100  0.750000  1.0  0.0898
  H  H37  1  0.100050  0.899950  0.750000  1.0  0.0933
  H  H38  1  0.200100  0.100050  0.750000  1.0  0.0936
  H  H39  1  0.899950  0.799900  0.750000  1.0  0.0904
  H  H40  1  0.899950  0.100050  0.750000  1.0  0.0929
  H  H41  1  0.200100  0.100050  0.250000  1.0  0.0936
  H  H42  1  0.899950  0.799900  0.250000  1.0  0.0904
  H  H43  1  0.899950  0.100050  0.250000  1.0  0.0929
  H  H44  1  0.799900  0.899950  0.250000  1.0  0.0927
  H  H45  1  0.100050  0.200100  0.250000  1.0  0.0898
  H  H46  1  0.100050  0.899950  0.250000  1.0  0.0933
  C  C47  1  0.505770  0.862450  0.858970  1.0  0.6844
  C  C48  1  0.571770  0.838650  0.802770  1.0  0.1371
  C  C49  1  0.676700  0.891530  0.805760  1.0  -0.1255
  C  C50  1  0.356680  0.494230  0.858970  1.0  0.685
  C  C51  1  0.266880  0.428230  0.802770  1.0  0.136
  C  C52  1  0.214830  0.323300  0.805760  1.0  -0.1252
  C  C53  1  0.137550  0.643320  0.858970  1.0  0.6863
  C  C54  1  0.161350  0.733120  0.802770  1.0  0.1365
  C  C55  1  0.108470  0.785170  0.805760  1.0  -0.1264
  C  C56  1  0.494230  0.137550  0.858970  1.0  0.6855
  C  C57  1  0.428230  0.161350  0.802770  1.0  0.1369
  C  C58  1  0.323300  0.108470  0.805760  1.0  -0.1222
  C  C59  1  0.643320  0.505770  0.858970  1.0  0.6852
  C  C60  1  0.733120  0.571770  0.802770  1.0  0.1363
  C  C61  1  0.785170  0.676700  0.805760  1.0  -0.1254
  C  C62  1  0.862450  0.356680  0.858970  1.0  0.6857
  C  C63  1  0.838650  0.266880  0.802770  1.0  0.1366
  C  C64  1  0.891530  0.214830  0.805760  1.0  -0.1258
  C  C65  1  0.643320  0.137550  0.641030  1.0  0.6843
  C  C66  1  0.733120  0.161350  0.697230  1.0  0.1369
  C  C67  1  0.785170  0.108470  0.694240  1.0  -0.1269
  C  C68  1  0.862450  0.505770  0.641030  1.0  0.6847
  C  C69  1  0.838650  0.571770  0.697230  1.0  0.1357
  C  C70  1  0.891530  0.676700  0.694240  1.0  -0.1276
  C  C71  1  0.494230  0.356680  0.641030  1.0  0.6862
  C  C72  1  0.428230  0.266880  0.697230  1.0  0.1364
  C  C73  1  0.323300  0.214830  0.694240  1.0  -0.128
  C  C74  1  0.356680  0.862450  0.641030  1.0  0.6852
  C  C75  1  0.266880  0.838650  0.697230  1.0  0.1366
  C  C76  1  0.214830  0.891530  0.694240  1.0  -0.1236
  C  C77  1  0.137550  0.494230  0.641030  1.0  0.6852
  C  C78  1  0.161350  0.428230  0.697230  1.0  0.1363
  C  C79  1  0.108470  0.323300  0.694240  1.0  -0.1266
  C  C80  1  0.505770  0.643320  0.641030  1.0  0.6856
  C  C81  1  0.571770  0.733120  0.697230  1.0  0.1362
  C  C82  1  0.676700  0.785170  0.694240  1.0  -0.1276
  C  C83  1  0.494230  0.137550  0.141030  1.0  0.6849
  C  C84  1  0.428230  0.161350  0.197230  1.0  0.1368
  C  C85  1  0.323300  0.108470  0.194240  1.0  -0.1203
  C  C86  1  0.643320  0.505770  0.141030  1.0  0.685
  C  C87  1  0.733120  0.571770  0.197230  1.0  0.136
  C  C88  1  0.785170  0.676700  0.194240  1.0  -0.1243
  C  C89  1  0.862450  0.356680  0.141030  1.0  0.686
  C  C90  1  0.838650  0.266880  0.197230  1.0  0.1368
  C  C91  1  0.891530  0.214830  0.194240  1.0  -0.1259
  C  C92  1  0.505770  0.862450  0.141030  1.0  0.6846
  C  C93  1  0.571770  0.838650  0.197230  1.0  0.1372
  C  C94  1  0.676700  0.891530  0.194240  1.0  -0.1253
  C  C95  1  0.356680  0.494230  0.141030  1.0  0.685
  C  C96  1  0.266880  0.428230  0.197230  1.0  0.1361
  C  C97  1  0.214830  0.323300  0.194240  1.0  -0.125
  C  C98  1  0.137550  0.643320  0.141030  1.0  0.6859
  C  C99  1  0.161350  0.733120  0.197230  1.0  0.136
  C  C100  1  0.108470  0.785170  0.194240  1.0  -0.1248
  C  C101  1  0.356680  0.862450  0.358970  1.0  0.6855
  C  C102  1  0.266880  0.838650  0.302770  1.0  0.1367
  C  C103  1  0.214830  0.891530  0.305760  1.0  -0.1249
  C  C104  1  0.137550  0.494230  0.358970  1.0  0.6848
  C  C105  1  0.161350  0.428230  0.302770  1.0  0.136
  C  C106  1  0.108470  0.323300  0.305760  1.0  -0.1279
  C  C107  1  0.505770  0.643320  0.358970  1.0  0.6861
  C  C108  1  0.571770  0.733120  0.302770  1.0  0.1366
  C  C109  1  0.676700  0.785170  0.305760  1.0  -0.1277
  C  C110  1  0.643320  0.137550  0.358970  1.0  0.6845
  C  C111  1  0.733120  0.161350  0.302770  1.0  0.1368
  C  C112  1  0.785170  0.108470  0.305760  1.0  -0.1277
  C  C113  1  0.862450  0.505770  0.358970  1.0  0.6853
  C  C114  1  0.838650  0.571770  0.302770  1.0  0.1361
  C  C115  1  0.891530  0.676700  0.305760  1.0  -0.1277
  C  C116  1  0.494230  0.356680  0.358970  1.0  0.6858
  C  C117  1  0.428230  0.266880  0.302770  1.0  0.1362
  C  C118  1  0.323300  0.214830  0.305760  1.0  -0.1296
  C  C119  1  0.729560  0.864780  0.750000  1.0  -0.026
  C  C120  1  0.135220  0.270440  0.750000  1.0  -0.0226
  C  C121  1  0.135220  0.864790  0.750000  1.0  -0.0246
  C  C122  1  0.270430  0.135210  0.750000  1.0  -0.0244
  C  C123  1  0.864780  0.729560  0.750000  1.0  -0.0226
  C  C124  1  0.864780  0.135220  0.750000  1.0  -0.0257
  C  C125  1  0.270430  0.135210  0.250000  1.0  -0.0244
  C  C126  1  0.864780  0.729560  0.250000  1.0  -0.0226
  C  C127  1  0.864780  0.135220  0.250000  1.0  -0.0257
  C  C128  1  0.729560  0.864780  0.250000  1.0  -0.026
  C  C129  1  0.135220  0.270440  0.250000  1.0  -0.0226
  C  C130  1  0.135220  0.864790  0.250000  1.0  -0.0245
  N  N131  1  0.519970  0.759990  0.750000  1.0  -0.42
  N  N132  1  0.240020  0.480040  0.750000  1.0  -0.4188
  N  N133  1  0.240020  0.759990  0.750000  1.0  -0.4217
  N  N134  1  0.480030  0.240010  0.750000  1.0  -0.4214
  N  N135  1  0.759980  0.519960  0.750000  1.0  -0.4186
  N  N136  1  0.759980  0.240010  0.750000  1.0  -0.4198
  N  N137  1  0.480030  0.240010  0.250000  1.0  -0.4215
  N  N138  1  0.759980  0.519960  0.250000  1.0  -0.4186
  N  N139  1  0.759980  0.240010  0.250000  1.0  -0.4198
  N  N140  1  0.519970  0.759990  0.250000  1.0  -0.42
  N  N141  1  0.240020  0.480040  0.250000  1.0  -0.4188
  N  N142  1  0.240020  0.759990  0.250000  1.0  -0.4216
  O  O143  1  0.549730  0.935680  0.906250  1.0  -0.6305
  O  O144  1  0.413510  0.801390  0.854520  1.0  -0.6727
  O  O145  1  0.385950  0.450270  0.906250  1.0  -0.6311
  O  O146  1  0.387880  0.586490  0.854520  1.0  -0.6731
  O  O147  1  0.064320  0.614050  0.906250  1.0  -0.6315
  O  O148  1  0.198610  0.612120  0.854520  1.0  -0.6743
  O  O149  1  0.450270  0.064320  0.906250  1.0  -0.6306
  O  O150  1  0.586490  0.198610  0.854520  1.0  -0.674
  O  O151  1  0.614050  0.549730  0.906250  1.0  -0.6309
  O  O152  1  0.612120  0.413510  0.854520  1.0  -0.6728
  O  O153  1  0.935680  0.385950  0.906250  1.0  -0.6323
  O  O154  1  0.801390  0.387880  0.854520  1.0  -0.6736
  O  O155  1  0.614050  0.064320  0.593750  1.0  -0.6301
  O  O156  1  0.612120  0.198610  0.645480  1.0  -0.6729
  O  O157  1  0.935680  0.549730  0.593750  1.0  -0.632
  O  O158  1  0.801390  0.413510  0.645480  1.0  -0.6732
  O  O159  1  0.450270  0.385950  0.593750  1.0  -0.6315
  O  O160  1  0.586490  0.387880  0.645480  1.0  -0.6754
  O  O161  1  0.385950  0.935680  0.593750  1.0  -0.6317
  O  O162  1  0.387880  0.801390  0.645480  1.0  -0.6747
  O  O163  1  0.064320  0.450270  0.593750  1.0  -0.6308
  O  O164  1  0.198610  0.586490  0.645480  1.0  -0.6737
  O  O165  1  0.549730  0.614050  0.593750  1.0  -0.6324
  O  O166  1  0.413510  0.612120  0.645480  1.0  -0.674
  O  O167  1  0.450270  0.064320  0.093750  1.0  -0.6307
  O  O168  1  0.586490  0.198610  0.145480  1.0  -0.6745
  O  O169  1  0.614050  0.549730  0.093750  1.0  -0.6314
  O  O170  1  0.612120  0.413510  0.145480  1.0  -0.6733
  O  O171  1  0.935680  0.385950  0.093750  1.0  -0.6326
  O  O172  1  0.801390  0.387880  0.145480  1.0  -0.674
  O  O173  1  0.549730  0.935680  0.093750  1.0  -0.6315
  O  O174  1  0.413510  0.801390  0.145480  1.0  -0.673
  O  O175  1  0.385950  0.450270  0.093750  1.0  -0.6316
  O  O176  1  0.387880  0.586490  0.145480  1.0  -0.6735
  O  O177  1  0.064320  0.614050  0.093750  1.0  -0.6318
  O  O178  1  0.198610  0.612120  0.145480  1.0  -0.6749
  O  O179  1  0.385950  0.935680  0.406250  1.0  -0.631
  O  O180  1  0.387880  0.801390  0.354520  1.0  -0.6741
  O  O181  1  0.064320  0.450270  0.406250  1.0  -0.6308
  O  O182  1  0.198610  0.586490  0.354520  1.0  -0.6732
  O  O183  1  0.549730  0.614050  0.406250  1.0  -0.6325
  O  O184  1  0.413510  0.612120  0.354520  1.0  -0.6735
  O  O185  1  0.614050  0.064320  0.406250  1.0  -0.6303
  O  O186  1  0.612120  0.198610  0.354520  1.0  -0.6728
  O  O187  1  0.935680  0.549730  0.406250  1.0  -0.6313
  O  O188  1  0.801390  0.413510  0.354520  1.0  -0.6726
  O  O189  1  0.450270  0.385950  0.406250  1.0  -0.6314
  O  O190  1  0.586490  0.387880  0.354520  1.0  -0.6748
