# generated using pymatgen
data_AgH5(C2N)2
_symmetry_space_group_name_H-M   'P 1'
_cell_length_a   10.43070000
_cell_length_b   19.62280000
_cell_length_c   12.78670000
_cell_angle_alpha   90.00000000
_cell_angle_beta   90.00000000
_cell_angle_gamma   90.00000000
_symmetry_Int_Tables_number   1
_chemical_formula_structural   AgH5(C2N)2
_chemical_formula_sum   'Ag16 H80 C64 N32'
_cell_volume   2617.17587361
_cell_formula_units_Z   16
loop_
 _symmetry_equiv_pos_site_id
 _symmetry_equiv_pos_as_xyz
  1  'x, y, z'
loop_
 _atom_site_type_symbol
 _atom_site_label
 _atom_site_symmetry_multiplicity
 _atom_site_fract_x
 _atom_site_fract_y
 _atom_site_fract_z
 _atom_site_occupancy
 _atom_site_charge
  Ag  Ag1  1  0.142450  0.464790  0.673020  1.0  0.3063
  Ag  Ag2  1  0.857550  0.035210  0.673020  1.0  0.3033
  Ag  Ag3  1  0.642450  0.035210  0.826980  1.0  0.3045
  Ag  Ag4  1  0.357550  0.464790  0.826980  1.0  0.3063
  Ag  Ag5  1  0.250000  0.333660  0.250000  1.0  0.3127
  Ag  Ag6  1  0.750000  0.166340  0.250000  1.0  0.3129
  Ag  Ag7  1  0.000000  0.750000  0.829580  1.0  0.3093
  Ag  Ag8  1  0.500000  0.750000  0.670420  1.0  0.3074
  Ag  Ag9  1  0.857550  0.535210  0.326980  1.0  0.3046
  Ag  Ag10  1  0.142450  0.964790  0.326980  1.0  0.3066
  Ag  Ag11  1  0.357550  0.964790  0.173020  1.0  0.3059
  Ag  Ag12  1  0.642450  0.535210  0.173020  1.0  0.3032
  Ag  Ag13  1  0.750000  0.666340  0.750000  1.0  0.3129
  Ag  Ag14  1  0.250000  0.833660  0.750000  1.0  0.3127
  Ag  Ag15  1  0.000000  0.250000  0.170420  1.0  0.3074
  Ag  Ag16  1  0.500000  0.250000  0.329580  1.0  0.3093
  H  H17  1  0.217200  0.300200  0.647800  1.0  0.0999
  H  H18  1  0.249600  0.244900  0.476300  1.0  0.1002
  H  H19  1  0.191300  0.461300  0.334200  1.0  0.1317
  H  H20  1  0.252700  0.497200  0.434700  1.0  0.1357
  H  H21  1  0.100900  0.486600  0.427500  1.0  0.1167
  H  H22  1  0.988500  0.612600  0.978600  1.0  0.1077
  H  H23  1  0.041100  0.496900  0.915800  1.0  0.1033
  H  H24  1  0.103000  0.686700  0.645300  1.0  0.1293
  H  H25  1  0.060900  0.616800  0.590800  1.0  0.1354
  H  H26  1  0.205400  0.626800  0.630100  1.0  0.1321
  H  H27  1  0.782800  0.199800  0.647800  1.0  0.1002
  H  H28  1  0.750400  0.255100  0.476300  1.0  0.0993
  H  H29  1  0.808700  0.038700  0.334200  1.0  0.1317
  H  H30  1  0.747300  0.002800  0.434700  1.0  0.1359
  H  H31  1  0.899100  0.013400  0.427500  1.0  0.1195
  H  H32  1  0.011500  0.887400  0.978600  1.0  0.1079
  H  H33  1  0.958900  0.003100  0.915800  1.0  0.1028
  H  H34  1  0.897000  0.813300  0.645300  1.0  0.1295
  H  H35  1  0.939100  0.883200  0.590800  1.0  0.135
  H  H36  1  0.794600  0.873200  0.630100  1.0  0.1303
  H  H37  1  0.717200  0.199800  0.852200  1.0  0.1006
  H  H38  1  0.749600  0.255100  0.023700  1.0  0.1
  H  H39  1  0.691300  0.038700  0.165800  1.0  0.1318
  H  H40  1  0.752700  0.002800  0.065300  1.0  0.1352
  H  H41  1  0.600900  0.013400  0.072500  1.0  0.1166
  H  H42  1  0.488500  0.887400  0.521400  1.0  0.1077
  H  H43  1  0.541100  0.003100  0.584200  1.0  0.1038
  H  H44  1  0.603000  0.813300  0.854700  1.0  0.1287
  H  H45  1  0.560900  0.883200  0.909200  1.0  0.1367
  H  H46  1  0.705400  0.873200  0.869900  1.0  0.1311
  H  H47  1  0.282800  0.300200  0.852200  1.0  0.1005
  H  H48  1  0.250400  0.244900  0.023700  1.0  0.0993
  H  H49  1  0.308700  0.461300  0.165800  1.0  0.1311
  H  H50  1  0.247300  0.497200  0.065300  1.0  0.1359
  H  H51  1  0.399100  0.486600  0.072500  1.0  0.1189
  H  H52  1  0.511500  0.612600  0.521400  1.0  0.1078
  H  H53  1  0.458900  0.496900  0.584200  1.0  0.1035
  H  H54  1  0.397000  0.686700  0.854700  1.0  0.1291
  H  H55  1  0.439100  0.616800  0.909200  1.0  0.1367
  H  H56  1  0.294600  0.626800  0.869900  1.0  0.1305
  H  H57  1  0.782800  0.699800  0.352200  1.0  0.1006
  H  H58  1  0.750400  0.755100  0.523700  1.0  0.1013
  H  H59  1  0.808700  0.538700  0.665800  1.0  0.1313
  H  H60  1  0.747300  0.502800  0.565300  1.0  0.1362
  H  H61  1  0.899100  0.513400  0.572500  1.0  0.1189
  H  H62  1  0.011500  0.387400  0.021400  1.0  0.1077
  H  H63  1  0.958900  0.503100  0.084200  1.0  0.103
  H  H64  1  0.897000  0.313300  0.354700  1.0  0.1287
  H  H65  1  0.939100  0.383200  0.409200  1.0  0.1366
  H  H66  1  0.794600  0.373200  0.369900  1.0  0.13
  H  H67  1  0.217200  0.800200  0.352200  1.0  0.1004
  H  H68  1  0.249600  0.744900  0.523700  1.0  0.1015
  H  H69  1  0.191300  0.961300  0.665800  1.0  0.1314
  H  H70  1  0.252700  0.997200  0.565300  1.0  0.136
  H  H71  1  0.100900  0.986600  0.572500  1.0  0.1168
  H  H72  1  0.988500  0.112600  0.021400  1.0  0.108
  H  H73  1  0.041100  0.996900  0.084200  1.0  0.1037
  H  H74  1  0.103000  0.186700  0.354700  1.0  0.129
  H  H75  1  0.060900  0.116800  0.409200  1.0  0.1368
  H  H76  1  0.205400  0.126800  0.369900  1.0  0.1307
  H  H77  1  0.282800  0.800200  0.147800  1.0  0.1
  H  H78  1  0.250400  0.744900  0.976300  1.0  0.1019
  H  H79  1  0.308700  0.961300  0.834200  1.0  0.1316
  H  H80  1  0.247300  0.997200  0.934700  1.0  0.1359
  H  H81  1  0.399100  0.986600  0.927500  1.0  0.1191
  H  H82  1  0.511500  0.112600  0.478600  1.0  0.1076
  H  H83  1  0.458900  0.996900  0.415800  1.0  0.1027
  H  H84  1  0.397000  0.186700  0.145300  1.0  0.1294
  H  H85  1  0.439100  0.116800  0.090800  1.0  0.1351
  H  H86  1  0.294600  0.126800  0.130100  1.0  0.1292
  H  H87  1  0.717200  0.699800  0.147800  1.0  0.1001
  H  H88  1  0.749600  0.755100  0.976300  1.0  0.1014
  H  H89  1  0.691300  0.538700  0.834200  1.0  0.1319
  H  H90  1  0.752700  0.502800  0.934700  1.0  0.1355
  H  H91  1  0.600900  0.513400  0.927500  1.0  0.1169
  H  H92  1  0.488500  0.387400  0.478600  1.0  0.1079
  H  H93  1  0.541100  0.503100  0.415800  1.0  0.103
  H  H94  1  0.603000  0.313300  0.145300  1.0  0.1294
  H  H95  1  0.560900  0.383200  0.090800  1.0  0.1354
  H  H96  1  0.705400  0.373200  0.130100  1.0  0.1307
  C  C97  1  0.197700  0.399250  0.461800  1.0  0.3948
  C  C98  1  0.214600  0.322270  0.581700  1.0  -0.0398
  C  C99  1  0.232600  0.291860  0.487400  1.0  -0.0519
  C  C100  1  0.184500  0.466850  0.410100  1.0  -0.4388
  C  C101  1  0.079700  0.608660  0.749230  1.0  0.407
  C  C102  1  0.018300  0.601210  0.910600  1.0  -0.0354
  C  C103  1  0.046800  0.537680  0.875900  1.0  -0.0555
  C  C104  1  0.115300  0.637160  0.644900  1.0  -0.4431
  C  C105  1  0.802300  0.100750  0.461800  1.0  0.3946
  C  C106  1  0.785400  0.177730  0.581700  1.0  -0.0392
  C  C107  1  0.767400  0.208140  0.487400  1.0  -0.0515
  C  C108  1  0.815500  0.033150  0.410100  1.0  -0.4404
  C  C109  1  0.920300  0.891340  0.749230  1.0  0.4071
  C  C110  1  0.981700  0.898790  0.910600  1.0  -0.0348
  C  C111  1  0.953200  0.962320  0.875900  1.0  -0.0549
  C  C112  1  0.884700  0.862840  0.644900  1.0  -0.443
  C  C113  1  0.697700  0.100750  0.038200  1.0  0.3946
  C  C114  1  0.714600  0.177730  0.918300  1.0  -0.0372
  C  C115  1  0.732600  0.208140  0.012600  1.0  -0.0498
  C  C116  1  0.684500  0.033150  0.089900  1.0  -0.4401
  C  C117  1  0.579700  0.891340  0.750770  1.0  0.4072
  C  C118  1  0.518300  0.898790  0.589400  1.0  -0.0364
  C  C119  1  0.546800  0.962320  0.624100  1.0  -0.0553
  C  C120  1  0.615300  0.862840  0.855100  1.0  -0.4436
  C  C121  1  0.302300  0.399250  0.038200  1.0  0.3942
  C  C122  1  0.285400  0.322270  0.918300  1.0  -0.0379
  C  C123  1  0.267400  0.291860  0.012600  1.0  -0.0503
  C  C124  1  0.315500  0.466850  0.089900  1.0  -0.439
  C  C125  1  0.420300  0.608660  0.750770  1.0  0.4071
  C  C126  1  0.481700  0.601210  0.589400  1.0  -0.035
  C  C127  1  0.453200  0.537680  0.624100  1.0  -0.0553
  C  C128  1  0.384700  0.637160  0.855100  1.0  -0.4441
  C  C129  1  0.802300  0.600750  0.538200  1.0  0.3943
  C  C130  1  0.785400  0.677730  0.418300  1.0  -0.0373
  C  C131  1  0.767400  0.708140  0.512600  1.0  -0.0484
  C  C132  1  0.815500  0.533150  0.589900  1.0  -0.4402
  C  C133  1  0.920300  0.391340  0.250770  1.0  0.4072
  C  C134  1  0.981700  0.398790  0.089400  1.0  -0.0391
  C  C135  1  0.953200  0.462320  0.124100  1.0  -0.0551
  C  C136  1  0.884700  0.362840  0.355100  1.0  -0.4439
  C  C137  1  0.197700  0.899250  0.538200  1.0  0.3946
  C  C138  1  0.214600  0.822270  0.418300  1.0  -0.0379
  C  C139  1  0.232600  0.791860  0.512600  1.0  -0.0499
  C  C140  1  0.184500  0.966850  0.589900  1.0  -0.4389
  C  C141  1  0.079700  0.108660  0.250770  1.0  0.4071
  C  C142  1  0.018300  0.101210  0.089400  1.0  -0.0388
  C  C143  1  0.046800  0.037680  0.124100  1.0  -0.0558
  C  C144  1  0.115300  0.137160  0.355100  1.0  -0.4438
  C  C145  1  0.302300  0.899250  0.961800  1.0  0.3945
  C  C146  1  0.285400  0.822270  0.081700  1.0  -0.0395
  C  C147  1  0.267400  0.791860  0.987400  1.0  -0.0507
  C  C148  1  0.315500  0.966850  0.910100  1.0  -0.4389
  C  C149  1  0.420300  0.108660  0.249230  1.0  0.407
  C  C150  1  0.481700  0.101210  0.410600  1.0  -0.0347
  C  C151  1  0.453200  0.037680  0.375900  1.0  -0.055
  C  C152  1  0.384700  0.137160  0.144900  1.0  -0.4433
  C  C153  1  0.697700  0.600750  0.961800  1.0  0.3948
  C  C154  1  0.714600  0.677730  0.081700  1.0  -0.0395
  C  C155  1  0.732600  0.708140  0.987400  1.0  -0.0505
  C  C156  1  0.684500  0.533150  0.910100  1.0  -0.4402
  C  C157  1  0.579700  0.391340  0.249230  1.0  0.4071
  C  C158  1  0.518300  0.398790  0.410600  1.0  -0.0353
  C  C159  1  0.546800  0.462320  0.375900  1.0  -0.0552
  C  C160  1  0.615300  0.362840  0.144900  1.0  -0.4428
  N  N161  1  0.221900  0.340730  0.410800  1.0  -0.3753
  N  N162  1  0.192000  0.390460  0.565430  1.0  -0.3764
  N  N163  1  0.085600  0.542280  0.773200  1.0  -0.3934
  N  N164  1  0.039900  0.646610  0.829790  1.0  -0.4024
  N  N165  1  0.778100  0.159270  0.410800  1.0  -0.3755
  N  N166  1  0.808000  0.109540  0.565430  1.0  -0.3765
  N  N167  1  0.914400  0.957720  0.773200  1.0  -0.3933
  N  N168  1  0.960100  0.853390  0.829790  1.0  -0.4018
  N  N169  1  0.721900  0.159270  0.089200  1.0  -0.3745
  N  N170  1  0.692000  0.109540  0.934570  1.0  -0.3771
  N  N171  1  0.585600  0.957720  0.726800  1.0  -0.3931
  N  N172  1  0.539900  0.853390  0.670210  1.0  -0.4026
  N  N173  1  0.278100  0.340730  0.089200  1.0  -0.3746
  N  N174  1  0.308000  0.390460  0.934570  1.0  -0.3745
  N  N175  1  0.414400  0.542280  0.726800  1.0  -0.3936
  N  N176  1  0.460100  0.646610  0.670210  1.0  -0.4029
  N  N177  1  0.778100  0.659270  0.589200  1.0  -0.375
  N  N178  1  0.808000  0.609540  0.434570  1.0  -0.3766
  N  N179  1  0.914400  0.457720  0.226800  1.0  -0.393
  N  N180  1  0.960100  0.353390  0.170210  1.0  -0.4026
  N  N181  1  0.221900  0.840730  0.589200  1.0  -0.3741
  N  N182  1  0.192000  0.890460  0.434570  1.0  -0.375
  N  N183  1  0.085600  0.042280  0.226800  1.0  -0.3924
  N  N184  1  0.039900  0.146610  0.170210  1.0  -0.4028
  N  N185  1  0.278100  0.840730  0.910800  1.0  -0.3758
  N  N186  1  0.308000  0.890460  0.065430  1.0  -0.3756
  N  N187  1  0.414400  0.042280  0.273200  1.0  -0.3947
  N  N188  1  0.460100  0.146610  0.329790  1.0  -0.4022
  N  N189  1  0.721900  0.659270  0.910800  1.0  -0.375
  N  N190  1  0.692000  0.609540  0.065430  1.0  -0.377
  N  N191  1  0.585600  0.457720  0.273200  1.0  -0.3934
  N  N192  1  0.539900  0.353390  0.329790  1.0  -0.402
