# generated using pymatgen
data_AgH5(C2N)2
_symmetry_space_group_name_H-M   'P 1'
_cell_length_a   11.11370000
_cell_length_b   12.68360000
_cell_length_c   19.72600000
_cell_angle_alpha   90.00000000
_cell_angle_beta   90.00000000
_cell_angle_gamma   101.83500000
_symmetry_Int_Tables_number   1
_chemical_formula_structural   AgH5(C2N)2
_chemical_formula_sum   'Ag16 H80 C64 N32'
_cell_volume   2721.50156210
_cell_formula_units_Z   16
loop_
 _symmetry_equiv_pos_site_id
 _symmetry_equiv_pos_as_xyz
  1  'x, y, z'
loop_
 _atom_site_type_symbol
 _atom_site_label
 _atom_site_symmetry_multiplicity
 _atom_site_fract_x
 _atom_site_fract_y
 _atom_site_fract_z
 _atom_site_occupancy
 _atom_site_charge
  Ag  Ag1  1  0.642300  0.654420  0.047600  1.0  0.2917
  Ag  Ag2  1  0.765150  0.245120  0.167050  1.0  0.2979
  Ag  Ag3  1  0.858900  0.840040  0.029880  1.0  0.2901
  Ag  Ag4  1  0.485870  0.764180  0.765110  1.0  0.301
  Ag  Ag5  1  0.857700  0.345580  0.547600  1.0  0.292
  Ag  Ag6  1  0.734850  0.754880  0.667050  1.0  0.2981
  Ag  Ag7  1  0.641100  0.159960  0.529880  1.0  0.2899
  Ag  Ag8  1  0.014130  0.235820  0.265110  1.0  0.3011
  Ag  Ag9  1  0.357700  0.345580  0.952400  1.0  0.2914
  Ag  Ag10  1  0.234850  0.754880  0.832950  1.0  0.2978
  Ag  Ag11  1  0.141100  0.159960  0.970120  1.0  0.2891
  Ag  Ag12  1  0.514130  0.235820  0.234890  1.0  0.301
  Ag  Ag13  1  0.142300  0.654420  0.452400  1.0  0.2919
  Ag  Ag14  1  0.265150  0.245120  0.332950  1.0  0.2976
  Ag  Ag15  1  0.358900  0.840040  0.470120  1.0  0.2885
  Ag  Ag16  1  0.985870  0.764180  0.734890  1.0  0.3011
  H  H17  1  0.683700  0.624100  0.213500  1.0  0.1015
  H  H18  1  0.732000  0.459100  0.262900  1.0  0.0999
  H  H19  1  0.709500  0.459800  0.003200  1.0  0.1242
  H  H20  1  0.808600  0.394100  0.029900  1.0  0.1344
  H  H21  1  0.665000  0.341500  0.034000  1.0  0.1329
  H  H22  1  0.800500  0.024500  0.255700  1.0  0.0924
  H  H23  1  0.844300  0.862100  0.200400  1.0  0.1069
  H  H24  1  0.770100  0.157700  0.037600  1.0  0.128
  H  H25  1  0.866800  0.092300  0.007600  1.0  0.1257
  H  H26  1  0.722900  0.040500  0.005800  1.0  0.1269
  H  H27  1  0.449300  0.615500  0.524100  1.0  0.1082
  H  H28  1  0.487900  0.583600  0.645400  1.0  0.1092
  H  H29  1  0.349200  0.936500  0.594200  1.0  0.1259
  H  H30  1  0.441300  0.949600  0.657400  1.0  0.1278
  H  H31  1  0.301000  0.889300  0.666800  1.0  0.1271
  H  H32  1  0.538500  0.880100  0.014600  1.0  0.1072
  H  H33  1  0.483800  0.928400  0.898400  1.0  0.1045
  H  H34  1  0.600200  0.613900  0.828500  1.0  0.1291
  H  H35  1  0.559300  0.554200  0.898800  1.0  0.134
  H  H36  1  0.698000  0.617800  0.888500  1.0  0.132
  H  H37  1  0.816300  0.375900  0.713500  1.0  0.1017
  H  H38  1  0.768000  0.540900  0.762900  1.0  0.1003
  H  H39  1  0.790500  0.540200  0.503200  1.0  0.1253
  H  H40  1  0.691400  0.605900  0.529900  1.0  0.1326
  H  H41  1  0.835000  0.658500  0.534000  1.0  0.1322
  H  H42  1  0.699500  0.975500  0.755700  1.0  0.0918
  H  H43  1  0.655700  0.137900  0.700400  1.0  0.1066
  H  H44  1  0.729900  0.842300  0.537600  1.0  0.1287
  H  H45  1  0.633200  0.907700  0.507600  1.0  0.1229
  H  H46  1  0.777100  0.959500  0.505800  1.0  0.1265
  H  H47  1  0.050700  0.384500  0.024100  1.0  0.1083
  H  H48  1  0.012100  0.416400  0.145400  1.0  0.109
  H  H49  1  0.150800  0.063500  0.094200  1.0  0.1257
  H  H50  1  0.058700  0.050400  0.157400  1.0  0.1285
  H  H51  1  0.199000  0.110700  0.166800  1.0  0.1281
  H  H52  1  0.961500  0.119900  0.514600  1.0  0.1078
  H  H53  1  0.016200  0.071600  0.398400  1.0  0.1041
  H  H54  1  0.899800  0.386100  0.328500  1.0  0.129
  H  H55  1  0.940700  0.445800  0.398800  1.0  0.1328
  H  H56  1  0.802000  0.382200  0.388500  1.0  0.1298
  H  H57  1  0.316300  0.375900  0.786500  1.0  0.1015
  H  H58  1  0.268000  0.540900  0.737100  1.0  0.1001
  H  H59  1  0.290500  0.540200  0.996800  1.0  0.1253
  H  H60  1  0.191400  0.605900  0.970100  1.0  0.1322
  H  H61  1  0.335000  0.658500  0.966000  1.0  0.1322
  H  H62  1  0.199500  0.975500  0.744300  1.0  0.0921
  H  H63  1  0.155700  0.137900  0.799600  1.0  0.106
  H  H64  1  0.229900  0.842300  0.962400  1.0  0.1293
  H  H65  1  0.133200  0.907700  0.992400  1.0  0.1236
  H  H66  1  0.277100  0.959500  0.994200  1.0  0.1265
  H  H67  1  0.550700  0.384500  0.475900  1.0  0.1079
  H  H68  1  0.512100  0.416400  0.354600  1.0  0.1094
  H  H69  1  0.650800  0.063500  0.405800  1.0  0.1256
  H  H70  1  0.558700  0.050400  0.342600  1.0  0.1289
  H  H71  1  0.699000  0.110700  0.333200  1.0  0.1275
  H  H72  1  0.461500  0.119900  0.985400  1.0  0.1086
  H  H73  1  0.516200  0.071600  0.101600  1.0  0.1038
  H  H74  1  0.399800  0.386100  0.171500  1.0  0.1294
  H  H75  1  0.440700  0.445800  0.101200  1.0  0.1336
  H  H76  1  0.302000  0.382200  0.111500  1.0  0.13
  H  H77  1  0.183700  0.624100  0.286500  1.0  0.1011
  H  H78  1  0.232000  0.459100  0.237100  1.0  0.0996
  H  H79  1  0.209500  0.459800  0.496800  1.0  0.1242
  H  H80  1  0.308600  0.394100  0.470100  1.0  0.1333
  H  H81  1  0.165000  0.341500  0.466000  1.0  0.1329
  H  H82  1  0.300500  0.024500  0.244300  1.0  0.093
  H  H83  1  0.344300  0.862100  0.299600  1.0  0.1063
  H  H84  1  0.270100  0.157700  0.462400  1.0  0.1279
  H  H85  1  0.366800  0.092300  0.492400  1.0  0.124
  H  H86  1  0.222900  0.040500  0.494200  1.0  0.1271
  H  H87  1  0.949300  0.615500  0.975900  1.0  0.108
  H  H88  1  0.987900  0.583600  0.854600  1.0  0.1094
  H  H89  1  0.849200  0.936500  0.905800  1.0  0.1253
  H  H90  1  0.941300  0.949600  0.842600  1.0  0.1284
  H  H91  1  0.801000  0.889300  0.833200  1.0  0.1272
  H  H92  1  0.038500  0.880100  0.485400  1.0  0.1081
  H  H93  1  0.983800  0.928400  0.601600  1.0  0.1038
  H  H94  1  0.100200  0.613900  0.671500  1.0  0.1294
  H  H95  1  0.059300  0.554200  0.601200  1.0  0.1344
  H  H96  1  0.198000  0.617800  0.611500  1.0  0.1319
  C  C97  1  0.720600  0.456200  0.106500  1.0  0.4153
  C  C98  1  0.698000  0.563500  0.188700  1.0  -0.0503
  C  C99  1  0.724900  0.473000  0.215900  1.0  -0.0402
  C  C100  1  0.726400  0.408800  0.037400  1.0  -0.4369
  C  C101  1  0.798500  0.036700  0.099800  1.0  0.4126
  C  C102  1  0.803700  0.013200  0.208200  1.0  -0.0496
  C  C103  1  0.827500  0.923700  0.177800  1.0  -0.0393
  C  C104  1  0.788800  0.086000  0.031900  1.0  -0.4297
  C  C105  1  0.405200  0.797300  0.618100  1.0  0.4191
  C  C106  1  0.440600  0.662200  0.560600  1.0  -0.0435
  C  C107  1  0.461900  0.644700  0.627300  1.0  -0.0452
  C  C108  1  0.371300  0.902200  0.635600  1.0  -0.4335
  C  C109  1  0.578100  0.717400  0.904600  1.0  0.4113
  C  C110  1  0.544400  0.839800  0.974600  1.0  -0.0514
  C  C111  1  0.514500  0.866300  0.910500  1.0  -0.0381
  C  C112  1  0.611800  0.617200  0.877800  1.0  -0.437
  C  C113  1  0.779400  0.543800  0.606500  1.0  0.4148
  C  C114  1  0.802000  0.436500  0.688700  1.0  -0.0501
  C  C115  1  0.775100  0.527000  0.715900  1.0  -0.0381
  C  C116  1  0.773600  0.591200  0.537400  1.0  -0.4356
  C  C117  1  0.701500  0.963300  0.599800  1.0  0.4131
  C  C118  1  0.696300  0.986800  0.708200  1.0  -0.0493
  C  C119  1  0.672500  0.076300  0.677800  1.0  -0.0396
  C  C120  1  0.711200  0.914000  0.531900  1.0  -0.4299
  C  C121  1  0.094800  0.202700  0.118100  1.0  0.4195
  C  C122  1  0.059400  0.337800  0.060600  1.0  -0.0442
  C  C123  1  0.038100  0.355300  0.127300  1.0  -0.0456
  C  C124  1  0.128700  0.097800  0.135600  1.0  -0.4337
  C  C125  1  0.921900  0.282600  0.404600  1.0  0.411
  C  C126  1  0.955600  0.160200  0.474600  1.0  -0.0505
  C  C127  1  0.985500  0.133700  0.410500  1.0  -0.0385
  C  C128  1  0.888200  0.382800  0.377800  1.0  -0.4366
  C  C129  1  0.279400  0.543800  0.893500  1.0  0.4146
  C  C130  1  0.302000  0.436500  0.811300  1.0  -0.0418
  C  C131  1  0.275100  0.527000  0.784100  1.0  -0.0392
  C  C132  1  0.273600  0.591200  0.962600  1.0  -0.4363
  C  C133  1  0.201500  0.963300  0.900200  1.0  0.413
  C  C134  1  0.196300  0.986800  0.791800  1.0  -0.049
  C  C135  1  0.172500  0.076300  0.822200  1.0  -0.0395
  C  C136  1  0.211200  0.914000  0.968100  1.0  -0.4309
  C  C137  1  0.594800  0.202700  0.381900  1.0  0.4196
  C  C138  1  0.559400  0.337800  0.439400  1.0  -0.0448
  C  C139  1  0.538100  0.355300  0.372700  1.0  -0.0451
  C  C140  1  0.628700  0.097800  0.364400  1.0  -0.4326
  C  C141  1  0.421900  0.282600  0.095400  1.0  0.4108
  C  C142  1  0.455600  0.160200  0.025400  1.0  -0.0512
  C  C143  1  0.485500  0.133700  0.089500  1.0  -0.0376
  C  C144  1  0.388200  0.382800  0.122200  1.0  -0.4365
  C  C145  1  0.220600  0.456200  0.393500  1.0  0.4154
  C  C146  1  0.198000  0.563500  0.311300  1.0  -0.0428
  C  C147  1  0.224900  0.473000  0.284100  1.0  -0.0386
  C  C148  1  0.226400  0.408800  0.462600  1.0  -0.4369
  C  C149  1  0.298500  0.036700  0.400200  1.0  0.4125
  C  C150  1  0.303700  0.013200  0.291800  1.0  -0.0482
  C  C151  1  0.327500  0.923700  0.322200  1.0  -0.0404
  C  C152  1  0.288800  0.086000  0.468100  1.0  -0.4312
  C  C153  1  0.905200  0.797300  0.881900  1.0  0.4191
  C  C154  1  0.940600  0.662200  0.939400  1.0  -0.0431
  C  C155  1  0.961900  0.644700  0.872700  1.0  -0.0458
  C  C156  1  0.871300  0.902200  0.864400  1.0  -0.4325
  C  C157  1  0.078100  0.717400  0.595400  1.0  0.4111
  C  C158  1  0.044400  0.839800  0.525400  1.0  -0.0512
  C  C159  1  0.014500  0.866300  0.589500  1.0  -0.038
  C  C160  1  0.111800  0.617200  0.622200  1.0  -0.4367
  N  N161  1  0.694700  0.552900  0.118900  1.0  -0.3945
  N  N162  1  0.740300  0.404300  0.163700  1.0  -0.4019
  N  N163  1  0.785000  0.085400  0.158700  1.0  -0.3862
  N  N164  1  0.823200  0.937500  0.108200  1.0  -0.3996
  N  N165  1  0.404400  0.759100  0.555400  1.0  -0.3791
  N  N166  1  0.439100  0.731100  0.664000  1.0  -0.3983
  N  N167  1  0.535800  0.789100  0.867000  1.0  -0.3683
  N  N168  1  0.584700  0.744500  0.970800  1.0  -0.3923
  N  N169  1  0.805300  0.447100  0.618900  1.0  -0.3943
  N  N170  1  0.759700  0.595700  0.663700  1.0  -0.4047
  N  N171  1  0.715000  0.914600  0.658700  1.0  -0.3852
  N  N172  1  0.676800  0.062500  0.608200  1.0  -0.4006
  N  N173  1  0.095600  0.240900  0.055400  1.0  -0.3792
  N  N174  1  0.060900  0.268900  0.164000  1.0  -0.3988
  N  N175  1  0.964200  0.210900  0.367000  1.0  -0.3696
  N  N176  1  0.915300  0.255500  0.470800  1.0  -0.3934
  N  N177  1  0.305300  0.447100  0.881100  1.0  -0.3947
  N  N178  1  0.259700  0.595700  0.836300  1.0  -0.4066
  N  N179  1  0.215000  0.914600  0.841300  1.0  -0.3847
  N  N180  1  0.176800  0.062500  0.891800  1.0  -0.3995
  N  N181  1  0.595600  0.240900  0.444600  1.0  -0.3797
  N  N182  1  0.560900  0.268900  0.336000  1.0  -0.3982
  N  N183  1  0.464200  0.210900  0.133000  1.0  -0.3707
  N  N184  1  0.415300  0.255500  0.029200  1.0  -0.3915
  N  N185  1  0.194700  0.552900  0.381100  1.0  -0.3943
  N  N186  1  0.240300  0.404300  0.336300  1.0  -0.4029
  N  N187  1  0.285000  0.085400  0.341300  1.0  -0.3862
  N  N188  1  0.323200  0.937500  0.391800  1.0  -0.3993
  N  N189  1  0.904400  0.759100  0.944600  1.0  -0.3802
  N  N190  1  0.939100  0.731100  0.836000  1.0  -0.3982
  N  N191  1  0.035800  0.789100  0.633000  1.0  -0.3708
  N  N192  1  0.084700  0.744500  0.529200  1.0  -0.3915
