# generated using pymatgen
data_CaPH9C7O9
_symmetry_space_group_name_H-M   'P 1'
_cell_length_a   7.26030000
_cell_length_b   10.35230000
_cell_length_c   18.69200000
_cell_angle_alpha   90.00000000
_cell_angle_beta   94.08700000
_cell_angle_gamma   90.00000000
_symmetry_Int_Tables_number   1
_chemical_formula_structural   CaPH9C7O9
_chemical_formula_sum   'Ca4 P4 H36 C28 O36'
_cell_volume   1401.33303849
_cell_formula_units_Z   4
loop_
 _symmetry_equiv_pos_site_id
 _symmetry_equiv_pos_as_xyz
  1  'x, y, z'
loop_
 _atom_site_type_symbol
 _atom_site_label
 _atom_site_symmetry_multiplicity
 _atom_site_fract_x
 _atom_site_fract_y
 _atom_site_fract_z
 _atom_site_occupancy
 _atom_site_charge
  Ca  Ca1  1  0.746950  0.257200  0.867080  1.0  1.6593
  Ca  Ca2  1  0.753050  0.757200  0.632920  1.0  1.6594
  Ca  Ca3  1  0.253050  0.742800  0.132920  1.0  1.6579
  Ca  Ca4  1  0.246950  0.242800  0.367080  1.0  1.6564
  P  P5  1  0.823660  0.434390  0.700060  1.0  1.5292
  P  P6  1  0.676340  0.934390  0.799940  1.0  1.5315
  P  P7  1  0.176340  0.565610  0.299940  1.0  1.5317
  P  P8  1  0.323660  0.065610  0.200060  1.0  1.5293
  H  H9  1  0.121300  0.417200  0.794800  1.0  0.1236
  H  H10  1  0.238200  0.461800  0.732100  1.0  0.1322
  H  H11  1  0.991700  0.301400  0.588300  1.0  0.0804
  H  H12  1  0.184100  0.249400  0.618600  1.0  0.0807
  H  H13  1  0.311400  0.453000  0.619600  1.0  0.1302
  H  H14  1  0.117400  0.517800  0.604800  1.0  0.1154
  H  H15  1  0.487400  0.153700  0.766000  1.0  0.3844
  H  H16  1  0.716800  0.422300  0.576300  1.0  0.3996
  H  H17  1  0.871500  0.053300  0.696700  1.0  0.4094
  H  H18  1  0.378700  0.917200  0.705200  1.0  0.1231
  H  H19  1  0.261800  0.961800  0.767900  1.0  0.1318
  H  H20  1  0.508300  0.801400  0.911700  1.0  0.0809
  H  H21  1  0.315900  0.749400  0.881400  1.0  0.0839
  H  H22  1  0.188600  0.953000  0.880400  1.0  0.1206
  H  H23  1  0.382600  0.017800  0.895200  1.0  0.1162
  H  H24  1  0.012600  0.653700  0.734000  1.0  0.3815
  H  H25  1  0.783200  0.922300  0.923700  1.0  0.3982
  H  H26  1  0.628500  0.553300  0.803300  1.0  0.4096
  H  H27  1  0.878700  0.582800  0.205200  1.0  0.123
  H  H28  1  0.761800  0.538200  0.267900  1.0  0.1324
  H  H29  1  0.008300  0.698600  0.411700  1.0  0.0801
  H  H30  1  0.815900  0.750600  0.381400  1.0  0.0811
  H  H31  1  0.688600  0.547000  0.380400  1.0  0.1212
  H  H32  1  0.882600  0.482200  0.395200  1.0  0.1145
  H  H33  1  0.512600  0.846300  0.234000  1.0  0.3823
  H  H34  1  0.283200  0.577700  0.423700  1.0  0.3983
  H  H35  1  0.128500  0.946700  0.303300  1.0  0.4094
  H  H36  1  0.621300  0.082800  0.294800  1.0  0.1239
  H  H37  1  0.738200  0.038200  0.232100  1.0  0.1323
  H  H38  1  0.491700  0.198600  0.088300  1.0  0.081
  H  H39  1  0.684100  0.250600  0.118600  1.0  0.0803
  H  H40  1  0.811400  0.047000  0.119600  1.0  0.1307
  H  H41  1  0.617400  0.982200  0.104800  1.0  0.1113
  H  H42  1  0.987400  0.346300  0.266000  1.0  0.3852
  H  H43  1  0.216800  0.077700  0.076300  1.0  0.3987
  H  H44  1  0.371500  0.446700  0.196700  1.0  0.41
  C  C45  1  0.335000  0.296500  0.779400  1.0  0.7213
  C  C46  1  0.182900  0.387100  0.753510  1.0  -0.2986
  C  C47  1  0.035000  0.330300  0.698280  1.0  -0.4063
  C  C48  1  0.098400  0.320900  0.620720  1.0  -0.0339
  C  C49  1  0.191400  0.443300  0.593910  1.0  -0.3673
  C  C50  1  0.216200  0.441400  0.514500  1.0  0.8081
  C  C51  1  0.978500  0.200400  0.726600  1.0  0.7169
  C  C52  1  0.165000  0.796500  0.720600  1.0  0.7185
  C  C53  1  0.317100  0.887100  0.746490  1.0  -0.2971
  C  C54  1  0.465000  0.830300  0.801720  1.0  -0.4049
  C  C55  1  0.401600  0.820900  0.879280  1.0  -0.0257
  C  C56  1  0.308600  0.943300  0.906090  1.0  -0.3571
  C  C57  1  0.283800  0.941400  0.985500  1.0  0.8068
  C  C58  1  0.521500  0.700400  0.773400  1.0  0.715
  C  C59  1  0.665000  0.703500  0.220600  1.0  0.7177
  C  C60  1  0.817100  0.612900  0.246490  1.0  -0.2977
  C  C61  1  0.965000  0.669700  0.301720  1.0  -0.4058
  C  C62  1  0.901600  0.679100  0.379280  1.0  -0.0363
  C  C63  1  0.808600  0.556700  0.406090  1.0  -0.3551
  C  C64  1  0.783800  0.558600  0.485500  1.0  0.8068
  C  C65  1  0.021500  0.799600  0.273400  1.0  0.7166
  C  C66  1  0.835000  0.203500  0.279400  1.0  0.7219
  C  C67  1  0.682900  0.112900  0.253510  1.0  -0.3014
  C  C68  1  0.535000  0.169700  0.198280  1.0  -0.4047
  C  C69  1  0.598400  0.179100  0.120720  1.0  -0.0387
  C  C70  1  0.691400  0.056700  0.093910  1.0  -0.3658
  C  C71  1  0.716200  0.058600  0.014500  1.0  0.8063
  C  C72  1  0.478500  0.299600  0.226600  1.0  0.7169
  O  O73  1  0.417900  0.309400  0.838700  1.0  -0.647
  O  O74  1  0.372300  0.204000  0.735280  1.0  -0.488
  O  O75  1  0.186200  0.349400  0.475650  1.0  -0.7435
  O  O76  1  0.275800  0.552500  0.492320  1.0  -0.6023
  O  O77  1  0.982200  0.176800  0.790760  1.0  -0.6404
  O  O78  1  0.919000  0.117100  0.677540  1.0  -0.5025
  O  O79  1  0.747100  0.411000  0.772560  1.0  -0.9537
  O  O80  1  0.889300  0.572900  0.692190  1.0  -0.8904
  O  O81  1  0.691400  0.395400  0.637280  1.0  -0.7212
  O  O82  1  0.082100  0.809400  0.661300  1.0  -0.6456
  O  O83  1  0.127700  0.704000  0.764720  1.0  -0.488
  O  O84  1  0.313800  0.849400  0.024350  1.0  -0.7447
  O  O85  1  0.224200  0.052500  0.007680  1.0  -0.6118
  O  O86  1  0.517800  0.676800  0.709240  1.0  -0.638
  O  O87  1  0.581000  0.617100  0.822460  1.0  -0.5054
  O  O88  1  0.752900  0.911000  0.727440  1.0  -0.9505
  O  O89  1  0.610700  0.072900  0.807810  1.0  -0.8951
  O  O90  1  0.808600  0.895400  0.862720  1.0  -0.7102
  O  O91  1  0.582100  0.690600  0.161300  1.0  -0.6459
  O  O92  1  0.627700  0.796000  0.264720  1.0  -0.4883
  O  O93  1  0.813800  0.650600  0.524350  1.0  -0.7433
  O  O94  1  0.724200  0.447500  0.507680  1.0  -0.6109
  O  O95  1  0.017800  0.823200  0.209240  1.0  -0.6378
  O  O96  1  0.081000  0.882900  0.322460  1.0  -0.5052
  O  O97  1  0.252900  0.589000  0.227440  1.0  -0.9543
  O  O98  1  0.110700  0.427100  0.307810  1.0  -0.8788
  O  O99  1  0.308600  0.604600  0.362720  1.0  -0.7109
  O  O100  1  0.917900  0.190600  0.338700  1.0  -0.647
  O  O101  1  0.872300  0.296000  0.235280  1.0  -0.4876
  O  O102  1  0.686200  0.150600  0.975650  1.0  -0.7415
  O  O103  1  0.775800  0.947500  0.992320  1.0  -0.6009
  O  O104  1  0.482200  0.323200  0.290760  1.0  -0.6404
  O  O105  1  0.419000  0.382900  0.177540  1.0  -0.5021
  O  O106  1  0.247100  0.089000  0.272560  1.0  -0.9566
  O  O107  1  0.389300  0.927100  0.192190  1.0  -0.8786
  O  O108  1  0.191400  0.104600  0.137280  1.0  -0.7204
