# generated using pymatgen
data_ZnH2(C3O2)2
_symmetry_space_group_name_H-M   'P 1'
_cell_length_a   13.69290000
_cell_length_b   13.69290000
_cell_length_c   50.66400000
_cell_angle_alpha   90.00000000
_cell_angle_beta   90.00000000
_cell_angle_gamma   90.00000000
_symmetry_Int_Tables_number   1
_chemical_formula_structural   ZnH2(C3O2)2
_chemical_formula_sum   'Zn24 H48 C144 O96'
_cell_volume   9499.27253941
_cell_formula_units_Z   24
loop_
 _symmetry_equiv_pos_site_id
 _symmetry_equiv_pos_as_xyz
  1  'x, y, z'
loop_
 _atom_site_type_symbol
 _atom_site_label
 _atom_site_symmetry_multiplicity
 _atom_site_fract_x
 _atom_site_fract_y
 _atom_site_fract_z
 _atom_site_occupancy
 _atom_site_charge
  Zn  Zn1  1  0.995250  0.584510  0.882330  1.0  1.024
  Zn  Zn2  1  0.361980  0.487990  0.755320  1.0  1.1435
  Zn  Zn3  1  0.946030  0.731030  0.831890  1.0  0.9131
  Zn  Zn4  1  0.004750  0.415490  0.382330  1.0  1.0228
  Zn  Zn5  1  0.638020  0.512010  0.255320  1.0  1.1461
  Zn  Zn6  1  0.053970  0.268970  0.331890  1.0  0.9124
  Zn  Zn7  1  0.915490  0.495250  0.632330  1.0  1.0215
  Zn  Zn8  1  0.012010  0.861980  0.505320  1.0  1.1436
  Zn  Zn9  1  0.768970  0.446030  0.581890  1.0  0.9131
  Zn  Zn10  1  0.084510  0.504750  0.132330  1.0  1.0212
  Zn  Zn11  1  0.987990  0.138020  0.005320  1.0  1.1437
  Zn  Zn12  1  0.231030  0.553970  0.081890  1.0  0.9086
  Zn  Zn13  1  0.504750  0.084510  0.867670  1.0  1.0245
  Zn  Zn14  1  0.138020  0.987990  0.994680  1.0  1.1452
  Zn  Zn15  1  0.553970  0.231030  0.918110  1.0  0.9104
  Zn  Zn16  1  0.495250  0.915490  0.367670  1.0  1.0248
  Zn  Zn17  1  0.861980  0.012010  0.494680  1.0  1.1443
  Zn  Zn18  1  0.446030  0.768970  0.418110  1.0  0.9094
  Zn  Zn19  1  0.584510  0.995250  0.117670  1.0  1.0229
  Zn  Zn20  1  0.487990  0.361980  0.244680  1.0  1.1433
  Zn  Zn21  1  0.731030  0.946030  0.168110  1.0  0.9074
  Zn  Zn22  1  0.415490  0.004750  0.617670  1.0  1.0231
  Zn  Zn23  1  0.512010  0.638020  0.744680  1.0  1.1449
  Zn  Zn24  1  0.268970  0.053970  0.668110  1.0  0.9104
  H  H25  1  0.256800  0.836200  0.874400  1.0  0.1168
  H  H26  1  0.427100  0.836900  0.810100  1.0  0.1078
  H  H27  1  0.212700  0.639200  0.816700  1.0  0.1143
  H  H28  1  0.962100  0.839600  0.934700  1.0  0.1072
  H  H29  1  0.779300  0.061400  0.946300  1.0  0.1149
  H  H30  1  0.733500  0.874500  0.886300  1.0  0.1061
  H  H31  1  0.743200  0.163800  0.374400  1.0  0.1171
  H  H32  1  0.572900  0.163100  0.310100  1.0  0.108
  H  H33  1  0.787300  0.360800  0.316700  1.0  0.114
  H  H34  1  0.037900  0.160400  0.434700  1.0  0.1073
  H  H35  1  0.220700  0.938600  0.446300  1.0  0.1147
  H  H36  1  0.266500  0.125500  0.386300  1.0  0.1064
  H  H37  1  0.663800  0.756800  0.624400  1.0  0.1171
  H  H38  1  0.663100  0.927100  0.560100  1.0  0.108
  H  H39  1  0.860800  0.712700  0.566700  1.0  0.114
  H  H40  1  0.660400  0.462100  0.684700  1.0  0.1067
  H  H41  1  0.438600  0.279300  0.696300  1.0  0.1146
  H  H42  1  0.625500  0.233500  0.636300  1.0  0.106
  H  H43  1  0.336200  0.243200  0.124400  1.0  0.1167
  H  H44  1  0.336900  0.072900  0.060100  1.0  0.1075
  H  H45  1  0.139200  0.287300  0.066700  1.0  0.114
  H  H46  1  0.339600  0.537900  0.184700  1.0  0.1068
  H  H47  1  0.561400  0.720700  0.196300  1.0  0.1147
  H  H48  1  0.374500  0.766500  0.136300  1.0  0.1063
  H  H49  1  0.243200  0.336200  0.875600  1.0  0.1172
  H  H50  1  0.072900  0.336900  0.939900  1.0  0.108
  H  H51  1  0.287300  0.139200  0.933300  1.0  0.1142
  H  H52  1  0.537900  0.339600  0.815300  1.0  0.1071
  H  H53  1  0.720700  0.561400  0.803700  1.0  0.1147
  H  H54  1  0.766500  0.374500  0.863700  1.0  0.1061
  H  H55  1  0.756800  0.663800  0.375600  1.0  0.1172
  H  H56  1  0.927100  0.663100  0.439900  1.0  0.108
  H  H57  1  0.712700  0.860800  0.433300  1.0  0.1144
  H  H58  1  0.462100  0.660400  0.315300  1.0  0.1073
  H  H59  1  0.279300  0.438600  0.303700  1.0  0.1145
  H  H60  1  0.233500  0.625500  0.363700  1.0  0.1065
  H  H61  1  0.836200  0.256800  0.125600  1.0  0.1173
  H  H62  1  0.836900  0.427100  0.189900  1.0  0.1079
  H  H63  1  0.639200  0.212700  0.183300  1.0  0.1142
  H  H64  1  0.839600  0.962100  0.065300  1.0  0.1071
  H  H65  1  0.061400  0.779300  0.053700  1.0  0.1144
  H  H66  1  0.874500  0.733500  0.113700  1.0  0.1064
  H  H67  1  0.163800  0.743200  0.625600  1.0  0.1171
  H  H68  1  0.163100  0.572900  0.689900  1.0  0.1077
  H  H69  1  0.360800  0.787300  0.683300  1.0  0.1139
  H  H70  1  0.160400  0.037900  0.565300  1.0  0.1062
  H  H71  1  0.938600  0.220700  0.553700  1.0  0.1147
  H  H72  1  0.125500  0.266500  0.613700  1.0  0.1061
  C  C73  1  0.138700  0.692000  0.864330  1.0  0.6557
  C  C74  1  0.220300  0.733900  0.847620  1.0  -0.1173
  C  C75  1  0.272900  0.811400  0.857910  1.0  0.0179
  C  C76  1  0.349700  0.852400  0.843700  1.0  -0.1799
  C  C77  1  0.376300  0.809900  0.819830  1.0  0.0292
  C  C78  1  0.328600  0.728200  0.810340  1.0  -0.1493
  C  C79  1  0.247900  0.691300  0.823650  1.0  0.0106
  C  C80  1  0.403700  0.937200  0.854740  1.0  0.6459
  C  C81  1  0.365400  0.675300  0.786440  1.0  0.7324
  C  C82  1  0.886400  0.755700  0.891890  1.0  0.7091
  C  C83  1  0.852000  0.841700  0.908060  1.0  -0.06
  C  C84  1  0.907100  0.874500  0.929550  1.0  0.0206
  C  C85  1  0.881700  0.956100  0.942900  1.0  -0.1744
  C  C86  1  0.797700  0.006800  0.936520  1.0  0.0137
  C  C87  1  0.740200  0.975100  0.915140  1.0  -0.1903
  C  C88  1  0.769600  0.894100  0.900890  1.0  0.0234
  C  C89  1  0.946000  0.995700  0.965400  1.0  0.7184
  C  C90  1  0.651400  0.035700  0.907610  1.0  0.7314
  C  C91  1  0.861300  0.308000  0.364330  1.0  0.6561
  C  C92  1  0.779700  0.266100  0.347620  1.0  -0.1174
  C  C93  1  0.727100  0.188600  0.357910  1.0  0.0188
  C  C94  1  0.650300  0.147600  0.343700  1.0  -0.1804
  C  C95  1  0.623700  0.190100  0.319830  1.0  0.0297
  C  C96  1  0.671400  0.271800  0.310340  1.0  -0.1486
  C  C97  1  0.752100  0.308700  0.323650  1.0  0.0105
  C  C98  1  0.596300  0.062800  0.354740  1.0  0.6463
  C  C99  1  0.634600  0.324700  0.286440  1.0  0.7333
  C  C100  1  0.113600  0.244300  0.391890  1.0  0.7096
  C  C101  1  0.148000  0.158300  0.408060  1.0  -0.0597
  C  C102  1  0.092900  0.125500  0.429550  1.0  0.0216
  C  C103  1  0.118300  0.043900  0.442900  1.0  -0.1747
  C  C104  1  0.202300  0.993200  0.436520  1.0  0.0158
  C  C105  1  0.259800  0.024900  0.415140  1.0  -0.1906
  C  C106  1  0.230400  0.105900  0.400890  1.0  0.0238
  C  C107  1  0.054000  0.004300  0.465400  1.0  0.7194
  C  C108  1  0.348600  0.964300  0.407610  1.0  0.7318
  C  C109  1  0.808000  0.638700  0.614330  1.0  0.6568
  C  C110  1  0.766100  0.720300  0.597620  1.0  -0.1174
  C  C111  1  0.688600  0.772900  0.607910  1.0  0.0173
  C  C112  1  0.647600  0.849700  0.593700  1.0  -0.1792
  C  C113  1  0.690100  0.876300  0.569830  1.0  0.0312
  C  C114  1  0.771800  0.828600  0.560340  1.0  -0.1493
  C  C115  1  0.808700  0.747900  0.573650  1.0  0.0103
  C  C116  1  0.562800  0.903700  0.604740  1.0  0.6439
  C  C117  1  0.824700  0.865400  0.536440  1.0  0.7318
  C  C118  1  0.744300  0.386400  0.641890  1.0  0.7105
  C  C119  1  0.658300  0.352000  0.658060  1.0  -0.0604
  C  C120  1  0.625500  0.407100  0.679550  1.0  0.0213
  C  C121  1  0.543900  0.381700  0.692900  1.0  -0.1744
  C  C122  1  0.493200  0.297700  0.686520  1.0  0.0151
  C  C123  1  0.524900  0.240200  0.665140  1.0  -0.1921
  C  C124  1  0.605900  0.269600  0.650890  1.0  0.0237
  C  C125  1  0.504300  0.446000  0.715400  1.0  0.7196
  C  C126  1  0.464300  0.151400  0.657610  1.0  0.7309
  C  C127  1  0.192000  0.361300  0.114330  1.0  0.6568
  C  C128  1  0.233900  0.279700  0.097620  1.0  -0.1174
  C  C129  1  0.311400  0.227100  0.107910  1.0  0.0177
  C  C130  1  0.352400  0.150300  0.093700  1.0  -0.1804
  C  C131  1  0.309900  0.123700  0.069830  1.0  0.0307
  C  C132  1  0.228200  0.171400  0.060340  1.0  -0.1493
  C  C133  1  0.191300  0.252100  0.073650  1.0  0.0108
  C  C134  1  0.437200  0.096300  0.104740  1.0  0.6444
  C  C135  1  0.175300  0.134600  0.036440  1.0  0.7322
  C  C136  1  0.255700  0.613600  0.141890  1.0  0.7098
  C  C137  1  0.341700  0.648000  0.158060  1.0  -0.0601
  C  C138  1  0.374500  0.592900  0.179550  1.0  0.0208
  C  C139  1  0.456100  0.618300  0.192900  1.0  -0.174
  C  C140  1  0.506800  0.702300  0.186520  1.0  0.0146
  C  C141  1  0.475100  0.759800  0.165140  1.0  -0.1913
  C  C142  1  0.394100  0.730400  0.150890  1.0  0.0231
  C  C143  1  0.495700  0.554000  0.215400  1.0  0.7195
  C  C144  1  0.535700  0.848600  0.157610  1.0  0.7309
  C  C145  1  0.361300  0.192000  0.885670  1.0  0.6557
  C  C146  1  0.279700  0.233900  0.902380  1.0  -0.1173
  C  C147  1  0.227100  0.311400  0.892090  1.0  0.0179
  C  C148  1  0.150300  0.352400  0.906300  1.0  -0.1791
  C  C149  1  0.123700  0.309900  0.930170  1.0  0.0292
  C  C150  1  0.171400  0.228200  0.939660  1.0  -0.1498
  C  C151  1  0.252100  0.191300  0.926350  1.0  0.0113
  C  C152  1  0.096300  0.437200  0.895260  1.0  0.6457
  C  C153  1  0.134600  0.175300  0.963560  1.0  0.7332
  C  C154  1  0.613600  0.255700  0.858110  1.0  0.7093
  C  C155  1  0.648000  0.341700  0.841940  1.0  -0.0605
  C  C156  1  0.592900  0.374500  0.820450  1.0  0.0211
  C  C157  1  0.618300  0.456100  0.807100  1.0  -0.1747
  C  C158  1  0.702300  0.506800  0.813480  1.0  0.0153
  C  C159  1  0.759800  0.475100  0.834860  1.0  -0.1905
  C  C160  1  0.730400  0.394100  0.849110  1.0  0.024
  C  C161  1  0.554000  0.495700  0.784600  1.0  0.7195
  C  C162  1  0.848600  0.535700  0.842390  1.0  0.7318
  C  C163  1  0.638700  0.808000  0.385670  1.0  0.6559
  C  C164  1  0.720300  0.766100  0.402380  1.0  -0.1175
  C  C165  1  0.772900  0.688600  0.392090  1.0  0.0186
  C  C166  1  0.849700  0.647600  0.406300  1.0  -0.1806
  C  C167  1  0.876300  0.690100  0.430170  1.0  0.0293
  C  C168  1  0.828600  0.771800  0.439660  1.0  -0.1498
  C  C169  1  0.747900  0.808700  0.426350  1.0  0.011
  C  C170  1  0.903700  0.562800  0.395260  1.0  0.6456
  C  C171  1  0.865400  0.824700  0.463560  1.0  0.7323
  C  C172  1  0.386400  0.744300  0.358110  1.0  0.7102
  C  C173  1  0.352000  0.658300  0.341940  1.0  -0.0607
  C  C174  1  0.407100  0.625500  0.320450  1.0  0.0216
  C  C175  1  0.381700  0.543900  0.307100  1.0  -0.1746
  C  C176  1  0.297700  0.493200  0.313480  1.0  0.0145
  C  C177  1  0.240200  0.524900  0.334860  1.0  -0.1903
  C  C178  1  0.269600  0.605900  0.349110  1.0  0.0237
  C  C179  1  0.446000  0.504300  0.284600  1.0  0.7188
  C  C180  1  0.151400  0.464300  0.342390  1.0  0.7319
  C  C181  1  0.692000  0.138700  0.135670  1.0  0.6561
  C  C182  1  0.733900  0.220300  0.152380  1.0  -0.1178
  C  C183  1  0.811400  0.272900  0.142090  1.0  0.0173
  C  C184  1  0.852400  0.349700  0.156300  1.0  -0.1798
  C  C185  1  0.809900  0.376300  0.180170  1.0  0.0308
  C  C186  1  0.728200  0.328600  0.189660  1.0  -0.1498
  C  C187  1  0.691300  0.247900  0.176350  1.0  0.0114
  C  C188  1  0.937200  0.403700  0.145260  1.0  0.6443
  C  C189  1  0.675300  0.365400  0.213560  1.0  0.7325
  C  C190  1  0.755700  0.886400  0.108110  1.0  0.7103
  C  C191  1  0.841700  0.852000  0.091940  1.0  -0.0609
  C  C192  1  0.874500  0.907100  0.070450  1.0  0.0211
  C  C193  1  0.956100  0.881700  0.057100  1.0  -0.1745
  C  C194  1  0.006800  0.797700  0.063480  1.0  0.0148
  C  C195  1  0.975100  0.740200  0.084860  1.0  -0.192
  C  C196  1  0.894100  0.769600  0.099110  1.0  0.0236
  C  C197  1  0.995700  0.946000  0.034600  1.0  0.7201
  C  C198  1  0.035700  0.651400  0.092390  1.0  0.731
  C  C199  1  0.308000  0.861300  0.635670  1.0  0.6573
  C  C200  1  0.266100  0.779700  0.652380  1.0  -0.1173
  C  C201  1  0.188600  0.727100  0.642090  1.0  0.0181
  C  C202  1  0.147600  0.650300  0.656300  1.0  -0.1796
  C  C203  1  0.190100  0.623700  0.680170  1.0  0.031
  C  C204  1  0.271800  0.671400  0.689660  1.0  -0.1507
  C  C205  1  0.308700  0.752100  0.676350  1.0  0.0107
  C  C206  1  0.062800  0.596300  0.645260  1.0  0.644
  C  C207  1  0.324700  0.634600  0.713560  1.0  0.7319
  C  C208  1  0.244300  0.113600  0.608110  1.0  0.7105
  C  C209  1  0.158300  0.148000  0.591940  1.0  -0.0611
  C  C210  1  0.125500  0.092900  0.570450  1.0  0.0212
  C  C211  1  0.043900  0.118300  0.557100  1.0  -0.1745
  C  C212  1  0.993200  0.202300  0.563480  1.0  0.0148
  C  C213  1  0.024900  0.259800  0.584860  1.0  -0.1911
  C  C214  1  0.105900  0.230400  0.599110  1.0  0.0238
  C  C215  1  0.004300  0.054000  0.534600  1.0  0.7194
  C  C216  1  0.964300  0.348600  0.592390  1.0  0.7308
  O  O217  1  0.061400  0.659000  0.852490  1.0  -0.6744
  O  O218  1  0.147100  0.686600  0.888260  1.0  -0.5395
  O  O219  1  0.321100  0.600100  0.779760  1.0  -0.6251
  O  O220  1  0.441600  0.708200  0.775320  1.0  -0.6113
  O  O221  1  0.385300  0.961600  0.878030  1.0  -0.5742
  O  O222  1  0.463200  0.982300  0.840590  1.0  -0.5666
  O  O223  1  0.929400  0.689100  0.903470  1.0  -0.5622
  O  O224  1  0.868500  0.759800  0.867500  1.0  -0.6619
  O  O225  1  0.027200  0.957200  0.968250  1.0  -0.6255
  O  O226  1  0.913100  0.065800  0.977990  1.0  -0.5972
  O  O227  1  0.614800  0.014800  0.885020  1.0  -0.5886
  O  O228  1  0.624700  0.100300  0.922590  1.0  -0.5571
  O  O229  1  0.938600  0.341000  0.352490  1.0  -0.6741
  O  O230  1  0.852900  0.313400  0.388260  1.0  -0.5408
  O  O231  1  0.678900  0.399900  0.279760  1.0  -0.6261
  O  O232  1  0.558400  0.291800  0.275320  1.0  -0.6118
  O  O233  1  0.614700  0.038400  0.378030  1.0  -0.5738
  O  O234  1  0.536800  0.017700  0.340590  1.0  -0.5659
  O  O235  1  0.070600  0.310900  0.403470  1.0  -0.5623
  O  O236  1  0.131500  0.240200  0.367500  1.0  -0.6626
  O  O237  1  0.972800  0.042800  0.468250  1.0  -0.6253
  O  O238  1  0.086900  0.934200  0.477990  1.0  -0.5983
  O  O239  1  0.385200  0.985200  0.385020  1.0  -0.5888
  O  O240  1  0.375300  0.899700  0.422590  1.0  -0.5584
  O  O241  1  0.841000  0.561400  0.602490  1.0  -0.6754
  O  O242  1  0.813400  0.647100  0.638260  1.0  -0.5398
  O  O243  1  0.899900  0.821100  0.529760  1.0  -0.624
  O  O244  1  0.791800  0.941600  0.525320  1.0  -0.6113
  O  O245  1  0.538400  0.885300  0.628030  1.0  -0.5759
  O  O246  1  0.517700  0.963200  0.590590  1.0  -0.5672
  O  O247  1  0.810900  0.429400  0.653470  1.0  -0.5602
  O  O248  1  0.740200  0.368500  0.617500  1.0  -0.6633
  O  O249  1  0.542800  0.527200  0.718250  1.0  -0.626
  O  O250  1  0.434200  0.413100  0.727990  1.0  -0.5958
  O  O251  1  0.485200  0.114800  0.635020  1.0  -0.5891
  O  O252  1  0.399700  0.124700  0.672590  1.0  -0.5582
  O  O253  1  0.159000  0.438600  0.102490  1.0  -0.6744
  O  O254  1  0.186600  0.352900  0.138260  1.0  -0.54
  O  O255  1  0.100100  0.178900  0.029760  1.0  -0.6243
  O  O256  1  0.208200  0.058400  0.025320  1.0  -0.6094
  O  O257  1  0.461600  0.114700  0.128030  1.0  -0.5762
  O  O258  1  0.482300  0.036800  0.090590  1.0  -0.5652
  O  O259  1  0.189100  0.570600  0.153470  1.0  -0.5627
  O  O260  1  0.259800  0.631500  0.117500  1.0  -0.6641
  O  O261  1  0.457200  0.472800  0.218250  1.0  -0.6259
  O  O262  1  0.565800  0.586900  0.227990  1.0  -0.5975
  O  O263  1  0.514800  0.885200  0.135020  1.0  -0.588
  O  O264  1  0.600300  0.875300  0.172590  1.0  -0.558
  O  O265  1  0.438600  0.159000  0.897510  1.0  -0.6731
  O  O266  1  0.352900  0.186600  0.861740  1.0  -0.5393
  O  O267  1  0.178900  0.100100  0.970240  1.0  -0.6264
  O  O268  1  0.058400  0.208200  0.974680  1.0  -0.6115
  O  O269  1  0.114700  0.461600  0.871970  1.0  -0.5737
  O  O270  1  0.036800  0.482300  0.909410  1.0  -0.5669
  O  O271  1  0.570600  0.189100  0.846530  1.0  -0.5613
  O  O272  1  0.631500  0.259800  0.882500  1.0  -0.6618
  O  O273  1  0.472800  0.457200  0.781750  1.0  -0.6256
  O  O274  1  0.586900  0.565800  0.772010  1.0  -0.598
  O  O275  1  0.885200  0.514800  0.864980  1.0  -0.5892
  O  O276  1  0.875300  0.600300  0.827410  1.0  -0.5579
  O  O277  1  0.561400  0.841000  0.397510  1.0  -0.6737
  O  O278  1  0.647100  0.813400  0.361740  1.0  -0.539
  O  O279  1  0.821100  0.899900  0.470240  1.0  -0.6264
  O  O280  1  0.941600  0.791800  0.474680  1.0  -0.6108
  O  O281  1  0.885300  0.538400  0.371970  1.0  -0.5746
  O  O282  1  0.963200  0.517700  0.409410  1.0  -0.5667
  O  O283  1  0.429400  0.810900  0.346530  1.0  -0.5628
  O  O284  1  0.368500  0.740200  0.382500  1.0  -0.6616
  O  O285  1  0.527200  0.542800  0.281750  1.0  -0.6255
  O  O286  1  0.413100  0.434200  0.272010  1.0  -0.5976
  O  O287  1  0.114800  0.485200  0.364980  1.0  -0.5889
  O  O288  1  0.124700  0.399700  0.327410  1.0  -0.5571
  O  O289  1  0.659000  0.061400  0.147510  1.0  -0.6742
  O  O290  1  0.686600  0.147100  0.111740  1.0  -0.5387
  O  O291  1  0.600100  0.321100  0.220240  1.0  -0.6251
  O  O292  1  0.708200  0.441600  0.224680  1.0  -0.6092
  O  O293  1  0.961600  0.385300  0.121970  1.0  -0.5757
  O  O294  1  0.982300  0.463200  0.159410  1.0  -0.5659
  O  O295  1  0.689100  0.929400  0.096530  1.0  -0.5602
  O  O296  1  0.759800  0.868500  0.132500  1.0  -0.6637
  O  O297  1  0.957200  0.027200  0.031750  1.0  -0.626
  O  O298  1  0.065800  0.913100  0.022010  1.0  -0.5971
  O  O299  1  0.014800  0.614800  0.114980  1.0  -0.5884
  O  O300  1  0.100300  0.624700  0.077410  1.0  -0.5583
  O  O301  1  0.341000  0.938600  0.647510  1.0  -0.6736
  O  O302  1  0.313400  0.852900  0.611740  1.0  -0.5395
  O  O303  1  0.399900  0.678900  0.720240  1.0  -0.6252
  O  O304  1  0.291800  0.558400  0.724680  1.0  -0.6089
  O  O305  1  0.038400  0.614700  0.621970  1.0  -0.576
  O  O306  1  0.017700  0.536800  0.659410  1.0  -0.5669
  O  O307  1  0.310900  0.070600  0.596530  1.0  -0.5605
  O  O308  1  0.240200  0.131500  0.632500  1.0  -0.663
  O  O309  1  0.042800  0.972800  0.531750  1.0  -0.6266
  O  O310  1  0.934200  0.086900  0.522010  1.0  -0.5977
  O  O311  1  0.985200  0.385200  0.614980  1.0  -0.5883
  O  O312  1  0.899700  0.375300  0.577410  1.0  -0.5579
