# generated using pymatgen
data_Ag3(CN)4
_symmetry_space_group_name_H-M   'P 1'
_cell_length_a   11.43030000
_cell_length_b   8.85460000
_cell_length_c   15.60000000
_cell_angle_alpha   90.00000000
_cell_angle_beta   114.81000000
_cell_angle_gamma   90.00000000
_symmetry_Int_Tables_number   1
_chemical_formula_structural   Ag3(CN)4
_chemical_formula_sum   'Ag12 C16 N16'
_cell_volume   1433.16286466
_cell_formula_units_Z   4
loop_
 _symmetry_equiv_pos_site_id
 _symmetry_equiv_pos_as_xyz
  1  'x, y, z'
loop_
 _atom_site_type_symbol
 _atom_site_label
 _atom_site_symmetry_multiplicity
 _atom_site_fract_x
 _atom_site_fract_y
 _atom_site_fract_z
 _atom_site_occupancy
 _atom_site_charge
  Ag  Ag1  1  0.294000  0.007440  0.066830  1.0  0.3826
  Ag  Ag2  1  0.201230  0.538050  0.879730  1.0  0.4299
  Ag  Ag3  1  0.706000  0.507440  0.433170  1.0  0.3864
  Ag  Ag4  1  0.798770  0.038050  0.620270  1.0  0.4259
  Ag  Ag5  1  0.706000  0.992560  0.933170  1.0  0.3867
  Ag  Ag6  1  0.798770  0.461950  0.120270  1.0  0.4261
  Ag  Ag7  1  0.294000  0.492560  0.566830  1.0  0.3828
  Ag  Ag8  1  0.201230  0.961950  0.379730  1.0  0.43
  Ag  Ag9  1  0.000000  0.000000  0.000000  1.0  0.389
  Ag  Ag10  1  0.000000  0.500000  0.500000  1.0  0.389
  Ag  Ag11  1  0.500000  0.500000  0.000000  1.0  0.3573
  Ag  Ag12  1  0.500000  0.000000  0.500000  1.0  0.3573
  C  C13  1  0.214400  0.328300  0.961300  1.0  -0.0346
  C  C14  1  0.441700  0.704300  0.035500  1.0  0.0684
  C  C15  1  0.256800  0.541700  0.764000  1.0  0.1044
  C  C16  1  0.059300  0.814200  0.949000  1.0  0.0724
  C  C17  1  0.785600  0.828300  0.538700  1.0  -0.0352
  C  C18  1  0.558300  0.204300  0.464500  1.0  0.0692
  C  C19  1  0.743200  0.041700  0.736000  1.0  0.1024
  C  C20  1  0.940700  0.314200  0.551000  1.0  0.0727
  C  C21  1  0.785600  0.671700  0.038700  1.0  -0.0353
  C  C22  1  0.558300  0.295700  0.964500  1.0  0.0674
  C  C23  1  0.743200  0.458300  0.236000  1.0  0.103
  C  C24  1  0.940700  0.185800  0.051000  1.0  0.0726
  C  C25  1  0.214400  0.171700  0.461300  1.0  -0.035
  C  C26  1  0.441700  0.795700  0.535500  1.0  0.068
  C  C27  1  0.256800  0.958300  0.264000  1.0  0.1044
  C  C28  1  0.059300  0.685800  0.449000  1.0  0.0851
  N  N29  1  0.242600  0.215700  0.994800  1.0  -0.4042
  N  N30  1  0.407500  0.813500  0.054060  1.0  -0.4041
  N  N31  1  0.283700  0.540300  0.708900  1.0  -0.1682
  N  N32  1  0.091700  0.713000  0.919400  1.0  -0.4207
  N  N33  1  0.757400  0.715700  0.505200  1.0  -0.4048
  N  N34  1  0.592500  0.313500  0.445940  1.0  -0.4039
  N  N35  1  0.716300  0.040300  0.791100  1.0  -0.1684
  N  N36  1  0.908300  0.213000  0.580600  1.0  -0.4181
  N  N37  1  0.757400  0.784300  0.005200  1.0  -0.4086
  N  N38  1  0.592500  0.186500  0.945940  1.0  -0.4024
  N  N39  1  0.716300  0.459700  0.291100  1.0  -0.1682
  N  N40  1  0.908300  0.287000  0.080600  1.0  -0.4215
  N  N41  1  0.242600  0.284300  0.494800  1.0  -0.4078
  N  N42  1  0.407500  0.686500  0.554060  1.0  -0.4007
  N  N43  1  0.283700  0.959700  0.208900  1.0  -0.1681
  N  N44  1  0.091700  0.787000  0.419400  1.0  -0.4231
