# generated using pymatgen
data_NiH3C5N2ClO2
_symmetry_space_group_name_H-M   'P 1'
_cell_length_a   7.18970000
_cell_length_b   10.63000000
_cell_length_c   11.54300000
_cell_angle_alpha   90.00000000
_cell_angle_beta   90.00000000
_cell_angle_gamma   90.00000000
_symmetry_Int_Tables_number   1
_chemical_formula_structural   NiH3C5N2ClO2
_chemical_formula_sum   'Ni4 H12 C20 N8 Cl4 O8'
_cell_volume   882.19121647
_cell_formula_units_Z   4
loop_
 _symmetry_equiv_pos_site_id
 _symmetry_equiv_pos_as_xyz
  1  'x, y, z'
loop_
 _atom_site_type_symbol
 _atom_site_label
 _atom_site_symmetry_multiplicity
 _atom_site_fract_x
 _atom_site_fract_y
 _atom_site_fract_z
 _atom_site_occupancy
 _atom_site_charge
  Ni  Ni1  1  0.739020  0.214830  0.309950  1.0  0.7589
  Ni  Ni2  1  0.239020  0.785170  0.690050  1.0  0.7585
  Ni  Ni3  1  0.739020  0.714830  0.190050  1.0  0.7588
  Ni  Ni4  1  0.239020  0.285170  0.809950  1.0  0.7586
  H  H5  1  0.988300  0.428100  0.974600  1.0  0.0982
  H  H6  1  0.133000  0.073800  0.968000  1.0  0.107
  H  H7  1  0.976700  0.042600  0.136800  1.0  0.0927
  H  H8  1  0.488300  0.571900  0.025400  1.0  0.0976
  H  H9  1  0.633000  0.926200  0.032000  1.0  0.1069
  H  H10  1  0.476700  0.957400  0.863200  1.0  0.0934
  H  H11  1  0.988300  0.928100  0.525400  1.0  0.0979
  H  H12  1  0.133000  0.573800  0.532000  1.0  0.1071
  H  H13  1  0.976700  0.542600  0.363200  1.0  0.0934
  H  H14  1  0.488300  0.071900  0.474600  1.0  0.0976
  H  H15  1  0.633000  0.426200  0.468000  1.0  0.107
  H  H16  1  0.476700  0.457400  0.636800  1.0  0.0931
  C  C17  1  0.793500  0.431800  0.175500  1.0  0.6322
  C  C18  1  0.897900  0.328800  0.110100  1.0  0.0459
  C  C19  1  0.989600  0.348400  0.008000  1.0  0.1413
  C  C20  1  0.073800  0.141300  0.003700  1.0  0.1212
  C  C21  1  0.980400  0.123000  0.105100  1.0  0.1227
  C  C22  1  0.293500  0.568200  0.824500  1.0  0.6323
  C  C23  1  0.397900  0.671200  0.889900  1.0  0.0473
  C  C24  1  0.489600  0.651600  0.992000  1.0  0.141
  C  C25  1  0.573800  0.858700  0.996300  1.0  0.1202
  C  C26  1  0.480400  0.877000  0.894900  1.0  0.1221
  C  C27  1  0.793500  0.931800  0.324500  1.0  0.6324
  C  C28  1  0.897900  0.828800  0.389900  1.0  0.0458
  C  C29  1  0.989600  0.848400  0.492000  1.0  0.1413
  C  C30  1  0.073800  0.641300  0.496300  1.0  0.1207
  C  C31  1  0.980400  0.623000  0.394900  1.0  0.1213
  C  C32  1  0.293500  0.068200  0.675500  1.0  0.6323
  C  C33  1  0.397900  0.171200  0.610100  1.0  0.0474
  C  C34  1  0.489600  0.151600  0.508000  1.0  0.1398
  C  C35  1  0.573800  0.358700  0.503700  1.0  0.1207
  C  C36  1  0.480400  0.377000  0.605100  1.0  0.1222
  N  N37  1  0.894200  0.216300  0.160400  1.0  -0.2457
  N  N38  1  0.081100  0.255000  0.955400  1.0  -0.2417
  N  N39  1  0.394200  0.783700  0.839600  1.0  -0.245
  N  N40  1  0.581100  0.745000  0.044600  1.0  -0.241
  N  N41  1  0.894200  0.716300  0.339600  1.0  -0.2452
  N  N42  1  0.081100  0.755000  0.544600  1.0  -0.241
  N  N43  1  0.394200  0.283700  0.660400  1.0  -0.2456
  N  N44  1  0.581100  0.245000  0.455400  1.0  -0.242
  Cl  Cl45  1  0.469000  0.165200  0.190450  1.0  -0.5433
  Cl  Cl46  1  0.969000  0.834800  0.809550  1.0  -0.543
  Cl  Cl47  1  0.469000  0.665200  0.309550  1.0  -0.5431
  Cl  Cl48  1  0.969000  0.334800  0.690450  1.0  -0.5432
  O  O49  1  0.715600  0.400700  0.266800  1.0  -0.5226
  O  O50  1  0.802400  0.539300  0.131600  1.0  -0.5668
  O  O51  1  0.215600  0.599300  0.733200  1.0  -0.5223
  O  O52  1  0.302400  0.460700  0.868400  1.0  -0.5664
  O  O53  1  0.715600  0.900700  0.233200  1.0  -0.5222
  O  O54  1  0.802400  0.039300  0.368400  1.0  -0.5673
  O  O55  1  0.215600  0.099300  0.766800  1.0  -0.5225
  O  O56  1  0.302400  0.960700  0.631600  1.0  -0.5665
