# generated using pymatgen
data_NiH3C5N2ClO2
_symmetry_space_group_name_H-M   'P 1'
_cell_length_a   7.86510000
_cell_length_b   10.54500000
_cell_length_c   11.20000000
_cell_angle_alpha   90.00000000
_cell_angle_beta   90.00000000
_cell_angle_gamma   90.00000000
_symmetry_Int_Tables_number   1
_chemical_formula_structural   NiH3C5N2ClO2
_chemical_formula_sum   'Ni4 H12 C20 N8 Cl4 O8'
_cell_volume   928.89977040
_cell_formula_units_Z   4
loop_
 _symmetry_equiv_pos_site_id
 _symmetry_equiv_pos_as_xyz
  1  'x, y, z'
loop_
 _atom_site_type_symbol
 _atom_site_label
 _atom_site_symmetry_multiplicity
 _atom_site_fract_x
 _atom_site_fract_y
 _atom_site_fract_z
 _atom_site_occupancy
 _atom_site_charge
  Ni  Ni1  1  0.743080  0.215450  0.321080  1.0  0.7612
  Ni  Ni2  1  0.243080  0.784550  0.678920  1.0  0.7616
  Ni  Ni3  1  0.743080  0.715450  0.178920  1.0  0.7612
  Ni  Ni4  1  0.243080  0.284550  0.821080  1.0  0.7614
  H  H5  1  0.963900  0.037700  0.144400  1.0  0.0871
  H  H6  1  0.995900  0.428100  0.982100  1.0  0.0946
  H  H7  1  0.125500  0.072300  0.979500  1.0  0.0908
  H  H8  1  0.463900  0.962300  0.855600  1.0  0.0871
  H  H9  1  0.495900  0.571900  0.017900  1.0  0.0951
  H  H10  1  0.625500  0.927700  0.020500  1.0  0.0907
  H  H11  1  0.963900  0.537700  0.355600  1.0  0.0875
  H  H12  1  0.995900  0.928100  0.517900  1.0  0.0947
  H  H13  1  0.125500  0.572300  0.520500  1.0  0.0906
  H  H14  1  0.463900  0.462300  0.644400  1.0  0.087
  H  H15  1  0.495900  0.071900  0.482100  1.0  0.0949
  H  H16  1  0.625500  0.427700  0.479500  1.0  0.091
  C  C17  1  0.788600  0.428900  0.173000  1.0  0.6301
  C  C18  1  0.969200  0.119000  0.112400  1.0  0.1261
  C  C19  1  0.890900  0.325800  0.112200  1.0  0.0555
  C  C20  1  0.991500  0.347000  0.014600  1.0  0.1509
  C  C21  1  0.067700  0.140200  0.013500  1.0  0.1329
  C  C22  1  0.288600  0.571100  0.827000  1.0  0.6304
  C  C23  1  0.469200  0.881000  0.887600  1.0  0.1272
  C  C24  1  0.390900  0.674200  0.887800  1.0  0.0562
  C  C25  1  0.491500  0.653000  0.985400  1.0  0.1497
  C  C26  1  0.567700  0.859800  0.986500  1.0  0.1321
  C  C27  1  0.788600  0.928900  0.327000  1.0  0.63
  C  C28  1  0.969200  0.619000  0.387600  1.0  0.126
  C  C29  1  0.890900  0.825800  0.387800  1.0  0.0558
  C  C30  1  0.991500  0.847000  0.485400  1.0  0.1506
  C  C31  1  0.067700  0.640200  0.486500  1.0  0.1321
  C  C32  1  0.288600  0.071100  0.673000  1.0  0.6306
  C  C33  1  0.469200  0.381000  0.612400  1.0  0.1265
  C  C34  1  0.390900  0.174200  0.612200  1.0  0.0559
  C  C35  1  0.491500  0.153000  0.514600  1.0  0.1497
  C  C36  1  0.567700  0.359800  0.513500  1.0  0.1333
  N  N37  1  0.882000  0.210700  0.163200  1.0  -0.2464
  N  N38  1  0.083700  0.254600  0.964400  1.0  -0.2527
  N  N39  1  0.382000  0.789300  0.836800  1.0  -0.2455
  N  N40  1  0.583700  0.745400  0.035600  1.0  -0.2529
  N  N41  1  0.882000  0.710700  0.336800  1.0  -0.2456
  N  N42  1  0.083700  0.754600  0.535600  1.0  -0.2531
  N  N43  1  0.382000  0.289300  0.663200  1.0  -0.2464
  N  N44  1  0.583700  0.245400  0.464400  1.0  -0.2534
  Cl  Cl45  1  0.992100  0.281460  0.438930  1.0  -0.538
  Cl  Cl46  1  0.492100  0.718540  0.561070  1.0  -0.538
  Cl  Cl47  1  0.992100  0.781460  0.061070  1.0  -0.5383
  Cl  Cl48  1  0.492100  0.218540  0.938930  1.0  -0.5379
  O  O49  1  0.714200  0.400400  0.267400  1.0  -0.541
  O  O50  1  0.792700  0.535300  0.124200  1.0  -0.5521
  O  O51  1  0.214200  0.599600  0.732600  1.0  -0.5411
  O  O52  1  0.292700  0.464700  0.875800  1.0  -0.5509
  O  O53  1  0.714200  0.900400  0.232600  1.0  -0.5407
  O  O54  1  0.792700  0.035300  0.375800  1.0  -0.5518
  O  O55  1  0.214200  0.099600  0.767400  1.0  -0.5415
  O  O56  1  0.292700  0.964700  0.624200  1.0  -0.5507
