# generated using pymatgen
data_Dy3H40C68N7O19
_symmetry_space_group_name_H-M   'P 1'
_cell_length_a   10.28600000
_cell_length_b   19.16100000
_cell_length_c   19.78700000
_cell_angle_alpha   77.52000000
_cell_angle_beta   76.72000000
_cell_angle_gamma   81.02000000
_symmetry_Int_Tables_number   1
_chemical_formula_structural   Dy3H40C68N7O19
_chemical_formula_sum   'Dy6 H80 C136 N14 O38'
_cell_volume   3682.52790356
_cell_formula_units_Z   2
loop_
 _symmetry_equiv_pos_site_id
 _symmetry_equiv_pos_as_xyz
  1  'x, y, z'
loop_
 _atom_site_type_symbol
 _atom_site_label
 _atom_site_symmetry_multiplicity
 _atom_site_fract_x
 _atom_site_fract_y
 _atom_site_fract_z
 _atom_site_occupancy
 _atom_site_charge
  Dy  Dy1  1  0.367000  0.941670  0.571570  1.0  2.2184
  Dy  Dy2  1  0.816080  0.480640  0.567610  1.0  2.1952
  Dy  Dy3  1  0.851560  0.580030  0.961410  1.0  2.2255
  Dy  Dy4  1  0.633000  0.058330  0.428430  1.0  2.2231
  Dy  Dy5  1  0.183920  0.519360  0.432390  1.0  2.1959
  Dy  Dy6  1  0.148440  0.419970  0.038590  1.0  2.2297
  H  H7  1  0.884200  0.003500  0.570400  1.0  0.1104
  H  H8  1  0.590100  0.000300  0.743000  1.0  0.1022
  H  H9  1  0.746000  0.996600  0.810900  1.0  0.1036
  H  H10  1  0.972400  0.992100  0.760100  1.0  0.1142
  H  H11  1  0.706600  0.732600  0.528900  1.0  0.102
  H  H12  1  0.005000  0.715500  0.361300  1.0  0.0903
  H  H13  1  0.956200  0.835700  0.315300  1.0  0.1007
  H  H14  1  0.778600  0.904300  0.373700  1.0  0.103
  H  H15  1  0.983400  0.485700  0.253000  1.0  0.1026
  H  H16  1  0.658900  0.580700  0.177900  1.0  0.1033
  H  H17  1  0.550500  0.598600  0.290600  1.0  0.096
  H  H18  1  0.659300  0.558500  0.384300  1.0  0.1002
  H  H19  1  0.611500  0.417700  0.003100  1.0  0.109
  H  H20  1  0.527000  0.224500  0.992400  1.0  0.1112
  H  H21  1  0.748600  0.177000  0.996200  1.0  0.1089
  H  H22  1  0.900900  0.250800  0.003900  1.0  0.1062
  H  H23  1  0.159200  0.872600  0.499300  1.0  0.0731
  H  H24  1  0.035800  0.776700  0.510000  1.0  0.1193
  H  H25  1  0.038700  0.684900  0.604600  1.0  0.1024
  H  H26  1  0.127300  0.626300  0.726100  1.0  0.0985
  H  H27  1  0.219200  0.638400  0.804200  1.0  0.1091
  H  H28  1  0.359700  0.712200  0.852300  1.0  0.0923
  H  H29  1  0.463700  0.810400  0.835800  1.0  0.1226
  H  H30  1  0.474900  0.892200  0.730300  1.0  0.0775
  H  H31  1  0.649500  0.402200  0.479800  1.0  0.074
  H  H32  1  0.549700  0.301800  0.480300  1.0  0.1224
  H  H33  1  0.554600  0.206100  0.572400  1.0  0.1128
  H  H34  1  0.618700  0.154000  0.693100  1.0  0.0964
  H  H35  1  0.687600  0.169200  0.786300  1.0  0.122
  H  H36  1  0.765400  0.250700  0.846800  1.0  0.1043
  H  H37  1  0.829500  0.360600  0.845100  1.0  0.1219
  H  H38  1  0.837600  0.448400  0.742400  1.0  0.0796
  H  H39  1  0.993600  0.742300  0.885300  1.0  0.0833
  H  H40  1  0.003500  0.839300  0.792600  1.0  0.1162
  H  H41  1  0.885200  0.845500  0.705500  1.0  0.1026
  H  H42  1  0.738800  0.785000  0.652100  1.0  0.1057
  H  H43  1  0.602600  0.699800  0.666300  1.0  0.1076
  H  H44  1  0.493400  0.592900  0.743800  1.0  0.1065
  H  H45  1  0.481400  0.506100  0.843300  1.0  0.1198
  H  H46  1  0.630400  0.498900  0.916400  1.0  0.0745
  H  H47  1  0.115800  0.996500  0.429600  1.0  0.1103
  H  H48  1  0.409900  0.999700  0.257000  1.0  0.1026
  H  H49  1  0.254000  0.003400  0.189100  1.0  0.1033
  H  H50  1  0.027600  0.007900  0.239900  1.0  0.1146
  H  H51  1  0.293400  0.267400  0.471100  1.0  0.1016
  H  H52  1  0.995000  0.284500  0.638700  1.0  0.0902
  H  H53  1  0.043800  0.164300  0.684700  1.0  0.1017
  H  H54  1  0.221400  0.095700  0.626300  1.0  0.1035
  H  H55  1  0.016600  0.514300  0.747000  1.0  0.1022
  H  H56  1  0.341100  0.419300  0.822100  1.0  0.1031
  H  H57  1  0.449500  0.401400  0.709400  1.0  0.0965
  H  H58  1  0.340700  0.441500  0.615700  1.0  0.0995
  H  H59  1  0.388500  0.582300  0.996900  1.0  0.1078
  H  H60  1  0.473000  0.775500  0.007600  1.0  0.1106
  H  H61  1  0.251400  0.823000  0.003800  1.0  0.1091
  H  H62  1  0.099100  0.749200  0.996100  1.0  0.1062
  H  H63  1  0.840800  0.127400  0.500700  1.0  0.073
  H  H64  1  0.964200  0.223300  0.490000  1.0  0.119
  H  H65  1  0.961300  0.315100  0.395400  1.0  0.1028
  H  H66  1  0.872700  0.373700  0.273900  1.0  0.0993
  H  H67  1  0.780800  0.361600  0.195800  1.0  0.1089
  H  H68  1  0.640300  0.287800  0.147700  1.0  0.0927
  H  H69  1  0.536300  0.189600  0.164200  1.0  0.123
  H  H70  1  0.525100  0.107800  0.269700  1.0  0.0782
  H  H71  1  0.350500  0.597800  0.520200  1.0  0.0744
  H  H72  1  0.450300  0.698200  0.519700  1.0  0.1212
  H  H73  1  0.445400  0.793900  0.427600  1.0  0.1126
  H  H74  1  0.381300  0.846000  0.306900  1.0  0.0967
  H  H75  1  0.312400  0.830800  0.213700  1.0  0.1213
  H  H76  1  0.234600  0.749300  0.153200  1.0  0.104
  H  H77  1  0.170500  0.639400  0.154900  1.0  0.1223
  H  H78  1  0.162400  0.551600  0.257600  1.0  0.0791
  H  H79  1  0.006400  0.257700  0.114700  1.0  0.0819
  H  H80  1  0.996500  0.160700  0.207400  1.0  0.1162
  H  H81  1  0.114800  0.154500  0.294500  1.0  0.1036
  H  H82  1  0.261200  0.215000  0.347900  1.0  0.1054
  H  H83  1  0.397400  0.300200  0.333700  1.0  0.1071
  H  H84  1  0.506600  0.407100  0.256200  1.0  0.1069
  H  H85  1  0.518600  0.493900  0.156700  1.0  0.1198
  H  H86  1  0.369600  0.501100  0.083600  1.0  0.075
  C  C87  1  0.951100  0.993860  0.660590  1.0  -0.1383
  C  C88  1  0.856500  0.000830  0.618970  1.0  -0.0167
  C  C89  1  0.720000  0.003900  0.649730  1.0  -0.1329
  C  C90  1  0.680700  0.000400  0.721810  1.0  -0.0654
  C  C91  1  0.774200  0.996900  0.762740  1.0  -0.119
  C  C92  1  0.909500  0.994000  0.732460  1.0  -0.0593
  C  C93  1  0.098000  0.985100  0.627250  1.0  0.651
  C  C94  1  0.619100  0.013490  0.602810  1.0  0.7286
  C  C95  1  0.726200  0.825940  0.458720  1.0  -0.1645
  C  C96  1  0.756800  0.753490  0.485890  1.0  -0.007
  C  C97  1  0.860300  0.712220  0.450100  1.0  -0.1741
  C  C98  1  0.935000  0.743200  0.385800  1.0  -0.0183
  C  C99  1  0.905200  0.815000  0.358100  1.0  -0.1261
  C  C100  1  0.800100  0.856400  0.393400  1.0  -0.0338
  C  C101  1  0.617200  0.870650  0.498390  1.0  0.7193
  C  C102  1  0.895100  0.634680  0.478800  1.0  0.7407
  C  C103  1  0.834700  0.519760  0.327630  1.0  -0.1677
  C  C104  1  0.896000  0.508410  0.260590  1.0  -0.0344
  C  C105  1  0.830900  0.529960  0.204000  1.0  -0.1555
  C  C106  1  0.702800  0.564500  0.215500  1.0  -0.0184
  C  C107  1  0.637700  0.575600  0.283100  1.0  -0.1222
  C  C108  1  0.703300  0.552300  0.338970  1.0  -0.0106
  C  C109  1  0.907700  0.497660  0.387730  1.0  0.7521
  C  C110  1  0.895800  0.515040  0.131970  1.0  0.751
  C  C111  1  0.772200  0.342120  0.003330  1.0  -0.1604
  C  C112  1  0.639600  0.369450  0.001440  1.0  -0.0547
  C  C113  1  0.549400  0.325080  0.997080  1.0  -0.1283
  C  C114  1  0.588700  0.253900  0.995200  1.0  -0.0464
  C  C115  1  0.721500  0.225400  0.997600  1.0  -0.1252
  C  C116  1  0.812500  0.269600  0.001900  1.0  -0.0337
  C  C117  1  0.870000  0.391250  0.006400  1.0  0.7472
  C  C118  1  0.407300  0.358000  0.995710  1.0  0.6444
  C  C119  1  0.160100  0.834900  0.537800  1.0  0.1877
  C  C120  1  0.085200  0.777300  0.543700  1.0  -0.1647
  C  C121  1  0.087700  0.723200  0.599900  1.0  -0.0033
  C  C122  1  0.159700  0.722700  0.650300  1.0  -0.0354
  C  C123  1  0.232100  0.783000  0.641300  1.0  0.1799
  C  C124  1  0.168100  0.668000  0.719000  1.0  -0.0617
  C  C125  1  0.223300  0.674900  0.764400  1.0  -0.1015
  C  C126  1  0.296400  0.735400  0.762500  1.0  -0.0069
  C  C127  1  0.360100  0.746100  0.810800  1.0  -0.0277
  C  C128  1  0.422900  0.803000  0.800900  1.0  -0.1409
  C  C129  1  0.428000  0.852600  0.737100  1.0  0.1942
  C  C130  1  0.301400  0.788000  0.695100  1.0  0.1588
  C  C131  1  0.646100  0.365000  0.518900  1.0  0.2149
  C  C132  1  0.587900  0.303900  0.518000  1.0  -0.1509
  C  C133  1  0.588700  0.248100  0.573000  1.0  -0.0118
  C  C134  1  0.639600  0.253400  0.629800  1.0  -0.0173
  C  C135  1  0.689600  0.318570  0.628700  1.0  0.1589
  C  C136  1  0.645700  0.198400  0.692200  1.0  -0.0631
  C  C137  1  0.686800  0.206800  0.747700  1.0  -0.1596
  C  C138  1  0.729800  0.273000  0.749300  1.0  0.0067
  C  C139  1  0.766900  0.286300  0.806500  1.0  -0.0673
  C  C140  1  0.806300  0.351100  0.805500  1.0  -0.1627
  C  C141  1  0.811200  0.404000  0.743100  1.0  0.204
  C  C142  1  0.736100  0.328600  0.688900  1.0  0.1729
  C  C143  1  0.946600  0.743600  0.850000  1.0  0.2005
  C  C144  1  0.952600  0.802600  0.794300  1.0  -0.1368
  C  C145  1  0.883000  0.806000  0.742500  1.0  -0.023
  C  C146  1  0.808400  0.750200  0.744900  1.0  -0.0012
  C  C147  1  0.805900  0.692700  0.803590  1.0  0.1717
  C  C148  1  0.732200  0.749200  0.692400  1.0  -0.118
  C  C149  1  0.652500  0.698200  0.700400  1.0  -0.0916
  C  C150  1  0.642700  0.640800  0.760750  1.0  -0.0221
  C  C151  1  0.550100  0.590600  0.774800  1.0  0.0195
  C  C152  1  0.543500  0.539300  0.833000  1.0  -0.1674
  C  C153  1  0.631400  0.536600  0.877800  1.0  0.1971
  C  C154  1  0.722000  0.637200  0.810480  1.0  0.1769
  C  C155  1  0.048900  0.006140  0.339410  1.0  -0.1387
  C  C156  1  0.143500  0.999170  0.381030  1.0  -0.0163
  C  C157  1  0.280000  0.996100  0.350270  1.0  -0.1323
  C  C158  1  0.319300  0.999600  0.278190  1.0  -0.0654
  C  C159  1  0.225800  0.003100  0.237260  1.0  -0.1204
  C  C160  1  0.090500  0.006000  0.267540  1.0  -0.055
  C  C161  1  0.902000  0.014900  0.372750  1.0  0.6501
  C  C162  1  0.380900  0.986510  0.397190  1.0  0.729
  C  C163  1  0.273800  0.174060  0.541280  1.0  -0.1651
  C  C164  1  0.243200  0.246510  0.514110  1.0  -0.0079
  C  C165  1  0.139700  0.287780  0.549900  1.0  -0.1728
  C  C166  1  0.065000  0.256800  0.614200  1.0  -0.0176
  C  C167  1  0.094800  0.185000  0.641900  1.0  -0.1278
  C  C168  1  0.199900  0.143600  0.606600  1.0  -0.034
  C  C169  1  0.382800  0.129350  0.501610  1.0  0.7203
  C  C170  1  0.104900  0.365320  0.521200  1.0  0.7408
  C  C171  1  0.165300  0.480240  0.672370  1.0  -0.1676
  C  C172  1  0.104000  0.491590  0.739410  1.0  -0.0351
  C  C173  1  0.169100  0.470040  0.796000  1.0  -0.1561
  C  C174  1  0.297200  0.435500  0.784500  1.0  -0.0199
  C  C175  1  0.362300  0.424400  0.716900  1.0  -0.1228
  C  C176  1  0.296700  0.447700  0.661030  1.0  -0.0104
  C  C177  1  0.092300  0.502340  0.612270  1.0  0.751
  C  C178  1  0.104200  0.484960  0.868030  1.0  0.7539
  C  C179  1  0.227800  0.657880  0.996670  1.0  -0.1601
  C  C180  1  0.360400  0.630550  0.998560  1.0  -0.0518
  C  C181  1  0.450600  0.674920  0.002920  1.0  -0.1274
  C  C182  1  0.411300  0.746100  0.004800  1.0  -0.046
  C  C183  1  0.278500  0.774600  0.002400  1.0  -0.1267
  C  C184  1  0.187500  0.730400  0.998100  1.0  -0.0331
  C  C185  1  0.130000  0.608750  0.993600  1.0  0.7455
  C  C186  1  0.592700  0.642000  0.004290  1.0  0.6442
  C  C187  1  0.839900  0.165100  0.462200  1.0  0.184
  C  C188  1  0.914800  0.222700  0.456300  1.0  -0.163
  C  C189  1  0.912300  0.276800  0.400100  1.0  -0.0021
  C  C190  1  0.840300  0.277300  0.349700  1.0  -0.0367
  C  C191  1  0.767900  0.217000  0.358700  1.0  0.1796
  C  C192  1  0.831900  0.332000  0.281000  1.0  -0.0629
  C  C193  1  0.776700  0.325100  0.235600  1.0  -0.1038
  C  C194  1  0.703600  0.264600  0.237500  1.0  -0.0066
  C  C195  1  0.639900  0.253900  0.189200  1.0  -0.0273
  C  C196  1  0.577100  0.197000  0.199100  1.0  -0.1491
  C  C197  1  0.572000  0.147400  0.262900  1.0  0.194
  C  C198  1  0.698600  0.212000  0.304900  1.0  0.159
  C  C199  1  0.353900  0.635000  0.481100  1.0  0.2152
  C  C200  1  0.412100  0.696100  0.482000  1.0  -0.1504
  C  C201  1  0.411300  0.751900  0.427000  1.0  -0.0113
  C  C202  1  0.360400  0.746600  0.370200  1.0  -0.017
  C  C203  1  0.310400  0.681430  0.371300  1.0  0.1595
  C  C204  1  0.354300  0.801600  0.307800  1.0  -0.0643
  C  C205  1  0.313200  0.793200  0.252300  1.0  -0.1704
  C  C206  1  0.270200  0.727000  0.250700  1.0  0.0059
  C  C207  1  0.233100  0.713700  0.193500  1.0  -0.0663
  C  C208  1  0.193700  0.648900  0.194500  1.0  -0.1642
  C  C209  1  0.188800  0.596000  0.256900  1.0  0.2036
  C  C210  1  0.263900  0.671400  0.311100  1.0  0.1729
  C  C211  1  0.053400  0.256400  0.150000  1.0  0.2003
  C  C212  1  0.047400  0.197400  0.205700  1.0  -0.1502
  C  C213  1  0.117000  0.194000  0.257500  1.0  -0.0243
  C  C214  1  0.191600  0.249800  0.255100  1.0  -0.0039
  C  C215  1  0.194100  0.307300  0.196410  1.0  0.1718
  C  C216  1  0.267800  0.250800  0.307600  1.0  -0.1171
  C  C217  1  0.347500  0.301800  0.299600  1.0  -0.0906
  C  C218  1  0.357300  0.359200  0.239250  1.0  -0.021
  C  C219  1  0.449900  0.409400  0.225200  1.0  0.0198
  C  C220  1  0.456500  0.460700  0.167000  1.0  -0.1649
  C  C221  1  0.368600  0.463400  0.122200  1.0  0.1949
  C  C222  1  0.278000  0.362800  0.189520  1.0  0.1791
  N  N223  1  0.779600  0.392230  0.685830  1.0  -0.4716
  N  N224  1  0.696000  0.372740  0.571780  1.0  -0.4691
  N  N225  1  0.231900  0.837480  0.584940  1.0  -0.4794
  N  N226  1  0.369700  0.846400  0.685770  1.0  -0.4517
  N  N227  1  0.876600  0.689000  0.855020  1.0  -0.4739
  N  N228  1  0.717000  0.585180  0.868540  1.0  -0.4989
  N  N229  1  0.555500  0.551900  0.609010  1.0  0.8136
  N  N230  1  0.220400  0.607770  0.314170  1.0  -0.4705
  N  N231  1  0.304000  0.627260  0.428220  1.0  -0.4711
  N  N232  1  0.768100  0.162520  0.415060  1.0  -0.4772
  N  N233  1  0.630300  0.153600  0.314230  1.0  -0.4428
  N  N234  1  0.123400  0.311000  0.144980  1.0  -0.4733
  N  N235  1  0.283000  0.414820  0.131460  1.0  -0.4995
  N  N236  1  0.444500  0.448100  0.390990  1.0  0.814
  O  O237  1  0.134000  0.989550  0.562340  1.0  -0.6278
  O  O238  1  0.185000  0.971720  0.666880  1.0  -0.6844
  O  O239  1  0.517800  0.978910  0.626100  1.0  -0.7065
  O  O240  1  0.645600  0.054360  0.544600  1.0  -0.6865
  O  O241  1  0.530100  0.841070  0.545600  1.0  -0.6638
  O  O242  1  0.613000  0.938880  0.482390  1.0  -0.8276
  O  O243  1  0.811900  0.605010  0.528380  1.0  -0.689
  O  O244  1  0.005400  0.603310  0.451330  1.0  -0.7459
  O  O245  1  0.836400  0.488070  0.448800  1.0  -0.7052
  O  O246  1  0.033300  0.490480  0.373650  1.0  -0.7028
  O  O247  1  0.853800  0.555270  0.080460  1.0  -0.7257
  O  O248  1  0.987400  0.463570  0.127680  1.0  -0.7387
  O  O249  1  0.840600  0.457630  0.987970  1.0  -0.7421
  O  O250  1  0.976100  0.362800  0.027880  1.0  -0.6798
  O  O251  1  0.313700  0.318360  0.012240  1.0  -0.6374
  O  O252  1  0.382300  0.425970  0.982110  1.0  -0.649
  O  O253  1  0.582900  0.529630  0.552490  1.0  -0.5525
  O  O254  1  0.640000  0.532100  0.648930  1.0  -0.6297
  O  O255  1  0.454300  0.593200  0.626100  1.0  -0.4429
  O  O256  1  0.866000  0.010450  0.437660  1.0  -0.6272
  O  O257  1  0.815000  0.028280  0.333120  1.0  -0.6835
  O  O258  1  0.482200  0.021090  0.373900  1.0  -0.7103
  O  O259  1  0.354400  0.945640  0.455400  1.0  -0.687
  O  O260  1  0.469900  0.158930  0.454400  1.0  -0.663
  O  O261  1  0.387000  0.061120  0.517610  1.0  -0.8273
  O  O262  1  0.188100  0.394990  0.471620  1.0  -0.688
  O  O263  1  0.994600  0.396690  0.548670  1.0  -0.7506
  O  O264  1  0.163600  0.511930  0.551200  1.0  -0.7115
  O  O265  1  0.966700  0.509520  0.626350  1.0  -0.7022
  O  O266  1  0.146200  0.444730  0.919540  1.0  -0.7283
  O  O267  1  0.012600  0.536430  0.872320  1.0  -0.7386
  O  O268  1  0.159400  0.542370  0.012030  1.0  -0.7417
  O  O269  1  0.023900  0.637200  0.972120  1.0  -0.6816
  O  O270  1  0.686300  0.681640  0.987760  1.0  -0.6282
  O  O271  1  0.617700  0.574030  0.017890  1.0  -0.6473
  O  O272  1  0.417100  0.470370  0.447510  1.0  -0.5516
  O  O273  1  0.360000  0.467900  0.351070  1.0  -0.6308
  O  O274  1  0.545700  0.406800  0.373900  1.0  -0.4428
