# generated using pymatgen
data_Cu5H28C56(NO6)4
_symmetry_space_group_name_H-M   'P 1'
_cell_length_a   11.15560000
_cell_length_b   13.04300000
_cell_length_c   14.13500000
_cell_angle_alpha   89.75900000
_cell_angle_beta   87.18200000
_cell_angle_gamma   85.00600000
_symmetry_Int_Tables_number   1
_chemical_formula_structural   Cu5H28C56(NO6)4
_chemical_formula_sum   'Cu5 H28 C56 N4 O24'
_cell_volume   2046.39256838
_cell_formula_units_Z   1
loop_
 _symmetry_equiv_pos_site_id
 _symmetry_equiv_pos_as_xyz
  1  'x, y, z'
loop_
 _atom_site_type_symbol
 _atom_site_label
 _atom_site_symmetry_multiplicity
 _atom_site_fract_x
 _atom_site_fract_y
 _atom_site_fract_z
 _atom_site_occupancy
 _atom_site_charge
  Cu  Cu1  1  0.594440  0.932110  0.999340  1.0  0.8354
  Cu  Cu2  1  0.598470  0.549720  0.498930  1.0  0.9223
  Cu  Cu3  1  0.405560  0.067890  0.000660  1.0  0.8356
  Cu  Cu4  1  0.401530  0.450280  0.501070  1.0  0.9198
  Cu  Cu5  1  0.500000  0.500000  0.000000  1.0  0.2463
  H  H6  1  0.820300  0.303000  0.606400  1.0  0.1309
  H  H7  1  0.925400  0.169700  0.684500  1.0  0.1393
  H  H8  1  0.819000  0.068200  0.791000  1.0  0.1281
  H  H9  1  0.175800  0.660100  0.666800  1.0  0.1216
  H  H10  1  0.067100  0.779600  0.764600  1.0  0.1376
  H  H11  1  0.171600  0.882300  0.861200  1.0  0.1227
  H  H12  1  0.349900  0.665900  0.095100  1.0  0.0931
  H  H13  1  0.157700  0.744400  0.102300  1.0  0.1381
  H  H14  1  0.076600  0.542700  0.909600  1.0  0.1468
  H  H15  1  0.268800  0.470100  0.913600  1.0  0.0933
  H  H16  1  0.769800  0.839200  0.138500  1.0  0.1002
  H  H17  1  0.951200  0.741700  0.146600  1.0  0.1409
  H  H18  1  0.936800  0.684400  0.870900  1.0  0.1283
  H  H19  1  0.755300  0.785500  0.872400  1.0  0.1007
  H  H20  1  0.179700  0.697000  0.393600  1.0  0.1303
  H  H21  1  0.074600  0.830300  0.315500  1.0  0.1388
  H  H22  1  0.181000  0.931800  0.209000  1.0  0.1289
  H  H23  1  0.824200  0.339900  0.333200  1.0  0.1222
  H  H24  1  0.932900  0.220400  0.235400  1.0  0.1383
  H  H25  1  0.828400  0.117700  0.138800  1.0  0.1234
  H  H26  1  0.650100  0.334100  0.904900  1.0  0.0933
  H  H27  1  0.842300  0.255600  0.897700  1.0  0.1383
  H  H28  1  0.923400  0.457300  0.090400  1.0  0.1472
  H  H29  1  0.731200  0.529900  0.086400  1.0  0.0944
  H  H30  1  0.230200  0.160800  0.861500  1.0  0.1009
  H  H31  1  0.048800  0.258300  0.853400  1.0  0.1401
  H  H32  1  0.063200  0.315600  0.129100  1.0  0.1281
  H  H33  1  0.244700  0.214500  0.127600  1.0  0.1006
  C  C34  1  0.658200  0.149700  0.783800  1.0  -0.1171
  C  C35  1  0.593600  0.227700  0.734800  1.0  -0.0371
  C  C36  1  0.658200  0.285600  0.669000  1.0  -0.1013
  C  C37  1  0.779900  0.263700  0.650500  1.0  -0.0652
  C  C38  1  0.842900  0.183900  0.696500  1.0  -0.0931
  C  C39  1  0.779100  0.124700  0.762100  1.0  -0.0411
  C  C40  1  0.598500  0.089500  0.862800  1.0  0.7118
  C  C41  1  0.461700  0.247700  0.750500  1.0  0.689
  C  C42  1  0.595000  0.369800  0.612200  1.0  0.7038
  C  C43  1  0.340000  0.824200  0.819000  1.0  -0.1202
  C  C44  1  0.404100  0.750400  0.758300  1.0  -0.0654
  C  C45  1  0.339000  0.691100  0.700600  1.0  -0.1248
  C  C46  1  0.216700  0.701900  0.704800  1.0  -0.0455
  C  C47  1  0.150900  0.772800  0.763400  1.0  -0.1301
  C  C48  1  0.214000  0.834200  0.821000  1.0  -0.0364
  C  C49  1  0.401100  0.887400  0.885000  1.0  0.7059
  C  C50  1  0.540200  0.745100  0.752400  1.0  0.7162
  C  C51  1  0.402000  0.615100  0.629900  1.0  0.6953
  C  C52  1  0.293200  0.640700  0.057200  1.0  0.2008
  C  C53  1  0.177600  0.688900  0.061700  1.0  -0.1969
  C  C54  1  0.092300  0.653900  0.005400  1.0  0.1226
  C  C55  1  0.129900  0.570100  0.949000  1.0  -0.1979
  C  C56  1  0.246700  0.527500  0.951500  1.0  0.2084
  C  C57  1  0.805900  0.809700  0.083300  1.0  0.1897
  C  C58  1  0.915800  0.751200  0.088700  1.0  -0.2148
  C  C59  1  0.971800  0.707500  0.007800  1.0  0.0989
  C  C60  1  0.907100  0.717700  0.926400  1.0  -0.1732
  C  C61  1  0.796800  0.778400  0.927800  1.0  0.1897
  C  C62  1  0.341800  0.850300  0.216200  1.0  -0.1155
  C  C63  1  0.406400  0.772300  0.265200  1.0  -0.0384
  C  C64  1  0.341800  0.714400  0.331000  1.0  -0.1012
  C  C65  1  0.220100  0.736300  0.349500  1.0  -0.0647
  C  C66  1  0.157100  0.816100  0.303500  1.0  -0.1062
  C  C67  1  0.220900  0.875300  0.237900  1.0  -0.0427
  C  C68  1  0.401500  0.910500  0.137200  1.0  0.7098
  C  C69  1  0.538300  0.752300  0.249500  1.0  0.6885
  C  C70  1  0.405000  0.630200  0.387800  1.0  0.7052
  C  C71  1  0.660000  0.175800  0.181000  1.0  -0.1205
  C  C72  1  0.595900  0.249600  0.241700  1.0  -0.064
  C  C73  1  0.661000  0.308900  0.299400  1.0  -0.1255
  C  C74  1  0.783300  0.298100  0.295200  1.0  -0.0442
  C  C75  1  0.849100  0.227200  0.236600  1.0  -0.1254
  C  C76  1  0.786000  0.165800  0.179000  1.0  -0.0352
  C  C77  1  0.598900  0.112600  0.115000  1.0  0.7068
  C  C78  1  0.459800  0.254900  0.247600  1.0  0.715
  C  C79  1  0.598000  0.384900  0.370100  1.0  0.696
  C  C80  1  0.706800  0.359300  0.942800  1.0  0.1992
  C  C81  1  0.822400  0.311100  0.938300  1.0  -0.1961
  C  C82  1  0.907700  0.346100  0.994600  1.0  0.1231
  C  C83  1  0.870100  0.429900  0.051000  1.0  -0.2017
  C  C84  1  0.753300  0.472500  0.048500  1.0  0.2092
  C  C85  1  0.194100  0.190300  0.916700  1.0  0.1911
  C  C86  1  0.084200  0.248800  0.911300  1.0  -0.2129
  C  C87  1  0.028200  0.292500  0.992200  1.0  0.1007
  C  C88  1  0.092900  0.282300  0.073600  1.0  -0.1713
  C  C89  1  0.203200  0.221600  0.072200  1.0  0.189
  N  N90  1  0.327800  0.560800  0.002100  1.0  -0.2822
  N  N91  1  0.750700  0.825200  0.003700  1.0  -0.2868
  N  N92  1  0.672200  0.439200  0.997900  1.0  -0.2795
  N  N93  1  0.249300  0.174800  0.996300  1.0  -0.2893
  O  O94  1  0.655500  0.011000  0.893300  1.0  -0.5445
  O  O95  1  0.498900  0.128300  0.896400  1.0  -0.5408
  O  O96  1  0.416300  0.326200  0.793900  1.0  -0.5702
  O  O97  1  0.397000  0.183900  0.712200  1.0  -0.5053
  O  O98  1  0.654700  0.443700  0.589600  1.0  -0.558
  O  O99  1  0.488000  0.360800  0.592400  1.0  -0.561
  O  O100  1  0.503000  0.855400  0.911400  1.0  -0.5435
  O  O101  1  0.345000  0.970000  0.911200  1.0  -0.5406
  O  O102  1  0.588600  0.814700  0.709200  1.0  -0.4846
  O  O103  1  0.596100  0.668000  0.790400  1.0  -0.5435
  O  O104  1  0.503600  0.629100  0.600700  1.0  -0.5472
  O  O105  1  0.341000  0.543600  0.604400  1.0  -0.5699
  O  O106  1  0.344500  0.989000  0.106700  1.0  -0.5445
  O  O107  1  0.501100  0.871700  0.103600  1.0  -0.54
  O  O108  1  0.583700  0.673800  0.206100  1.0  -0.5686
  O  O109  1  0.603000  0.816100  0.287800  1.0  -0.5041
  O  O110  1  0.345300  0.556300  0.410400  1.0  -0.5553
  O  O111  1  0.512000  0.639200  0.407600  1.0  -0.5607
  O  O112  1  0.497000  0.144600  0.088600  1.0  -0.5438
  O  O113  1  0.655000  0.030000  0.088800  1.0  -0.5399
  O  O114  1  0.411400  0.185300  0.290800  1.0  -0.4814
  O  O115  1  0.403900  0.332000  0.209600  1.0  -0.543
  O  O116  1  0.496400  0.370900  0.399300  1.0  -0.547
  O  O117  1  0.659000  0.456400  0.395600  1.0  -0.5706
