# generated using pymatgen
data_Ce(SO4)2
_symmetry_space_group_name_H-M   'P 1'
_cell_length_a   16.67300000
_cell_length_b   9.58610000
_cell_length_c   22.51800000
_cell_angle_alpha   90.00000000
_cell_angle_beta   103.95600000
_cell_angle_gamma   90.00000000
_symmetry_Int_Tables_number   1
_chemical_formula_structural   Ce(SO4)2
_chemical_formula_sum   'Ce16 S32 O128'
_cell_volume   3492.79146440
_cell_formula_units_Z   16
loop_
 _symmetry_equiv_pos_site_id
 _symmetry_equiv_pos_as_xyz
  1  'x, y, z'
loop_
 _atom_site_type_symbol
 _atom_site_label
 _atom_site_symmetry_multiplicity
 _atom_site_fract_x
 _atom_site_fract_y
 _atom_site_fract_z
 _atom_site_occupancy
 _atom_site_charge
  Ce  Ce1  1  0.074000  0.272120  0.182240  1.0  2.2265
  Ce  Ce2  1  0.236810  0.765010  0.045630  1.0  2.2636
  Ce  Ce3  1  0.332260  0.201320  0.129750  1.0  2.2921
  Ce  Ce4  1  0.467390  0.241500  0.415520  1.0  2.3204
  Ce  Ce5  1  0.926000  0.772120  0.317760  1.0  2.2266
  Ce  Ce6  1  0.763190  0.265010  0.454370  1.0  2.2639
  Ce  Ce7  1  0.667740  0.701320  0.370250  1.0  2.2918
  Ce  Ce8  1  0.532610  0.741500  0.084480  1.0  2.3215
  Ce  Ce9  1  0.926000  0.727880  0.817760  1.0  2.2268
  Ce  Ce10  1  0.763190  0.234990  0.954370  1.0  2.2661
  Ce  Ce11  1  0.667740  0.798680  0.870250  1.0  2.293
  Ce  Ce12  1  0.532610  0.758500  0.584480  1.0  2.3214
  Ce  Ce13  1  0.074000  0.227880  0.682240  1.0  2.2267
  Ce  Ce14  1  0.236810  0.734990  0.545630  1.0  2.2661
  Ce  Ce15  1  0.332260  0.298680  0.629750  1.0  2.2931
  Ce  Ce16  1  0.467390  0.258500  0.915520  1.0  2.3203
  S  S17  1  0.159500  0.033670  0.105310  1.0  1.7082
  S  S18  1  0.410570  0.835100  0.170180  1.0  1.7195
  S  S19  1  0.011090  0.034160  0.259510  1.0  1.6774
  S  S20  1  0.181590  0.507970  0.114200  1.0  1.711
  S  S21  1  0.372320  0.474370  0.015470  1.0  1.6553
  S  S22  1  0.378210  0.988810  0.997860  1.0  1.6998
  S  S23  1  0.913220  0.250560  0.072940  1.0  1.7206
  S  S24  1  0.298040  0.291150  0.280310  1.0  1.6571
  S  S25  1  0.840500  0.533670  0.394690  1.0  1.7087
  S  S26  1  0.589430  0.335100  0.329820  1.0  1.7213
  S  S27  1  0.988910  0.534160  0.240490  1.0  1.6779
  S  S28  1  0.818410  0.007970  0.385800  1.0  1.7102
  S  S29  1  0.627680  0.974370  0.484530  1.0  1.6552
  S  S30  1  0.621790  0.488810  0.502140  1.0  1.7008
  S  S31  1  0.086780  0.750560  0.427060  1.0  1.7206
  S  S32  1  0.701960  0.791150  0.219690  1.0  1.6532
  S  S33  1  0.840500  0.966330  0.894690  1.0  1.7085
  S  S34  1  0.589430  0.164900  0.829820  1.0  1.7212
  S  S35  1  0.988910  0.965840  0.740490  1.0  1.6778
  S  S36  1  0.818410  0.492030  0.885800  1.0  1.7105
  S  S37  1  0.627680  0.525630  0.984530  1.0  1.655
  S  S38  1  0.621790  0.011190  0.002140  1.0  1.6996
  S  S39  1  0.086780  0.749440  0.927060  1.0  1.7207
  S  S40  1  0.701960  0.708850  0.719690  1.0  1.6572
  S  S41  1  0.159500  0.466330  0.605310  1.0  1.7082
  S  S42  1  0.410570  0.664900  0.670180  1.0  1.7194
  S  S43  1  0.011090  0.465840  0.759510  1.0  1.6773
  S  S44  1  0.181590  0.992030  0.614200  1.0  1.7113
  S  S45  1  0.372320  0.025630  0.515470  1.0  1.6551
  S  S46  1  0.378210  0.511190  0.497860  1.0  1.6989
  S  S47  1  0.913220  0.249440  0.572940  1.0  1.7207
  S  S48  1  0.298040  0.208850  0.780310  1.0  1.6529
  O  O49  1  0.059100  0.018400  0.212770  1.0  -0.7353
  O  O50  1  0.985400  0.339300  0.076470  1.0  -0.6837
  O  O51  1  0.141200  0.564000  0.053710  1.0  -0.6795
  O  O52  1  0.405500  0.756000  0.223760  1.0  -0.5782
  O  O53  1  0.928400  0.170300  0.130470  1.0  -0.7403
  O  O54  1  0.496100  0.878800  0.172270  1.0  -0.7408
  O  O55  1  0.385600  0.749200  0.113840  1.0  -0.8188
  O  O56  1  0.211100  0.062500  0.060720  1.0  -0.8563
  O  O57  1  0.836400  0.333800  0.064710  1.0  -0.7529
  O  O58  1  0.162200  0.881600  0.115150  1.0  -0.7314
  O  O59  1  0.008500  0.187100  0.269660  1.0  -0.8141
  O  O60  1  0.376900  0.415600  0.956190  1.0  -0.6821
  O  O61  1  0.298600  0.914400  0.983140  1.0  -0.7118
  O  O62  1  0.897900  0.156000  0.019640  1.0  -0.7298
  O  O63  1  0.306700  0.577500  0.004940  1.0  -0.6837
  O  O64  1  0.355200  0.954500  0.163800  1.0  -0.7113
  O  O65  1  0.337000  0.204100  0.240530  1.0  -0.7517
  O  O66  1  0.328800  0.241600  0.343410  1.0  -0.6541
  O  O67  1  0.199400  0.107800  0.162200  1.0  -0.7942
  O  O68  1  0.252300  0.601700  0.138950  1.0  -0.7673
  O  O69  1  0.075800  0.085000  0.085410  1.0  -0.6288
  O  O70  1  0.207500  0.276000  0.263040  1.0  -0.7282
  O  O71  1  0.049300  0.959800  0.315930  1.0  -0.665
  O  O72  1  0.385700  0.069400  0.945330  1.0  -0.6468
  O  O73  1  0.124800  0.504700  0.154270  1.0  -0.6843
  O  O74  1  0.927700  0.974500  0.237530  1.0  -0.7435
  O  O75  1  0.208800  0.364100  0.108500  1.0  -0.7072
  O  O76  1  0.449900  0.535700  0.045900  1.0  -0.6146
  O  O77  1  0.321800  0.435200  0.274700  1.0  -0.5577
  O  O78  1  0.387400  0.069400  0.051800  1.0  -0.6284
  O  O79  1  0.442600  0.877900  0.006400  1.0  -0.7757
  O  O80  1  0.349500  0.363800  0.052000  1.0  -0.6621
  O  O81  1  0.940900  0.518400  0.287230  1.0  -0.7367
  O  O82  1  0.014600  0.839300  0.423530  1.0  -0.6823
  O  O83  1  0.858800  0.064000  0.446290  1.0  -0.6796
  O  O84  1  0.594500  0.256000  0.276240  1.0  -0.5768
  O  O85  1  0.071600  0.670300  0.369530  1.0  -0.7405
  O  O86  1  0.503900  0.378800  0.327730  1.0  -0.7404
  O  O87  1  0.614400  0.249200  0.386160  1.0  -0.8193
  O  O88  1  0.788900  0.562500  0.439280  1.0  -0.8567
  O  O89  1  0.163600  0.833800  0.435290  1.0  -0.7548
  O  O90  1  0.837800  0.381600  0.384850  1.0  -0.7332
  O  O91  1  0.991500  0.687100  0.230340  1.0  -0.8153
  O  O92  1  0.623100  0.915600  0.543810  1.0  -0.6815
  O  O93  1  0.701400  0.414400  0.516860  1.0  -0.708
  O  O94  1  0.102100  0.656000  0.480360  1.0  -0.7302
  O  O95  1  0.693300  0.077500  0.495060  1.0  -0.6824
  O  O96  1  0.644800  0.454500  0.336200  1.0  -0.7129
  O  O97  1  0.663000  0.704100  0.259470  1.0  -0.7497
  O  O98  1  0.671200  0.741600  0.156590  1.0  -0.6538
  O  O99  1  0.800600  0.607800  0.337800  1.0  -0.7948
  O  O100  1  0.747700  0.101700  0.361050  1.0  -0.767
  O  O101  1  0.924200  0.585000  0.414590  1.0  -0.6302
  O  O102  1  0.792500  0.776000  0.236960  1.0  -0.7295
  O  O103  1  0.950700  0.459800  0.184070  1.0  -0.6642
  O  O104  1  0.614300  0.569400  0.554670  1.0  -0.6465
  O  O105  1  0.875200  0.004700  0.345730  1.0  -0.682
  O  O106  1  0.072300  0.474500  0.262470  1.0  -0.7441
  O  O107  1  0.791200  0.864100  0.391500  1.0  -0.7076
  O  O108  1  0.550100  0.035700  0.454100  1.0  -0.6127
  O  O109  1  0.678200  0.935200  0.225300  1.0  -0.5584
  O  O110  1  0.612600  0.569400  0.448200  1.0  -0.6285
  O  O111  1  0.557400  0.377900  0.493600  1.0  -0.775
  O  O112  1  0.650500  0.863800  0.448000  1.0  -0.6621
  O  O113  1  0.940900  0.981600  0.787230  1.0  -0.7377
  O  O114  1  0.014600  0.660700  0.923530  1.0  -0.6805
  O  O115  1  0.858800  0.436000  0.946290  1.0  -0.6797
  O  O116  1  0.594500  0.244000  0.776240  1.0  -0.5781
  O  O117  1  0.071600  0.829700  0.869530  1.0  -0.7389
  O  O118  1  0.503900  0.121200  0.827730  1.0  -0.739
  O  O119  1  0.614400  0.250800  0.886160  1.0  -0.819
  O  O120  1  0.788900  0.937500  0.939280  1.0  -0.8565
  O  O121  1  0.163600  0.666200  0.935290  1.0  -0.7554
  O  O122  1  0.837800  0.118400  0.884850  1.0  -0.7344
  O  O123  1  0.991500  0.812900  0.730340  1.0  -0.8138
  O  O124  1  0.623100  0.584400  0.043810  1.0  -0.6799
  O  O125  1  0.701400  0.085600  0.016860  1.0  -0.7075
  O  O126  1  0.102100  0.844000  0.980360  1.0  -0.7297
  O  O127  1  0.693300  0.422500  0.995060  1.0  -0.6824
  O  O128  1  0.644800  0.045500  0.836200  1.0  -0.7119
  O  O129  1  0.663000  0.795900  0.759470  1.0  -0.7494
  O  O130  1  0.671200  0.758400  0.656590  1.0  -0.653
  O  O131  1  0.800600  0.892200  0.837800  1.0  -0.794
  O  O132  1  0.747700  0.398300  0.861050  1.0  -0.7679
  O  O133  1  0.924200  0.915000  0.914590  1.0  -0.6299
  O  O134  1  0.792500  0.724000  0.736960  1.0  -0.7293
  O  O135  1  0.950700  0.040200  0.684070  1.0  -0.6641
  O  O136  1  0.614300  0.930600  0.054670  1.0  -0.6465
  O  O137  1  0.875200  0.495300  0.845730  1.0  -0.6807
  O  O138  1  0.072300  0.025500  0.762470  1.0  -0.7438
  O  O139  1  0.791200  0.635900  0.891500  1.0  -0.7071
  O  O140  1  0.550100  0.464300  0.954100  1.0  -0.6135
  O  O141  1  0.678200  0.564800  0.725300  1.0  -0.5556
  O  O142  1  0.612600  0.930600  0.948200  1.0  -0.6283
  O  O143  1  0.557400  0.122100  0.993600  1.0  -0.7759
  O  O144  1  0.650500  0.636200  0.948000  1.0  -0.6612
  O  O145  1  0.059100  0.481600  0.712770  1.0  -0.736
  O  O146  1  0.985400  0.160700  0.576470  1.0  -0.6821
  O  O147  1  0.141200  0.936000  0.553710  1.0  -0.6797
  O  O148  1  0.405500  0.744000  0.723760  1.0  -0.5795
  O  O149  1  0.928400  0.329700  0.630470  1.0  -0.7395
  O  O150  1  0.496100  0.621200  0.672270  1.0  -0.7397
  O  O151  1  0.385600  0.750800  0.613840  1.0  -0.8187
  O  O152  1  0.211100  0.437500  0.560720  1.0  -0.8568
  O  O153  1  0.836400  0.166200  0.564710  1.0  -0.7532
  O  O154  1  0.162200  0.618400  0.615150  1.0  -0.7324
  O  O155  1  0.008500  0.312900  0.769660  1.0  -0.8136
  O  O156  1  0.376900  0.084400  0.456190  1.0  -0.6809
  O  O157  1  0.298600  0.585600  0.483140  1.0  -0.7112
  O  O158  1  0.897900  0.344000  0.519640  1.0  -0.7286
  O  O159  1  0.306700  0.922500  0.504940  1.0  -0.6836
  O  O160  1  0.355200  0.545500  0.663800  1.0  -0.7105
  O  O161  1  0.337000  0.295900  0.740530  1.0  -0.7491
  O  O162  1  0.328800  0.258400  0.843410  1.0  -0.6538
  O  O163  1  0.199400  0.392200  0.662200  1.0  -0.7947
  O  O164  1  0.252300  0.898300  0.638950  1.0  -0.7684
  O  O165  1  0.075800  0.415000  0.585410  1.0  -0.6288
  O  O166  1  0.207500  0.224000  0.763040  1.0  -0.7282
  O  O167  1  0.049300  0.540200  0.815930  1.0  -0.6647
  O  O168  1  0.385700  0.430600  0.445330  1.0  -0.6472
  O  O169  1  0.124800  0.995300  0.654270  1.0  -0.6833
  O  O170  1  0.927700  0.525500  0.737530  1.0  -0.7432
  O  O171  1  0.208800  0.135900  0.608500  1.0  -0.7065
  O  O172  1  0.449900  0.964300  0.545900  1.0  -0.6153
  O  O173  1  0.321800  0.064800  0.774700  1.0  -0.5555
  O  O174  1  0.387400  0.430600  0.551800  1.0  -0.6283
  O  O175  1  0.442600  0.622100  0.506400  1.0  -0.7758
  O  O176  1  0.349500  0.136200  0.552000  1.0  -0.6613
