# generated using pymatgen
data_Co5H68C106N8O19
_symmetry_space_group_name_H-M   'P 1'
_cell_length_a   16.16520000
_cell_length_b   16.16520000
_cell_length_c   29.49640000
_cell_angle_alpha   74.31600000
_cell_angle_beta   74.31600000
_cell_angle_gamma   63.78510000
_symmetry_Int_Tables_number   1
_chemical_formula_structural   Co5H68C106N8O19
_chemical_formula_sum   'Co10 H136 C212 N16 O38'
_cell_volume   6555.14060094
_cell_formula_units_Z   2
loop_
 _symmetry_equiv_pos_site_id
 _symmetry_equiv_pos_as_xyz
  1  'x, y, z'
loop_
 _atom_site_type_symbol
 _atom_site_label
 _atom_site_symmetry_multiplicity
 _atom_site_fract_x
 _atom_site_fract_y
 _atom_site_fract_z
 _atom_site_occupancy
 _atom_site_charge
  Co  Co1  1  0.789390  0.125250  0.517000  1.0  0.9512
  Co  Co2  1  0.037620  0.819960  0.580900  1.0  0.8717
  Co  Co3  1  0.874750  0.210610  0.983000  1.0  0.951
  Co  Co4  1  0.180040  0.962380  0.919100  1.0  0.8721
  Co  Co5  1  0.210610  0.874750  0.483000  1.0  0.9505
  Co  Co6  1  0.962380  0.180040  0.419100  1.0  0.8722
  Co  Co7  1  0.125250  0.789390  0.017000  1.0  0.952
  Co  Co8  1  0.819960  0.037620  0.080900  1.0  0.8711
  Co  Co9  1  0.000000  0.000000  0.500000  1.0  0.9882
  Co  Co10  1  0.000000  0.000000  0.000000  1.0  0.9882
  H  H11  1  0.717400  0.019800  0.613400  1.0  0.0758
  H  H12  1  0.634700  0.050300  0.687600  1.0  0.1241
  H  H13  1  0.546500  0.323700  0.632600  1.0  0.1279
  H  H14  1  0.630100  0.285300  0.559900  1.0  0.0742
  H  H15  1  0.481000  0.114400  0.738000  1.0  0.1131
  H  H16  1  0.378400  0.296400  0.828800  1.0  0.1115
  H  H17  1  0.564300  0.325500  0.711100  1.0  0.1144
  H  H18  1  0.470300  0.020300  0.831100  1.0  0.1314
  H  H19  1  0.380700  0.941700  0.877100  1.0  0.0686
  H  H20  1  0.153500  0.162300  0.860900  1.0  0.0679
  H  H21  1  0.236700  0.249300  0.817900  1.0  0.1253
  H  H22  1  0.389700  0.468700  0.859100  1.0  0.1164
  H  H23  1  0.173200  0.681200  0.804500  1.0  0.1054
  H  H24  1  0.371500  0.499700  0.722500  1.0  0.1133
  H  H25  1  0.364700  0.574500  0.904500  1.0  0.1138
  H  H26  1  0.308500  0.642900  0.970800  1.0  0.0687
  H  H27  1  0.052400  0.724200  0.954300  1.0  0.078
  H  H28  1  0.100900  0.662700  0.886500  1.0  0.1259
  H  H29  1  0.137500  0.776500  0.738200  1.0  0.1084
  H  H30  1  0.063900  0.854300  0.674500  1.0  0.074
  H  H31  1  0.209500  0.644100  0.608900  1.0  0.0755
  H  H32  1  0.283400  0.558800  0.672000  1.0  0.1223
  H  H33  1  0.954600  0.728200  0.525800  1.0  0.1002
  H  H34  1  0.902600  0.608800  0.544200  1.0  0.1166
  H  H35  1  0.638000  0.794000  0.564400  1.0  0.1315
  H  H36  1  0.688900  0.913900  0.546300  1.0  0.1021
  H  H37  1  0.835300  0.583500  0.487100  1.0  0.1138
  H  H38  1  0.875700  0.451700  0.456500  1.0  0.0928
  H  H39  1  0.732400  0.354200  0.575100  1.0  0.0813
  H  H40  1  0.697300  0.482700  0.607200  1.0  0.1172
  H  H41  1  0.117800  0.032600  0.302700  1.0  0.094
  H  H42  1  0.179500  0.945700  0.242800  1.0  0.1259
  H  H43  1  0.216600  0.711600  0.339600  1.0  0.1236
  H  H44  1  0.159700  0.798100  0.400100  1.0  0.095
  H  H45  1  0.980200  0.282600  0.886600  1.0  0.0749
  H  H46  1  0.949700  0.365300  0.812400  1.0  0.124
  H  H47  1  0.676300  0.453500  0.867400  1.0  0.1303
  H  H48  1  0.714700  0.369900  0.940100  1.0  0.0743
  H  H49  1  0.885600  0.519000  0.762000  1.0  0.1137
  H  H50  1  0.703600  0.621600  0.671200  1.0  0.1123
  H  H51  1  0.674500  0.435700  0.788900  1.0  0.1146
  H  H52  1  0.979700  0.529700  0.668900  1.0  0.1284
  H  H53  1  0.058300  0.619300  0.622900  1.0  0.0683
  H  H54  1  0.837700  0.846500  0.639100  1.0  0.0684
  H  H55  1  0.750700  0.763300  0.682100  1.0  0.1264
  H  H56  1  0.531300  0.610300  0.640900  1.0  0.1163
  H  H57  1  0.318800  0.826800  0.695500  1.0  0.1051
  H  H58  1  0.500300  0.628500  0.777500  1.0  0.1143
  H  H59  1  0.425500  0.635300  0.595500  1.0  0.1143
  H  H60  1  0.357100  0.691500  0.529200  1.0  0.0679
  H  H61  1  0.275800  0.947600  0.545700  1.0  0.0789
  H  H62  1  0.337300  0.899100  0.613500  1.0  0.1256
  H  H63  1  0.223500  0.862500  0.761800  1.0  0.1078
  H  H64  1  0.145700  0.936100  0.825500  1.0  0.0732
  H  H65  1  0.355900  0.790500  0.891100  1.0  0.0753
  H  H66  1  0.441200  0.716600  0.828000  1.0  0.1215
  H  H67  1  0.271800  0.045400  0.974200  1.0  0.0997
  H  H68  1  0.391200  0.097400  0.955800  1.0  0.1157
  H  H69  1  0.206000  0.362000  0.935600  1.0  0.1305
  H  H70  1  0.086100  0.311100  0.953700  1.0  0.1027
  H  H71  1  0.416500  0.164700  0.012900  1.0  0.1144
  H  H72  1  0.548300  0.124300  0.043500  1.0  0.0929
  H  H73  1  0.645800  0.267600  0.924900  1.0  0.0811
  H  H74  1  0.517300  0.302700  0.892800  1.0  0.117
  H  H75  1  0.967400  0.882200  0.197300  1.0  0.0943
  H  H76  1  0.054300  0.820500  0.257200  1.0  0.1259
  H  H77  1  0.288400  0.783400  0.160400  1.0  0.1257
  H  H78  1  0.201900  0.840300  0.099900  1.0  0.0955
  H  H79  1  0.282600  0.980200  0.386600  1.0  0.0758
  H  H80  1  0.365300  0.949700  0.312400  1.0  0.124
  H  H81  1  0.453500  0.676300  0.367400  1.0  0.1291
  H  H82  1  0.369900  0.714700  0.440100  1.0  0.0738
  H  H83  1  0.519000  0.885600  0.262000  1.0  0.1132
  H  H84  1  0.621600  0.703600  0.171200  1.0  0.1121
  H  H85  1  0.435700  0.674500  0.288900  1.0  0.114
  H  H86  1  0.529700  0.979700  0.168900  1.0  0.1315
  H  H87  1  0.619300  0.058300  0.122900  1.0  0.0684
  H  H88  1  0.846500  0.837700  0.139100  1.0  0.068
  H  H89  1  0.763300  0.750700  0.182100  1.0  0.1249
  H  H90  1  0.610300  0.531300  0.140900  1.0  0.1161
  H  H91  1  0.826800  0.318800  0.195500  1.0  0.1055
  H  H92  1  0.628500  0.500300  0.277500  1.0  0.1139
  H  H93  1  0.635300  0.425500  0.095500  1.0  0.1144
  H  H94  1  0.691500  0.357100  0.029200  1.0  0.0689
  H  H95  1  0.947600  0.275800  0.045700  1.0  0.0781
  H  H96  1  0.899100  0.337300  0.113500  1.0  0.1255
  H  H97  1  0.862500  0.223500  0.261800  1.0  0.1092
  H  H98  1  0.936100  0.145700  0.325500  1.0  0.0746
  H  H99  1  0.790500  0.355900  0.391100  1.0  0.0742
  H  H100  1  0.716600  0.441200  0.328000  1.0  0.1209
  H  H101  1  0.045400  0.271800  0.474200  1.0  0.1012
  H  H102  1  0.097400  0.391200  0.455800  1.0  0.1157
  H  H103  1  0.362000  0.206000  0.435600  1.0  0.1299
  H  H104  1  0.311100  0.086100  0.453700  1.0  0.1026
  H  H105  1  0.164700  0.416500  0.512900  1.0  0.1134
  H  H106  1  0.124300  0.548300  0.543500  1.0  0.0937
  H  H107  1  0.267600  0.645800  0.424900  1.0  0.081
  H  H108  1  0.302700  0.517300  0.392800  1.0  0.1175
  H  H109  1  0.882200  0.967400  0.697300  1.0  0.0946
  H  H110  1  0.820500  0.054300  0.757200  1.0  0.1266
  H  H111  1  0.783400  0.288400  0.660400  1.0  0.1222
  H  H112  1  0.840300  0.201900  0.599900  1.0  0.0949
  H  H113  1  0.019800  0.717400  0.113400  1.0  0.074
  H  H114  1  0.050300  0.634700  0.187600  1.0  0.1241
  H  H115  1  0.323700  0.546500  0.132600  1.0  0.1294
  H  H116  1  0.285300  0.630100  0.059900  1.0  0.0747
  H  H117  1  0.114400  0.481000  0.238000  1.0  0.1138
  H  H118  1  0.296400  0.378400  0.328800  1.0  0.1117
  H  H119  1  0.325500  0.564300  0.211100  1.0  0.1144
  H  H120  1  0.020300  0.470300  0.331100  1.0  0.1277
  H  H121  1  0.941700  0.380700  0.377100  1.0  0.067
  H  H122  1  0.162300  0.153500  0.360900  1.0  0.0682
  H  H123  1  0.249300  0.236700  0.317900  1.0  0.1254
  H  H124  1  0.468700  0.389700  0.359100  1.0  0.1165
  H  H125  1  0.681200  0.173200  0.304500  1.0  0.105
  H  H126  1  0.499700  0.371500  0.222500  1.0  0.1133
  H  H127  1  0.574500  0.364700  0.404500  1.0  0.1141
  H  H128  1  0.642900  0.308500  0.470800  1.0  0.0687
  H  H129  1  0.724200  0.052400  0.454300  1.0  0.0785
  H  H130  1  0.662700  0.100900  0.386500  1.0  0.1256
  H  H131  1  0.776500  0.137500  0.238200  1.0  0.108
  H  H132  1  0.854300  0.063900  0.174500  1.0  0.0729
  H  H133  1  0.644100  0.209500  0.108900  1.0  0.0756
  H  H134  1  0.558800  0.283400  0.172000  1.0  0.1214
  H  H135  1  0.728200  0.954600  0.025800  1.0  0.1001
  H  H136  1  0.608800  0.902600  0.044200  1.0  0.1162
  H  H137  1  0.794000  0.638000  0.064400  1.0  0.1304
  H  H138  1  0.913900  0.688900  0.046300  1.0  0.1017
  H  H139  1  0.583500  0.835300  0.987100  1.0  0.1141
  H  H140  1  0.451700  0.875700  0.956500  1.0  0.0924
  H  H141  1  0.354200  0.732400  0.075100  1.0  0.0807
  H  H142  1  0.482700  0.697300  0.107200  1.0  0.1172
  H  H143  1  0.032600  0.117800  0.802700  1.0  0.0955
  H  H144  1  0.945700  0.179500  0.742800  1.0  0.1256
  H  H145  1  0.711600  0.216600  0.839600  1.0  0.1264
  H  H146  1  0.798100  0.159700  0.900100  1.0  0.0943
  C  C147  1  0.683570  0.081790  0.617550  1.0  0.1838
  C  C148  1  0.633950  0.099550  0.662310  1.0  -0.2238
  C  C149  1  0.583100  0.191000  0.669410  1.0  0.1022
  C  C150  1  0.581650  0.261170  0.629760  1.0  -0.2162
  C  C151  1  0.632630  0.237450  0.586190  1.0  0.1571
  C  C152  1  0.530460  0.216120  0.716520  1.0  0.0327
  C  C153  1  0.478030  0.167430  0.746240  1.0  -0.0773
  C  C154  1  0.420960  0.197300  0.788350  1.0  0.0308
  C  C155  1  0.417430  0.275130  0.801130  1.0  -0.1569
  C  C156  1  0.472960  0.320960  0.772010  1.0  0.2549
  C  C157  1  0.528250  0.293130  0.730280  1.0  -0.1634
  C  C158  1  0.363700  0.144740  0.818640  1.0  0.1129
  C  C159  1  0.405400  0.051540  0.837140  1.0  -0.2424
  C  C160  1  0.350890  0.004730  0.864610  1.0  0.1516
  C  C161  1  0.218610  0.133270  0.855670  1.0  0.1767
  C  C162  1  0.268070  0.185830  0.828970  1.0  -0.2303
  C  C163  1  0.391650  0.472430  0.790240  1.0  0.2662
  C  C164  1  0.357660  0.501620  0.833680  1.0  -0.1855
  C  C165  1  0.275110  0.580710  0.839350  1.0  0.0204
  C  C166  1  0.229060  0.628880  0.800710  1.0  -0.1216
  C  C167  1  0.264730  0.600530  0.756520  1.0  -0.0248
  C  C168  1  0.346950  0.520490  0.751700  1.0  -0.1647
  C  C169  1  0.239340  0.614740  0.885660  1.0  0.1042
  C  C170  1  0.300500  0.607040  0.913190  1.0  -0.2159
  C  C171  1  0.265980  0.647600  0.953360  1.0  0.1743
  C  C172  1  0.116400  0.695620  0.943470  1.0  0.1797
  C  C173  1  0.144950  0.658530  0.902760  1.0  -0.2384
  C  C174  1  0.216920  0.655300  0.714470  1.0  0.0844
  C  C175  1  0.152080  0.746280  0.712580  1.0  -0.1926
  C  C176  1  0.108350  0.793410  0.673750  1.0  0.1768
  C  C177  1  0.192540  0.671000  0.636010  1.0  0.1535
  C  C178  1  0.238050  0.619010  0.673910  1.0  -0.2156
  C  C179  1  0.858070  0.912070  0.527200  1.0  0.6795
  C  C180  1  0.827210  0.833530  0.534770  1.0  -0.1782
  C  C181  1  0.890770  0.741850  0.533780  1.0  -0.0379
  C  C182  1  0.859810  0.670390  0.544560  1.0  -0.2683
  C  C183  1  0.766130  0.691050  0.555760  1.0  0.3092
  C  C184  1  0.701720  0.781120  0.556680  1.0  -0.1423
  C  C185  1  0.732290  0.852410  0.545990  1.0  -0.0241
  C  C186  1  0.762190  0.546290  0.550100  1.0  0.3046
  C  C187  1  0.815370  0.536690  0.505050  1.0  -0.1976
  C  C188  1  0.838840  0.458080  0.486610  1.0  -0.0353
  C  C189  1  0.808490  0.388510  0.512190  1.0  -0.1333
  C  C190  1  0.754170  0.399910  0.557460  1.0  -0.042
  C  C191  1  0.732170  0.477130  0.576590  1.0  -0.2514
  C  C192  1  0.831070  0.303830  0.492280  1.0  0.6723
  C  C193  1  0.088970  0.982090  0.396890  1.0  0.6682
  C  C194  1  0.130890  0.925090  0.358020  1.0  -0.1761
  C  C195  1  0.137700  0.967780  0.310350  1.0  -0.0258
  C  C196  1  0.173020  0.916460  0.274590  1.0  -0.2289
  C  C197  1  0.199130  0.820850  0.285810  1.0  0.2807
  C  C198  1  0.195920  0.776520  0.332320  1.0  -0.2234
  C  C199  1  0.161910  0.828350  0.368370  1.0  -0.0217
  C  C200  1  0.918210  0.316430  0.882450  1.0  0.1831
  C  C201  1  0.900450  0.366050  0.837690  1.0  -0.2161
  C  C202  1  0.809000  0.416900  0.830590  1.0  0.1004
  C  C203  1  0.738830  0.418350  0.870240  1.0  -0.217
  C  C204  1  0.762550  0.367370  0.913810  1.0  0.1557
  C  C205  1  0.783880  0.469540  0.783480  1.0  0.0323
  C  C206  1  0.832570  0.521970  0.753760  1.0  -0.0767
  C  C207  1  0.802700  0.579040  0.711650  1.0  0.0294
  C  C208  1  0.724870  0.582570  0.698870  1.0  -0.1551
  C  C209  1  0.679040  0.527040  0.727990  1.0  0.2541
  C  C210  1  0.706870  0.471750  0.769720  1.0  -0.1641
  C  C211  1  0.855260  0.636300  0.681360  1.0  0.1168
  C  C212  1  0.948460  0.594600  0.662860  1.0  -0.2443
  C  C213  1  0.995270  0.649110  0.635390  1.0  0.1526
  C  C214  1  0.866730  0.781390  0.644330  1.0  0.1751
  C  C215  1  0.814170  0.731930  0.671030  1.0  -0.2326
  C  C216  1  0.527570  0.608350  0.709760  1.0  0.2677
  C  C217  1  0.498380  0.642340  0.666320  1.0  -0.188
  C  C218  1  0.419290  0.724890  0.660650  1.0  0.0185
  C  C219  1  0.371120  0.770940  0.699290  1.0  -0.1236
  C  C220  1  0.399470  0.735270  0.743480  1.0  -0.0259
  C  C221  1  0.479510  0.653050  0.748300  1.0  -0.165
  C  C222  1  0.385260  0.760660  0.614340  1.0  0.1047
  C  C223  1  0.392960  0.699500  0.586810  1.0  -0.2167
  C  C224  1  0.352400  0.734020  0.546640  1.0  0.1763
  C  C225  1  0.304380  0.883600  0.556530  1.0  0.1789
  C  C226  1  0.341470  0.855050  0.597240  1.0  -0.2431
  C  C227  1  0.344700  0.783080  0.785530  1.0  0.0838
  C  C228  1  0.253720  0.847920  0.787420  1.0  -0.1944
  C  C229  1  0.206590  0.891650  0.826250  1.0  0.1793
  C  C230  1  0.329000  0.807460  0.863990  1.0  0.1549
  C  C231  1  0.380990  0.761950  0.826090  1.0  -0.2133
  C  C232  1  0.087930  0.141930  0.972800  1.0  0.679
  C  C233  1  0.166470  0.172790  0.965230  1.0  -0.1777
  C  C234  1  0.258150  0.109230  0.966220  1.0  -0.0408
  C  C235  1  0.329610  0.140190  0.955440  1.0  -0.2687
  C  C236  1  0.308950  0.233870  0.944240  1.0  0.3105
  C  C237  1  0.218880  0.298280  0.943320  1.0  -0.1413
  C  C238  1  0.147590  0.267710  0.954010  1.0  -0.0262
  C  C239  1  0.453710  0.237810  0.949900  1.0  0.3036
  C  C240  1  0.463310  0.184630  0.994950  1.0  -0.2009
  C  C241  1  0.541920  0.161160  0.013390  1.0  -0.038
  C  C242  1  0.611490  0.191510  0.987810  1.0  -0.1379
  C  C243  1  0.600090  0.245830  0.942540  1.0  -0.0426
  C  C244  1  0.522870  0.267830  0.923410  1.0  -0.2508
  C  C245  1  0.696170  0.168930  0.007720  1.0  0.6701
  C  C246  1  0.017910  0.911030  0.103110  1.0  0.6688
  C  C247  1  0.074910  0.869110  0.141980  1.0  -0.172
  C  C248  1  0.032220  0.862300  0.189650  1.0  -0.0234
  C  C249  1  0.083540  0.826980  0.225410  1.0  -0.2316
  C  C250  1  0.179150  0.800870  0.214190  1.0  0.2724
  C  C251  1  0.223480  0.804080  0.167680  1.0  -0.2246
  C  C252  1  0.171650  0.838090  0.131630  1.0  -0.0213
  C  C253  1  0.316430  0.918210  0.382450  1.0  0.182
  C  C254  1  0.366050  0.900450  0.337690  1.0  -0.2231
  C  C255  1  0.416900  0.809000  0.330590  1.0  0.1016
  C  C256  1  0.418350  0.738830  0.370240  1.0  -0.2172
  C  C257  1  0.367370  0.762550  0.413810  1.0  0.1562
  C  C258  1  0.469540  0.783880  0.283480  1.0  0.0321
  C  C259  1  0.521970  0.832570  0.253760  1.0  -0.0785
  C  C260  1  0.579040  0.802700  0.211650  1.0  0.0293
  C  C261  1  0.582570  0.724870  0.198870  1.0  -0.157
  C  C262  1  0.527040  0.679040  0.227990  1.0  0.2538
  C  C263  1  0.471750  0.706870  0.269720  1.0  -0.1634
  C  C264  1  0.636300  0.855260  0.181360  1.0  0.1142
  C  C265  1  0.594600  0.948460  0.162860  1.0  -0.2434
  C  C266  1  0.649110  0.995270  0.135390  1.0  0.1511
  C  C267  1  0.781390  0.866730  0.144330  1.0  0.1773
  C  C268  1  0.731930  0.814170  0.171030  1.0  -0.2319
  C  C269  1  0.608350  0.527570  0.209760  1.0  0.2669
  C  C270  1  0.642340  0.498380  0.166320  1.0  -0.1879
  C  C271  1  0.724890  0.419290  0.160650  1.0  0.0191
  C  C272  1  0.770940  0.371120  0.199290  1.0  -0.1222
  C  C273  1  0.735270  0.399470  0.243480  1.0  -0.0254
  C  C274  1  0.653050  0.479510  0.248300  1.0  -0.1643
  C  C275  1  0.760660  0.385260  0.114340  1.0  0.1037
  C  C276  1  0.699500  0.392960  0.086810  1.0  -0.2151
  C  C277  1  0.734020  0.352400  0.046640  1.0  0.1742
  C  C278  1  0.883600  0.304380  0.056530  1.0  0.1808
  C  C279  1  0.855050  0.341470  0.097240  1.0  -0.2369
  C  C280  1  0.783080  0.344700  0.285530  1.0  0.0846
  C  C281  1  0.847920  0.253720  0.287420  1.0  -0.1919
  C  C282  1  0.891650  0.206590  0.326250  1.0  0.1774
  C  C283  1  0.807460  0.329000  0.363990  1.0  0.1538
  C  C284  1  0.761950  0.380990  0.326090  1.0  -0.2164
  C  C285  1  0.141930  0.087930  0.472800  1.0  0.6789
  C  C286  1  0.172790  0.166470  0.465230  1.0  -0.1793
  C  C287  1  0.109230  0.258150  0.466220  1.0  -0.0403
  C  C288  1  0.140190  0.329610  0.455440  1.0  -0.2711
  C  C289  1  0.233870  0.308950  0.444240  1.0  0.311
  C  C290  1  0.298280  0.218880  0.443320  1.0  -0.1435
  C  C291  1  0.267710  0.147590  0.454010  1.0  -0.0251
  C  C292  1  0.237810  0.453710  0.449900  1.0  0.3035
  C  C293  1  0.184630  0.463310  0.494950  1.0  -0.2001
  C  C294  1  0.161160  0.541920  0.513390  1.0  -0.035
  C  C295  1  0.191510  0.611490  0.487810  1.0  -0.133
  C  C296  1  0.245830  0.600090  0.442540  1.0  -0.0427
  C  C297  1  0.267830  0.522870  0.423410  1.0  -0.2512
  C  C298  1  0.168930  0.696170  0.507720  1.0  0.672
  C  C299  1  0.911030  0.017910  0.603110  1.0  0.6681
  C  C300  1  0.869110  0.074910  0.641980  1.0  -0.1763
  C  C301  1  0.862300  0.032220  0.689650  1.0  -0.027
  C  C302  1  0.826980  0.083540  0.725410  1.0  -0.23
  C  C303  1  0.800870  0.179150  0.714190  1.0  0.281
  C  C304  1  0.804080  0.223480  0.667680  1.0  -0.2231
  C  C305  1  0.838090  0.171650  0.631630  1.0  -0.0215
  C  C306  1  0.081790  0.683570  0.117550  1.0  0.1837
  C  C307  1  0.099550  0.633950  0.162310  1.0  -0.2194
  C  C308  1  0.191000  0.583100  0.169410  1.0  0.1005
  C  C309  1  0.261170  0.581650  0.129760  1.0  -0.2155
  C  C310  1  0.237450  0.632630  0.086190  1.0  0.1561
  C  C311  1  0.216120  0.530460  0.216520  1.0  0.0313
  C  C312  1  0.167430  0.478030  0.246240  1.0  -0.0764
  C  C313  1  0.197300  0.420960  0.288350  1.0  0.0288
  C  C314  1  0.275130  0.417430  0.301130  1.0  -0.1564
  C  C315  1  0.320960  0.472960  0.272010  1.0  0.2551
  C  C316  1  0.293130  0.528250  0.230280  1.0  -0.1632
  C  C317  1  0.144740  0.363700  0.318640  1.0  0.1145
  C  C318  1  0.051540  0.405400  0.337140  1.0  -0.2439
  C  C319  1  0.004730  0.350890  0.364610  1.0  0.1506
  C  C320  1  0.133270  0.218610  0.355670  1.0  0.1771
  C  C321  1  0.185830  0.268070  0.328970  1.0  -0.2304
  C  C322  1  0.472430  0.391650  0.290240  1.0  0.2676
  C  C323  1  0.501620  0.357660  0.333680  1.0  -0.1877
  C  C324  1  0.580710  0.275110  0.339350  1.0  0.0197
  C  C325  1  0.628880  0.229060  0.300710  1.0  -0.1226
  C  C326  1  0.600530  0.264730  0.256520  1.0  -0.0244
  C  C327  1  0.520490  0.346950  0.251700  1.0  -0.1664
  C  C328  1  0.614740  0.239340  0.385660  1.0  0.1044
  C  C329  1  0.607040  0.300500  0.413190  1.0  -0.2174
  C  C330  1  0.647600  0.265980  0.453360  1.0  0.1765
  C  C331  1  0.695620  0.116400  0.443470  1.0  0.1766
  C  C332  1  0.658530  0.144950  0.402760  1.0  -0.2432
  C  C333  1  0.655300  0.216920  0.214470  1.0  0.0828
  C  C334  1  0.746280  0.152080  0.212580  1.0  -0.1945
  C  C335  1  0.793410  0.108350  0.173750  1.0  0.1789
  C  C336  1  0.671000  0.192540  0.136010  1.0  0.1542
  C  C337  1  0.619010  0.238050  0.173910  1.0  -0.2131
  C  C338  1  0.912070  0.858070  0.027200  1.0  0.6802
  C  C339  1  0.833530  0.827210  0.034770  1.0  -0.178
  C  C340  1  0.741850  0.890770  0.033780  1.0  -0.0396
  C  C341  1  0.670390  0.859810  0.044560  1.0  -0.2696
  C  C342  1  0.691050  0.766130  0.055760  1.0  0.3102
  C  C343  1  0.781120  0.701720  0.056680  1.0  -0.1423
  C  C344  1  0.852410  0.732290  0.045990  1.0  -0.0254
  C  C345  1  0.546290  0.762190  0.050100  1.0  0.3031
  C  C346  1  0.536690  0.815370  0.005050  1.0  -0.1988
  C  C347  1  0.458080  0.838840  0.986610  1.0  -0.0375
  C  C348  1  0.388510  0.808490  0.012190  1.0  -0.1368
  C  C349  1  0.399910  0.754170  0.057460  1.0  -0.0413
  C  C350  1  0.477130  0.732170  0.076590  1.0  -0.2507
  C  C351  1  0.303830  0.831070  0.992280  1.0  0.6703
  C  C352  1  0.982090  0.088970  0.896890  1.0  0.6677
  C  C353  1  0.925090  0.130890  0.858020  1.0  -0.1744
  C  C354  1  0.967780  0.137700  0.810350  1.0  -0.0223
  C  C355  1  0.916460  0.173020  0.774590  1.0  -0.2277
  C  C356  1  0.820850  0.199130  0.785810  1.0  0.2737
  C  C357  1  0.776520  0.195920  0.832320  1.0  -0.2249
  C  C358  1  0.828350  0.161910  0.868370  1.0  -0.0226
  N  N359  1  0.685390  0.149430  0.579750  1.0  -0.3464
  N  N360  1  0.257600  0.044120  0.874450  1.0  -0.3068
  N  N361  1  0.174840  0.693480  0.968790  1.0  -0.3494
  N  N362  1  0.125600  0.757380  0.635270  1.0  -0.3267
  N  N363  1  0.850570  0.314610  0.920250  1.0  -0.3435
  N  N364  1  0.955880  0.742400  0.625550  1.0  -0.3029
  N  N365  1  0.306520  0.825160  0.531210  1.0  -0.3505
  N  N366  1  0.242620  0.874400  0.864730  1.0  -0.3255
  N  N367  1  0.314610  0.850570  0.420250  1.0  -0.3405
  N  N368  1  0.742400  0.955880  0.125550  1.0  -0.3041
  N  N369  1  0.825160  0.306520  0.031210  1.0  -0.3514
  N  N370  1  0.874400  0.242620  0.364730  1.0  -0.3262
  N  N371  1  0.149430  0.685390  0.079750  1.0  -0.3476
  N  N372  1  0.044120  0.257600  0.374450  1.0  -0.3059
  N  N373  1  0.693480  0.174840  0.468790  1.0  -0.349
  N  N374  1  0.757380  0.125600  0.135270  1.0  -0.3248
  O  O375  1  0.475740  0.395400  0.785940  1.0  -0.2642
  O  O376  1  0.728800  0.623460  0.571530  1.0  -0.2545
  O  O377  1  0.794570  0.992250  0.527580  1.0  -0.5965
  O  O378  1  0.944700  0.892560  0.521430  1.0  -0.6389
  O  O379  1  0.890120  0.290760  0.454280  1.0  -0.5988
  O  O380  1  0.789230  0.251830  0.515000  1.0  -0.596
  O  O381  1  0.054290  0.069790  0.384030  1.0  -0.6039
  O  O382  1  0.089640  0.939560  0.439810  1.0  -0.6444
  O  O383  1  0.900120  0.093260  0.461340  1.0  -0.7959
  O  O384  1  0.604600  0.524260  0.714060  1.0  -0.2659
  O  O385  1  0.376540  0.271200  0.928470  1.0  -0.258
  O  O386  1  0.007750  0.205430  0.972420  1.0  -0.5976
  O  O387  1  0.107440  0.055300  0.978570  1.0  -0.6393
  O  O388  1  0.709240  0.109880  0.045720  1.0  -0.5992
  O  O389  1  0.748170  0.210770  0.985000  1.0  -0.5961
  O  O390  1  0.930210  0.945710  0.115970  1.0  -0.6023
  O  O391  1  0.060440  0.910360  0.060190  1.0  -0.6423
  O  O392  1  0.906740  0.099880  0.038660  1.0  -0.7961
  O  O393  1  0.524260  0.604600  0.214060  1.0  -0.2645
  O  O394  1  0.271200  0.376540  0.428470  1.0  -0.2562
  O  O395  1  0.205430  0.007750  0.472420  1.0  -0.5966
  O  O396  1  0.055300  0.107440  0.478570  1.0  -0.6387
  O  O397  1  0.109880  0.709240  0.545720  1.0  -0.5991
  O  O398  1  0.210770  0.748170  0.485000  1.0  -0.5959
  O  O399  1  0.945710  0.930210  0.615970  1.0  -0.6052
  O  O400  1  0.910360  0.060440  0.560190  1.0  -0.6429
  O  O401  1  0.099880  0.906740  0.538660  1.0  -0.7955
  O  O402  1  0.395400  0.475740  0.285940  1.0  -0.2658
  O  O403  1  0.623460  0.728800  0.071530  1.0  -0.2568
  O  O404  1  0.992250  0.794570  0.027580  1.0  -0.5976
  O  O405  1  0.892560  0.944700  0.021430  1.0  -0.6389
  O  O406  1  0.290760  0.890120  0.954280  1.0  -0.5979
  O  O407  1  0.251830  0.789230  0.015000  1.0  -0.5965
  O  O408  1  0.069790  0.054290  0.884030  1.0  -0.6027
  O  O409  1  0.939560  0.089640  0.939810  1.0  -0.6426
  O  O410  1  0.093260  0.900120  0.961340  1.0  -0.7963
  O  O411  1  0.233400  0.766600  0.250000  1.0  -0.2567
  O  O412  1  0.766600  0.233400  0.750000  1.0  -0.2565
