# generated using pymatgen
data_CoH6C12NO5
_symmetry_space_group_name_H-M   'P 1'
_cell_length_a   10.15200000
_cell_length_b   17.95300000
_cell_length_c   18.06200000
_cell_angle_alpha   90.00000000
_cell_angle_beta   94.62000000
_cell_angle_gamma   90.00000000
_symmetry_Int_Tables_number   1
_chemical_formula_structural   CoH6C12NO5
_chemical_formula_sum   'Co4 H24 C48 N4 O20'
_cell_volume   3281.26329820
_cell_formula_units_Z   4
loop_
 _symmetry_equiv_pos_site_id
 _symmetry_equiv_pos_as_xyz
  1  'x, y, z'
loop_
 _atom_site_type_symbol
 _atom_site_label
 _atom_site_symmetry_multiplicity
 _atom_site_fract_x
 _atom_site_fract_y
 _atom_site_fract_z
 _atom_site_occupancy
 _atom_site_charge
  Co  Co1  1  0.509300  0.695370  0.628580  1.0  1.1343
  Co  Co2  1  0.274320  0.750690  0.488090  1.0  0.95
  Co  Co3  1  0.490700  0.195370  0.371420  1.0  1.1358
  Co  Co4  1  0.725680  0.250690  0.511910  1.0  0.9548
  H  H5  1  0.620500  0.052800  0.775100  1.0  0.2794
  H  H6  1  0.864600  0.109900  0.101000  1.0  0.2753
  H  H7  1  0.022900  0.121400  0.802800  1.0  0.1133
  H  H8  1  0.114100  0.142900  0.922800  1.0  0.1115
  H  H9  1  0.766300  0.092600  0.002100  1.0  0.114
  H  H10  1  0.675100  0.071200  0.882100  1.0  0.1107
  H  H11  1  0.589500  0.918500  0.697400  1.0  0.1246
  H  H12  1  0.458400  0.965500  0.487300  1.0  0.1053
  H  H13  1  0.626500  0.127600  0.622300  1.0  0.1128
  H  H14  1  0.165400  0.160100  0.183300  1.0  0.1258
  H  H15  1  0.035000  0.204600  0.381900  1.0  0.1145
  H  H16  1  0.774400  0.163600  0.206300  1.0  0.1205
  H  H17  1  0.379500  0.552800  0.224900  1.0  0.2856
  H  H18  1  0.135400  0.609900  0.899000  1.0  0.2773
  H  H19  1  0.977100  0.621400  0.197200  1.0  0.1133
  H  H20  1  0.885900  0.642900  0.077200  1.0  0.1116
  H  H21  1  0.233700  0.592600  0.997900  1.0  0.1114
  H  H22  1  0.324900  0.571200  0.117900  1.0  0.1092
  H  H23  1  0.410500  0.418500  0.302600  1.0  0.1244
  H  H24  1  0.541600  0.465500  0.512700  1.0  0.1052
  H  H25  1  0.373500  0.627600  0.377700  1.0  0.1128
  H  H26  1  0.834600  0.660100  0.816700  1.0  0.1263
  H  H27  1  0.965000  0.704600  0.618100  1.0  0.1146
  H  H28  1  0.225600  0.663600  0.793700  1.0  0.1203
  C  C29  1  0.839990  0.094170  0.830540  1.0  -0.1252
  C  C30  1  0.971490  0.115650  0.842750  1.0  -0.0529
  C  C31  1  0.026110  0.128500  0.914670  1.0  -0.0523
  C  C32  1  0.949230  0.119860  0.974390  1.0  -0.103
  C  C33  1  0.817730  0.098380  0.962180  1.0  -0.1084
  C  C34  1  0.763110  0.085530  0.890260  1.0  -0.1358
  C  C35  1  0.786600  0.084650  0.752370  1.0  0.5947
  C  C36  1  0.008990  0.142790  0.048030  1.0  0.5121
  C  C37  1  0.616000  0.025690  0.669650  1.0  0.1886
  C  C38  1  0.575700  0.952930  0.659090  1.0  -0.0894
  C  C39  1  0.512500  0.930650  0.589120  1.0  -0.1399
  C  C40  1  0.499100  0.980400  0.532880  1.0  0.0288
  C  C41  1  0.545700  0.055030  0.541570  1.0  -0.1403
  C  C42  1  0.601200  0.078400  0.613590  1.0  -0.1064
  C  C43  1  0.464900  0.851600  0.580630  1.0  0.7417
  C  C44  1  0.531100  0.107980  0.480210  1.0  0.6839
  C  C45  1  0.967800  0.161420  0.181760  1.0  0.2041
  C  C46  1  0.094700  0.167820  0.212150  1.0  -0.0952
  C  C47  1  0.116800  0.186170  0.287080  1.0  -0.1123
  C  C48  1  0.016800  0.194480  0.331640  1.0  -0.0035
  C  C49  1  0.884300  0.187730  0.301160  1.0  -0.1599
  C  C50  1  0.860700  0.169940  0.226780  1.0  -0.1043
  C  C51  1  0.259400  0.190600  0.320870  1.0  0.6193
  C  C52  1  0.772000  0.198700  0.349660  1.0  0.7389
  C  C53  1  0.160010  0.594170  0.169460  1.0  -0.1247
  C  C54  1  0.028510  0.615650  0.157250  1.0  -0.0531
  C  C55  1  0.973890  0.628500  0.085330  1.0  -0.0538
  C  C56  1  0.050770  0.619860  0.025610  1.0  -0.1031
  C  C57  1  0.182270  0.598380  0.037820  1.0  -0.1066
  C  C58  1  0.236890  0.585530  0.109740  1.0  -0.1262
  C  C59  1  0.213400  0.584650  0.247630  1.0  0.5982
  C  C60  1  0.991010  0.642790  0.951970  1.0  0.5111
  C  C61  1  0.384000  0.525690  0.330350  1.0  0.1896
  C  C62  1  0.424300  0.452930  0.340910  1.0  -0.0916
  C  C63  1  0.487500  0.430650  0.410880  1.0  -0.1402
  C  C64  1  0.500900  0.480400  0.467120  1.0  0.0285
  C  C65  1  0.454300  0.555030  0.458430  1.0  -0.1418
  C  C66  1  0.398800  0.578400  0.386410  1.0  -0.107
  C  C67  1  0.535100  0.351600  0.419370  1.0  0.741
  C  C68  1  0.468900  0.607980  0.519790  1.0  0.6842
  C  C69  1  0.032200  0.661420  0.818240  1.0  0.2042
  C  C70  1  0.905300  0.667820  0.787850  1.0  -0.0981
  C  C71  1  0.883200  0.686170  0.712920  1.0  -0.111
  C  C72  1  0.983200  0.694480  0.668360  1.0  -0.0036
  C  C73  1  0.115700  0.687730  0.698840  1.0  -0.1595
  C  C74  1  0.139300  0.669940  0.773220  1.0  -0.1032
  C  C75  1  0.740600  0.690600  0.679130  1.0  0.6202
  C  C76  1  0.228000  0.698700  0.650340  1.0  0.7386
  N  N77  1  0.679100  0.044100  0.741200  1.0  -0.4371
  N  N78  1  0.931200  0.143100  0.106300  1.0  -0.4211
  N  N79  1  0.320900  0.544100  0.258800  1.0  -0.4361
  N  N80  1  0.068800  0.643100  0.893700  1.0  -0.4194
  O  O81  1  0.851900  0.110100  0.702300  1.0  -0.5267
  O  O82  1  0.122900  0.170400  0.059000  1.0  -0.4914
  O  O83  1  0.501300  0.807800  0.631100  1.0  -0.5774
  O  O84  1  0.400400  0.835800  0.521400  1.0  -0.6394
  O  O85  1  0.484500  0.086100  0.418000  1.0  -0.5367
  O  O86  1  0.563800  0.175800  0.490400  1.0  -0.644
  O  O87  1  0.353000  0.179600  0.280300  1.0  -0.5452
  O  O88  1  0.277600  0.204700  0.388500  1.0  -0.5415
  O  O89  1  0.799400  0.226100  0.411700  1.0  -0.6454
  O  O90  1  0.659100  0.178700  0.323000  1.0  -0.582
  O  O91  1  0.148100  0.610100  0.297700  1.0  -0.5247
  O  O92  1  0.877100  0.670400  0.941000  1.0  -0.4902
  O  O93  1  0.498700  0.307800  0.368900  1.0  -0.5778
  O  O94  1  0.599600  0.335800  0.478600  1.0  -0.6378
  O  O95  1  0.515500  0.586100  0.582000  1.0  -0.5347
  O  O96  1  0.436200  0.675800  0.509600  1.0  -0.643
  O  O97  1  0.647000  0.679600  0.719700  1.0  -0.5434
  O  O98  1  0.722400  0.704700  0.611500  1.0  -0.5463
  O  O99  1  0.200600  0.726100  0.588300  1.0  -0.6457
  O  O100  1  0.340900  0.678700  0.677000  1.0  -0.5832
