# generated using pymatgen
data_Mn2FeH36C44N10(ClO)4
_symmetry_space_group_name_H-M   'P 1'
_cell_length_a   16.29480000
_cell_length_b   16.29480000
_cell_length_c   19.36710000
_cell_angle_alpha   90.00000000
_cell_angle_beta   90.00000000
_cell_angle_gamma   120.00000000
_symmetry_Int_Tables_number   1
_chemical_formula_structural   Mn2FeH36C44N10(ClO)4
_chemical_formula_sum   'Mn6 Fe3 H108 C132 N30 Cl12 O12'
_cell_volume   4453.41631096
_cell_formula_units_Z   3
loop_
 _symmetry_equiv_pos_site_id
 _symmetry_equiv_pos_as_xyz
  1  'x, y, z'
loop_
 _atom_site_type_symbol
 _atom_site_label
 _atom_site_symmetry_multiplicity
 _atom_site_fract_x
 _atom_site_fract_y
 _atom_site_fract_z
 _atom_site_occupancy
 _atom_site_charge
  Mn  Mn1  1  0.500650  0.784040  0.384410  1.0  0.9223
  Mn  Mn2  1  0.215960  0.716610  0.051080  1.0  0.92
  Mn  Mn3  1  0.283390  0.499350  0.717740  1.0  0.9226
  Mn  Mn4  1  0.784040  0.500650  0.615590  1.0  0.9243
  Mn  Mn5  1  0.716610  0.215960  0.948920  1.0  0.925
  Mn  Mn6  1  0.499350  0.283390  0.282260  1.0  0.9234
  Fe  Fe7  1  0.533150  0.000000  0.166670  1.0  0.7943
  Fe  Fe8  1  0.000000  0.533150  0.833330  1.0  0.7882
  Fe  Fe9  1  0.466850  0.466850  0.500000  1.0  0.7883
  H  H10  1  0.415600  0.935200  0.526100  1.0  0.1309
  H  H11  1  0.286600  0.958500  0.516800  1.0  0.1172
  H  H12  1  0.173000  0.758900  0.367700  1.0  0.1318
  H  H13  1  0.240700  0.663500  0.340500  1.0  0.1292
  H  H14  1  0.278600  0.564800  0.307400  1.0  0.1159
  H  H15  1  0.356700  0.559400  0.354100  1.0  0.1274
  H  H16  1  0.515200  0.609100  0.309600  1.0  0.1163
  H  H17  1  0.546100  0.652200  0.233700  1.0  0.1086
  H  H18  1  0.657500  0.789900  0.237500  1.0  0.1291
  H  H19  1  0.791500  0.940700  0.219200  1.0  0.1205
  H  H20  1  0.879900  0.147200  0.362900  1.0  0.1161
  H  H21  1  0.749400  0.051500  0.431700  1.0  0.1167
  H  H22  1  0.328100  0.650900  0.193300  1.0  0.1174
  H  H23  1  0.432000  0.685300  0.163600  1.0  0.1155
  H  H24  1  0.418100  0.741000  0.226400  1.0  0.117
  H  H25  1  0.305200  0.486300  0.213400  1.0  0.1187
  H  H26  1  0.382100  0.475900  0.258200  1.0  0.1158
  H  H27  1  0.408900  0.522200  0.182800  1.0  0.1186
  H  H28  1  0.064800  0.480400  0.192770  1.0  0.13
  H  H29  1  0.041500  0.328100  0.183470  1.0  0.1174
  H  H30  1  0.241100  0.414100  0.034370  1.0  0.1313
  H  H31  1  0.336500  0.577200  0.007170  1.0  0.129
  H  H32  1  0.435200  0.713800  0.974070  1.0  0.1172
  H  H33  1  0.440600  0.797300  0.020770  1.0  0.1265
  H  H34  1  0.390900  0.906100  0.976270  1.0  0.115
  H  H35  1  0.347800  0.893900  0.900370  1.0  0.1095
  H  H36  1  0.210100  0.867600  0.904170  1.0  0.1288
  H  H37  1  0.059300  0.850800  0.885870  1.0  0.1202
  H  H38  1  0.852800  0.732700  0.029570  1.0  0.1165
  H  H39  1  0.948500  0.697900  0.098370  1.0  0.1159
  H  H40  1  0.349100  0.677200  0.859970  1.0  0.115
  H  H41  1  0.314700  0.746700  0.830270  1.0  0.1159
  H  H42  1  0.259000  0.677100  0.893070  1.0  0.1162
  H  H43  1  0.513700  0.818900  0.880070  1.0  0.1187
  H  H44  1  0.524100  0.906200  0.924870  1.0  0.116
  H  H45  1  0.477800  0.886700  0.849470  1.0  0.1196
  H  H46  1  0.519600  0.584400  0.859430  1.0  0.1303
  H  H47  1  0.671900  0.713400  0.850130  1.0  0.1171
  H  H48  1  0.585900  0.827000  0.701030  1.0  0.1322
  H  H49  1  0.422800  0.759300  0.673830  1.0  0.1297
  H  H50  1  0.286200  0.721400  0.640730  1.0  0.1154
  H  H51  1  0.202700  0.643300  0.687430  1.0  0.1256
  H  H52  1  0.093900  0.484800  0.642930  1.0  0.1162
  H  H53  1  0.106100  0.453900  0.567030  1.0  0.1089
  H  H54  1  0.132400  0.342500  0.570830  1.0  0.1287
  H  H55  1  0.149200  0.208500  0.552530  1.0  0.1205
  H  H56  1  0.267300  0.120100  0.696230  1.0  0.1164
  H  H57  1  0.302100  0.250600  0.765030  1.0  0.1167
  H  H58  1  0.322800  0.671900  0.526630  1.0  0.1163
  H  H59  1  0.253300  0.568000  0.496930  1.0  0.1161
  H  H60  1  0.322900  0.581900  0.559730  1.0  0.1206
  H  H61  1  0.181100  0.694800  0.546730  1.0  0.1209
  H  H62  1  0.093800  0.617900  0.591530  1.0  0.1174
  H  H63  1  0.113300  0.591100  0.516130  1.0  0.119
  H  H64  1  0.935200  0.415600  0.473900  1.0  0.1302
  H  H65  1  0.958500  0.286600  0.483200  1.0  0.1163
  H  H66  1  0.758900  0.173000  0.632300  1.0  0.1322
  H  H67  1  0.663500  0.240700  0.659500  1.0  0.1301
  H  H68  1  0.564800  0.278600  0.692600  1.0  0.1134
  H  H69  1  0.559400  0.356700  0.645900  1.0  0.1257
  H  H70  1  0.609100  0.515200  0.690400  1.0  0.1163
  H  H71  1  0.652200  0.546100  0.766300  1.0  0.1084
  H  H72  1  0.789900  0.657500  0.762500  1.0  0.129
  H  H73  1  0.940700  0.791500  0.780800  1.0  0.12
  H  H74  1  0.147200  0.879900  0.637100  1.0  0.1166
  H  H75  1  0.051500  0.749400  0.568300  1.0  0.1169
  H  H76  1  0.650900  0.328100  0.806700  1.0  0.1161
  H  H77  1  0.685300  0.432000  0.836400  1.0  0.116
  H  H78  1  0.741000  0.418100  0.773600  1.0  0.1206
  H  H79  1  0.486300  0.305200  0.786600  1.0  0.1194
  H  H80  1  0.475900  0.382100  0.741800  1.0  0.1172
  H  H81  1  0.522200  0.408900  0.817200  1.0  0.1197
  H  H82  1  0.480400  0.064800  0.807230  1.0  0.1305
  H  H83  1  0.328100  0.041500  0.816530  1.0  0.1167
  H  H84  1  0.414100  0.241100  0.965630  1.0  0.1321
  H  H85  1  0.577200  0.336500  0.992830  1.0  0.1294
  H  H86  1  0.713800  0.435200  0.025930  1.0  0.1161
  H  H87  1  0.797300  0.440600  0.979230  1.0  0.1264
  H  H88  1  0.906100  0.390900  0.023730  1.0  0.116
  H  H89  1  0.893900  0.347800  0.099630  1.0  0.1087
  H  H90  1  0.867600  0.210100  0.095830  1.0  0.1293
  H  H91  1  0.850800  0.059300  0.114130  1.0  0.1201
  H  H92  1  0.732700  0.852800  0.970430  1.0  0.1165
  H  H93  1  0.697900  0.948500  0.901630  1.0  0.1177
  H  H94  1  0.677200  0.349100  0.140030  1.0  0.1171
  H  H95  1  0.746700  0.314700  0.169730  1.0  0.1159
  H  H96  1  0.677100  0.259000  0.106930  1.0  0.1159
  H  H97  1  0.818900  0.513700  0.119930  1.0  0.1195
  H  H98  1  0.906200  0.524100  0.075130  1.0  0.115
  H  H99  1  0.886700  0.477800  0.150530  1.0  0.1192
  H  H100  1  0.584400  0.519600  0.140570  1.0  0.1297
  H  H101  1  0.713400  0.671900  0.149870  1.0  0.1167
  H  H102  1  0.827000  0.585900  0.298970  1.0  0.131
  H  H103  1  0.759300  0.422800  0.326170  1.0  0.1304
  H  H104  1  0.721400  0.286200  0.359270  1.0  0.1179
  H  H105  1  0.643300  0.202700  0.312570  1.0  0.1273
  H  H106  1  0.484800  0.093900  0.357070  1.0  0.1143
  H  H107  1  0.453900  0.106100  0.432970  1.0  0.1091
  H  H108  1  0.342500  0.132400  0.429170  1.0  0.1294
  H  H109  1  0.208500  0.149200  0.447470  1.0  0.1205
  H  H110  1  0.120100  0.267300  0.303770  1.0  0.1166
  H  H111  1  0.250600  0.302100  0.234970  1.0  0.1173
  H  H112  1  0.671900  0.322800  0.473370  1.0  0.1145
  H  H113  1  0.568000  0.253300  0.503070  1.0  0.1168
  H  H114  1  0.581900  0.322900  0.440270  1.0  0.1163
  H  H115  1  0.694800  0.181100  0.453270  1.0  0.1195
  H  H116  1  0.617900  0.093800  0.408470  1.0  0.1155
  H  H117  1  0.591100  0.113300  0.483870  1.0  0.1197
  C  C118  1  0.374840  0.834010  0.450560  1.0  0.3468
  C  C119  1  0.367280  0.899840  0.493270  1.0  -0.1366
  C  C120  1  0.290730  0.913580  0.487940  1.0  -0.0493
  C  C121  1  0.219610  0.861730  0.440340  1.0  0.0286
  C  C122  1  0.223160  0.795330  0.399010  1.0  -0.0694
  C  C123  1  0.301660  0.781340  0.403220  1.0  -0.0482
  C  C124  1  0.298700  0.705210  0.363050  1.0  0.0655
  C  C125  1  0.346310  0.599370  0.320820  1.0  -0.0912
  C  C126  1  0.406890  0.614040  0.256470  1.0  0.1513
  C  C127  1  0.511320  0.652350  0.275550  1.0  -0.1199
  C  C128  1  0.638440  0.809600  0.277660  1.0  0.0522
  C  C129  1  0.701850  0.904320  0.302410  1.0  -0.056
  C  C130  1  0.782370  0.962700  0.262390  1.0  -0.0982
  C  C131  1  0.847460  0.050930  0.285420  1.0  0.041
  C  C132  1  0.835070  0.084970  0.348180  1.0  -0.0622
  C  C133  1  0.757520  0.028180  0.388890  1.0  -0.1353
  C  C134  1  0.690360  0.935980  0.367430  1.0  0.3325
  C  C135  1  0.395240  0.678540  0.205440  1.0  -0.3432
  C  C136  1  0.372700  0.515720  0.224890  1.0  -0.3671
  C  C137  1  0.406390  0.902510  0.134040  1.0  0.0967
  C  C138  1  0.573650  0.912310  0.137130  1.0  0.2056
  C  C139  1  0.505980  0.936700  0.256790  1.0  0.1234
  C  C140  1  0.165990  0.540830  0.117230  1.0  0.3438
  C  C141  1  0.100160  0.467440  0.159940  1.0  -0.1357
  C  C142  1  0.086420  0.377150  0.154610  1.0  -0.0518
  C  C143  1  0.138270  0.357880  0.107010  1.0  0.0426
  C  C144  1  0.204670  0.427830  0.065680  1.0  -0.0683
  C  C145  1  0.218660  0.520320  0.069890  1.0  -0.0489
  C  C146  1  0.294790  0.593490  0.029720  1.0  0.0665
  C  C147  1  0.400630  0.746940  0.987490  1.0  -0.0894
  C  C148  1  0.385960  0.792850  0.923140  1.0  0.1503
  C  C149  1  0.347650  0.858970  0.942220  1.0  -0.1227
  C  C150  1  0.190400  0.828840  0.944330  1.0  0.0521
  C  C151  1  0.095680  0.797530  0.969080  1.0  -0.0555
  C  C152  1  0.037300  0.819670  0.929060  1.0  -0.0974
  C  C153  1  0.949070  0.796530  0.952090  1.0  0.0432
  C  C154  1  0.915030  0.750100  0.014850  1.0  -0.0639
  C  C155  1  0.971820  0.729340  0.055560  1.0  -0.1401
  C  C156  1  0.064020  0.754380  0.034100  1.0  0.3316
  C  C157  1  0.321460  0.716700  0.872110  1.0  -0.3438
  C  C158  1  0.484280  0.856980  0.891560  1.0  -0.3672
  C  C159  1  0.097490  0.503880  0.800710  1.0  0.0923
  C  C160  1  0.087690  0.661340  0.803800  1.0  0.2053
  C  C161  1  0.063300  0.569280  0.923460  1.0  0.1208
  C  C162  1  0.459170  0.625160  0.783890  1.0  0.3435
  C  C163  1  0.532560  0.632720  0.826600  1.0  -0.1372
  C  C164  1  0.622850  0.709270  0.821270  1.0  -0.0502
  C  C165  1  0.642120  0.780390  0.773670  1.0  0.0363
  C  C166  1  0.572170  0.776840  0.732340  1.0  -0.0668
  C  C167  1  0.479680  0.698340  0.736550  1.0  -0.0493
  C  C168  1  0.406510  0.701300  0.696380  1.0  0.0637
  C  C169  1  0.253060  0.653690  0.654150  1.0  -0.0884
  C  C170  1  0.207150  0.593110  0.589800  1.0  0.1513
  C  C171  1  0.141030  0.488680  0.608880  1.0  -0.1199
  C  C172  1  0.171160  0.361560  0.610990  1.0  0.0519
  C  C173  1  0.202470  0.298150  0.635740  1.0  -0.0565
  C  C174  1  0.180330  0.217630  0.595720  1.0  -0.0979
  C  C175  1  0.203470  0.152540  0.618750  1.0  0.0517
  C  C176  1  0.249900  0.164930  0.681510  1.0  -0.0657
  C  C177  1  0.270660  0.242480  0.722220  1.0  -0.1364
  C  C178  1  0.245620  0.309640  0.700760  1.0  0.33
  C  C179  1  0.283300  0.604760  0.538770  1.0  -0.3446
  C  C180  1  0.143020  0.627300  0.558220  1.0  -0.3658
  C  C181  1  0.496120  0.593610  0.467370  1.0  0.0977
  C  C182  1  0.338660  0.426350  0.470460  1.0  0.2054
  C  C183  1  0.430720  0.494020  0.590120  1.0  0.1258
  C  C184  1  0.834010  0.374840  0.549440  1.0  0.3434
  C  C185  1  0.899840  0.367280  0.506730  1.0  -0.1389
  C  C186  1  0.913580  0.290730  0.512060  1.0  -0.0492
  C  C187  1  0.861730  0.219610  0.559660  1.0  0.0407
  C  C188  1  0.795330  0.223160  0.600990  1.0  -0.0657
  C  C189  1  0.781340  0.301660  0.596780  1.0  -0.0489
  C  C190  1  0.705210  0.298700  0.636950  1.0  0.0637
  C  C191  1  0.599370  0.346310  0.679180  1.0  -0.0894
  C  C192  1  0.614040  0.406890  0.743530  1.0  0.152
  C  C193  1  0.652350  0.511320  0.724450  1.0  -0.1201
  C  C194  1  0.809600  0.638440  0.722340  1.0  0.0522
  C  C195  1  0.904320  0.701850  0.697590  1.0  -0.0567
  C  C196  1  0.962700  0.782370  0.737610  1.0  -0.0989
  C  C197  1  0.050930  0.847460  0.714580  1.0  0.045
  C  C198  1  0.084970  0.835070  0.651820  1.0  -0.0637
  C  C199  1  0.028180  0.757520  0.611110  1.0  -0.1367
  C  C200  1  0.935980  0.690360  0.632570  1.0  0.3304
  C  C201  1  0.678540  0.395240  0.794560  1.0  -0.3449
  C  C202  1  0.515720  0.372700  0.775110  1.0  -0.3659
  C  C203  1  0.902510  0.406390  0.865960  1.0  0.0989
  C  C204  1  0.912310  0.573650  0.862870  1.0  0.2059
  C  C205  1  0.936700  0.505980  0.743210  1.0  0.1256
  C  C206  1  0.540830  0.165990  0.882770  1.0  0.3475
  C  C207  1  0.467440  0.100160  0.840060  1.0  -0.1378
  C  C208  1  0.377150  0.086420  0.845390  1.0  -0.0488
  C  C209  1  0.357880  0.138270  0.892990  1.0  0.0283
  C  C210  1  0.427830  0.204670  0.934320  1.0  -0.0683
  C  C211  1  0.520320  0.218660  0.930110  1.0  -0.0478
  C  C212  1  0.593490  0.294790  0.970280  1.0  0.0655
  C  C213  1  0.746940  0.400630  0.012510  1.0  -0.0909
  C  C214  1  0.792850  0.385960  0.076860  1.0  0.1508
  C  C215  1  0.858970  0.347650  0.057780  1.0  -0.1196
  C  C216  1  0.828840  0.190400  0.055670  1.0  0.0532
  C  C217  1  0.797530  0.095680  0.030920  1.0  -0.0563
  C  C218  1  0.819670  0.037300  0.070940  1.0  -0.0981
  C  C219  1  0.796530  0.949070  0.047910  1.0  0.0409
  C  C220  1  0.750100  0.915030  0.985150  1.0  -0.0613
  C  C221  1  0.729340  0.971820  0.944440  1.0  -0.135
  C  C222  1  0.754380  0.064020  0.965900  1.0  0.3318
  C  C223  1  0.716700  0.321460  0.127890  1.0  -0.345
  C  C224  1  0.856980  0.484280  0.108440  1.0  -0.3662
  C  C225  1  0.503880  0.097490  0.199290  1.0  0.0958
  C  C226  1  0.661340  0.087690  0.196200  1.0  0.2054
  C  C227  1  0.569280  0.063300  0.076540  1.0  0.1231
  C  C228  1  0.625160  0.459170  0.216110  1.0  0.3441
  C  C229  1  0.632720  0.532560  0.173400  1.0  -0.136
  C  C230  1  0.709270  0.622850  0.178730  1.0  -0.0519
  C  C231  1  0.780390  0.642120  0.226330  1.0  0.0385
  C  C232  1  0.776840  0.572170  0.267660  1.0  -0.0658
  C  C233  1  0.698340  0.479680  0.263450  1.0  -0.0488
  C  C234  1  0.701300  0.406510  0.303620  1.0  0.067
  C  C235  1  0.653690  0.253060  0.345850  1.0  -0.0899
  C  C236  1  0.593110  0.207150  0.410200  1.0  0.1517
  C  C237  1  0.488680  0.141030  0.391120  1.0  -0.1225
  C  C238  1  0.361560  0.171160  0.389010  1.0  0.053
  C  C239  1  0.298150  0.202470  0.364260  1.0  -0.0569
  C  C240  1  0.217630  0.180330  0.404280  1.0  -0.097
  C  C241  1  0.152540  0.203470  0.381250  1.0  0.042
  C  C242  1  0.164930  0.249900  0.318490  1.0  -0.0637
  C  C243  1  0.242480  0.270660  0.277780  1.0  -0.1399
  C  C244  1  0.309640  0.245620  0.299240  1.0  0.3317
  C  C245  1  0.604760  0.283300  0.461230  1.0  -0.3452
  C  C246  1  0.627300  0.143020  0.441780  1.0  -0.3667
  C  C247  1  0.593610  0.496120  0.532630  1.0  0.0957
  C  C248  1  0.426350  0.338660  0.529540  1.0  0.2051
  C  C249  1  0.494020  0.430720  0.409880  1.0  0.1181
  N  N250  1  0.367580  0.688750  0.355000  1.0  -0.341
  N  N251  1  0.558540  0.749300  0.304710  1.0  -0.3403
  N  N252  1  0.492930  0.894560  0.307680  1.0  -0.4568
  N  N253  1  0.335980  0.840910  0.113390  1.0  -0.4759
  N  N254  1  0.595740  0.858050  0.121050  1.0  -0.4272
  N  N255  1  0.311250  0.678830  0.021670  1.0  -0.3396
  N  N256  1  0.250700  0.809240  0.971380  1.0  -0.3393
  N  N257  1  0.105440  0.598370  0.974350  1.0  -0.4572
  N  N258  1  0.159090  0.495070  0.780060  1.0  -0.4762
  N  N259  1  0.141950  0.737690  0.787720  1.0  -0.4289
  N  N260  1  0.321170  0.632420  0.688330  1.0  -0.3411
  N  N261  1  0.190760  0.441460  0.638040  1.0  -0.3394
  N  N262  1  0.401630  0.507070  0.641010  1.0  -0.4577
  N  N263  1  0.504930  0.664020  0.446720  1.0  -0.4789
  N  N264  1  0.262310  0.404260  0.454380  1.0  -0.4265
  N  N265  1  0.688750  0.367580  0.645000  1.0  -0.3402
  N  N266  1  0.749300  0.558540  0.695290  1.0  -0.3434
  N  N267  1  0.894560  0.492930  0.692320  1.0  -0.4566
  N  N268  1  0.840910  0.335980  0.886610  1.0  -0.4769
  N  N269  1  0.858050  0.595740  0.878950  1.0  -0.4263
  N  N270  1  0.678830  0.311250  0.978330  1.0  -0.3409
  N  N271  1  0.809240  0.250700  0.028620  1.0  -0.3432
  N  N272  1  0.598370  0.105440  0.025650  1.0  -0.4568
  N  N273  1  0.495070  0.159090  0.219940  1.0  -0.4718
  N  N274  1  0.737690  0.141950  0.212280  1.0  -0.428
  N  N275  1  0.632420  0.321170  0.311670  1.0  -0.3401
  N  N276  1  0.441460  0.190760  0.361960  1.0  -0.3422
  N  N277  1  0.507070  0.401630  0.358990  1.0  -0.4598
  N  N278  1  0.664020  0.504930  0.553280  1.0  -0.477
  N  N279  1  0.404260  0.262310  0.545620  1.0  -0.4258
  Cl  Cl280  1  0.124310  0.882330  0.432550  1.0  -0.0853
  Cl  Cl281  1  0.947380  0.122700  0.235300  1.0  -0.1102
  Cl  Cl282  1  0.117670  0.241980  0.099220  1.0  -0.0866
  Cl  Cl283  1  0.877300  0.824680  0.901970  1.0  -0.1098
  Cl  Cl284  1  0.758020  0.875690  0.765880  1.0  -0.0881
  Cl  Cl285  1  0.175320  0.052620  0.568630  1.0  -0.1119
  Cl  Cl286  1  0.882330  0.124310  0.567450  1.0  -0.0886
  Cl  Cl287  1  0.122700  0.947380  0.764700  1.0  -0.1116
  Cl  Cl288  1  0.241980  0.117670  0.900780  1.0  -0.085
  Cl  Cl289  1  0.824680  0.877300  0.098030  1.0  -0.1108
  Cl  Cl290  1  0.875690  0.758020  0.234120  1.0  -0.0875
  Cl  Cl291  1  0.052620  0.175320  0.431370  1.0  -0.1102
  O  O292  1  0.449090  0.821620  0.457570  1.0  -0.5454
  O  O293  1  0.621950  0.880880  0.410560  1.0  -0.5647
  O  O294  1  0.178380  0.627470  0.124240  1.0  -0.547
  O  O295  1  0.119120  0.741070  0.077230  1.0  -0.5614
  O  O296  1  0.372530  0.550910  0.790900  1.0  -0.5487
  O  O297  1  0.258930  0.378050  0.743890  1.0  -0.5628
  O  O298  1  0.821620  0.449090  0.542430  1.0  -0.5483
  O  O299  1  0.880880  0.621950  0.589440  1.0  -0.564
  O  O300  1  0.627470  0.178380  0.875760  1.0  -0.5466
  O  O301  1  0.741070  0.119120  0.922770  1.0  -0.5656
  O  O302  1  0.550910  0.372530  0.209100  1.0  -0.5484
  O  O303  1  0.378050  0.258930  0.256110  1.0  -0.5606
