# generated using pymatgen
data_CuH14C16(NO3)2
_symmetry_space_group_name_H-M   'P 1'
_cell_length_a   8.57500000
_cell_length_b   8.57500000
_cell_length_c   52.52000000
_cell_angle_alpha   90.00000000
_cell_angle_beta   90.00000000
_cell_angle_gamma   90.00000000
_symmetry_Int_Tables_number   1
_chemical_formula_structural   CuH14C16(NO3)2
_chemical_formula_sum   'Cu8 H112 C128 N16 O48'
_cell_volume   3861.82842500
_cell_formula_units_Z   8
loop_
 _symmetry_equiv_pos_site_id
 _symmetry_equiv_pos_as_xyz
  1  'x, y, z'
loop_
 _atom_site_type_symbol
 _atom_site_label
 _atom_site_symmetry_multiplicity
 _atom_site_fract_x
 _atom_site_fract_y
 _atom_site_fract_z
 _atom_site_occupancy
 _atom_site_charge
  Cu  Cu1  1  0.090430  0.445680  0.737450  1.0  0.8965
  Cu  Cu2  1  0.365300  0.661250  0.984530  1.0  0.8394
  Cu  Cu3  1  0.409570  0.554320  0.237450  1.0  0.8963
  Cu  Cu4  1  0.134700  0.338750  0.484530  1.0  0.8408
  Cu  Cu5  1  0.909570  0.945680  0.762550  1.0  0.896
  Cu  Cu6  1  0.634700  0.161250  0.515470  1.0  0.8397
  Cu  Cu7  1  0.590430  0.054320  0.262550  1.0  0.8965
  Cu  Cu8  1  0.865300  0.838750  0.015470  1.0  0.8395
  H  H9  1  0.611800  0.757700  0.763100  1.0  0.3203
  H  H10  1  0.589900  0.776500  0.710900  1.0  0.3024
  H  H11  1  0.245900  0.246700  0.700600  1.0  0.0845
  H  H12  1  0.262400  0.198500  0.658200  1.0  0.1279
  H  H13  1  0.930100  0.526700  0.647100  1.0  0.1159
  H  H14  1  0.913800  0.558500  0.691300  1.0  0.097
  H  H15  1  0.957900  0.328000  0.785900  1.0  0.0896
  H  H16  1  0.993100  0.357000  0.829300  1.0  0.1234
  H  H17  1  0.297700  0.703700  0.814600  1.0  0.1261
  H  H18  1  0.258800  0.664800  0.772000  1.0  0.0759
  H  H19  1  0.095000  0.493700  0.864700  1.0  0.1156
  H  H20  1  0.325200  0.713400  0.856200  1.0  0.1027
  H  H21  1  0.119400  0.498300  0.904200  1.0  0.1199
  H  H22  1  0.163600  0.506500  0.947700  1.0  0.0991
  H  H23  1  0.474400  0.840900  0.938000  1.0  0.0714
  H  H24  1  0.444200  0.833900  0.894900  1.0  0.1298
  H  H25  1  0.257400  0.195100  0.530400  1.0  0.0962
  H  H26  1  0.232700  0.214200  0.574200  1.0  0.1078
  H  H27  1  0.900200  0.534100  0.565100  1.0  0.1188
  H  H28  1  0.926900  0.506900  0.521300  1.0  0.0953
  H  H29  1  0.957300  0.464000  0.607000  1.0  0.0836
  H  H30  1  0.196300  0.259300  0.614300  1.0  0.0946
  H  H31  1  0.594400  0.458700  0.755100  1.0  0.1031
  H  H32  1  0.580700  0.469400  0.712200  1.0  0.0988
  H  H33  1  0.376500  0.155300  0.004000  1.0  0.0963
  H  H34  1  0.391600  0.162600  0.960700  1.0  0.0966
  H  H35  1  0.683600  0.170600  0.008100  1.0  0.3285
  H  H36  1  0.696600  0.165200  0.959500  1.0  0.3451
  H  H37  1  0.888200  0.242300  0.263100  1.0  0.3191
  H  H38  1  0.910100  0.223500  0.210900  1.0  0.3009
  H  H39  1  0.254100  0.753300  0.200600  1.0  0.0841
  H  H40  1  0.237600  0.801500  0.158200  1.0  0.128
  H  H41  1  0.569900  0.473300  0.147100  1.0  0.1157
  H  H42  1  0.586200  0.441500  0.191300  1.0  0.0966
  H  H43  1  0.542100  0.672000  0.285900  1.0  0.0891
  H  H44  1  0.506900  0.643000  0.329300  1.0  0.1231
  H  H45  1  0.202300  0.296300  0.314600  1.0  0.1264
  H  H46  1  0.241200  0.335200  0.272000  1.0  0.0762
  H  H47  1  0.405000  0.506300  0.364700  1.0  0.1155
  H  H48  1  0.174800  0.286600  0.356200  1.0  0.1015
  H  H49  1  0.380600  0.501700  0.404200  1.0  0.121
  H  H50  1  0.336400  0.493500  0.447700  1.0  0.0994
  H  H51  1  0.025600  0.159100  0.438000  1.0  0.0712
  H  H52  1  0.055800  0.166100  0.394900  1.0  0.1293
  H  H53  1  0.242600  0.804900  0.030400  1.0  0.0963
  H  H54  1  0.267300  0.785800  0.074200  1.0  0.1072
  H  H55  1  0.599800  0.465900  0.065100  1.0  0.1186
  H  H56  1  0.573100  0.493100  0.021300  1.0  0.0948
  H  H57  1  0.542700  0.536000  0.107000  1.0  0.0831
  H  H58  1  0.303700  0.740700  0.114300  1.0  0.0942
  H  H59  1  0.905600  0.541300  0.255100  1.0  0.1024
  H  H60  1  0.919300  0.530600  0.212200  1.0  0.0991
  H  H61  1  0.123500  0.844700  0.504000  1.0  0.0963
  H  H62  1  0.108400  0.837400  0.460700  1.0  0.0962
  H  H63  1  0.816400  0.829400  0.508100  1.0  0.3278
  H  H64  1  0.803400  0.834800  0.459500  1.0  0.3452
  H  H65  1  0.388200  0.257700  0.736900  1.0  0.3184
  H  H66  1  0.410100  0.276500  0.789100  1.0  0.3017
  H  H67  1  0.754100  0.746700  0.799400  1.0  0.0839
  H  H68  1  0.737600  0.698500  0.841800  1.0  0.1281
  H  H69  1  0.069900  0.026700  0.852900  1.0  0.1157
  H  H70  1  0.086200  0.058500  0.808700  1.0  0.0968
  H  H71  1  0.042100  0.828000  0.714100  1.0  0.089
  H  H72  1  0.006900  0.857000  0.670700  1.0  0.1233
  H  H73  1  0.702300  0.203700  0.685400  1.0  0.126
  H  H74  1  0.741200  0.164800  0.728000  1.0  0.0764
  H  H75  1  0.905000  0.993700  0.635300  1.0  0.1149
  H  H76  1  0.674800  0.213400  0.643800  1.0  0.102
  H  H77  1  0.880600  0.998300  0.595800  1.0  0.1207
  H  H78  1  0.836400  0.006500  0.552300  1.0  0.0998
  H  H79  1  0.525600  0.340900  0.562000  1.0  0.0722
  H  H80  1  0.555800  0.333900  0.605100  1.0  0.1293
  H  H81  1  0.742600  0.695100  0.969600  1.0  0.0957
  H  H82  1  0.767300  0.714200  0.925800  1.0  0.107
  H  H83  1  0.099800  0.034100  0.934900  1.0  0.1192
  H  H84  1  0.073100  0.006900  0.978700  1.0  0.095
  H  H85  1  0.042700  0.964000  0.893000  1.0  0.0845
  H  H86  1  0.803700  0.759300  0.885700  1.0  0.0939
  H  H87  1  0.405600  0.958700  0.744900  1.0  0.1023
  H  H88  1  0.419300  0.969400  0.787800  1.0  0.0998
  H  H89  1  0.623500  0.655300  0.496000  1.0  0.0969
  H  H90  1  0.608400  0.662600  0.539300  1.0  0.0982
  H  H91  1  0.316400  0.670600  0.491900  1.0  0.3284
  H  H92  1  0.303400  0.665200  0.540500  1.0  0.344
  H  H93  1  0.111800  0.742300  0.236900  1.0  0.3184
  H  H94  1  0.089900  0.723500  0.289100  1.0  0.2993
  H  H95  1  0.745900  0.253300  0.299400  1.0  0.084
  H  H96  1  0.762400  0.301500  0.341800  1.0  0.1277
  H  H97  1  0.430100  0.973300  0.352900  1.0  0.1155
  H  H98  1  0.413800  0.941500  0.308700  1.0  0.0967
  H  H99  1  0.457900  0.172000  0.214100  1.0  0.0891
  H  H100  1  0.493100  0.143000  0.170700  1.0  0.1235
  H  H101  1  0.797700  0.796300  0.185400  1.0  0.1269
  H  H102  1  0.758800  0.835200  0.228000  1.0  0.0768
  H  H103  1  0.595000  0.006300  0.135300  1.0  0.1154
  H  H104  1  0.825200  0.786600  0.143800  1.0  0.1022
  H  H105  1  0.619400  0.001700  0.095800  1.0  0.1209
  H  H106  1  0.663600  0.993500  0.052300  1.0  0.0997
  H  H107  1  0.974400  0.659100  0.062000  1.0  0.0721
  H  H108  1  0.944200  0.666100  0.105100  1.0  0.1288
  H  H109  1  0.757400  0.304900  0.469600  1.0  0.0955
  H  H110  1  0.732700  0.285800  0.425800  1.0  0.1077
  H  H111  1  0.400200  0.965900  0.434900  1.0  0.1181
  H  H112  1  0.426900  0.993100  0.478700  1.0  0.0954
  H  H113  1  0.457300  0.036000  0.393000  1.0  0.0826
  H  H114  1  0.696300  0.240700  0.385700  1.0  0.0946
  H  H115  1  0.094400  0.041300  0.244900  1.0  0.1035
  H  H116  1  0.080700  0.030600  0.287800  1.0  0.0985
  H  H117  1  0.876500  0.344700  0.996000  1.0  0.097
  H  H118  1  0.891600  0.337400  0.039300  1.0  0.0975
  H  H119  1  0.183600  0.329400  0.991900  1.0  0.3287
  H  H120  1  0.196600  0.334800  0.040500  1.0  0.3436
  C  C121  1  0.179500  0.303000  0.689400  1.0  0.1441
  C  C122  1  0.192200  0.276000  0.664100  1.0  -0.2069
  C  C123  1  0.104900  0.359100  0.647000  1.0  0.0436
  C  C124  1  0.996200  0.467400  0.657900  1.0  -0.1312
  C  C125  1  0.986600  0.486600  0.684400  1.0  0.1409
  C  C126  1  0.029200  0.404300  0.791980  1.0  0.1686
  C  C127  1  0.047100  0.423300  0.817780  1.0  -0.2057
  C  C128  1  0.143400  0.538200  0.826870  1.0  0.1107
  C  C129  1  0.226100  0.626300  0.809100  1.0  -0.1866
  C  C130  1  0.204100  0.600900  0.783730  1.0  0.1662
  C  C131  1  0.161100  0.555800  0.854300  1.0  -0.0971
  C  C132  1  0.259900  0.649400  0.866400  1.0  -0.1252
  C  C133  1  0.277200  0.663000  0.894090  1.0  0.126
  C  C134  1  0.194900  0.568600  0.910700  1.0  -0.1613
  C  C135  1  0.220400  0.574300  0.936850  1.0  0.1427
  C  C136  1  0.402300  0.768300  0.931090  1.0  0.1828
  C  C137  1  0.384200  0.765900  0.905300  1.0  -0.2073
  C  C138  1  0.184400  0.266800  0.537340  1.0  0.1385
  C  C139  1  0.168500  0.277200  0.563600  1.0  -0.1499
  C  C140  1  0.063500  0.375000  0.574600  1.0  0.0525
  C  C141  1  0.974500  0.462900  0.558400  1.0  -0.1765
  C  C142  1  0.992400  0.448600  0.532340  1.0  0.1388
  C  C143  1  0.039400  0.396500  0.601900  1.0  -0.1484
  C  C144  1  0.119300  0.332200  0.619500  1.0  -0.1016
  C  C145  1  0.798900  0.577600  0.746990  1.0  0.6437
  C  C146  1  0.621300  0.563100  0.747820  1.0  0.0884
  C  C147  1  0.378300  0.587500  0.722320  1.0  0.6397
  C  C148  1  0.557200  0.571100  0.720730  1.0  0.0748
  C  C149  1  0.481800  0.128200  0.997100  1.0  0.084
  C  C150  1  0.498100  0.371200  0.970300  1.0  0.6454
  C  C151  1  0.491500  0.191400  0.969360  1.0  0.0471
  C  C152  1  0.494600  0.950200  0.996270  1.0  0.6555
  C  C153  1  0.320500  0.697000  0.189400  1.0  0.1443
  C  C154  1  0.307800  0.724000  0.164100  1.0  -0.2052
  C  C155  1  0.395100  0.640900  0.147000  1.0  0.0445
  C  C156  1  0.503800  0.532600  0.157900  1.0  -0.1344
  C  C157  1  0.513400  0.513400  0.184400  1.0  0.1406
  C  C158  1  0.470800  0.595700  0.291980  1.0  0.1671
  C  C159  1  0.452900  0.576700  0.317780  1.0  -0.2037
  C  C160  1  0.356600  0.461800  0.326870  1.0  0.1126
  C  C161  1  0.273900  0.373700  0.309100  1.0  -0.1854
  C  C162  1  0.295900  0.399100  0.283730  1.0  0.1667
  C  C163  1  0.338900  0.444200  0.354300  1.0  -0.0966
  C  C164  1  0.240100  0.350600  0.366400  1.0  -0.1273
  C  C165  1  0.222800  0.337000  0.394090  1.0  0.1262
  C  C166  1  0.305100  0.431400  0.410700  1.0  -0.1607
  C  C167  1  0.279600  0.425700  0.436850  1.0  0.1421
  C  C168  1  0.097700  0.231700  0.431090  1.0  0.1834
  C  C169  1  0.115800  0.234100  0.405300  1.0  -0.2078
  C  C170  1  0.315600  0.733200  0.037340  1.0  0.1382
  C  C171  1  0.331500  0.722800  0.063600  1.0  -0.1496
  C  C172  1  0.436500  0.625000  0.074600  1.0  0.0521
  C  C173  1  0.525500  0.537100  0.058400  1.0  -0.1735
  C  C174  1  0.507600  0.551400  0.032340  1.0  0.139
  C  C175  1  0.460600  0.603500  0.101900  1.0  -0.1448
  C  C176  1  0.380700  0.667800  0.119500  1.0  -0.1008
  C  C177  1  0.701100  0.422400  0.246990  1.0  0.642
  C  C178  1  0.878700  0.436900  0.247820  1.0  0.0895
  C  C179  1  0.121700  0.412500  0.222320  1.0  0.641
  C  C180  1  0.942800  0.428900  0.220730  1.0  0.0741
  C  C181  1  0.018200  0.871800  0.497100  1.0  0.085
  C  C182  1  0.001900  0.628800  0.470300  1.0  0.6453
  C  C183  1  0.008500  0.808600  0.469360  1.0  0.0468
  C  C184  1  0.005400  0.049800  0.496270  1.0  0.6552
  C  C185  1  0.820500  0.803000  0.810600  1.0  0.1434
  C  C186  1  0.807800  0.776000  0.835900  1.0  -0.207
  C  C187  1  0.895100  0.859100  0.853000  1.0  0.0429
  C  C188  1  0.003800  0.967400  0.842100  1.0  -0.1322
  C  C189  1  0.013400  0.986600  0.815600  1.0  0.1403
  C  C190  1  0.970800  0.904300  0.708020  1.0  0.1672
  C  C191  1  0.952900  0.923300  0.682220  1.0  -0.2045
  C  C192  1  0.856600  0.038200  0.673130  1.0  0.1105
  C  C193  1  0.773900  0.126300  0.690900  1.0  -0.1856
  C  C194  1  0.795900  0.100900  0.716270  1.0  0.1667
  C  C195  1  0.838900  0.055800  0.645700  1.0  -0.0979
  C  C196  1  0.740100  0.149400  0.633600  1.0  -0.1262
  C  C197  1  0.722800  0.163000  0.605910  1.0  0.1273
  C  C198  1  0.805100  0.068600  0.589300  1.0  -0.1627
  C  C199  1  0.779600  0.074300  0.563150  1.0  0.1418
  C  C200  1  0.597700  0.268300  0.568910  1.0  0.1831
  C  C201  1  0.615800  0.265900  0.594700  1.0  -0.2086
  C  C202  1  0.815600  0.766800  0.962660  1.0  0.1372
  C  C203  1  0.831500  0.777200  0.936400  1.0  -0.149
  C  C204  1  0.936500  0.875000  0.925400  1.0  0.0513
  C  C205  1  0.025500  0.962900  0.941600  1.0  -0.1729
  C  C206  1  0.007600  0.948600  0.967660  1.0  0.1394
  C  C207  1  0.960600  0.896500  0.898100  1.0  -0.146
  C  C208  1  0.880700  0.832200  0.880500  1.0  -0.1011
  C  C209  1  0.201100  0.077600  0.753010  1.0  0.6415
  C  C210  1  0.378700  0.063100  0.752180  1.0  0.0881
  C  C211  1  0.621700  0.087500  0.777680  1.0  0.6398
  C  C212  1  0.442800  0.071100  0.779270  1.0  0.0739
  C  C213  1  0.518200  0.628200  0.502900  1.0  0.0839
  C  C214  1  0.501900  0.871200  0.529700  1.0  0.645
  C  C215  1  0.508500  0.691400  0.530640  1.0  0.046
  C  C216  1  0.505400  0.450200  0.503730  1.0  0.6547
  C  C217  1  0.679500  0.197000  0.310600  1.0  0.144
  C  C218  1  0.692200  0.224000  0.335900  1.0  -0.2058
  C  C219  1  0.604900  0.140900  0.353000  1.0  0.0428
  C  C220  1  0.496200  0.032600  0.342100  1.0  -0.1324
  C  C221  1  0.486600  0.013400  0.315600  1.0  0.1416
  C  C222  1  0.529200  0.095700  0.208020  1.0  0.1688
  C  C223  1  0.547100  0.076700  0.182220  1.0  -0.2054
  C  C224  1  0.643400  0.961800  0.173130  1.0  0.1101
  C  C225  1  0.726100  0.873700  0.190900  1.0  -0.1866
  C  C226  1  0.704100  0.899100  0.216270  1.0  0.1662
  C  C227  1  0.661100  0.944200  0.145700  1.0  -0.0973
  C  C228  1  0.759900  0.850600  0.133600  1.0  -0.1247
  C  C229  1  0.777200  0.837000  0.105910  1.0  0.1266
  C  C230  1  0.694900  0.931400  0.089300  1.0  -0.1627
  C  C231  1  0.720400  0.925700  0.063150  1.0  0.1419
  C  C232  1  0.902300  0.731700  0.068910  1.0  0.1819
  C  C233  1  0.884200  0.734100  0.094700  1.0  -0.2076
  C  C234  1  0.684400  0.233200  0.462660  1.0  0.1361
  C  C235  1  0.668500  0.222800  0.436400  1.0  -0.1494
  C  C236  1  0.563500  0.125000  0.425400  1.0  0.0513
  C  C237  1  0.474500  0.037100  0.441600  1.0  -0.1773
  C  C238  1  0.492400  0.051400  0.467660  1.0  0.1392
  C  C239  1  0.539400  0.103500  0.398100  1.0  -0.1485
  C  C240  1  0.619300  0.167800  0.380500  1.0  -0.1006
  C  C241  1  0.298900  0.922400  0.253010  1.0  0.6438
  C  C242  1  0.121300  0.936900  0.252180  1.0  0.0885
  C  C243  1  0.878300  0.912500  0.277680  1.0  0.6396
  C  C244  1  0.057200  0.928900  0.279270  1.0  0.0749
  C  C245  1  0.981800  0.371800  0.002900  1.0  0.0843
  C  C246  1  0.998100  0.128800  0.029700  1.0  0.6455
  C  C247  1  0.991500  0.308600  0.030640  1.0  0.0461
  C  C248  1  0.994600  0.549800  0.003730  1.0  0.6554
  N  N249  1  0.077200  0.406200  0.699680  1.0  -0.321
  N  N250  1  0.110500  0.491700  0.774690  1.0  -0.3262
  N  N251  1  0.326100  0.676300  0.947140  1.0  -0.3382
  N  N252  1  0.103000  0.351800  0.522190  1.0  -0.3062
  N  N253  1  0.422800  0.593800  0.199680  1.0  -0.3208
  N  N254  1  0.389500  0.508300  0.274690  1.0  -0.3263
  N  N255  1  0.173900  0.323700  0.447140  1.0  -0.3392
  N  N256  1  0.397000  0.648200  0.022190  1.0  -0.3068
  N  N257  1  0.922800  0.906200  0.800320  1.0  -0.322
  N  N258  1  0.889500  0.991700  0.725310  1.0  -0.3262
  N  N259  1  0.673900  0.176300  0.552860  1.0  -0.3394
  N  N260  1  0.897000  0.851800  0.977810  1.0  -0.3071
  N  N261  1  0.577200  0.093800  0.300320  1.0  -0.3221
  N  N262  1  0.610500  0.008300  0.225310  1.0  -0.3266
  N  N263  1  0.826100  0.823700  0.052860  1.0  -0.3394
  N  N264  1  0.603000  0.148200  0.477810  1.0  -0.3067
  O  O265  1  0.864700  0.449100  0.738470  1.0  -0.599
  O  O266  1  0.315900  0.468600  0.734120  1.0  -0.6138
  O  O267  1  0.555200  0.677700  0.763300  1.0  -0.5126
  O  O268  1  0.624100  0.689600  0.706030  1.0  -0.5182
  O  O269  1  0.386400  0.430700  0.981310  1.0  -0.5604
  O  O270  1  0.378300  0.886100  0.984960  1.0  -0.5742
  O  O271  1  0.604600  0.885100  0.006030  1.0  -0.6138
  O  O272  1  0.869200  0.690200  0.753620  1.0  -0.6155
  O  O273  1  0.614600  0.436600  0.960350  1.0  -0.5793
  O  O274  1  0.312000  0.693600  0.713480  1.0  -0.4987
  O  O275  1  0.594100  0.197500  0.012900  1.0  -0.5228
  O  O276  1  0.611400  0.123900  0.955440  1.0  -0.5338
  O  O277  1  0.635300  0.550900  0.238470  1.0  -0.5993
  O  O278  1  0.184100  0.531400  0.234120  1.0  -0.613
  O  O279  1  0.944800  0.322300  0.263300  1.0  -0.5114
  O  O280  1  0.875900  0.310400  0.206030  1.0  -0.5191
  O  O281  1  0.113600  0.569300  0.481310  1.0  -0.5608
  O  O282  1  0.121700  0.113900  0.484960  1.0  -0.5739
  O  O283  1  0.895400  0.114900  0.506030  1.0  -0.6138
  O  O284  1  0.630800  0.309800  0.253620  1.0  -0.6138
  O  O285  1  0.885400  0.563400  0.460350  1.0  -0.5792
  O  O286  1  0.188000  0.306400  0.213480  1.0  -0.4989
  O  O287  1  0.905900  0.802500  0.512900  1.0  -0.5222
  O  O288  1  0.888600  0.876100  0.455440  1.0  -0.534
  O  O289  1  0.135300  0.949100  0.761530  1.0  -0.599
  O  O290  1  0.684100  0.968600  0.765880  1.0  -0.6134
  O  O291  1  0.444800  0.177700  0.736700  1.0  -0.5112
  O  O292  1  0.375900  0.189600  0.793970  1.0  -0.5184
  O  O293  1  0.613600  0.930700  0.518690  1.0  -0.5604
  O  O294  1  0.621700  0.386100  0.515040  1.0  -0.5735
  O  O295  1  0.395400  0.385100  0.493970  1.0  -0.6149
  O  O296  1  0.130800  0.190200  0.746380  1.0  -0.6148
  O  O297  1  0.385400  0.936600  0.539650  1.0  -0.5795
  O  O298  1  0.688000  0.193600  0.786520  1.0  -0.4976
  O  O299  1  0.405900  0.697500  0.487100  1.0  -0.5232
  O  O300  1  0.388600  0.623900  0.544560  1.0  -0.535
  O  O301  1  0.364700  0.050900  0.261530  1.0  -0.5994
  O  O302  1  0.815900  0.031400  0.265880  1.0  -0.6128
  O  O303  1  0.055200  0.822300  0.236700  1.0  -0.5126
  O  O304  1  0.124100  0.810400  0.293970  1.0  -0.5193
  O  O305  1  0.886400  0.069300  0.018690  1.0  -0.5608
  O  O306  1  0.878300  0.613900  0.015040  1.0  -0.5733
  O  O307  1  0.104600  0.614900  0.993970  1.0  -0.6149
  O  O308  1  0.369200  0.809800  0.246380  1.0  -0.6144
  O  O309  1  0.114600  0.063400  0.039650  1.0  -0.5783
  O  O310  1  0.812000  0.806400  0.286520  1.0  -0.4974
  O  O311  1  0.094100  0.302500  0.987100  1.0  -0.5217
  O  O312  1  0.111400  0.376100  0.044560  1.0  -0.5335
