# generated using pymatgen
data_AlH7(C3O2)3
_symmetry_space_group_name_H-M   'P 1'
_cell_length_a   21.36090000
_cell_length_b   21.36090000
_cell_length_c   10.56980000
_cell_angle_alpha   90.00000000
_cell_angle_beta   90.00000000
_cell_angle_gamma   90.00000000
_symmetry_Int_Tables_number   1
_chemical_formula_structural   AlH7(C3O2)3
_chemical_formula_sum   'Al16 H112 C144 O96'
_cell_volume   4822.87341831
_cell_formula_units_Z   16
loop_
 _symmetry_equiv_pos_site_id
 _symmetry_equiv_pos_as_xyz
  1  'x, y, z'
loop_
 _atom_site_type_symbol
 _atom_site_label
 _atom_site_symmetry_multiplicity
 _atom_site_fract_x
 _atom_site_fract_y
 _atom_site_fract_z
 _atom_site_occupancy
 _atom_site_charge
  Al  Al1  1  0.259390  0.816750  0.929030  1.0  1.7158
  Al  Al2  1  0.759390  0.316750  0.429030  1.0  1.7158
  Al  Al3  1  0.240610  0.683250  0.429030  1.0  1.7181
  Al  Al4  1  0.740610  0.183250  0.929030  1.0  1.7181
  Al  Al5  1  0.183250  0.759390  0.179030  1.0  1.7149
  Al  Al6  1  0.683250  0.259390  0.679030  1.0  1.7149
  Al  Al7  1  0.316750  0.740610  0.679030  1.0  1.7145
  Al  Al8  1  0.816750  0.240610  0.179030  1.0  1.7145
  Al  Al9  1  0.740610  0.683250  0.320970  1.0  1.7178
  Al  Al10  1  0.240610  0.183250  0.820970  1.0  1.7178
  Al  Al11  1  0.759390  0.816750  0.820970  1.0  1.7155
  Al  Al12  1  0.259390  0.316750  0.320970  1.0  1.7155
  Al  Al13  1  0.816750  0.740610  0.070970  1.0  1.7141
  Al  Al14  1  0.316750  0.240610  0.570970  1.0  1.7141
  Al  Al15  1  0.683250  0.759390  0.570970  1.0  1.7145
  Al  Al16  1  0.183250  0.259390  0.070970  1.0  1.7145
  H  H17  1  0.189650  0.473730  0.689060  1.0  0.0962
  H  H18  1  0.120720  0.511480  0.612950  1.0  0.1208
  H  H19  1  0.109130  0.454460  0.744070  1.0  0.0946
  H  H20  1  0.129880  0.831850  0.725940  1.0  0.1029
  H  H21  1  0.992820  0.769220  0.016990  1.0  0.1091
  H  H22  1  0.927000  0.826420  0.638260  1.0  0.0794
  H  H23  1  0.224640  0.213310  0.438990  1.0  0.0678
  H  H24  1  0.689650  0.973730  0.189060  1.0  0.0962
  H  H25  1  0.620720  0.011480  0.112950  1.0  0.1208
  H  H26  1  0.609130  0.954460  0.244070  1.0  0.0946
  H  H27  1  0.629880  0.331850  0.225940  1.0  0.1029
  H  H28  1  0.492820  0.269220  0.516990  1.0  0.1091
  H  H29  1  0.427000  0.326420  0.138260  1.0  0.0794
  H  H30  1  0.724640  0.713310  0.938990  1.0  0.0678
  H  H31  1  0.310350  0.026270  0.189060  1.0  0.0976
  H  H32  1  0.379280  0.988520  0.112950  1.0  0.1208
  H  H33  1  0.390870  0.045540  0.244070  1.0  0.0939
  H  H34  1  0.370120  0.668150  0.225940  1.0  0.1011
  H  H35  1  0.507180  0.730780  0.516990  1.0  0.1093
  H  H36  1  0.573000  0.673580  0.138260  1.0  0.0792
  H  H37  1  0.275360  0.286690  0.938990  1.0  0.0673
  H  H38  1  0.810350  0.526270  0.689060  1.0  0.0976
  H  H39  1  0.879280  0.488520  0.612950  1.0  0.1208
  H  H40  1  0.890870  0.545540  0.744070  1.0  0.0939
  H  H41  1  0.870120  0.168150  0.725940  1.0  0.1011
  H  H42  1  0.007180  0.230780  0.016990  1.0  0.1093
  H  H43  1  0.073000  0.173580  0.638260  1.0  0.0792
  H  H44  1  0.775360  0.786690  0.438990  1.0  0.0673
  H  H45  1  0.526270  0.689650  0.939060  1.0  0.0965
  H  H46  1  0.488520  0.620720  0.862950  1.0  0.1207
  H  H47  1  0.545540  0.609130  0.994070  1.0  0.0941
  H  H48  1  0.168150  0.629880  0.975940  1.0  0.1032
  H  H49  1  0.230780  0.492820  0.266990  1.0  0.1085
  H  H50  1  0.173580  0.427000  0.888260  1.0  0.0804
  H  H51  1  0.786690  0.724640  0.688990  1.0  0.0669
  H  H52  1  0.026270  0.189650  0.439060  1.0  0.0965
  H  H53  1  0.988520  0.120720  0.362950  1.0  0.1207
  H  H54  1  0.045540  0.109130  0.494070  1.0  0.0941
  H  H55  1  0.668150  0.129880  0.475940  1.0  0.1032
  H  H56  1  0.730780  0.992820  0.766990  1.0  0.1085
  H  H57  1  0.673580  0.927000  0.388260  1.0  0.0804
  H  H58  1  0.286690  0.224640  0.188990  1.0  0.0669
  H  H59  1  0.973730  0.810350  0.439060  1.0  0.0973
  H  H60  1  0.011480  0.879280  0.362950  1.0  0.121
  H  H61  1  0.954460  0.890870  0.494070  1.0  0.0948
  H  H62  1  0.331850  0.870120  0.475940  1.0  0.1017
  H  H63  1  0.269220  0.007180  0.766990  1.0  0.108
  H  H64  1  0.326420  0.073000  0.388260  1.0  0.0805
  H  H65  1  0.713310  0.775360  0.188990  1.0  0.0677
  H  H66  1  0.473730  0.310350  0.939060  1.0  0.0973
  H  H67  1  0.511480  0.379280  0.862950  1.0  0.121
  H  H68  1  0.454460  0.390870  0.994070  1.0  0.0948
  H  H69  1  0.831850  0.370120  0.975940  1.0  0.1017
  H  H70  1  0.769220  0.507180  0.266990  1.0  0.108
  H  H71  1  0.826420  0.573000  0.888260  1.0  0.0805
  H  H72  1  0.213310  0.275360  0.688990  1.0  0.0677
  H  H73  1  0.810350  0.026270  0.560940  1.0  0.0974
  H  H74  1  0.879280  0.988520  0.637050  1.0  0.1214
  H  H75  1  0.890870  0.045540  0.505930  1.0  0.0937
  H  H76  1  0.870120  0.668150  0.524060  1.0  0.1009
  H  H77  1  0.007180  0.730780  0.233010  1.0  0.1095
  H  H78  1  0.073000  0.673580  0.611740  1.0  0.0796
  H  H79  1  0.775360  0.286690  0.811010  1.0  0.0678
  H  H80  1  0.310350  0.526270  0.060940  1.0  0.0974
  H  H81  1  0.379280  0.488520  0.137050  1.0  0.1214
  H  H82  1  0.390870  0.545540  0.005930  1.0  0.0937
  H  H83  1  0.370120  0.168150  0.024060  1.0  0.1009
  H  H84  1  0.507180  0.230780  0.733010  1.0  0.1095
  H  H85  1  0.573000  0.173580  0.111740  1.0  0.0796
  H  H86  1  0.275360  0.786690  0.311010  1.0  0.0678
  H  H87  1  0.689650  0.473730  0.060940  1.0  0.0961
  H  H88  1  0.620720  0.511480  0.137050  1.0  0.1214
  H  H89  1  0.609130  0.454460  0.005930  1.0  0.0945
  H  H90  1  0.629880  0.831850  0.024060  1.0  0.1025
  H  H91  1  0.492820  0.769220  0.733010  1.0  0.1093
  H  H92  1  0.427000  0.826420  0.111740  1.0  0.0795
  H  H93  1  0.724640  0.213310  0.311010  1.0  0.0683
  H  H94  1  0.189650  0.973730  0.560940  1.0  0.0961
  H  H95  1  0.120720  0.011480  0.637050  1.0  0.1214
  H  H96  1  0.109130  0.954460  0.505930  1.0  0.0945
  H  H97  1  0.129880  0.331850  0.524060  1.0  0.1025
  H  H98  1  0.992820  0.269220  0.233010  1.0  0.1093
  H  H99  1  0.927000  0.326420  0.611740  1.0  0.0795
  H  H100  1  0.224640  0.713310  0.811010  1.0  0.0683
  H  H101  1  0.473730  0.810350  0.310940  1.0  0.0966
  H  H102  1  0.511480  0.879280  0.387050  1.0  0.122
  H  H103  1  0.454460  0.890870  0.255930  1.0  0.0948
  H  H104  1  0.831850  0.870120  0.274060  1.0  0.1015
  H  H105  1  0.769220  0.007180  0.983010  1.0  0.1084
  H  H106  1  0.826420  0.073000  0.361740  1.0  0.0806
  H  H107  1  0.213310  0.775360  0.561010  1.0  0.0682
  H  H108  1  0.973730  0.310350  0.810940  1.0  0.0966
  H  H109  1  0.011480  0.379280  0.887050  1.0  0.122
  H  H110  1  0.954460  0.390870  0.755930  1.0  0.0948
  H  H111  1  0.331850  0.370120  0.774060  1.0  0.1015
  H  H112  1  0.269220  0.507180  0.483010  1.0  0.1084
  H  H113  1  0.326420  0.573000  0.861740  1.0  0.0806
  H  H114  1  0.713310  0.275360  0.061010  1.0  0.0682
  H  H115  1  0.026270  0.689650  0.810940  1.0  0.0965
  H  H116  1  0.988520  0.620720  0.887050  1.0  0.1214
  H  H117  1  0.045540  0.609130  0.755930  1.0  0.0939
  H  H118  1  0.668150  0.629880  0.774060  1.0  0.1028
  H  H119  1  0.730780  0.492820  0.483010  1.0  0.1085
  H  H120  1  0.673580  0.427000  0.861740  1.0  0.0808
  H  H121  1  0.286690  0.724640  0.061010  1.0  0.0674
  H  H122  1  0.526270  0.189650  0.310940  1.0  0.0965
  H  H123  1  0.488520  0.120720  0.387050  1.0  0.1214
  H  H124  1  0.545540  0.109130  0.255930  1.0  0.0939
  H  H125  1  0.168150  0.129880  0.274060  1.0  0.1028
  H  H126  1  0.230780  0.992820  0.983010  1.0  0.1085
  H  H127  1  0.173580  0.927000  0.361740  1.0  0.0808
  H  H128  1  0.786690  0.224640  0.561010  1.0  0.0674
  C  C129  1  0.955640  0.796700  0.825630  1.0  -0.1221
  C  C130  1  0.078910  0.821290  0.749780  1.0  -0.0471
  C  C131  1  0.888830  0.790730  0.870830  1.0  0.6448
  C  C132  1  0.993170  0.859350  0.455900  1.0  -0.0354
  C  C133  1  0.967420  0.817300  0.706230  1.0  -0.1287
  C  C134  1  0.004960  0.786730  0.918100  1.0  0.1035
  C  C135  1  0.125380  0.794560  0.950040  1.0  0.6552
  C  C136  1  0.062510  0.800160  0.873260  1.0  -0.1599
  C  C137  1  0.030190  0.827720  0.664620  1.0  0.1458
  C  C138  1  0.455640  0.296700  0.325630  1.0  -0.1221
  C  C139  1  0.578910  0.321290  0.249780  1.0  -0.0471
  C  C140  1  0.388830  0.290730  0.370830  1.0  0.6448
  C  C141  1  0.493170  0.359350  0.955900  1.0  -0.0354
  C  C142  1  0.467420  0.317300  0.206230  1.0  -0.1287
  C  C143  1  0.504960  0.286730  0.418100  1.0  0.1035
  C  C144  1  0.625380  0.294560  0.450040  1.0  0.6552
  C  C145  1  0.562510  0.300160  0.373260  1.0  -0.1599
  C  C146  1  0.530190  0.327720  0.164620  1.0  0.1458
  C  C147  1  0.544360  0.703300  0.325630  1.0  -0.1239
  C  C148  1  0.421090  0.678710  0.249780  1.0  -0.0482
  C  C149  1  0.611170  0.709270  0.370830  1.0  0.645
  C  C150  1  0.506830  0.640650  0.955900  1.0  -0.0356
  C  C151  1  0.532580  0.682700  0.206230  1.0  -0.127
  C  C152  1  0.495040  0.713270  0.418100  1.0  0.1037
  C  C153  1  0.374620  0.705440  0.450040  1.0  0.6543
  C  C154  1  0.437490  0.699840  0.373260  1.0  -0.1606
  C  C155  1  0.469810  0.672280  0.164620  1.0  0.1459
  C  C156  1  0.044360  0.203300  0.825630  1.0  -0.1239
  C  C157  1  0.921090  0.178710  0.749780  1.0  -0.0482
  C  C158  1  0.111170  0.209270  0.870830  1.0  0.645
  C  C159  1  0.006830  0.140650  0.455900  1.0  -0.0356
  C  C160  1  0.032580  0.182700  0.706230  1.0  -0.127
  C  C161  1  0.995040  0.213270  0.918100  1.0  0.1037
  C  C162  1  0.874620  0.205440  0.950040  1.0  0.6543
  C  C163  1  0.937490  0.199840  0.873260  1.0  -0.1606
  C  C164  1  0.969810  0.172280  0.664620  1.0  0.1459
  C  C165  1  0.203300  0.455640  0.075630  1.0  -0.122
  C  C166  1  0.178710  0.578910  0.999780  1.0  -0.0437
  C  C167  1  0.209270  0.388830  0.120830  1.0  0.6464
  C  C168  1  0.140650  0.493170  0.705900  1.0  -0.0364
  C  C169  1  0.182700  0.467420  0.956230  1.0  -0.1232
  C  C170  1  0.213270  0.504960  0.168100  1.0  0.1024
  C  C171  1  0.205440  0.625380  0.200040  1.0  0.6562
  C  C172  1  0.199840  0.562510  0.123260  1.0  -0.1612
  C  C173  1  0.172280  0.530190  0.914620  1.0  0.1477
  C  C174  1  0.703300  0.955640  0.575630  1.0  -0.122
  C  C175  1  0.678710  0.078910  0.499780  1.0  -0.0437
  C  C176  1  0.709270  0.888830  0.620830  1.0  0.6464
  C  C177  1  0.640650  0.993170  0.205900  1.0  -0.0364
  C  C178  1  0.682700  0.967420  0.456230  1.0  -0.1232
  C  C179  1  0.713270  0.004960  0.668100  1.0  0.1024
  C  C180  1  0.705440  0.125380  0.700040  1.0  0.6562
  C  C181  1  0.699840  0.062510  0.623260  1.0  -0.1612
  C  C182  1  0.672280  0.030190  0.414620  1.0  0.1477
  C  C183  1  0.296700  0.044360  0.575630  1.0  -0.123
  C  C184  1  0.321290  0.921090  0.499780  1.0  -0.0433
  C  C185  1  0.290730  0.111170  0.620830  1.0  0.647
  C  C186  1  0.359350  0.006830  0.205900  1.0  -0.0375
  C  C187  1  0.317300  0.032580  0.456230  1.0  -0.1229
  C  C188  1  0.286730  0.995040  0.668100  1.0  0.1031
  C  C189  1  0.294560  0.874620  0.700040  1.0  0.6554
  C  C190  1  0.300160  0.937490  0.623260  1.0  -0.1607
  C  C191  1  0.327720  0.969810  0.414620  1.0  0.1469
  C  C192  1  0.796700  0.544360  0.075630  1.0  -0.123
  C  C193  1  0.821290  0.421090  0.999780  1.0  -0.0433
  C  C194  1  0.790730  0.611170  0.120830  1.0  0.647
  C  C195  1  0.859350  0.506830  0.705900  1.0  -0.0375
  C  C196  1  0.817300  0.532580  0.956230  1.0  -0.1229
  C  C197  1  0.786730  0.495040  0.168100  1.0  0.1031
  C  C198  1  0.794560  0.374620  0.200040  1.0  0.6554
  C  C199  1  0.800160  0.437490  0.123260  1.0  -0.1607
  C  C200  1  0.827720  0.469810  0.914620  1.0  0.1469
  C  C201  1  0.044360  0.703300  0.424370  1.0  -0.1252
  C  C202  1  0.921090  0.678710  0.500220  1.0  -0.0481
  C  C203  1  0.111170  0.709270  0.379170  1.0  0.6448
  C  C204  1  0.006830  0.640650  0.794100  1.0  -0.0349
  C  C205  1  0.032580  0.682700  0.543770  1.0  -0.1276
  C  C206  1  0.995040  0.713270  0.331900  1.0  0.1041
  C  C207  1  0.874620  0.705440  0.299960  1.0  0.654
  C  C208  1  0.937490  0.699840  0.376740  1.0  -0.1602
  C  C209  1  0.969810  0.672280  0.585380  1.0  0.145
  C  C210  1  0.544360  0.203300  0.924370  1.0  -0.1252
  C  C211  1  0.421090  0.178710  0.000220  1.0  -0.0481
  C  C212  1  0.611170  0.209270  0.879170  1.0  0.6448
  C  C213  1  0.506830  0.140650  0.294100  1.0  -0.0349
  C  C214  1  0.532580  0.182700  0.043770  1.0  -0.1276
  C  C215  1  0.495040  0.213270  0.831900  1.0  0.1041
  C  C216  1  0.374620  0.205440  0.799960  1.0  0.654
  C  C217  1  0.437490  0.199840  0.876740  1.0  -0.1602
  C  C218  1  0.469810  0.172280  0.085380  1.0  0.145
  C  C219  1  0.455640  0.796700  0.924370  1.0  -0.1234
  C  C220  1  0.578910  0.821290  0.000220  1.0  -0.0478
  C  C221  1  0.388830  0.790730  0.879170  1.0  0.6446
  C  C222  1  0.493170  0.859350  0.294100  1.0  -0.0364
  C  C223  1  0.467420  0.817300  0.043770  1.0  -0.13
  C  C224  1  0.504960  0.786730  0.831900  1.0  0.1048
  C  C225  1  0.625380  0.794560  0.799960  1.0  0.6553
  C  C226  1  0.562510  0.800160  0.876740  1.0  -0.1586
  C  C227  1  0.530190  0.827720  0.085380  1.0  0.1452
  C  C228  1  0.955640  0.296700  0.424370  1.0  -0.1234
  C  C229  1  0.078910  0.321290  0.500220  1.0  -0.0478
  C  C230  1  0.888830  0.290730  0.379170  1.0  0.6446
  C  C231  1  0.993170  0.359350  0.794100  1.0  -0.0364
  C  C232  1  0.967420  0.317300  0.543770  1.0  -0.13
  C  C233  1  0.004960  0.286730  0.331900  1.0  0.1048
  C  C234  1  0.125380  0.294560  0.299960  1.0  0.6553
  C  C235  1  0.062510  0.300160  0.376740  1.0  -0.1586
  C  C236  1  0.030190  0.327720  0.585380  1.0  0.1452
  C  C237  1  0.796700  0.044360  0.174370  1.0  -0.1241
  C  C238  1  0.821290  0.921090  0.250220  1.0  -0.0433
  C  C239  1  0.790730  0.111170  0.129170  1.0  0.6469
  C  C240  1  0.859350  0.006830  0.544100  1.0  -0.0377
  C  C241  1  0.817300  0.032580  0.293770  1.0  -0.124
  C  C242  1  0.786730  0.995040  0.081900  1.0  0.104
  C  C243  1  0.794560  0.874620  0.049960  1.0  0.6556
  C  C244  1  0.800160  0.937490  0.126740  1.0  -0.1596
  C  C245  1  0.827720  0.969810  0.335380  1.0  0.1461
  C  C246  1  0.296700  0.544360  0.674370  1.0  -0.1241
  C  C247  1  0.321290  0.421090  0.750220  1.0  -0.0433
  C  C248  1  0.290730  0.611170  0.629170  1.0  0.6469
  C  C249  1  0.359350  0.506830  0.044100  1.0  -0.0377
  C  C250  1  0.317300  0.532580  0.793770  1.0  -0.124
  C  C251  1  0.286730  0.495040  0.581900  1.0  0.104
  C  C252  1  0.294560  0.374620  0.549960  1.0  0.6556
  C  C253  1  0.300160  0.437490  0.626740  1.0  -0.1596
  C  C254  1  0.327720  0.469810  0.835380  1.0  0.1461
  C  C255  1  0.703300  0.455640  0.674370  1.0  -0.1236
  C  C256  1  0.678710  0.578910  0.750220  1.0  -0.0439
  C  C257  1  0.709270  0.388830  0.629170  1.0  0.6462
  C  C258  1  0.640650  0.493170  0.044100  1.0  -0.0372
  C  C259  1  0.682700  0.467420  0.793770  1.0  -0.1239
  C  C260  1  0.713270  0.504960  0.581900  1.0  0.1043
  C  C261  1  0.705440  0.625380  0.549960  1.0  0.656
  C  C262  1  0.699840  0.562510  0.626740  1.0  -0.1601
  C  C263  1  0.672280  0.530190  0.835380  1.0  0.147
  C  C264  1  0.203300  0.955640  0.174370  1.0  -0.1236
  C  C265  1  0.178710  0.078910  0.250220  1.0  -0.0439
  C  C266  1  0.209270  0.888830  0.129170  1.0  0.6462
  C  C267  1  0.140650  0.993170  0.544100  1.0  -0.0372
  C  C268  1  0.182700  0.967420  0.293770  1.0  -0.1239
  C  C269  1  0.213270  0.004960  0.081900  1.0  0.1043
  C  C270  1  0.205440  0.125380  0.049960  1.0  0.656
  C  C271  1  0.199840  0.062510  0.126740  1.0  -0.1601
  C  C272  1  0.172280  0.030190  0.335380  1.0  0.147
  O  O273  1  0.845480  0.813930  0.805930  1.0  -0.6391
  O  O274  1  0.175130  0.820420  0.911020  1.0  -0.6406
  O  O275  1  0.117050  0.760780  0.047400  1.0  -0.5879
  O  O276  1  0.885230  0.748660  0.953590  1.0  -0.5876
  O  O277  1  0.249240  0.762090  0.061010  1.0  -0.6991
  O  O278  1  0.042640  0.856310  0.544860  1.0  -0.2898
  O  O279  1  0.345480  0.313930  0.305930  1.0  -0.6391
  O  O280  1  0.675130  0.320420  0.411020  1.0  -0.6406
  O  O281  1  0.617050  0.260780  0.547400  1.0  -0.5879
  O  O282  1  0.385230  0.248660  0.453590  1.0  -0.5876
  O  O283  1  0.749240  0.262090  0.561010  1.0  -0.6991
  O  O284  1  0.542640  0.356310  0.044860  1.0  -0.2898
  O  O285  1  0.654520  0.686070  0.305930  1.0  -0.6392
  O  O286  1  0.324870  0.679580  0.411020  1.0  -0.6397
  O  O287  1  0.382950  0.739220  0.547400  1.0  -0.5883
  O  O288  1  0.614770  0.751340  0.453590  1.0  -0.5882
  O  O289  1  0.250760  0.737910  0.561010  1.0  -0.6996
  O  O290  1  0.457360  0.643690  0.044860  1.0  -0.2927
  O  O291  1  0.154520  0.186070  0.805930  1.0  -0.6392
  O  O292  1  0.824870  0.179580  0.911020  1.0  -0.6397
  O  O293  1  0.882950  0.239220  0.047400  1.0  -0.5883
  O  O294  1  0.114770  0.251340  0.953590  1.0  -0.5882
  O  O295  1  0.750760  0.237910  0.061010  1.0  -0.6996
  O  O296  1  0.957360  0.143690  0.544860  1.0  -0.2927
  O  O297  1  0.186070  0.345480  0.055930  1.0  -0.64
  O  O298  1  0.179580  0.675130  0.161020  1.0  -0.6377
  O  O299  1  0.239220  0.617050  0.297400  1.0  -0.59
  O  O300  1  0.251340  0.385230  0.203590  1.0  -0.5884
  O  O301  1  0.237910  0.749240  0.311010  1.0  -0.6994
  O  O302  1  0.143690  0.542640  0.794860  1.0  -0.289
  O  O303  1  0.686070  0.845480  0.555930  1.0  -0.64
  O  O304  1  0.679580  0.175130  0.661020  1.0  -0.6377
  O  O305  1  0.739220  0.117050  0.797400  1.0  -0.59
  O  O306  1  0.751340  0.885230  0.703590  1.0  -0.5884
  O  O307  1  0.737910  0.249240  0.811010  1.0  -0.6994
  O  O308  1  0.643690  0.042640  0.294860  1.0  -0.289
  O  O309  1  0.313930  0.154520  0.555930  1.0  -0.6391
  O  O310  1  0.320420  0.824870  0.661020  1.0  -0.6377
  O  O311  1  0.260780  0.882950  0.797400  1.0  -0.5899
  O  O312  1  0.248660  0.114770  0.703590  1.0  -0.5879
  O  O313  1  0.262090  0.750760  0.811010  1.0  -0.6995
  O  O314  1  0.356310  0.957360  0.294860  1.0  -0.2915
  O  O315  1  0.813930  0.654520  0.055930  1.0  -0.6391
  O  O316  1  0.820420  0.324870  0.161020  1.0  -0.6377
  O  O317  1  0.760780  0.382950  0.297400  1.0  -0.5899
  O  O318  1  0.748660  0.614770  0.203590  1.0  -0.5879
  O  O319  1  0.762090  0.250760  0.311010  1.0  -0.6995
  O  O320  1  0.856310  0.457360  0.794860  1.0  -0.2915
  O  O321  1  0.154520  0.686070  0.444070  1.0  -0.6393
  O  O322  1  0.824870  0.679580  0.338980  1.0  -0.6406
  O  O323  1  0.882950  0.739220  0.202600  1.0  -0.5882
  O  O324  1  0.114770  0.751340  0.296410  1.0  -0.5886
  O  O325  1  0.750760  0.737910  0.188990  1.0  -0.6996
  O  O326  1  0.957360  0.643690  0.705140  1.0  -0.2933
  O  O327  1  0.654520  0.186070  0.944070  1.0  -0.6393
  O  O328  1  0.324870  0.179580  0.838980  1.0  -0.6406
  O  O329  1  0.382950  0.239220  0.702600  1.0  -0.5882
  O  O330  1  0.614770  0.251340  0.796410  1.0  -0.5886
  O  O331  1  0.250760  0.237910  0.688990  1.0  -0.6996
  O  O332  1  0.457360  0.143690  0.205140  1.0  -0.2933
  O  O333  1  0.345480  0.813930  0.944070  1.0  -0.6395
  O  O334  1  0.675130  0.820420  0.838980  1.0  -0.6417
  O  O335  1  0.617050  0.760780  0.702600  1.0  -0.5878
  O  O336  1  0.385230  0.748660  0.796410  1.0  -0.5883
  O  O337  1  0.749240  0.762090  0.688990  1.0  -0.6992
  O  O338  1  0.542640  0.856310  0.205140  1.0  -0.2904
  O  O339  1  0.845480  0.313930  0.444070  1.0  -0.6395
  O  O340  1  0.175130  0.320420  0.338980  1.0  -0.6417
  O  O341  1  0.117050  0.260780  0.202600  1.0  -0.5878
  O  O342  1  0.885230  0.248660  0.296410  1.0  -0.5883
  O  O343  1  0.249240  0.262090  0.188990  1.0  -0.6992
  O  O344  1  0.042640  0.356310  0.705140  1.0  -0.2904
  O  O345  1  0.813930  0.154520  0.194070  1.0  -0.6368
  O  O346  1  0.820420  0.824870  0.088980  1.0  -0.6383
  O  O347  1  0.760780  0.882950  0.952600  1.0  -0.5892
  O  O348  1  0.748660  0.114770  0.046410  1.0  -0.5884
  O  O349  1  0.762090  0.750760  0.938990  1.0  -0.6995
  O  O350  1  0.856310  0.957360  0.455140  1.0  -0.2923
  O  O351  1  0.313930  0.654520  0.694070  1.0  -0.6368
  O  O352  1  0.320420  0.324870  0.588980  1.0  -0.6383
  O  O353  1  0.260780  0.382950  0.452600  1.0  -0.5892
  O  O354  1  0.248660  0.614770  0.546410  1.0  -0.5884
  O  O355  1  0.262090  0.250760  0.438990  1.0  -0.6995
  O  O356  1  0.356310  0.457360  0.955140  1.0  -0.2923
  O  O357  1  0.686070  0.345480  0.694070  1.0  -0.6376
  O  O358  1  0.679580  0.675130  0.588980  1.0  -0.6384
  O  O359  1  0.739220  0.617050  0.452600  1.0  -0.5902
  O  O360  1  0.751340  0.385230  0.546410  1.0  -0.5885
  O  O361  1  0.737910  0.749240  0.438990  1.0  -0.6996
  O  O362  1  0.643690  0.542640  0.955140  1.0  -0.2899
  O  O363  1  0.186070  0.845480  0.194070  1.0  -0.6376
  O  O364  1  0.179580  0.175130  0.088980  1.0  -0.6384
  O  O365  1  0.239220  0.117050  0.952600  1.0  -0.5902
  O  O366  1  0.251340  0.885230  0.046410  1.0  -0.5885
  O  O367  1  0.237910  0.249240  0.938990  1.0  -0.6996
  O  O368  1  0.143690  0.042640  0.455140  1.0  -0.2899
