# generated using pymatgen
data_MoPH4C4O3
_symmetry_space_group_name_H-M   'P 1'
_cell_length_a   9.00230000
_cell_length_b   10.61140000
_cell_length_c   11.69410000
_cell_angle_alpha   116.98200000
_cell_angle_beta   109.22600000
_cell_angle_gamma   90.00000000
_symmetry_Int_Tables_number   1
_chemical_formula_structural   MoPH4C4O3
_chemical_formula_sum   'Mo4 P4 H16 C16 O12'
_cell_volume   925.04671295
_cell_formula_units_Z   4
loop_
 _symmetry_equiv_pos_site_id
 _symmetry_equiv_pos_as_xyz
  1  'x, y, z'
loop_
 _atom_site_type_symbol
 _atom_site_label
 _atom_site_symmetry_multiplicity
 _atom_site_fract_x
 _atom_site_fract_y
 _atom_site_fract_z
 _atom_site_occupancy
 _atom_site_charge
  Mo  Mo1  1  0.763670  0.413450  0.530040  1.0  0.9521
  Mo  Mo2  1  0.736330  0.883410  0.469960  1.0  0.9542
  Mo  Mo3  1  0.236330  0.586550  0.469960  1.0  0.9528
  Mo  Mo4  1  0.263670  0.116590  0.530040  1.0  0.955
  P  P5  1  0.538920  0.095570  0.381480  1.0  1.5004
  P  P6  1  0.961080  0.714090  0.618520  1.0  1.4976
  P  P7  1  0.461080  0.904430  0.618520  1.0  1.499
  P  P8  1  0.038920  0.285910  0.381480  1.0  1.4989
  H  H9  1  0.355400  0.174900  0.250600  1.0  0.1647
  H  H10  1  0.297600  0.009400  0.199000  1.0  0.163
  H  H11  1  0.450100  0.231400  0.112800  1.0  0.1062
  H  H12  1  0.536600  0.167600  0.930200  1.0  0.1184
  H  H13  1  0.144600  0.924300  0.749400  1.0  0.1632
  H  H14  1  0.202400  0.810400  0.801000  1.0  0.1637
  H  H15  1  0.049900  0.118600  0.887200  1.0  0.1068
  H  H16  1  0.963400  0.237400  0.069800  1.0  0.1179
  H  H17  1  0.644600  0.825100  0.749400  1.0  0.1619
  H  H18  1  0.702400  0.990600  0.801000  1.0  0.1627
  H  H19  1  0.549900  0.768600  0.887200  1.0  0.1062
  H  H20  1  0.463400  0.832400  0.069800  1.0  0.1182
  H  H21  1  0.855400  0.075700  0.250600  1.0  0.1643
  H  H22  1  0.797600  0.189600  0.199000  1.0  0.1631
  H  H23  1  0.950100  0.881400  0.112800  1.0  0.1064
  H  H24  1  0.036600  0.762600  0.930200  1.0  0.1183
  C  C25  1  0.391200  0.081260  0.228520  1.0  -0.5912
  C  C26  1  0.447000  0.038600  0.109200  1.0  0.1622
  C  C27  1  0.470100  0.136770  0.066940  1.0  -0.1399
  C  C28  1  0.522000  0.099060  0.958520  1.0  -0.1187
  C  C29  1  0.108800  0.852740  0.771480  1.0  -0.5938
  C  C30  1  0.053000  0.929400  0.890800  1.0  0.1628
  C  C31  1  0.029900  0.069830  0.933060  1.0  -0.1417
  C  C32  1  0.978000  0.140540  0.041480  1.0  -0.1199
  C  C33  1  0.608800  0.918740  0.771480  1.0  -0.5927
  C  C34  1  0.553000  0.961400  0.890800  1.0  0.1628
  C  C35  1  0.529900  0.863230  0.933060  1.0  -0.1437
  C  C36  1  0.478000  0.900940  0.041480  1.0  -0.1177
  C  C37  1  0.891200  0.147260  0.228520  1.0  -0.5939
  C  C38  1  0.947000  0.070600  0.109200  1.0  0.1626
  C  C39  1  0.970100  0.930170  0.066940  1.0  -0.1433
  C  C40  1  0.022000  0.859460  0.958520  1.0  -0.1202
  O  O41  1  0.688390  0.201320  0.424240  1.0  -0.8063
  O  O42  1  0.473460  0.146290  0.495200  1.0  -0.7456
  O  O43  1  0.586720  0.946530  0.343600  1.0  -0.7601
  O  O44  1  0.811610  0.777080  0.575760  1.0  -0.807
  O  O45  1  0.026540  0.651090  0.504800  1.0  -0.7432
  O  O46  1  0.913280  0.602930  0.656400  1.0  -0.7607
  O  O47  1  0.311610  0.798680  0.575760  1.0  -0.8075
  O  O48  1  0.526540  0.853710  0.504800  1.0  -0.7457
  O  O49  1  0.413280  0.053470  0.656400  1.0  -0.7617
  O  O50  1  0.188390  0.222920  0.424240  1.0  -0.805
  O  O51  1  0.973460  0.348910  0.495200  1.0  -0.7435
  O  O52  1  0.086720  0.397070  0.343600  1.0  -0.7621
