# generated using pymatgen
data_FePt(C6N)6
_symmetry_space_group_name_H-M   'P 1'
_cell_length_a   7.14070000
_cell_length_b   7.14070000
_cell_length_c   20.48900000
_cell_angle_alpha   90.00000000
_cell_angle_beta   90.00000000
_cell_angle_gamma   90.00000000
_symmetry_Int_Tables_number   1
_chemical_formula_structural   FePt(C6N)6
_chemical_formula_sum   'Fe1 Pt1 C36 N6'
_cell_volume   1044.72584248
_cell_formula_units_Z   1
loop_
 _symmetry_equiv_pos_site_id
 _symmetry_equiv_pos_as_xyz
  1  'x, y, z'
loop_
 _atom_site_type_symbol
 _atom_site_label
 _atom_site_symmetry_multiplicity
 _atom_site_fract_x
 _atom_site_fract_y
 _atom_site_fract_z
 _atom_site_occupancy
 _atom_site_charge
  Fe  Fe1  1  0.500000  0.500000  0.500000  1.0  0.3885
  Pt  Pt2  1  0.000000  0.000000  0.500000  1.0  0.1501
  C  C3  1  0.500000  0.500000  0.732900  1.0  0.0011
  C  C4  1  0.500000  0.500000  0.931000  1.0  -0.1068
  C  C5  1  0.500000  0.500000  0.864000  1.0  0.1107
  C  C6  1  0.500000  0.500000  0.804800  1.0  0.0133
  C  C7  1  0.500000  0.500000  0.267100  1.0  0.0054
  C  C8  1  0.500000  0.500000  0.069000  1.0  -0.1064
  C  C9  1  0.500000  0.500000  0.136000  1.0  0.1103
  C  C10  1  0.500000  0.500000  0.195200  1.0  0.0142
  C  C11  1  0.808000  0.808000  0.500000  1.0  0.0402
  C  C12  1  0.192000  0.192000  0.500000  1.0  0.0429
  C  C13  1  0.192000  0.808000  0.500000  1.0  0.0353
  C  C14  1  0.808000  0.192000  0.500000  1.0  0.0327
  C  C15  1  0.658000  0.500000  0.630800  1.0  0.086
  C  C16  1  0.667000  0.500000  0.699600  1.0  0.0335
  C  C17  1  0.636000  0.500000  0.965000  1.0  -0.0264
  C  C18  1  0.342000  0.500000  0.630800  1.0  0.0879
  C  C19  1  0.333000  0.500000  0.699600  1.0  0.0324
  C  C20  1  0.364000  0.500000  0.965000  1.0  -0.0332
  C  C21  1  0.500000  0.658000  0.630800  1.0  0.0838
  C  C22  1  0.500000  0.667000  0.699600  1.0  0.0267
  C  C23  1  0.500000  0.636000  0.965000  1.0  -0.0339
  C  C24  1  0.500000  0.342000  0.630800  1.0  0.0816
  C  C25  1  0.500000  0.333000  0.699600  1.0  0.0284
  C  C26  1  0.500000  0.364000  0.965000  1.0  -0.0345
  C  C27  1  0.342000  0.500000  0.369200  1.0  0.0882
  C  C28  1  0.333000  0.500000  0.300400  1.0  0.0288
  C  C29  1  0.364000  0.500000  0.035000  1.0  -0.0346
  C  C30  1  0.658000  0.500000  0.369200  1.0  0.0869
  C  C31  1  0.667000  0.500000  0.300400  1.0  0.0296
  C  C32  1  0.636000  0.500000  0.035000  1.0  -0.0272
  C  C33  1  0.500000  0.658000  0.369200  1.0  0.0849
  C  C34  1  0.500000  0.667000  0.300400  1.0  0.0219
  C  C35  1  0.500000  0.636000  0.035000  1.0  -0.034
  C  C36  1  0.500000  0.342000  0.369200  1.0  0.0811
  C  C37  1  0.500000  0.333000  0.300400  1.0  0.0251
  C  C38  1  0.500000  0.364000  0.035000  1.0  -0.0377
  N  N39  1  0.500000  0.500000  0.596900  1.0  -0.1083
  N  N40  1  0.500000  0.500000  0.403100  1.0  -0.1074
  N  N41  1  0.690000  0.690000  0.500000  1.0  -0.2907
  N  N42  1  0.310000  0.310000  0.500000  1.0  -0.2881
  N  N43  1  0.310000  0.690000  0.500000  1.0  -0.2947
  N  N44  1  0.690000  0.310000  0.500000  1.0  -0.2876
