# generated using pymatgen
data_Cu3H14C13N6O5
_symmetry_space_group_name_H-M   'P 1'
_cell_length_a   16.81280000
_cell_length_b   16.81280000
_cell_length_c   16.81280000
_cell_angle_alpha   105.66400000
_cell_angle_beta   105.66400000
_cell_angle_gamma   105.66400000
_symmetry_Int_Tables_number   1
_chemical_formula_structural   Cu3H14C13N6O5
_chemical_formula_sum   'Cu18 H84 C78 N36 O30'
_cell_volume   4093.60069221
_cell_formula_units_Z   6
loop_
 _symmetry_equiv_pos_site_id
 _symmetry_equiv_pos_as_xyz
  1  'x, y, z'
loop_
 _atom_site_type_symbol
 _atom_site_label
 _atom_site_symmetry_multiplicity
 _atom_site_fract_x
 _atom_site_fract_y
 _atom_site_fract_z
 _atom_site_occupancy
 _atom_site_charge
  Cu  Cu1  1  0.434700  0.849920  0.613900  1.0  0.8325
  Cu  Cu2  1  0.371320  0.767050  0.390070  1.0  0.7761
  Cu  Cu3  1  0.287760  0.911940  0.485910  1.0  0.862
  Cu  Cu4  1  0.613900  0.434700  0.849920  1.0  0.8338
  Cu  Cu5  1  0.390070  0.371320  0.767050  1.0  0.7779
  Cu  Cu6  1  0.485910  0.287760  0.911940  1.0  0.8615
  Cu  Cu7  1  0.849920  0.613900  0.434700  1.0  0.834
  Cu  Cu8  1  0.767050  0.390070  0.371320  1.0  0.7764
  Cu  Cu9  1  0.911940  0.485910  0.287760  1.0  0.8625
  Cu  Cu10  1  0.565300  0.150080  0.386100  1.0  0.8332
  Cu  Cu11  1  0.628680  0.232950  0.609930  1.0  0.7769
  Cu  Cu12  1  0.712240  0.088060  0.514090  1.0  0.8604
  Cu  Cu13  1  0.386100  0.565300  0.150080  1.0  0.8349
  Cu  Cu14  1  0.609930  0.628680  0.232950  1.0  0.7766
  Cu  Cu15  1  0.514090  0.712240  0.088060  1.0  0.8617
  Cu  Cu16  1  0.150080  0.386100  0.565300  1.0  0.8343
  Cu  Cu17  1  0.232950  0.609930  0.628680  1.0  0.776
  Cu  Cu18  1  0.088060  0.514090  0.712240  1.0  0.8621
  H  H19  1  0.577600  0.755900  0.650400  1.0  0.1006
  H  H20  1  0.592500  0.646200  0.525600  1.0  0.1176
  H  H21  1  0.483600  0.638800  0.384800  1.0  0.0924
  H  H22  1  0.258400  0.737800  0.189400  1.0  0.0887
  H  H23  1  0.153300  0.814400  0.155200  1.0  0.1088
  H  H24  1  0.162400  0.910900  0.304600  1.0  0.0923
  H  H25  1  0.234400  0.012500  0.644000  1.0  0.1009
  H  H26  1  0.305600  0.024000  0.798600  1.0  0.114
  H  H27  1  0.416300  0.951400  0.796500  1.0  0.1062
  H  H28  1  0.414200  0.651300  0.761800  1.0  0.1083
  H  H29  1  0.378800  0.718500  0.815200  1.0  0.107
  H  H30  1  0.556600  0.745500  0.837500  1.0  0.0928
  H  H31  1  0.526600  0.823300  0.882400  1.0  0.0974
  H  H32  1  0.435200  0.913800  0.502900  1.0  0.382
  H  H33  1  0.650400  0.577600  0.755900  1.0  0.1006
  H  H34  1  0.525600  0.592500  0.646200  1.0  0.1168
  H  H35  1  0.384800  0.483600  0.638800  1.0  0.0923
  H  H36  1  0.189400  0.258400  0.737800  1.0  0.0883
  H  H37  1  0.155200  0.153300  0.814400  1.0  0.1096
  H  H38  1  0.304600  0.162400  0.910900  1.0  0.0922
  H  H39  1  0.644000  0.234400  0.012500  1.0  0.1017
  H  H40  1  0.798600  0.305600  0.024000  1.0  0.1134
  H  H41  1  0.796500  0.416300  0.951400  1.0  0.1055
  H  H42  1  0.761800  0.414200  0.651300  1.0  0.1082
  H  H43  1  0.815200  0.378800  0.718500  1.0  0.1069
  H  H44  1  0.837500  0.556600  0.745500  1.0  0.0973
  H  H45  1  0.882400  0.526600  0.823300  1.0  0.0963
  H  H46  1  0.502900  0.435200  0.913800  1.0  0.3828
  H  H47  1  0.755900  0.650400  0.577600  1.0  0.0992
  H  H48  1  0.646200  0.525600  0.592500  1.0  0.1181
  H  H49  1  0.638800  0.384800  0.483600  1.0  0.0909
  H  H50  1  0.737800  0.189400  0.258400  1.0  0.0872
  H  H51  1  0.814400  0.155200  0.153300  1.0  0.1116
  H  H52  1  0.910900  0.304600  0.162400  1.0  0.0926
  H  H53  1  0.012500  0.644000  0.234400  1.0  0.101
  H  H54  1  0.024000  0.798600  0.305600  1.0  0.114
  H  H55  1  0.951400  0.796500  0.416300  1.0  0.1084
  H  H56  1  0.651300  0.761800  0.414200  1.0  0.1105
  H  H57  1  0.718500  0.815200  0.378800  1.0  0.1029
  H  H58  1  0.745500  0.837500  0.556600  1.0  0.0966
  H  H59  1  0.823300  0.882400  0.526600  1.0  0.0973
  H  H60  1  0.913800  0.502900  0.435200  1.0  0.3798
  H  H61  1  0.422400  0.244100  0.349600  1.0  0.1007
  H  H62  1  0.407500  0.353800  0.474400  1.0  0.1178
  H  H63  1  0.516400  0.361200  0.615200  1.0  0.092
  H  H64  1  0.741600  0.262200  0.810600  1.0  0.0888
  H  H65  1  0.846700  0.185600  0.844800  1.0  0.1083
  H  H66  1  0.837600  0.089100  0.695400  1.0  0.0924
  H  H67  1  0.765600  0.987500  0.356000  1.0  0.1009
  H  H68  1  0.694400  0.976000  0.201400  1.0  0.1129
  H  H69  1  0.583700  0.048600  0.203500  1.0  0.1056
  H  H70  1  0.585800  0.348700  0.238200  1.0  0.1098
  H  H71  1  0.621200  0.281500  0.184800  1.0  0.1063
  H  H72  1  0.443400  0.254500  0.162500  1.0  0.0933
  H  H73  1  0.473400  0.176700  0.117600  1.0  0.0965
  H  H74  1  0.564800  0.086200  0.497100  1.0  0.3827
  H  H75  1  0.349600  0.422400  0.244100  1.0  0.0999
  H  H76  1  0.474400  0.407500  0.353800  1.0  0.117
  H  H77  1  0.615200  0.516400  0.361200  1.0  0.0912
  H  H78  1  0.810600  0.741600  0.262200  1.0  0.0878
  H  H79  1  0.844800  0.846700  0.185600  1.0  0.111
  H  H80  1  0.695400  0.837600  0.089100  1.0  0.0931
  H  H81  1  0.356000  0.765600  0.987500  1.0  0.1016
  H  H82  1  0.201400  0.694400  0.976000  1.0  0.1142
  H  H83  1  0.203500  0.583700  0.048600  1.0  0.1049
  H  H84  1  0.238200  0.585800  0.348700  1.0  0.1085
  H  H85  1  0.184800  0.621200  0.281500  1.0  0.1063
  H  H86  1  0.162500  0.443400  0.254500  1.0  0.0977
  H  H87  1  0.117600  0.473400  0.176700  1.0  0.0978
  H  H88  1  0.497100  0.564800  0.086200  1.0  0.3835
  H  H89  1  0.244100  0.349600  0.422400  1.0  0.099
  H  H90  1  0.353800  0.474400  0.407500  1.0  0.1168
  H  H91  1  0.361200  0.615200  0.516400  1.0  0.0917
  H  H92  1  0.262200  0.810600  0.741600  1.0  0.0878
  H  H93  1  0.185600  0.844800  0.846700  1.0  0.1111
  H  H94  1  0.089100  0.695400  0.837600  1.0  0.0929
  H  H95  1  0.987500  0.356000  0.765600  1.0  0.1005
  H  H96  1  0.976000  0.201400  0.694400  1.0  0.1139
  H  H97  1  0.048600  0.203500  0.583700  1.0  0.1082
  H  H98  1  0.348700  0.238200  0.585800  1.0  0.1106
  H  H99  1  0.281500  0.184800  0.621200  1.0  0.1038
  H  H100  1  0.254500  0.162500  0.443400  1.0  0.0974
  H  H101  1  0.176700  0.117600  0.473400  1.0  0.0977
  H  H102  1  0.086200  0.497100  0.564800  1.0  0.3804
  C  C103  1  0.545300  0.739300  0.588900  1.0  0.0079
  C  C104  1  0.554100  0.678400  0.520700  1.0  -0.1344
  C  C105  1  0.493900  0.675100  0.443500  1.0  0.0081
  C  C106  1  0.246100  0.777600  0.232100  1.0  0.0274
  C  C107  1  0.188600  0.819600  0.212200  1.0  -0.1487
  C  C108  1  0.193700  0.872000  0.295400  1.0  -0.0113
  C  C109  1  0.278700  0.989600  0.663400  1.0  -0.0109
  C  C110  1  0.317700  0.996500  0.748300  1.0  -0.1488
  C  C111  1  0.377800  0.956100  0.746600  1.0  -0.0034
  C  C112  1  0.409300  0.751400  0.715500  1.0  0.7091
  C  C113  1  0.424400  0.715100  0.788900  1.0  -0.3758
  C  C114  1  0.511300  0.758200  0.860800  1.0  -0.2296
  C  C115  1  0.514500  0.728100  0.936600  1.0  0.7555
  C  C116  1  0.588900  0.545300  0.739300  1.0  0.0084
  C  C117  1  0.520700  0.554100  0.678400  1.0  -0.1353
  C  C118  1  0.443500  0.493900  0.675100  1.0  0.0092
  C  C119  1  0.232100  0.246100  0.777600  1.0  0.0284
  C  C120  1  0.212200  0.188600  0.819600  1.0  -0.1471
  C  C121  1  0.295400  0.193700  0.872000  1.0  -0.0116
  C  C122  1  0.663400  0.278700  0.989600  1.0  -0.0099
  C  C123  1  0.748300  0.317700  0.996500  1.0  -0.1465
  C  C124  1  0.746600  0.377800  0.956100  1.0  -0.0015
  C  C125  1  0.715500  0.409300  0.751400  1.0  0.7096
  C  C126  1  0.788900  0.424400  0.715100  1.0  -0.3737
  C  C127  1  0.860800  0.511300  0.758200  1.0  -0.2313
  C  C128  1  0.936600  0.514500  0.728100  1.0  0.7583
  C  C129  1  0.739300  0.588900  0.545300  1.0  0.0069
  C  C130  1  0.678400  0.520700  0.554100  1.0  -0.1354
  C  C131  1  0.675100  0.443500  0.493900  1.0  0.0045
  C  C132  1  0.777600  0.232100  0.246100  1.0  0.0342
  C  C133  1  0.819600  0.212200  0.188600  1.0  -0.147
  C  C134  1  0.872000  0.295400  0.193700  1.0  -0.009
  C  C135  1  0.989600  0.663400  0.278700  1.0  -0.0134
  C  C136  1  0.996500  0.748300  0.317700  1.0  -0.1488
  C  C137  1  0.956100  0.746600  0.377800  1.0  -0.0039
  C  C138  1  0.751400  0.715500  0.409300  1.0  0.7052
  C  C139  1  0.715100  0.788900  0.424400  1.0  -0.3784
  C  C140  1  0.758200  0.860800  0.511300  1.0  -0.2311
  C  C141  1  0.728100  0.936600  0.514500  1.0  0.7555
  C  C142  1  0.454700  0.260700  0.411100  1.0  0.0038
  C  C143  1  0.445900  0.321600  0.479300  1.0  -0.1355
  C  C144  1  0.506100  0.324900  0.556500  1.0  0.0089
  C  C145  1  0.753900  0.222400  0.767900  1.0  0.026
  C  C146  1  0.811400  0.180400  0.787800  1.0  -0.1471
  C  C147  1  0.806300  0.128000  0.704600  1.0  -0.0116
  C  C148  1  0.721300  0.010400  0.336600  1.0  -0.0112
  C  C149  1  0.682300  0.003500  0.251700  1.0  -0.1466
  C  C150  1  0.622200  0.043900  0.253400  1.0  -0.0026
  C  C151  1  0.590700  0.248600  0.284500  1.0  0.7084
  C  C152  1  0.575600  0.284900  0.211100  1.0  -0.3748
  C  C153  1  0.488700  0.241800  0.139200  1.0  -0.228
  C  C154  1  0.485500  0.271900  0.063400  1.0  0.7574
  C  C155  1  0.411100  0.454700  0.260700  1.0  0.0039
  C  C156  1  0.479300  0.445900  0.321600  1.0  -0.1341
  C  C157  1  0.556500  0.506100  0.324900  1.0  0.0088
  C  C158  1  0.767900  0.753900  0.222400  1.0  0.0286
  C  C159  1  0.787800  0.811400  0.180400  1.0  -0.1467
  C  C160  1  0.704600  0.806300  0.128000  1.0  -0.0102
  C  C161  1  0.336600  0.721300  0.010400  1.0  -0.0105
  C  C162  1  0.251700  0.682300  0.003500  1.0  -0.1467
  C  C163  1  0.253400  0.622200  0.043900  1.0  -0.0013
  C  C164  1  0.284500  0.590700  0.248600  1.0  0.7099
  C  C165  1  0.211100  0.575600  0.284900  1.0  -0.3762
  C  C166  1  0.139200  0.488700  0.241800  1.0  -0.2274
  C  C167  1  0.063400  0.485500  0.271900  1.0  0.7573
  C  C168  1  0.260700  0.411100  0.454700  1.0  0.0066
  C  C169  1  0.321600  0.479300  0.445900  1.0  -0.1334
  C  C170  1  0.324900  0.556500  0.506100  1.0  0.0069
  C  C171  1  0.222400  0.767900  0.753900  1.0  0.0315
  C  C172  1  0.180400  0.787800  0.811400  1.0  -0.1494
  C  C173  1  0.128000  0.704600  0.806300  1.0  -0.0077
  C  C174  1  0.010400  0.336600  0.721300  1.0  -0.0118
  C  C175  1  0.003500  0.251700  0.682300  1.0  -0.1473
  C  C176  1  0.043900  0.253400  0.622200  1.0  -0.0059
  C  C177  1  0.248600  0.284500  0.590700  1.0  0.7045
  C  C178  1  0.284900  0.211100  0.575600  1.0  -0.3749
  C  C179  1  0.241800  0.139200  0.488700  1.0  -0.2269
  C  C180  1  0.271900  0.063400  0.485500  1.0  0.755
  N  N181  1  0.484700  0.771500  0.555500  1.0  -0.2188
  N  N182  1  0.452600  0.731500  0.465300  1.0  -0.2224
  N  N183  1  0.282900  0.800600  0.320800  1.0  -0.257
  N  N184  1  0.248600  0.859000  0.358800  1.0  -0.1765
  N  N185  1  0.312900  0.945000  0.611100  1.0  -0.1853
  N  N186  1  0.373300  0.924100  0.661900  1.0  -0.2308
  N  N187  1  0.555500  0.484700  0.771500  1.0  -0.2248
  N  N188  1  0.465300  0.452600  0.731500  1.0  -0.2178
  N  N189  1  0.320800  0.282900  0.800600  1.0  -0.254
  N  N190  1  0.358800  0.248600  0.859000  1.0  -0.1772
  N  N191  1  0.611100  0.312900  0.945000  1.0  -0.1857
  N  N192  1  0.661900  0.373300  0.924100  1.0  -0.2297
  N  N193  1  0.771500  0.555500  0.484700  1.0  -0.2223
  N  N194  1  0.731500  0.465300  0.452600  1.0  -0.2214
  N  N195  1  0.800600  0.320800  0.282900  1.0  -0.2558
  N  N196  1  0.859000  0.358800  0.248600  1.0  -0.1794
  N  N197  1  0.945000  0.611100  0.312900  1.0  -0.1861
  N  N198  1  0.924100  0.661900  0.373300  1.0  -0.2274
  N  N199  1  0.515300  0.228500  0.444500  1.0  -0.2213
  N  N200  1  0.547400  0.268500  0.534700  1.0  -0.2212
  N  N201  1  0.717100  0.199400  0.679200  1.0  -0.2574
  N  N202  1  0.751400  0.141000  0.641200  1.0  -0.1779
  N  N203  1  0.687100  0.055000  0.388900  1.0  -0.1881
  N  N204  1  0.626700  0.075900  0.338100  1.0  -0.2299
  N  N205  1  0.444500  0.515300  0.228500  1.0  -0.2246
  N  N206  1  0.534700  0.547400  0.268500  1.0  -0.2185
  N  N207  1  0.679200  0.717100  0.199400  1.0  -0.2558
  N  N208  1  0.641200  0.751400  0.141000  1.0  -0.1796
  N  N209  1  0.388900  0.687100  0.055000  1.0  -0.1869
  N  N210  1  0.338100  0.626700  0.075900  1.0  -0.23
  N  N211  1  0.228500  0.444500  0.515300  1.0  -0.2229
  N  N212  1  0.268500  0.534700  0.547400  1.0  -0.2207
  N  N213  1  0.199400  0.679200  0.717100  1.0  -0.2548
  N  N214  1  0.141000  0.641200  0.751400  1.0  -0.1786
  N  N215  1  0.055000  0.388900  0.687100  1.0  -0.1869
  N  N216  1  0.075900  0.338100  0.626700  1.0  -0.2275
  O  O217  1  0.469700  0.819200  0.722000  1.0  -0.592
  O  O218  1  0.336000  0.714700  0.649700  1.0  -0.6304
  O  O219  1  0.526300  0.784900  0.011700  1.0  -0.6122
  O  O220  1  0.503700  0.650000  0.925600  1.0  -0.6277
  O  O221  1  0.384100  0.863300  0.498300  1.0  -0.8706
  O  O222  1  0.722000  0.469700  0.819200  1.0  -0.5936
  O  O223  1  0.649700  0.336000  0.714700  1.0  -0.6316
  O  O224  1  0.011700  0.526300  0.784900  1.0  -0.6136
  O  O225  1  0.925600  0.503700  0.650000  1.0  -0.6258
  O  O226  1  0.498300  0.384100  0.863300  1.0  -0.873
  O  O227  1  0.819200  0.722000  0.469700  1.0  -0.5914
  O  O228  1  0.714700  0.649700  0.336000  1.0  -0.6324
  O  O229  1  0.784900  0.011700  0.526300  1.0  -0.6142
  O  O230  1  0.650000  0.925600  0.503700  1.0  -0.629
  O  O231  1  0.863300  0.498300  0.384100  1.0  -0.8743
  O  O232  1  0.530300  0.180800  0.278000  1.0  -0.5936
  O  O233  1  0.664000  0.285300  0.350300  1.0  -0.6309
  O  O234  1  0.473700  0.215100  0.988300  1.0  -0.6123
  O  O235  1  0.496300  0.350000  0.074400  1.0  -0.6265
  O  O236  1  0.615900  0.136700  0.501700  1.0  -0.8729
  O  O237  1  0.278000  0.530300  0.180800  1.0  -0.5948
  O  O238  1  0.350300  0.664000  0.285300  1.0  -0.6327
  O  O239  1  0.988300  0.473700  0.215100  1.0  -0.6152
  O  O240  1  0.074400  0.496300  0.350000  1.0  -0.6308
  O  O241  1  0.501700  0.615900  0.136700  1.0  -0.872
  O  O242  1  0.180800  0.278000  0.530300  1.0  -0.5933
  O  O243  1  0.285300  0.350300  0.664000  1.0  -0.6332
  O  O244  1  0.215100  0.988300  0.473700  1.0  -0.6137
  O  O245  1  0.350000  0.074400  0.496300  1.0  -0.6259
  O  O246  1  0.136700  0.501700  0.615900  1.0  -0.8746
