# generated using pymatgen
data_Cu3H14C13N6O5
_symmetry_space_group_name_H-M   'P 1'
_cell_length_a   16.75850000
_cell_length_b   16.75850000
_cell_length_c   16.75850000
_cell_angle_alpha   105.19200000
_cell_angle_beta   105.19200000
_cell_angle_gamma   105.19200000
_symmetry_Int_Tables_number   1
_chemical_formula_structural   Cu3H14C13N6O5
_chemical_formula_sum   'Cu18 H84 C78 N36 O30'
_cell_volume   4097.67324328
_cell_formula_units_Z   6
loop_
 _symmetry_equiv_pos_site_id
 _symmetry_equiv_pos_as_xyz
  1  'x, y, z'
loop_
 _atom_site_type_symbol
 _atom_site_label
 _atom_site_symmetry_multiplicity
 _atom_site_fract_x
 _atom_site_fract_y
 _atom_site_fract_z
 _atom_site_occupancy
 _atom_site_charge
  Cu  Cu1  1  0.432890  0.847480  0.608850  1.0  0.734
  Cu  Cu2  1  0.368060  0.764210  0.387830  1.0  0.7415
  Cu  Cu3  1  0.284780  0.908290  0.484680  1.0  0.7831
  Cu  Cu4  1  0.608850  0.432890  0.847480  1.0  0.7364
  Cu  Cu5  1  0.387830  0.368060  0.764210  1.0  0.7422
  Cu  Cu6  1  0.484680  0.284780  0.908290  1.0  0.7828
  Cu  Cu7  1  0.847480  0.608850  0.432890  1.0  0.7353
  Cu  Cu8  1  0.764210  0.387830  0.368060  1.0  0.7409
  Cu  Cu9  1  0.908290  0.484680  0.284780  1.0  0.7835
  Cu  Cu10  1  0.567110  0.152520  0.391150  1.0  0.734
  Cu  Cu11  1  0.631940  0.235790  0.612170  1.0  0.741
  Cu  Cu12  1  0.715220  0.091710  0.515320  1.0  0.7816
  Cu  Cu13  1  0.391150  0.567110  0.152520  1.0  0.7365
  Cu  Cu14  1  0.612170  0.631940  0.235790  1.0  0.7411
  Cu  Cu15  1  0.515320  0.715220  0.091710  1.0  0.7843
  Cu  Cu16  1  0.152520  0.391150  0.567110  1.0  0.7352
  Cu  Cu17  1  0.235790  0.612170  0.631940  1.0  0.7391
  Cu  Cu18  1  0.091710  0.515320  0.715220  1.0  0.7835
  H  H19  1  0.576500  0.757900  0.643500  1.0  0.0983
  H  H20  1  0.590800  0.646100  0.521100  1.0  0.1292
  H  H21  1  0.482300  0.637900  0.383400  1.0  0.0919
  H  H22  1  0.262500  0.739400  0.187300  1.0  0.0952
  H  H23  1  0.170700  0.834200  0.157000  1.0  0.1532
  H  H24  1  0.169700  0.917300  0.303800  1.0  0.1048
  H  H25  1  0.247300  0.023500  0.645900  1.0  0.1114
  H  H26  1  0.330700  0.038400  0.799900  1.0  0.1142
  H  H27  1  0.428900  0.954700  0.794100  1.0  0.119
  H  H28  1  0.413400  0.660600  0.771000  1.0  0.1065
  H  H29  1  0.385400  0.734300  0.821600  1.0  0.1129
  H  H30  1  0.554400  0.745800  0.837900  1.0  0.1
  H  H31  1  0.528800  0.823700  0.885500  1.0  0.1012
  H  H32  1  0.423800  0.902900  0.495800  1.0  0.4345
  H  H33  1  0.643500  0.576500  0.757900  1.0  0.0983
  H  H34  1  0.521100  0.590800  0.646100  1.0  0.1279
  H  H35  1  0.383400  0.482300  0.637900  1.0  0.0928
  H  H36  1  0.187300  0.262500  0.739400  1.0  0.095
  H  H37  1  0.157000  0.170700  0.834200  1.0  0.1546
  H  H38  1  0.303800  0.169700  0.917300  1.0  0.1049
  H  H39  1  0.645900  0.247300  0.023500  1.0  0.1103
  H  H40  1  0.799900  0.330700  0.038400  1.0  0.1154
  H  H41  1  0.794100  0.428900  0.954700  1.0  0.1184
  H  H42  1  0.771000  0.413400  0.660600  1.0  0.1076
  H  H43  1  0.821600  0.385400  0.734300  1.0  0.1132
  H  H44  1  0.837900  0.554400  0.745800  1.0  0.0999
  H  H45  1  0.885500  0.528800  0.823700  1.0  0.1018
  H  H46  1  0.495800  0.423800  0.902900  1.0  0.4345
  H  H47  1  0.757900  0.643500  0.576500  1.0  0.097
  H  H48  1  0.646100  0.521100  0.590800  1.0  0.1286
  H  H49  1  0.637900  0.383400  0.482300  1.0  0.0917
  H  H50  1  0.739400  0.187300  0.262500  1.0  0.0945
  H  H51  1  0.834200  0.157000  0.170700  1.0  0.1567
  H  H52  1  0.917300  0.303800  0.169700  1.0  0.1042
  H  H53  1  0.023500  0.645900  0.247300  1.0  0.1112
  H  H54  1  0.038400  0.799900  0.330700  1.0  0.1141
  H  H55  1  0.954700  0.794100  0.428900  1.0  0.1205
  H  H56  1  0.660600  0.771000  0.413400  1.0  0.1064
  H  H57  1  0.734300  0.821600  0.385400  1.0  0.1128
  H  H58  1  0.745800  0.837900  0.554400  1.0  0.1018
  H  H59  1  0.823700  0.885500  0.528800  1.0  0.0972
  H  H60  1  0.902900  0.495800  0.423800  1.0  0.4331
  H  H61  1  0.423500  0.242100  0.356500  1.0  0.0976
  H  H62  1  0.409200  0.353900  0.478900  1.0  0.1286
  H  H63  1  0.517700  0.362100  0.616600  1.0  0.0916
  H  H64  1  0.737500  0.260600  0.812700  1.0  0.095
  H  H65  1  0.829300  0.165800  0.843000  1.0  0.1548
  H  H66  1  0.830300  0.082700  0.696200  1.0  0.1044
  H  H67  1  0.752700  0.976500  0.354100  1.0  0.1108
  H  H68  1  0.669300  0.961600  0.200100  1.0  0.113
  H  H69  1  0.571100  0.045300  0.205900  1.0  0.1184
  H  H70  1  0.586600  0.339400  0.229000  1.0  0.1083
  H  H71  1  0.614600  0.265700  0.178400  1.0  0.1132
  H  H72  1  0.445600  0.254200  0.162100  1.0  0.1022
  H  H73  1  0.471200  0.176300  0.114500  1.0  0.1025
  H  H74  1  0.576200  0.097100  0.504200  1.0  0.4339
  H  H75  1  0.356500  0.423500  0.242100  1.0  0.097
  H  H76  1  0.478900  0.409200  0.353900  1.0  0.128
  H  H77  1  0.616600  0.517700  0.362100  1.0  0.0917
  H  H78  1  0.812700  0.737500  0.260600  1.0  0.0941
  H  H79  1  0.843000  0.829300  0.165800  1.0  0.1547
  H  H80  1  0.696200  0.830300  0.082700  1.0  0.1042
  H  H81  1  0.354100  0.752700  0.976500  1.0  0.1104
  H  H82  1  0.200100  0.669300  0.961600  1.0  0.1155
  H  H83  1  0.205900  0.571100  0.045300  1.0  0.1185
  H  H84  1  0.229000  0.586600  0.339400  1.0  0.1076
  H  H85  1  0.178400  0.614600  0.265700  1.0  0.1122
  H  H86  1  0.162100  0.445600  0.254200  1.0  0.1015
  H  H87  1  0.114500  0.471200  0.176300  1.0  0.1013
  H  H88  1  0.504200  0.576200  0.097100  1.0  0.4346
  H  H89  1  0.242100  0.356500  0.423500  1.0  0.0962
  H  H90  1  0.353900  0.478900  0.409200  1.0  0.1271
  H  H91  1  0.362100  0.616600  0.517700  1.0  0.0924
  H  H92  1  0.260600  0.812700  0.737500  1.0  0.0945
  H  H93  1  0.165800  0.843000  0.829300  1.0  0.1568
  H  H94  1  0.082700  0.696200  0.830300  1.0  0.1045
  H  H95  1  0.976500  0.354100  0.752700  1.0  0.1106
  H  H96  1  0.961600  0.200100  0.669300  1.0  0.114
  H  H97  1  0.045300  0.205900  0.571100  1.0  0.1198
  H  H98  1  0.339400  0.229000  0.586600  1.0  0.1051
  H  H99  1  0.265700  0.178400  0.614600  1.0  0.1125
  H  H100  1  0.254200  0.162100  0.445600  1.0  0.102
  H  H101  1  0.176300  0.114500  0.471200  1.0  0.1019
  H  H102  1  0.097100  0.504200  0.576200  1.0  0.4322
  C  C103  1  0.543700  0.740100  0.583700  1.0  0.0533
  C  C104  1  0.552800  0.677600  0.515900  1.0  -0.2551
  C  C105  1  0.493100  0.673600  0.440700  1.0  0.0808
  C  C106  1  0.252300  0.780500  0.229000  1.0  0.0706
  C  C107  1  0.199800  0.832200  0.211500  1.0  -0.2911
  C  C108  1  0.201400  0.879700  0.295000  1.0  0.0759
  C  C109  1  0.289400  0.998400  0.662200  1.0  0.0735
  C  C110  1  0.336800  0.006300  0.748800  1.0  -0.2874
  C  C111  1  0.391300  0.961200  0.746300  1.0  0.0949
  C  C112  1  0.412000  0.755000  0.715200  1.0  0.6905
  C  C113  1  0.428000  0.724100  0.794300  1.0  -0.2939
  C  C114  1  0.511300  0.759800  0.862500  1.0  -0.2426
  C  C115  1  0.513600  0.726700  0.936800  1.0  0.7179
  C  C116  1  0.583700  0.543700  0.740100  1.0  0.055
  C  C117  1  0.515900  0.552800  0.677600  1.0  -0.2544
  C  C118  1  0.440700  0.493100  0.673600  1.0  0.0853
  C  C119  1  0.229000  0.252300  0.780500  1.0  0.0747
  C  C120  1  0.211500  0.199800  0.832200  1.0  -0.2858
  C  C121  1  0.295000  0.201400  0.879700  1.0  0.0745
  C  C122  1  0.662200  0.289400  0.998400  1.0  0.0732
  C  C123  1  0.748800  0.336800  0.006300  1.0  -0.2849
  C  C124  1  0.746300  0.391300  0.961200  1.0  0.0977
  C  C125  1  0.715200  0.412000  0.755000  1.0  0.6893
  C  C126  1  0.794300  0.428000  0.724100  1.0  -0.2928
  C  C127  1  0.862500  0.511300  0.759800  1.0  -0.2441
  C  C128  1  0.936800  0.513600  0.726700  1.0  0.7194
  C  C129  1  0.740100  0.583700  0.543700  1.0  0.0549
  C  C130  1  0.677600  0.515900  0.552800  1.0  -0.2563
  C  C131  1  0.673600  0.440700  0.493100  1.0  0.0771
  C  C132  1  0.780500  0.229000  0.252300  1.0  0.0802
  C  C133  1  0.832200  0.211500  0.199800  1.0  -0.2937
  C  C134  1  0.879700  0.295000  0.201400  1.0  0.0751
  C  C135  1  0.998400  0.662200  0.289400  1.0  0.0707
  C  C136  1  0.006300  0.748800  0.336800  1.0  -0.2852
  C  C137  1  0.961200  0.746300  0.391300  1.0  0.095
  C  C138  1  0.755000  0.715200  0.412000  1.0  0.6894
  C  C139  1  0.724100  0.794300  0.428000  1.0  -0.2952
  C  C140  1  0.759800  0.862500  0.511300  1.0  -0.2421
  C  C141  1  0.726700  0.936800  0.513600  1.0  0.717
  C  C142  1  0.456300  0.259900  0.416300  1.0  0.0521
  C  C143  1  0.447200  0.322400  0.484100  1.0  -0.254
  C  C144  1  0.506900  0.326400  0.559300  1.0  0.0827
  C  C145  1  0.747700  0.219500  0.771000  1.0  0.0709
  C  C146  1  0.800200  0.167800  0.788500  1.0  -0.2889
  C  C147  1  0.798600  0.120300  0.705000  1.0  0.0747
  C  C148  1  0.710600  0.001600  0.337800  1.0  0.0718
  C  C149  1  0.663200  0.993700  0.251200  1.0  -0.2863
  C  C150  1  0.608700  0.038800  0.253700  1.0  0.0945
  C  C151  1  0.588000  0.245000  0.284800  1.0  0.6904
  C  C152  1  0.572000  0.275900  0.205700  1.0  -0.2932
  C  C153  1  0.488700  0.240200  0.137500  1.0  -0.2439
  C  C154  1  0.486400  0.273300  0.063200  1.0  0.7187
  C  C155  1  0.416300  0.456300  0.259900  1.0  0.0533
  C  C156  1  0.484100  0.447200  0.322400  1.0  -0.2555
  C  C157  1  0.559300  0.506900  0.326400  1.0  0.0858
  C  C158  1  0.771000  0.747700  0.219500  1.0  0.0745
  C  C159  1  0.788500  0.800200  0.167800  1.0  -0.2963
  C  C160  1  0.705000  0.798600  0.120300  1.0  0.078
  C  C161  1  0.337800  0.710600  0.001600  1.0  0.076
  C  C162  1  0.251200  0.663200  0.993700  1.0  -0.2852
  C  C163  1  0.253700  0.608700  0.038800  1.0  0.0954
  C  C164  1  0.284800  0.588000  0.245000  1.0  0.6905
  C  C165  1  0.205700  0.572000  0.275900  1.0  -0.2931
  C  C166  1  0.137500  0.488700  0.240200  1.0  -0.2424
  C  C167  1  0.063200  0.486400  0.273300  1.0  0.7189
  C  C168  1  0.259900  0.416300  0.456300  1.0  0.0537
  C  C169  1  0.322400  0.484100  0.447200  1.0  -0.2563
  C  C170  1  0.326400  0.559300  0.506900  1.0  0.0811
  C  C171  1  0.219500  0.771000  0.747700  1.0  0.0768
  C  C172  1  0.167800  0.788500  0.800200  1.0  -0.2962
  C  C173  1  0.120300  0.705000  0.798600  1.0  0.0775
  C  C174  1  0.001600  0.337800  0.710600  1.0  0.0692
  C  C175  1  0.993700  0.251200  0.663200  1.0  -0.2874
  C  C176  1  0.038800  0.253700  0.608700  1.0  0.0892
  C  C177  1  0.245000  0.284800  0.588000  1.0  0.6878
  C  C178  1  0.275900  0.205700  0.572000  1.0  -0.2952
  C  C179  1  0.240200  0.137500  0.488700  1.0  -0.2419
  C  C180  1  0.273300  0.063200  0.486400  1.0  0.7183
  N  N181  1  0.483100  0.770000  0.551400  1.0  -0.1994
  N  N182  1  0.452500  0.730600  0.464200  1.0  -0.2611
  N  N183  1  0.284700  0.802500  0.318000  1.0  -0.2726
  N  N184  1  0.255200  0.864200  0.362300  1.0  -0.2518
  N  N185  1  0.316800  0.947700  0.608700  1.0  -0.246
  N  N186  1  0.381300  0.928200  0.663600  1.0  -0.2628
  N  N187  1  0.551400  0.483100  0.770000  1.0  -0.1993
  N  N188  1  0.464200  0.452500  0.730600  1.0  -0.2574
  N  N189  1  0.318000  0.284700  0.802500  1.0  -0.2728
  N  N190  1  0.362300  0.255200  0.864200  1.0  -0.2523
  N  N191  1  0.608700  0.316800  0.947700  1.0  -0.2484
  N  N192  1  0.663600  0.381300  0.928200  1.0  -0.2615
  N  N193  1  0.770000  0.551400  0.483100  1.0  -0.2008
  N  N194  1  0.730600  0.464200  0.452500  1.0  -0.2611
  N  N195  1  0.802500  0.318000  0.284700  1.0  -0.2711
  N  N196  1  0.864200  0.362300  0.255200  1.0  -0.2508
  N  N197  1  0.947700  0.608700  0.316800  1.0  -0.2467
  N  N198  1  0.928200  0.663600  0.381300  1.0  -0.2624
  N  N199  1  0.516900  0.230000  0.448600  1.0  -0.198
  N  N200  1  0.547500  0.269400  0.535800  1.0  -0.2589
  N  N201  1  0.715300  0.197500  0.682000  1.0  -0.2719
  N  N202  1  0.744800  0.135800  0.637700  1.0  -0.2504
  N  N203  1  0.683200  0.052300  0.391300  1.0  -0.2475
  N  N204  1  0.618700  0.071800  0.336400  1.0  -0.2617
  N  N205  1  0.448600  0.516900  0.230000  1.0  -0.2005
  N  N206  1  0.535800  0.547500  0.269400  1.0  -0.2579
  N  N207  1  0.682000  0.715300  0.197500  1.0  -0.2727
  N  N208  1  0.637700  0.744800  0.135800  1.0  -0.2556
  N  N209  1  0.391300  0.683200  0.052300  1.0  -0.2493
  N  N210  1  0.336400  0.618700  0.071800  1.0  -0.2617
  N  N211  1  0.230000  0.448600  0.516900  1.0  -0.2002
  N  N212  1  0.269400  0.535800  0.547500  1.0  -0.261
  N  N213  1  0.197500  0.682000  0.715300  1.0  -0.2711
  N  N214  1  0.135800  0.637700  0.744800  1.0  -0.2522
  N  N215  1  0.052300  0.391300  0.683200  1.0  -0.2466
  N  N216  1  0.071800  0.336400  0.618700  1.0  -0.2618
  O  O217  1  0.472400  0.821500  0.718500  1.0  -0.5408
  O  O218  1  0.339500  0.718900  0.653700  1.0  -0.588
  O  O219  1  0.523500  0.781200  0.010400  1.0  -0.5932
  O  O220  1  0.510400  0.652100  0.926400  1.0  -0.6161
  O  O221  1  0.383300  0.861800  0.493100  1.0  -0.7927
  O  O222  1  0.718500  0.472400  0.821500  1.0  -0.5405
  O  O223  1  0.653700  0.339500  0.718900  1.0  -0.5875
  O  O224  1  0.010400  0.523500  0.781200  1.0  -0.5962
  O  O225  1  0.926400  0.510400  0.652100  1.0  -0.6109
  O  O226  1  0.493100  0.383300  0.861800  1.0  -0.7919
  O  O227  1  0.821500  0.718500  0.472400  1.0  -0.5402
  O  O228  1  0.718900  0.653700  0.339500  1.0  -0.5885
  O  O229  1  0.781200  0.010400  0.523500  1.0  -0.5954
  O  O230  1  0.652100  0.926400  0.510400  1.0  -0.6173
  O  O231  1  0.861800  0.493100  0.383300  1.0  -0.7897
  O  O232  1  0.527600  0.178500  0.281500  1.0  -0.539
  O  O233  1  0.660500  0.281100  0.346300  1.0  -0.5894
  O  O234  1  0.476500  0.218800  0.989600  1.0  -0.594
  O  O235  1  0.489600  0.347900  0.073600  1.0  -0.615
  O  O236  1  0.616700  0.138200  0.506900  1.0  -0.7923
  O  O237  1  0.281500  0.527600  0.178500  1.0  -0.5386
  O  O238  1  0.346300  0.660500  0.281100  1.0  -0.5879
  O  O239  1  0.989600  0.476500  0.218800  1.0  -0.5962
  O  O240  1  0.073600  0.489600  0.347900  1.0  -0.6189
  O  O241  1  0.506900  0.616700  0.138200  1.0  -0.7918
  O  O242  1  0.178500  0.281500  0.527600  1.0  -0.5406
  O  O243  1  0.281100  0.346300  0.660500  1.0  -0.589
  O  O244  1  0.218800  0.989600  0.476500  1.0  -0.5948
  O  O245  1  0.347900  0.073600  0.489600  1.0  -0.6101
  O  O246  1  0.138200  0.506900  0.616700  1.0  -0.7918
