# generated using pymatgen
data_Mg3H48C78(NO6)2
_symmetry_space_group_name_H-M   'P 1'
_cell_length_a   8.43190000
_cell_length_b   12.82510000
_cell_length_c   20.92400000
_cell_angle_alpha   73.46200000
_cell_angle_beta   84.69200000
_cell_angle_gamma   78.30700000
_symmetry_Int_Tables_number   1
_chemical_formula_structural   Mg3H48C78(NO6)2
_chemical_formula_sum   'Mg3 H48 C78 N2 O12'
_cell_volume   2122.63831127
_cell_formula_units_Z   1
loop_
 _symmetry_equiv_pos_site_id
 _symmetry_equiv_pos_as_xyz
  1  'x, y, z'
loop_
 _atom_site_type_symbol
 _atom_site_label
 _atom_site_symmetry_multiplicity
 _atom_site_fract_x
 _atom_site_fract_y
 _atom_site_fract_z
 _atom_site_occupancy
 _atom_site_charge
  Mg  Mg1  1  0.433970  0.829940  0.000530  1.0  1.5906
  Mg  Mg2  1  0.566030  0.170060  0.999470  1.0  1.5917
  Mg  Mg3  1  0.000000  0.000000  0.000000  1.0  1.6551
  H  H4  1  0.584300  0.047000  0.187700  1.0  0.096
  H  H5  1  0.354900  0.746300  0.305100  1.0  0.1121
  H  H6  1  0.351100  0.801500  0.190700  1.0  0.0981
  H  H7  1  0.160000  0.706000  0.742000  1.0  0.0954
  H  H8  1  0.930800  0.528700  0.750100  1.0  0.0994
  H  H9  1  0.607000  0.984100  0.300800  1.0  0.1155
  H  H10  1  0.015400  0.792800  0.629000  1.0  0.1088
  H  H11  1  0.650700  0.803300  0.767700  1.0  0.0988
  H  H12  1  0.134000  0.160200  0.853700  1.0  0.096
  H  H13  1  0.488500  0.748200  0.705000  1.0  0.1201
  H  H14  1  0.448600  0.414800  0.771400  1.0  0.1105
  H  H15  1  0.308300  0.725700  0.824400  1.0  0.1037
  H  H16  1  0.951600  0.969000  0.858600  1.0  0.1068
  H  H17  1  0.621700  0.521400  0.705000  1.0  0.1135
  H  H18  1  0.099700  0.555100  0.638100  1.0  0.1023
  H  H19  1  0.300700  0.265800  0.781100  1.0  0.081
  H  H20  1  0.270900  0.665700  0.572900  1.0  0.1141
  H  H21  1  0.574300  0.577300  0.504900  1.0  0.1137
  H  H22  1  0.798500  0.946200  0.778900  1.0  0.0845
  H  H23  1  0.766700  0.424600  0.825800  1.0  0.1135
  H  H24  1  0.528500  0.887000  0.523300  1.0  0.1046
  H  H25  1  0.855600  0.733800  0.566800  1.0  0.1195
  H  H26  1  0.496100  0.957800  0.409700  1.0  0.1064
  H  H27  1  0.533800  0.648700  0.392800  1.0  0.0942
  H  H28  1  0.415700  0.953000  0.812300  1.0  0.0959
  H  H29  1  0.645100  0.253700  0.694900  1.0  0.113
  H  H30  1  0.648900  0.198500  0.809300  1.0  0.0984
  H  H31  1  0.840000  0.294000  0.258000  1.0  0.0952
  H  H32  1  0.069200  0.471300  0.249900  1.0  0.0993
  H  H33  1  0.393000  0.015900  0.699200  1.0  0.1161
  H  H34  1  0.984600  0.207200  0.371000  1.0  0.1087
  H  H35  1  0.349300  0.196700  0.232300  1.0  0.0998
  H  H36  1  0.866000  0.839800  0.146300  1.0  0.0962
  H  H37  1  0.511500  0.251800  0.295000  1.0  0.1201
  H  H38  1  0.551400  0.585200  0.228600  1.0  0.1106
  H  H39  1  0.691700  0.274300  0.175600  1.0  0.1038
  H  H40  1  0.048400  0.031000  0.141400  1.0  0.1073
  H  H41  1  0.378300  0.478600  0.295000  1.0  0.114
  H  H42  1  0.900300  0.444900  0.361900  1.0  0.1029
  H  H43  1  0.699300  0.734200  0.218900  1.0  0.0804
  H  H44  1  0.729100  0.334300  0.427100  1.0  0.1132
  H  H45  1  0.425700  0.422700  0.495100  1.0  0.1135
  H  H46  1  0.201500  0.053800  0.221100  1.0  0.0835
  H  H47  1  0.233300  0.575400  0.174200  1.0  0.1127
  H  H48  1  0.471500  0.113000  0.476700  1.0  0.1045
  H  H49  1  0.144400  0.266200  0.433200  1.0  0.1196
  H  H50  1  0.503900  0.042200  0.590300  1.0  0.1065
  H  H51  1  0.466200  0.351300  0.607200  1.0  0.0939
  C  C52  1  0.542500  0.984500  0.211200  1.0  -0.0741
  C  C53  1  0.467900  0.929900  0.176500  1.0  -0.1143
  C  C54  1  0.406300  0.804100  0.281300  1.0  -0.1388
  C  C55  1  0.400500  0.839000  0.212900  1.0  -0.0375
  C  C56  1  0.835600  0.213800  0.903600  1.0  0.724
  C  C57  1  0.489300  0.854900  0.315700  1.0  0.0493
  C  C58  1  0.116700  0.756400  0.766200  1.0  -0.1402
  C  C59  1  0.960600  0.821200  0.752700  1.0  0.0301
  C  C60  1  0.250600  0.475200  0.713700  1.0  0.0155
  C  C61  1  0.972200  0.455500  0.772000  1.0  -0.1333
  C  C62  1  0.934900  0.282100  0.850300  1.0  -0.1808
  C  C63  1  0.234200  0.846300  0.910700  1.0  0.7033
  C  C64  1  0.854300  0.798800  0.707400  1.0  0.0201
  C  C65  1  0.465300  0.966800  0.102000  1.0  0.7813
  C  C66  1  0.140200  0.843900  0.853000  1.0  -0.1688
  C  C67  1  0.463200  0.609400  0.633300  1.0  0.1499
  C  C68  1  0.554900  0.947600  0.278900  1.0  -0.13
  C  C69  1  0.912200  0.781000  0.645100  1.0  -0.1152
  C  C70  1  0.692700  0.787600  0.728100  1.0  -0.102
  C  C71  1  0.136800  0.409100  0.758400  1.0  0.0263
  C  C72  1  0.095000  0.234800  0.834200  1.0  -0.0197
  C  C73  1  0.595100  0.753900  0.690900  1.0  -0.1982
  C  C74  1  0.411800  0.465800  0.731800  1.0  -0.101
  C  C75  1  0.205300  0.768100  0.815800  1.0  -0.0348
  C  C76  1  0.990100  0.914300  0.836900  1.0  -0.0339
  C  C77  1  0.553200  0.724900  0.526600  1.0  0.1447
  C  C78  1  0.515900  0.530500  0.692300  1.0  -0.2008
  C  C79  1  0.202700  0.549800  0.652700  1.0  -0.1119
  C  C80  1  0.659200  0.728400  0.631400  1.0  0.1399
  C  C81  1  0.194700  0.297800  0.789900  1.0  -0.1245
  C  C82  1  0.306200  0.616200  0.613100  1.0  -0.18
  C  C83  1  0.556600  0.653500  0.486100  1.0  -0.2091
  C  C84  1  0.899900  0.901700  0.788400  1.0  -0.1254
  C  C85  1  0.873200  0.393200  0.817300  1.0  -0.0435
  C  C86  1  0.510400  0.811000  0.388600  1.0  0.0258
  C  C87  1  0.530200  0.839200  0.497000  1.0  -0.1933
  C  C88  1  0.816000  0.745800  0.607600  1.0  -0.155
  C  C89  1  0.510000  0.881700  0.428800  1.0  -0.1115
  C  C90  1  0.533800  0.696500  0.418900  1.0  -0.1061
  C  C91  1  0.457500  0.015500  0.788800  1.0  -0.0656
  C  C92  1  0.532100  0.070100  0.823500  1.0  -0.1164
  C  C93  1  0.593700  0.195900  0.718700  1.0  -0.1383
  C  C94  1  0.599500  0.161000  0.787100  1.0  -0.0398
  C  C95  1  0.164400  0.786200  0.096400  1.0  0.7237
  C  C96  1  0.510700  0.145100  0.684300  1.0  0.0493
  C  C97  1  0.883300  0.243600  0.233800  1.0  -0.1414
  C  C98  1  0.039400  0.178800  0.247300  1.0  0.0281
  C  C99  1  0.749400  0.524800  0.286300  1.0  0.0168
  C  C100  1  0.027800  0.544500  0.228000  1.0  -0.1324
  C  C101  1  0.065100  0.717900  0.149700  1.0  -0.1816
  C  C102  1  0.765800  0.153700  0.089300  1.0  0.7014
  C  C103  1  0.145700  0.201200  0.292600  1.0  0.0202
  C  C104  1  0.534700  0.033200  0.898000  1.0  0.78
  C  C105  1  0.859800  0.156100  0.147000  1.0  -0.1671
  C  C106  1  0.536800  0.390600  0.366700  1.0  0.1503
  C  C107  1  0.445100  0.052400  0.721100  1.0  -0.1304
  C  C108  1  0.087800  0.219000  0.354900  1.0  -0.1122
  C  C109  1  0.307300  0.212400  0.271900  1.0  -0.1043
  C  C110  1  0.863200  0.590900  0.241600  1.0  0.0245
  C  C111  1  0.905000  0.765200  0.165800  1.0  -0.0201
  C  C112  1  0.404900  0.246100  0.309100  1.0  -0.2007
  C  C113  1  0.588200  0.534200  0.268200  1.0  -0.1019
  C  C114  1  0.794700  0.231900  0.184200  1.0  -0.0325
  C  C115  1  0.009900  0.085700  0.163100  1.0  -0.0336
  C  C116  1  0.446800  0.275100  0.473400  1.0  0.1446
  C  C117  1  0.484100  0.469500  0.307700  1.0  -0.2017
  C  C118  1  0.797300  0.450200  0.347300  1.0  -0.1119
  C  C119  1  0.340800  0.271600  0.368600  1.0  0.1395
  C  C120  1  0.805300  0.702200  0.210100  1.0  -0.1249
  C  C121  1  0.693800  0.383800  0.386900  1.0  -0.1792
  C  C122  1  0.443400  0.346500  0.513900  1.0  -0.2119
  C  C123  1  0.100100  0.098300  0.211600  1.0  -0.1259
  C  C124  1  0.126800  0.606800  0.182700  1.0  -0.0405
  C  C125  1  0.489600  0.189000  0.611400  1.0  0.024
  C  C126  1  0.469800  0.160800  0.503000  1.0  -0.1918
  C  C127  1  0.184000  0.254200  0.392400  1.0  -0.1622
  C  C128  1  0.490000  0.118300  0.571200  1.0  -0.1113
  C  C129  1  0.466200  0.303500  0.581100  1.0  -0.1052
  N  N130  1  0.566300  0.682300  0.596460  1.0  -0.155
  N  N131  1  0.433700  0.317700  0.403540  1.0  -0.1542
  O  O132  1  0.359400  0.771300  0.926750  1.0  -0.648
  O  O133  1  0.189100  0.922100  0.941200  1.0  -0.7733
  O  O134  1  0.706900  0.262200  0.926870  1.0  -0.6571
  O  O135  1  0.890800  0.108900  0.920810  1.0  -0.7146
  O  O136  1  0.441800  0.070000  0.074500  1.0  -0.7456
  O  O137  1  0.485300  0.891600  0.072340  1.0  -0.7513
  O  O138  1  0.640600  0.228700  0.073250  1.0  -0.648
  O  O139  1  0.810900  0.077900  0.058800  1.0  -0.769
  O  O140  1  0.293100  0.737800  0.073130  1.0  -0.6557
  O  O141  1  0.109200  0.891100  0.079190  1.0  -0.7501
  O  O142  1  0.558200  0.930000  0.925500  1.0  -0.7431
  O  O143  1  0.514700  0.108400  0.927660  1.0  -0.7347
