# generated using pymatgen
data_Zn3P3H17C6(NO6)2
_symmetry_space_group_name_H-M   'P 1'
_cell_length_a   9.24110000
_cell_length_b   19.52850000
_cell_length_c   19.52850000
_cell_angle_alpha   62.43990000
_cell_angle_beta   80.92450000
_cell_angle_gamma   99.07550000
_symmetry_Int_Tables_number   1
_chemical_formula_structural   Zn3P3H17C6(NO6)2
_chemical_formula_sum   'Zn18 P18 H102 C36 N12 O72'
_cell_volume   2976.11680402
_cell_formula_units_Z   6
loop_
 _symmetry_equiv_pos_site_id
 _symmetry_equiv_pos_as_xyz
  1  'x, y, z'
loop_
 _atom_site_type_symbol
 _atom_site_label
 _atom_site_symmetry_multiplicity
 _atom_site_fract_x
 _atom_site_fract_y
 _atom_site_fract_z
 _atom_site_occupancy
 _atom_site_charge
  Zn  Zn1  1  0.083440  0.662770  0.510780  1.0  0.9608
  Zn  Zn2  1  0.661870  0.592130  0.495790  1.0  1.0255
  Zn  Zn3  1  0.083090  0.667830  0.787850  1.0  1.0364
  Zn  Zn4  1  0.594220  0.510780  0.826450  1.0  0.9623
  Zn  Zn5  1  0.157660  0.495790  0.912080  1.0  1.025
  Zn  Zn6  1  0.870940  0.787850  0.544320  1.0  1.0375
  Zn  Zn7  1  0.420670  0.826450  0.662770  1.0  0.9607
  Zn  Zn8  1  0.069740  0.912080  0.592130  1.0  1.0251
  Zn  Zn9  1  0.415260  0.544320  0.667830  1.0  1.0374
  Zn  Zn10  1  0.916560  0.337230  0.489220  1.0  0.961
  Zn  Zn11  1  0.338130  0.407870  0.504210  1.0  1.0254
  Zn  Zn12  1  0.916910  0.332170  0.212150  1.0  1.0373
  Zn  Zn13  1  0.405780  0.489220  0.173550  1.0  0.9643
  Zn  Zn14  1  0.842340  0.504210  0.087920  1.0  1.0256
  Zn  Zn15  1  0.129060  0.212150  0.455680  1.0  1.0381
  Zn  Zn16  1  0.579330  0.173550  0.337230  1.0  0.9613
  Zn  Zn17  1  0.930260  0.087920  0.407870  1.0  1.0268
  Zn  Zn18  1  0.584740  0.455680  0.332170  1.0  1.0372
  P  P19  1  0.170810  0.767670  0.593240  1.0  1.7739
  P  P20  1  0.293990  0.550400  0.526030  1.0  1.7523
  P  P21  1  0.903060  0.760050  0.400370  1.0  1.7036
  P  P22  1  0.764050  0.593240  0.639090  1.0  1.7727
  P  P23  1  0.820020  0.526030  0.923570  1.0  1.7526
  P  P24  1  0.303430  0.400370  0.839580  1.0  1.7043
  P  P25  1  0.403140  0.639090  0.767670  1.0  1.7775
  P  P26  1  0.743590  0.923570  0.550400  1.0  1.7522
  P  P27  1  0.143010  0.839580  0.760050  1.0  1.7031
  P  P28  1  0.829190  0.232330  0.406760  1.0  1.7769
  P  P29  1  0.706010  0.449600  0.473970  1.0  1.7495
  P  P30  1  0.096940  0.239950  0.599630  1.0  1.7033
  P  P31  1  0.235950  0.406760  0.360910  1.0  1.7771
  P  P32  1  0.179980  0.473970  0.076430  1.0  1.75
  P  P33  1  0.696570  0.599630  0.160420  1.0  1.7033
  P  P34  1  0.596860  0.360910  0.232330  1.0  1.7744
  P  P35  1  0.256410  0.076430  0.449600  1.0  1.75
  P  P36  1  0.856990  0.160420  0.239950  1.0  1.702
  H  H37  1  0.917300  0.788400  0.286400  1.0  0.5146
  H  H38  1  0.203700  0.286400  0.925200  1.0  0.5139
  H  H39  1  0.128900  0.925200  0.788400  1.0  0.5171
  H  H40  1  0.082700  0.211600  0.713600  1.0  0.5129
  H  H41  1  0.796300  0.713600  0.074800  1.0  0.5148
  H  H42  1  0.871100  0.074800  0.211600  1.0  0.5164
  H  H43  1  0.084100  0.506400  0.685100  1.0  0.1496
  H  H44  1  0.052800  0.475600  0.787200  1.0  0.1626
  H  H45  1  0.908500  0.501000  0.738500  1.0  0.1342
  H  H46  1  0.860900  0.414900  0.591200  1.0  0.181
  H  H47  1  0.936200  0.489200  0.604600  1.0  0.1457
  H  H48  1  0.027900  0.420900  0.612200  1.0  0.1228
  H  H49  1  0.032300  0.367200  0.756500  1.0  0.1035
  H  H50  1  0.754500  0.397800  0.722000  1.0  0.0923
  H  H51  1  0.725700  0.286300  0.705900  1.0  0.0971
  H  H52  1  0.875300  0.271700  0.732100  1.0  0.0995
  H  H53  1  0.667900  0.188900  0.843100  1.0  0.0928
  H  H54  1  0.606800  0.262900  0.832500  1.0  0.0934
  H  H55  1  0.730300  0.230700  0.933800  1.0  0.0947
  H  H56  1  0.876600  0.233300  0.878500  1.0  0.1037
  H  H57  1  0.914600  0.348000  0.884300  1.0  0.0949
  H  H58  1  0.767100  0.364800  0.857000  1.0  0.0858
  H  H59  1  0.769200  0.685100  0.808500  1.0  0.1503
  H  H60  1  0.840000  0.787200  0.737200  1.0  0.1643
  H  H61  1  0.647000  0.738500  0.760500  1.0  0.1374
  H  H62  1  0.452100  0.591200  0.993900  1.0  0.1803
  H  H63  1  0.540800  0.604600  0.906200  1.0  0.1495
  H  H64  1  0.640100  0.612200  0.966900  1.0  0.1229
  H  H65  1  0.788800  0.756500  0.876300  1.0  0.1018
  H  H66  1  0.476500  0.722000  0.880200  1.0  0.0919
  H  H67  1  0.431600  0.705900  0.007800  1.0  0.0965
  H  H68  1  0.607400  0.732100  0.996200  1.0  0.1014
  H  H69  1  0.511000  0.843100  0.968000  1.0  0.0887
  H  H70  1  0.439300  0.832500  0.904600  1.0  0.0948
  H  H71  1  0.664100  0.933800  0.835500  1.0  0.0952
  H  H72  1  0.755100  0.878500  0.888200  1.0  0.096
  H  H73  1  0.798900  0.884300  0.767700  1.0  0.0932
  H  H74  1  0.624100  0.857000  0.778200  1.0  0.0946
  H  H75  1  0.577700  0.808500  0.506400  1.0  0.1485
  H  H76  1  0.577200  0.737200  0.475600  1.0  0.1635
  H  H77  1  0.407500  0.760500  0.501000  1.0  0.1344
  H  H78  1  0.446000  0.993900  0.414900  1.0  0.181
  H  H79  1  0.447000  0.906200  0.489200  1.0  0.1491
  H  H80  1  0.607000  0.966900  0.420900  1.0  0.123
  H  H81  1  0.665100  0.876300  0.367200  1.0  0.105
  H  H82  1  0.356700  0.880200  0.397800  1.0  0.0922
  H  H83  1  0.439400  0.007800  0.286300  1.0  0.0965
  H  H84  1  0.603600  0.996200  0.271700  1.0  0.1004
  H  H85  1  0.479000  0.968000  0.188900  1.0  0.0897
  H  H86  1  0.343900  0.904600  0.262900  1.0  0.0933
  H  H87  1  0.499600  0.835500  0.230700  1.0  0.1012
  H  H88  1  0.643300  0.888200  0.233300  1.0  0.1024
  H  H89  1  0.566600  0.767700  0.348000  1.0  0.0929
  H  H90  1  0.402300  0.778200  0.364800  1.0  0.0916
  H  H91  1  0.915900  0.493600  0.314900  1.0  0.1499
  H  H92  1  0.947200  0.524400  0.212800  1.0  0.1635
  H  H93  1  0.091500  0.499000  0.261500  1.0  0.1338
  H  H94  1  0.139100  0.585100  0.408800  1.0  0.1804
  H  H95  1  0.063800  0.510800  0.395400  1.0  0.145
  H  H96  1  0.972100  0.579100  0.387800  1.0  0.1222
  H  H97  1  0.967700  0.632800  0.243500  1.0  0.1017
  H  H98  1  0.245500  0.602200  0.278000  1.0  0.0937
  H  H99  1  0.274300  0.713700  0.294100  1.0  0.0963
  H  H100  1  0.124700  0.728300  0.267900  1.0  0.0962
  H  H101  1  0.332100  0.811100  0.156900  1.0  0.0937
  H  H102  1  0.393200  0.737100  0.167500  1.0  0.0939
  H  H103  1  0.269700  0.769300  0.066200  1.0  0.0948
  H  H104  1  0.123400  0.766700  0.121500  1.0  0.1033
  H  H105  1  0.085400  0.652000  0.115700  1.0  0.0953
  H  H106  1  0.232900  0.635200  0.143000  1.0  0.0881
  H  H107  1  0.230800  0.314900  0.191500  1.0  0.1504
  H  H108  1  0.160000  0.212800  0.262800  1.0  0.1658
  H  H109  1  0.353000  0.261500  0.239500  1.0  0.1354
  H  H110  1  0.547900  0.408800  0.006100  1.0  0.1814
  H  H111  1  0.459200  0.395400  0.093800  1.0  0.1468
  H  H112  1  0.359900  0.387800  0.033100  1.0  0.1206
  H  H113  1  0.211200  0.243500  0.123700  1.0  0.102
  H  H114  1  0.523500  0.278000  0.119800  1.0  0.0926
  H  H115  1  0.568400  0.294100  0.992200  1.0  0.0955
  H  H116  1  0.392600  0.267900  0.003800  1.0  0.1001
  H  H117  1  0.489000  0.156900  0.032000  1.0  0.09
  H  H118  1  0.560700  0.167500  0.095400  1.0  0.0952
  H  H119  1  0.335900  0.066200  0.164500  1.0  0.0961
  H  H120  1  0.244900  0.121500  0.111800  1.0  0.0961
  H  H121  1  0.201100  0.115700  0.232300  1.0  0.0946
  H  H122  1  0.375900  0.143000  0.221800  1.0  0.0946
  H  H123  1  0.422300  0.191500  0.493600  1.0  0.1516
  H  H124  1  0.422800  0.262800  0.524400  1.0  0.1658
  H  H125  1  0.592500  0.239500  0.499000  1.0  0.1332
  H  H126  1  0.554000  0.006100  0.585100  1.0  0.1822
  H  H127  1  0.553000  0.093800  0.510800  1.0  0.1469
  H  H128  1  0.393000  0.033100  0.579100  1.0  0.1212
  H  H129  1  0.334900  0.123700  0.632800  1.0  0.1032
  H  H130  1  0.643300  0.119800  0.602200  1.0  0.0935
  H  H131  1  0.560600  0.992200  0.713700  1.0  0.0967
  H  H132  1  0.396400  0.003800  0.728300  1.0  0.0986
  H  H133  1  0.521000  0.032000  0.811100  1.0  0.0896
  H  H134  1  0.656100  0.095400  0.737100  1.0  0.0941
  H  H135  1  0.500400  0.164500  0.769300  1.0  0.099
  H  H136  1  0.356700  0.111800  0.766700  1.0  0.1022
  H  H137  1  0.433400  0.232300  0.652000  1.0  0.0933
  H  H138  1  0.597700  0.221800  0.635200  1.0  0.0935
  C  C139  1  0.945500  0.388900  0.762600  1.0  0.1241
  C  C140  1  0.843600  0.378900  0.712100  1.0  0.1623
  C  C141  1  0.789000  0.292800  0.738800  1.0  -0.1401
  C  C142  1  0.698000  0.245400  0.826400  1.0  -0.123
  C  C143  1  0.792400  0.257300  0.879100  1.0  -0.1205
  C  C144  1  0.852000  0.342200  0.851200  1.0  -0.1543
  C  C145  1  0.708100  0.762600  0.848500  1.0  0.1241
  C  C146  1  0.555700  0.712100  0.909000  1.0  0.1608
  C  C147  1  0.527800  0.738800  0.968400  1.0  -0.1392
  C  C148  1  0.524400  0.826400  0.928200  1.0  -0.1276
  C  C149  1  0.671500  0.879100  0.863600  1.0  -0.1224
  C  C150  1  0.703200  0.851200  0.806600  1.0  -0.1569
  C  C151  1  0.556600  0.848500  0.388900  1.0  0.1234
  C  C152  1  0.464700  0.909000  0.378900  1.0  0.1603
  C  C153  1  0.496200  0.968400  0.292800  1.0  -0.136
  C  C154  1  0.452600  0.928200  0.245400  1.0  -0.1223
  C  C155  1  0.535100  0.863600  0.257300  1.0  -0.1183
  C  C156  1  0.509800  0.806600  0.342200  1.0  -0.1574
  C  C157  1  0.054500  0.611100  0.237400  1.0  0.1241
  C  C158  1  0.156400  0.621100  0.287900  1.0  0.1611
  C  C159  1  0.211000  0.707200  0.261200  1.0  -0.1396
  C  C160  1  0.302000  0.754600  0.173600  1.0  -0.1292
  C  C161  1  0.207600  0.742700  0.120900  1.0  -0.122
  C  C162  1  0.148000  0.657800  0.148800  1.0  -0.1556
  C  C163  1  0.291900  0.237400  0.151500  1.0  0.124
  C  C164  1  0.444300  0.287900  0.091000  1.0  0.162
  C  C165  1  0.472200  0.261200  0.031600  1.0  -0.1402
  C  C166  1  0.475600  0.173600  0.071800  1.0  -0.1268
  C  C167  1  0.328500  0.120900  0.136400  1.0  -0.1186
  C  C168  1  0.296800  0.148800  0.193400  1.0  -0.1589
  C  C169  1  0.443400  0.151500  0.611100  1.0  0.1234
  C  C170  1  0.535300  0.091000  0.621100  1.0  0.1602
  C  C171  1  0.503800  0.031600  0.707200  1.0  -0.1338
  C  C172  1  0.547400  0.071800  0.754600  1.0  -0.1216
  C  C173  1  0.464900  0.136400  0.742700  1.0  -0.1168
  C  C174  1  0.490200  0.193400  0.657800  1.0  -0.1566
  N  N175  1  0.001700  0.473900  0.742000  1.0  -0.33
  N  N176  1  0.923100  0.429300  0.623000  1.0  -0.3597
  N  N177  1  0.743700  0.742000  0.784100  1.0  -0.331
  N  N178  1  0.546100  0.623000  0.947700  1.0  -0.3594
  N  N179  1  0.527800  0.784100  0.473900  1.0  -0.3304
  N  N180  1  0.493800  0.947700  0.429300  1.0  -0.359
  N  N181  1  0.998300  0.526100  0.258000  1.0  -0.328
  N  N182  1  0.076900  0.570700  0.377000  1.0  -0.3596
  N  N183  1  0.256300  0.258000  0.215900  1.0  -0.3321
  N  N184  1  0.453900  0.377000  0.052300  1.0  -0.3588
  N  N185  1  0.472200  0.215900  0.526100  1.0  -0.3276
  N  N186  1  0.506200  0.052300  0.570700  1.0  -0.3596
  O  O187  1  0.460900  0.583500  0.480800  1.0  -0.8377
  O  O188  1  0.202000  0.605400  0.477800  1.0  -0.7991
  O  O189  1  0.103500  0.700200  0.678500  1.0  -0.8486
  O  O190  1  0.925600  0.817400  0.432400  1.0  -0.7725
  O  O191  1  0.927200  0.816100  0.307500  1.0  -0.7017
  O  O192  1  0.233300  0.467000  0.538000  1.0  -0.8196
  O  O193  1  0.195900  0.736300  0.535200  1.0  -0.7959
  O  O194  1  0.019500  0.710700  0.413600  1.0  -0.8344
  O  O195  1  0.269200  0.545500  0.607800  1.0  -0.7947
  O  O196  1  0.323300  0.820900  0.583200  1.0  -0.8302
  O  O197  1  0.063100  0.823200  0.567200  1.0  -0.8638
  O  O198  1  0.741100  0.707700  0.435500  1.0  -0.7872
  O  O199  1  0.941700  0.480800  0.935700  1.0  -0.8363
  O  O200  1  0.679800  0.477800  0.916800  1.0  -0.7997
  O  O201  1  0.782000  0.678500  0.621300  1.0  -0.8485
  O  O202  1  0.358000  0.432400  0.750200  1.0  -0.7706
  O  O203  1  0.234700  0.307500  0.876400  1.0  -0.7035
  O  O204  1  0.771300  0.538000  0.995000  1.0  -0.8188
  O  O205  1  0.731100  0.535200  0.728500  1.0  -0.7951
  O  O206  1  0.433100  0.413600  0.875700  1.0  -0.8335
  O  O207  1  0.877000  0.607800  0.846700  1.0  -0.7937
  O  O208  1  0.906500  0.583200  0.595900  1.0  -0.8324
  O  O209  1  0.630300  0.567200  0.609600  1.0  -0.8622
  O  O210  1  0.176600  0.435500  0.856800  1.0  -0.7864
  O  O211  1  0.877400  0.935700  0.583500  1.0  -0.8379
  O  O212  1  0.596600  0.916800  0.605400  1.0  -0.8001
  O  O213  1  0.403300  0.621300  0.700200  1.0  -0.8506
  O  O214  1  0.108200  0.750200  0.817400  1.0  -0.7717
  O  O215  1  0.111100  0.876400  0.816100  1.0  -0.7035
  O  O216  1  0.766300  0.995000  0.467000  1.0  -0.82
  O  O217  1  0.459600  0.728500  0.736300  1.0  -0.7937
  O  O218  1  0.308800  0.875700  0.710700  1.0  -0.8335
  O  O219  1  0.723700  0.846700  0.545500  1.0  -0.7946
  O  O220  1  0.502400  0.595900  0.820900  1.0  -0.8294
  O  O221  1  0.239900  0.609600  0.823200  1.0  -0.8635
  O  O222  1  0.033400  0.856800  0.707700  1.0  -0.7868
  O  O223  1  0.539100  0.416500  0.519200  1.0  -0.8386
  O  O224  1  0.798000  0.394600  0.522200  1.0  -0.7988
  O  O225  1  0.896500  0.299800  0.321500  1.0  -0.8465
  O  O226  1  0.074400  0.182600  0.567600  1.0  -0.7744
  O  O227  1  0.072800  0.183900  0.692500  1.0  -0.6998
  O  O228  1  0.766700  0.533000  0.462000  1.0  -0.8192
  O  O229  1  0.804100  0.263700  0.464800  1.0  -0.7965
  O  O230  1  0.980500  0.289300  0.586400  1.0  -0.8317
  O  O231  1  0.730800  0.454500  0.392200  1.0  -0.7952
  O  O232  1  0.676700  0.179100  0.416800  1.0  -0.8297
  O  O233  1  0.936900  0.176800  0.432800  1.0  -0.8629
  O  O234  1  0.258900  0.292300  0.564500  1.0  -0.7897
  O  O235  1  0.058300  0.519200  0.064300  1.0  -0.8372
  O  O236  1  0.320200  0.522200  0.083200  1.0  -0.7995
  O  O237  1  0.218000  0.321500  0.378700  1.0  -0.8502
  O  O238  1  0.642000  0.567600  0.249800  1.0  -0.7709
  O  O239  1  0.765300  0.692500  0.123600  1.0  -0.7046
  O  O240  1  0.228700  0.462000  0.005000  1.0  -0.819
  O  O241  1  0.268900  0.464800  0.271500  1.0  -0.7951
  O  O242  1  0.566900  0.586400  0.124300  1.0  -0.8318
  O  O243  1  0.123000  0.392200  0.153300  1.0  -0.796
  O  O244  1  0.093500  0.416800  0.404100  1.0  -0.8309
  O  O245  1  0.369700  0.432800  0.390400  1.0  -0.8623
  O  O246  1  0.823400  0.564500  0.143200  1.0  -0.7876
  O  O247  1  0.122600  0.064300  0.416500  1.0  -0.8407
  O  O248  1  0.403400  0.083200  0.394600  1.0  -0.7996
  O  O249  1  0.596700  0.378700  0.299800  1.0  -0.8488
  O  O250  1  0.891800  0.249800  0.182600  1.0  -0.7714
  O  O251  1  0.888900  0.123600  0.183900  1.0  -0.7046
  O  O252  1  0.233700  0.005000  0.533000  1.0  -0.8177
  O  O253  1  0.540400  0.271500  0.263700  1.0  -0.7942
  O  O254  1  0.691200  0.124300  0.289300  1.0  -0.8319
  O  O255  1  0.276300  0.153300  0.454500  1.0  -0.7956
  O  O256  1  0.497600  0.404100  0.179100  1.0  -0.8285
  O  O257  1  0.760100  0.390400  0.176800  1.0  -0.8633
  O  O258  1  0.966600  0.143200  0.292300  1.0  -0.7881
