# generated using pymatgen
data_Pr2H12(C4O5)3
_symmetry_space_group_name_H-M   'P 1'
_cell_length_a   9.40030000
_cell_length_b   9.40030000
_cell_length_c   17.35000000
_cell_angle_alpha   90.00000000
_cell_angle_beta   90.00000000
_cell_angle_gamma   120.00000000
_symmetry_Int_Tables_number   1
_chemical_formula_structural   Pr2H12(C4O5)3
_chemical_formula_sum   'Pr4 H24 C24 O30'
_cell_volume   1327.74152657
_cell_formula_units_Z   2
loop_
 _symmetry_equiv_pos_site_id
 _symmetry_equiv_pos_as_xyz
  1  'x, y, z'
loop_
 _atom_site_type_symbol
 _atom_site_label
 _atom_site_symmetry_multiplicity
 _atom_site_fract_x
 _atom_site_fract_y
 _atom_site_fract_z
 _atom_site_occupancy
 _atom_site_charge
  Pr  Pr1  1  0.333333  0.666667  0.750000  1.0  2.2455
  Pr  Pr2  1  0.666667  0.333333  0.250000  1.0  2.2455
  Pr  Pr3  1  0.000000  0.000000  0.000000  1.0  2.1387
  Pr  Pr4  1  0.000000  0.000000  0.500000  1.0  2.1387
  H  H5  1  0.501500  0.671800  0.974100  1.0  0.0934
  H  H6  1  0.575400  0.595500  0.917200  1.0  0.1129
  H  H7  1  0.170300  0.498500  0.974100  1.0  0.0957
  H  H8  1  0.020100  0.424600  0.917200  1.0  0.1116
  H  H9  1  0.328200  0.829700  0.974100  1.0  0.0963
  H  H10  1  0.404500  0.979900  0.917200  1.0  0.113
  H  H11  1  0.501500  0.671800  0.525900  1.0  0.0935
  H  H12  1  0.575400  0.595500  0.582800  1.0  0.1136
  H  H13  1  0.170300  0.498500  0.525900  1.0  0.0959
  H  H14  1  0.020100  0.424600  0.582800  1.0  0.1116
  H  H15  1  0.328200  0.829700  0.525900  1.0  0.0959
  H  H16  1  0.404500  0.979900  0.582800  1.0  0.1129
  H  H17  1  0.829700  0.328200  0.025900  1.0  0.0936
  H  H18  1  0.979900  0.404500  0.082800  1.0  0.1123
  H  H19  1  0.671800  0.501500  0.025900  1.0  0.0957
  H  H20  1  0.595500  0.575400  0.082800  1.0  0.1118
  H  H21  1  0.498500  0.170300  0.025900  1.0  0.0958
  H  H22  1  0.424600  0.020100  0.082800  1.0  0.1137
  H  H23  1  0.829700  0.328200  0.474100  1.0  0.0934
  H  H24  1  0.979900  0.404500  0.417200  1.0  0.1127
  H  H25  1  0.671800  0.501500  0.474100  1.0  0.0964
  H  H26  1  0.595500  0.575400  0.417200  1.0  0.1118
  H  H27  1  0.498500  0.170300  0.474100  1.0  0.0956
  H  H28  1  0.424600  0.020100  0.417200  1.0  0.1129
  C  C29  1  0.651600  0.834100  0.893900  1.0  0.7699
  C  C30  1  0.600000  0.692900  0.946600  1.0  -0.0875
  C  C31  1  0.182500  0.348400  0.893900  1.0  0.7671
  C  C32  1  0.092900  0.400000  0.946600  1.0  -0.0872
  C  C33  1  0.165900  0.817500  0.893900  1.0  0.7696
  C  C34  1  0.307100  0.907100  0.946600  1.0  -0.0872
  C  C35  1  0.651600  0.834100  0.606100  1.0  0.7708
  C  C36  1  0.600000  0.692900  0.553400  1.0  -0.0869
  C  C37  1  0.182500  0.348400  0.606100  1.0  0.7699
  C  C38  1  0.092900  0.400000  0.553400  1.0  -0.0866
  C  C39  1  0.165900  0.817500  0.606100  1.0  0.7697
  C  C40  1  0.307100  0.907100  0.553400  1.0  -0.0875
  C  C41  1  0.817500  0.165900  0.106100  1.0  0.7701
  C  C42  1  0.907100  0.307100  0.053400  1.0  -0.0862
  C  C43  1  0.834100  0.651600  0.106100  1.0  0.7701
  C  C44  1  0.692900  0.600000  0.053400  1.0  -0.087
  C  C45  1  0.348400  0.182500  0.106100  1.0  0.7699
  C  C46  1  0.400000  0.092900  0.053400  1.0  -0.0874
  C  C47  1  0.817500  0.165900  0.393900  1.0  0.7683
  C  C48  1  0.907100  0.307100  0.446600  1.0  -0.0869
  C  C49  1  0.834100  0.651600  0.393900  1.0  0.7685
  C  C50  1  0.692900  0.600000  0.446600  1.0  -0.0874
  C  C51  1  0.348400  0.182500  0.393900  1.0  0.7698
  C  C52  1  0.400000  0.092900  0.446600  1.0  -0.0872
  O  O53  1  0.789200  0.961400  0.903500  1.0  -0.666
  O  O54  1  0.552700  0.823100  0.842800  1.0  -0.7755
  O  O55  1  0.172200  0.210800  0.903500  1.0  -0.6682
  O  O56  1  0.270400  0.447300  0.842800  1.0  -0.775
  O  O57  1  0.038600  0.827800  0.903500  1.0  -0.6683
  O  O58  1  0.176900  0.729600  0.842800  1.0  -0.7786
  O  O59  1  0.789200  0.961400  0.596500  1.0  -0.6671
  O  O60  1  0.552700  0.823100  0.657200  1.0  -0.7764
  O  O61  1  0.172200  0.210800  0.596500  1.0  -0.6699
  O  O62  1  0.270400  0.447300  0.657200  1.0  -0.7748
  O  O63  1  0.038600  0.827800  0.596500  1.0  -0.6705
  O  O64  1  0.176900  0.729600  0.657200  1.0  -0.7801
  O  O65  1  0.827800  0.038600  0.096500  1.0  -0.6674
  O  O66  1  0.729600  0.176900  0.157200  1.0  -0.7756
  O  O67  1  0.961400  0.789200  0.096500  1.0  -0.6692
  O  O68  1  0.823100  0.552700  0.157200  1.0  -0.7759
  O  O69  1  0.210800  0.172200  0.096500  1.0  -0.6697
  O  O70  1  0.447300  0.270400  0.157200  1.0  -0.7803
  O  O71  1  0.827800  0.038600  0.403500  1.0  -0.6659
  O  O72  1  0.729600  0.176900  0.342800  1.0  -0.775
  O  O73  1  0.961400  0.789200  0.403500  1.0  -0.6685
  O  O74  1  0.823100  0.552700  0.342800  1.0  -0.7759
  O  O75  1  0.210800  0.172200  0.403500  1.0  -0.6676
  O  O76  1  0.447300  0.270400  0.342800  1.0  -0.7785
  O  O77  1  0.728500  0.728500  0.000000  1.0  -0.3515
  O  O78  1  0.000000  0.271500  0.000000  1.0  -0.3524
  O  O79  1  0.271500  0.000000  0.000000  1.0  -0.3508
  O  O80  1  0.728500  0.728500  0.500000  1.0  -0.3515
  O  O81  1  0.000000  0.271500  0.500000  1.0  -0.3524
  O  O82  1  0.271500  0.000000  0.500000  1.0  -0.3508
