# generated using pymatgen
data_AgH4C6NO2
_symmetry_space_group_name_H-M   'P 1'
_cell_length_a   3.69340000
_cell_length_b   12.17830000
_cell_length_c   15.23900000
_cell_angle_alpha   90.00000000
_cell_angle_beta   90.10000000
_cell_angle_gamma   90.00000000
_symmetry_Int_Tables_number   1
_chemical_formula_structural   AgH4C6NO2
_chemical_formula_sum   'Ag4 H16 C24 N4 O8'
_cell_volume   685.43901495
_cell_formula_units_Z   4
loop_
 _symmetry_equiv_pos_site_id
 _symmetry_equiv_pos_as_xyz
  1  'x, y, z'
loop_
 _atom_site_type_symbol
 _atom_site_label
 _atom_site_symmetry_multiplicity
 _atom_site_fract_x
 _atom_site_fract_y
 _atom_site_fract_z
 _atom_site_occupancy
 _atom_site_charge
  Ag  Ag1  1  0.609600  0.575420  0.424760  1.0  0.5138
  Ag  Ag2  1  0.390400  0.075420  0.075240  1.0  0.514
  Ag  Ag3  1  0.390400  0.424580  0.575240  1.0  0.5143
  Ag  Ag4  1  0.609600  0.924580  0.924760  1.0  0.514
  H  H5  1  0.427200  0.550600  0.222100  1.0  0.0722
  H  H6  1  0.186300  0.639100  0.103500  1.0  0.1322
  H  H7  1  0.062400  0.904100  0.253500  1.0  0.1072
  H  H8  1  0.294700  0.806400  0.369300  1.0  0.0856
  H  H9  1  0.572800  0.050600  0.277900  1.0  0.0724
  H  H10  1  0.813700  0.139100  0.396500  1.0  0.132
  H  H11  1  0.937600  0.404100  0.246500  1.0  0.1075
  H  H12  1  0.705300  0.306400  0.130700  1.0  0.0863
  H  H13  1  0.572800  0.449400  0.777900  1.0  0.0723
  H  H14  1  0.813700  0.360900  0.896500  1.0  0.1315
  H  H15  1  0.937600  0.095900  0.746500  1.0  0.1075
  H  H16  1  0.705300  0.193600  0.630700  1.0  0.0861
  H  H17  1  0.427200  0.949400  0.722100  1.0  0.0726
  H  H18  1  0.186300  0.860900  0.603500  1.0  0.1319
  H  H19  1  0.062400  0.595900  0.753500  1.0  0.1071
  H  H20  1  0.294700  0.693600  0.869300  1.0  0.0856
  C  C21  1  0.351000  0.622900  0.228800  1.0  0.1691
  C  C22  1  0.207100  0.675400  0.157000  1.0  -0.157
  C  C23  1  0.094000  0.782500  0.165400  1.0  -0.0053
  C  C24  1  0.133000  0.831400  0.245600  1.0  -0.1524
  C  C25  1  0.276000  0.772300  0.314900  1.0  0.1491
  C  C26  1  0.927000  0.842700  0.090000  1.0  0.6403
  C  C27  1  0.649000  0.122900  0.271200  1.0  0.1688
  C  C28  1  0.792900  0.175400  0.343000  1.0  -0.157
  C  C29  1  0.906000  0.282500  0.334600  1.0  -0.0055
  C  C30  1  0.867000  0.331400  0.254400  1.0  -0.153
  C  C31  1  0.724000  0.272300  0.185100  1.0  0.1499
  C  C32  1  0.073000  0.342700  0.410000  1.0  0.6399
  C  C33  1  0.649000  0.377100  0.771200  1.0  0.1666
  C  C34  1  0.792900  0.324600  0.843000  1.0  -0.158
  C  C35  1  0.906000  0.217500  0.834600  1.0  -0.005
  C  C36  1  0.867000  0.168600  0.754400  1.0  -0.1522
  C  C37  1  0.724000  0.227700  0.685100  1.0  0.1506
  C  C38  1  0.073000  0.157300  0.910000  1.0  0.64
  C  C39  1  0.351000  0.877100  0.728800  1.0  0.1672
  C  C40  1  0.207100  0.824600  0.657000  1.0  -0.1582
  C  C41  1  0.094000  0.717500  0.665400  1.0  -0.0063
  C  C42  1  0.133000  0.668600  0.745600  1.0  -0.1519
  C  C43  1  0.276000  0.727700  0.814900  1.0  0.1496
  C  C44  1  0.927000  0.657300  0.590000  1.0  0.6405
  N  N45  1  0.388800  0.669100  0.307300  1.0  -0.327
  N  N46  1  0.611200  0.169100  0.192700  1.0  -0.3304
  N  N47  1  0.611200  0.330900  0.692700  1.0  -0.3288
  N  N48  1  0.388800  0.830900  0.807300  1.0  -0.328
  O  O49  1  0.879200  0.944900  0.100900  1.0  -0.6531
  O  O50  1  0.847000  0.790400  0.023000  1.0  -0.5742
  O  O51  1  0.120800  0.444900  0.399100  1.0  -0.6529
  O  O52  1  0.153000  0.290400  0.477000  1.0  -0.5709
  O  O53  1  0.120800  0.055100  0.899100  1.0  -0.6534
  O  O54  1  0.153000  0.209600  0.977000  1.0  -0.5701
  O  O55  1  0.879200  0.555100  0.600900  1.0  -0.6546
  O  O56  1  0.847000  0.709600  0.523000  1.0  -0.5723
