# generated using pymatgen
data_AgH4C6NO2
_symmetry_space_group_name_H-M   'P 1'
_cell_length_a   3.65190000
_cell_length_b   12.15120000
_cell_length_c   15.07000000
_cell_angle_alpha   90.00000000
_cell_angle_beta   90.98200000
_cell_angle_gamma   90.00000000
_symmetry_Int_Tables_number   1
_chemical_formula_structural   AgH4C6NO2
_chemical_formula_sum   'Ag4 H16 C24 N4 O8'
_cell_volume   668.63253952
_cell_formula_units_Z   4
loop_
 _symmetry_equiv_pos_site_id
 _symmetry_equiv_pos_as_xyz
  1  'x, y, z'
loop_
 _atom_site_type_symbol
 _atom_site_label
 _atom_site_symmetry_multiplicity
 _atom_site_fract_x
 _atom_site_fract_y
 _atom_site_fract_z
 _atom_site_occupancy
 _atom_site_charge
  Ag  Ag1  1  0.395600  0.426070  0.924520  1.0  0.5079
  Ag  Ag2  1  0.604400  0.926070  0.575480  1.0  0.5078
  Ag  Ag3  1  0.604400  0.573930  0.075480  1.0  0.5079
  Ag  Ag4  1  0.395600  0.073930  0.424520  1.0  0.508
  H  H5  1  0.070200  0.593600  0.744500  1.0  0.1157
  H  H6  1  0.305000  0.692700  0.629200  1.0  0.0836
  H  H7  1  0.410200  0.954400  0.778200  1.0  0.0802
  H  H8  1  0.173100  0.864000  0.898400  1.0  0.1297
  H  H9  1  0.929800  0.093600  0.755500  1.0  0.1159
  H  H10  1  0.695000  0.192700  0.870800  1.0  0.0834
  H  H11  1  0.589800  0.454400  0.721800  1.0  0.0802
  H  H12  1  0.826900  0.364000  0.601600  1.0  0.1298
  H  H13  1  0.929800  0.406400  0.255500  1.0  0.1163
  H  H14  1  0.695000  0.307300  0.370800  1.0  0.0831
  H  H15  1  0.589800  0.045600  0.221800  1.0  0.0796
  H  H16  1  0.826900  0.136000  0.101600  1.0  0.1299
  H  H17  1  0.070200  0.906400  0.244500  1.0  0.1162
  H  H18  1  0.305000  0.807300  0.129200  1.0  0.0836
  H  H19  1  0.410200  0.545600  0.278200  1.0  0.0802
  H  H20  1  0.173100  0.636000  0.398400  1.0  0.13
  C  C21  1  0.931000  0.659100  0.911400  1.0  0.6197
  C  C22  1  0.095000  0.717600  0.835400  1.0  -0.0012
  C  C23  1  0.139000  0.668300  0.753200  1.0  -0.1546
  C  C24  1  0.280000  0.727600  0.685200  1.0  0.1501
  C  C25  1  0.340000  0.879500  0.771900  1.0  0.1535
  C  C26  1  0.199000  0.826500  0.843600  1.0  -0.1579
  C  C27  1  0.069000  0.159100  0.588600  1.0  0.6207
  C  C28  1  0.905000  0.217600  0.664600  1.0  -0.0025
  C  C29  1  0.861000  0.168300  0.746800  1.0  -0.1538
  C  C30  1  0.720000  0.227600  0.814800  1.0  0.149
  C  C31  1  0.660000  0.379500  0.728100  1.0  0.1526
  C  C32  1  0.801000  0.326500  0.656400  1.0  -0.158
  C  C33  1  0.069000  0.340900  0.088600  1.0  0.6205
  C  C34  1  0.905000  0.282400  0.164600  1.0  -0.0017
  C  C35  1  0.861000  0.331700  0.246800  1.0  -0.1541
  C  C36  1  0.720000  0.272400  0.314800  1.0  0.148
  C  C37  1  0.660000  0.120500  0.228100  1.0  0.1535
  C  C38  1  0.801000  0.173500  0.156400  1.0  -0.157
  C  C39  1  0.931000  0.840900  0.411400  1.0  0.619
  C  C40  1  0.095000  0.782400  0.335400  1.0  -0.002
  C  C41  1  0.139000  0.831700  0.253200  1.0  -0.1554
  C  C42  1  0.280000  0.772400  0.185200  1.0  0.1494
  C  C43  1  0.340000  0.620500  0.271900  1.0  0.1534
  C  C44  1  0.199000  0.673500  0.343600  1.0  -0.1567
  N  N45  1  0.383000  0.830700  0.693100  1.0  -0.3216
  N  N46  1  0.617000  0.330700  0.806900  1.0  -0.3234
  N  N47  1  0.617000  0.169300  0.306900  1.0  -0.3234
  N  N48  1  0.383000  0.669300  0.193100  1.0  -0.323
  O  O49  1  0.884000  0.553800  0.898500  1.0  -0.654
  O  O50  1  0.831000  0.711100  0.977400  1.0  -0.5493
  O  O51  1  0.116000  0.053800  0.601500  1.0  -0.6547
  O  O52  1  0.169000  0.211100  0.522600  1.0  -0.5503
  O  O53  1  0.116000  0.446200  0.101500  1.0  -0.6521
  O  O54  1  0.169000  0.288900  0.022600  1.0  -0.5509
  O  O55  1  0.884000  0.946200  0.398500  1.0  -0.6517
  O  O56  1  0.831000  0.788900  0.477400  1.0  -0.5493
