# generated using pymatgen
data_NdH12(C3O2)3
_symmetry_space_group_name_H-M   'P 1'
_cell_length_a   7.76800000
_cell_length_b   14.34400000
_cell_length_c   16.12500000
_cell_angle_alpha   92.98000000
_cell_angle_beta   95.60500000
_cell_angle_gamma   99.59300000
_symmetry_Int_Tables_number   1
_chemical_formula_structural   NdH12(C3O2)3
_chemical_formula_sum   'Nd4 H48 C36 O24'
_cell_volume   1758.84912677
_cell_formula_units_Z   4
loop_
 _symmetry_equiv_pos_site_id
 _symmetry_equiv_pos_as_xyz
  1  'x, y, z'
loop_
 _atom_site_type_symbol
 _atom_site_label
 _atom_site_symmetry_multiplicity
 _atom_site_fract_x
 _atom_site_fract_y
 _atom_site_fract_z
 _atom_site_occupancy
 _atom_site_charge
  Nd  Nd1  1  0.775680  0.756750  0.724050  1.0  2.325
  Nd  Nd2  1  0.728240  0.301220  0.212400  1.0  2.3289
  Nd  Nd3  1  0.224320  0.243250  0.275950  1.0  2.3255
  Nd  Nd4  1  0.271760  0.698780  0.787600  1.0  2.3274
  H  H5  1  0.280000  0.053000  0.085100  1.0  0.1105
  H  H6  1  0.201900  0.140400  0.054500  1.0  0.1211
  H  H7  1  0.295500  0.526600  0.580500  1.0  0.1204
  H  H8  1  0.235100  0.624900  0.575900  1.0  0.1196
  H  H9  1  0.832300  0.647100  0.011900  1.0  0.1211
  H  H10  1  0.747500  0.551700  0.961500  1.0  0.1221
  H  H11  1  0.099200  0.587900  0.034400  1.0  0.0696
  H  H12  1  0.945900  0.530400  0.076900  1.0  0.0771
  H  H13  1  0.328500  0.968700  0.602800  1.0  0.1133
  H  H14  1  0.291900  0.884900  0.534000  1.0  0.1149
  H  H15  1  0.615000  0.004000  0.572700  1.0  0.0588
  H  H16  1  0.579300  0.919700  0.504200  1.0  0.0603
  H  H17  1  0.169900  0.572400  0.308100  1.0  0.1118
  H  H18  1  0.278300  0.489800  0.318300  1.0  0.1098
  H  H19  1  0.318400  0.954800  0.833900  1.0  0.1037
  H  H20  1  0.209800  0.033100  0.806000  1.0  0.104
  H  H21  1  0.073400  0.551500  0.439000  1.0  0.0646
  H  H22  1  0.163400  0.462300  0.448600  1.0  0.0773
  H  H23  1  0.439100  0.560000  0.458200  1.0  0.0624
  H  H24  1  0.346300  0.648900  0.451400  1.0  0.0667
  H  H25  1  0.077700  0.022600  0.930800  1.0  0.0601
  H  H26  1  0.193800  0.948100  0.958800  1.0  0.0726
  H  H27  1  0.333900  0.137800  0.935600  1.0  0.0638
  H  H28  1  0.445400  0.063000  0.968000  1.0  0.0622
  H  H29  1  0.720000  0.947000  0.914900  1.0  0.1105
  H  H30  1  0.798100  0.859600  0.945500  1.0  0.1209
  H  H31  1  0.704500  0.473400  0.419500  1.0  0.12
  H  H32  1  0.764900  0.375100  0.424100  1.0  0.1196
  H  H33  1  0.167700  0.352900  0.988100  1.0  0.1211
  H  H34  1  0.252500  0.448300  0.038500  1.0  0.1216
  H  H35  1  0.900800  0.412100  0.965600  1.0  0.0708
  H  H36  1  0.054100  0.469600  0.923100  1.0  0.0755
  H  H37  1  0.671500  0.031300  0.397200  1.0  0.1133
  H  H38  1  0.708100  0.115100  0.466000  1.0  0.1139
  H  H39  1  0.385000  0.996000  0.427300  1.0  0.0587
  H  H40  1  0.420700  0.080300  0.495800  1.0  0.061
  H  H41  1  0.830100  0.427600  0.691900  1.0  0.1134
  H  H42  1  0.721700  0.510200  0.681700  1.0  0.1049
  H  H43  1  0.681600  0.045200  0.166100  1.0  0.1022
  H  H44  1  0.790200  0.966900  0.194000  1.0  0.1086
  H  H45  1  0.926600  0.448500  0.561000  1.0  0.064
  H  H46  1  0.836600  0.537700  0.551400  1.0  0.0767
  H  H47  1  0.560900  0.440000  0.541800  1.0  0.0622
  H  H48  1  0.653700  0.351100  0.548600  1.0  0.0667
  H  H49  1  0.922300  0.977400  0.069200  1.0  0.0589
  H  H50  1  0.806200  0.051900  0.041200  1.0  0.0723
  H  H51  1  0.666100  0.862200  0.064400  1.0  0.0636
  H  H52  1  0.554600  0.937000  0.032000  1.0  0.0637
  C  C53  1  0.452900  0.175400  0.106200  1.0  0.7775
  C  C54  1  0.492000  0.636200  0.618400  1.0  0.7661
  C  C55  1  0.912700  0.636400  0.896800  1.0  0.8099
  C  C56  1  0.428700  0.853600  0.639800  1.0  0.7403
  C  C57  1  0.305200  0.110500  0.056000  1.0  -0.3481
  C  C58  1  0.328500  0.590700  0.564000  1.0  -0.3244
  C  C59  1  0.856600  0.596100  0.975400  1.0  -0.3513
  C  C60  1  0.987000  0.545600  0.023500  1.0  -0.0671
  C  C61  1  0.381000  0.920200  0.575500  1.0  -0.3428
  C  C62  1  0.526100  0.967800  0.531600  1.0  -0.061
  C  C63  1  0.058000  0.902500  0.804000  1.0  0.7943
  C  C64  1  0.172500  0.512000  0.332100  1.0  -0.3332
  C  C65  1  0.014800  0.442100  0.296200  1.0  0.7856
  C  C66  1  0.208700  0.977700  0.838100  1.0  -0.3096
  C  C67  1  0.175000  0.524400  0.426500  1.0  -0.0851
  C  C68  1  0.336000  0.585600  0.470900  1.0  -0.0733
  C  C69  1  0.191300  0.003800  0.927400  1.0  -0.088
  C  C70  1  0.332000  0.082900  0.968300  1.0  -0.0755
  C  C71  1  0.547100  0.824600  0.893800  1.0  0.7745
  C  C72  1  0.508000  0.363800  0.381600  1.0  0.7606
  C  C73  1  0.087300  0.363600  0.103200  1.0  0.809
  C  C74  1  0.571300  0.146400  0.360200  1.0  0.74
  C  C75  1  0.694800  0.889500  0.944000  1.0  -0.345
  C  C76  1  0.671500  0.409300  0.436000  1.0  -0.306
  C  C77  1  0.143400  0.403900  0.024600  1.0  -0.3503
  C  C78  1  0.013000  0.454400  0.976500  1.0  -0.0668
  C  C79  1  0.619000  0.079800  0.424500  1.0  -0.3426
  C  C80  1  0.473900  0.032200  0.468400  1.0  -0.0604
  C  C81  1  0.942000  0.097500  0.196000  1.0  0.795
  C  C82  1  0.827500  0.488000  0.667900  1.0  -0.3346
  C  C83  1  0.985200  0.557900  0.703800  1.0  0.7817
  C  C84  1  0.791300  0.022300  0.161900  1.0  -0.311
  C  C85  1  0.825000  0.475600  0.573500  1.0  -0.0882
  C  C86  1  0.664000  0.414400  0.529100  1.0  -0.0742
  C  C87  1  0.808700  0.996200  0.072600  1.0  -0.0896
  C  C88  1  0.668000  0.917100  0.031700  1.0  -0.0752
  O  O89  1  0.598100  0.196200  0.081000  1.0  -0.6603
  O  O90  1  0.628900  0.664100  0.587900  1.0  -0.6426
  O  O91  1  0.071100  0.649800  0.886100  1.0  -0.7397
  O  O92  1  0.586400  0.851200  0.656800  1.0  -0.7352
  O  O93  1  0.791500  0.658400  0.844900  1.0  -0.7614
  O  O94  1  0.910000  0.921500  0.785100  1.0  -0.6704
  O  O95  1  0.302900  0.805700  0.671100  1.0  -0.7367
  O  O96  1  0.081600  0.817100  0.797100  1.0  -0.8551
  O  O97  1  0.425100  0.206900  0.177700  1.0  -0.8647
  O  O98  1  0.482000  0.645500  0.696400  1.0  -0.8329
  O  O99  1  0.019000  0.353700  0.303000  1.0  -0.8557
  O  O100  1  0.879200  0.467600  0.265100  1.0  -0.678
  O  O101  1  0.401900  0.803800  0.919000  1.0  -0.6608
  O  O102  1  0.371100  0.335900  0.412100  1.0  -0.6434
  O  O103  1  0.928900  0.350200  0.113900  1.0  -0.7405
  O  O104  1  0.413600  0.148800  0.343200  1.0  -0.7383
  O  O105  1  0.208500  0.341600  0.155100  1.0  -0.7598
  O  O106  1  0.090000  0.078500  0.214900  1.0  -0.6705
  O  O107  1  0.697100  0.194300  0.328900  1.0  -0.7327
  O  O108  1  0.918400  0.182900  0.202900  1.0  -0.8581
  O  O109  1  0.574900  0.793100  0.822300  1.0  -0.8639
  O  O110  1  0.518000  0.354500  0.303600  1.0  -0.8351
  O  O111  1  0.981000  0.646300  0.697000  1.0  -0.8553
  O  O112  1  0.120800  0.532400  0.734900  1.0  -0.6785
