# generated using pymatgen
data_PrH18(C2O)6
_symmetry_space_group_name_H-M   'P 1'
_cell_length_a   7.74470000
_cell_length_b   10.19350000
_cell_length_c   12.14640000
_cell_angle_alpha   80.75100000
_cell_angle_beta   80.28700000
_cell_angle_gamma   82.81800000
_symmetry_Int_Tables_number   1
_chemical_formula_structural   PrH18(C2O)6
_chemical_formula_sum   'Pr2 H36 C24 O12'
_cell_volume   928.13526176
_cell_formula_units_Z   2
loop_
 _symmetry_equiv_pos_site_id
 _symmetry_equiv_pos_as_xyz
  1  'x, y, z'
loop_
 _atom_site_type_symbol
 _atom_site_label
 _atom_site_symmetry_multiplicity
 _atom_site_fract_x
 _atom_site_fract_y
 _atom_site_fract_z
 _atom_site_occupancy
 _atom_site_charge
  Pr  Pr1  1  0.739080  0.009990  0.558980  1.0  2.2181
  Pr  Pr2  1  0.260920  0.990010  0.441020  1.0  2.2173
  H  H3  1  0.135600  0.585100  0.455300  1.0  0.079
  H  H4  1  0.079100  0.482800  0.387700  1.0  0.0683
  H  H5  1  0.808700  0.776600  0.238600  1.0  0.111
  H  H6  1  0.998700  0.708700  0.249900  1.0  0.1028
  H  H7  1  0.956300  0.841800  0.884000  1.0  0.071
  H  H8  1  0.157100  0.816000  0.894000  1.0  0.0656
  H  H9  1  0.890800  0.689900  0.046500  1.0  0.0666
  H  H10  1  0.091400  0.657600  0.055500  1.0  0.0667
  H  H11  1  0.907600  0.912300  0.079000  1.0  0.0602
  H  H12  1  0.104400  0.872300  0.096200  1.0  0.0689
  H  H13  1  0.460400  0.448800  0.423700  1.0  0.1047
  H  H14  1  0.374800  0.358000  0.359300  1.0  0.1136
  H  H15  1  0.245200  0.414500  0.581600  1.0  0.0694
  H  H16  1  0.168600  0.307600  0.529400  1.0  0.0681
  H  H17  1  0.155600  0.593000  0.861700  1.0  0.0809
  H  H18  1  0.957400  0.624400  0.845700  1.0  0.0733
  H  H19  1  0.161300  0.630000  0.673500  1.0  0.1203
  H  H20  1  0.224700  0.758700  0.702100  1.0  0.1138
  H  H21  1  0.864400  0.414900  0.544700  1.0  0.0802
  H  H22  1  0.920900  0.517200  0.612300  1.0  0.0684
  H  H23  1  0.191300  0.223400  0.761400  1.0  0.1102
  H  H24  1  0.001300  0.291300  0.750100  1.0  0.1022
  H  H25  1  0.043700  0.158200  0.116000  1.0  0.0714
  H  H26  1  0.842900  0.184000  0.106000  1.0  0.0654
  H  H27  1  0.109200  0.310100  0.953500  1.0  0.0677
  H  H28  1  0.908600  0.342400  0.944500  1.0  0.0664
  H  H29  1  0.092400  0.087700  0.921000  1.0  0.0607
  H  H30  1  0.895600  0.127700  0.903800  1.0  0.0673
  H  H31  1  0.539600  0.551200  0.576300  1.0  0.1042
  H  H32  1  0.625200  0.642000  0.640700  1.0  0.1121
  H  H33  1  0.754800  0.585500  0.418400  1.0  0.0712
  H  H34  1  0.831400  0.692400  0.470600  1.0  0.0669
  H  H35  1  0.844400  0.407000  0.138300  1.0  0.0795
  H  H36  1  0.042600  0.375600  0.154300  1.0  0.0728
  H  H37  1  0.838700  0.370000  0.326500  1.0  0.1197
  H  H38  1  0.775300  0.241300  0.297900  1.0  0.1126
  C  C39  1  0.506800  0.249900  0.481900  1.0  0.7731
  C  C40  1  0.950700  0.888500  0.307100  1.0  0.8183
  C  C41  1  0.091200  0.498800  0.462500  1.0  -0.1482
  C  C42  1  0.931500  0.793000  0.228400  1.0  -0.3313
  C  C43  1  0.048100  0.774400  0.907500  1.0  -0.1204
  C  C44  1  0.002600  0.727800  0.032600  1.0  -0.1164
  C  C45  1  0.990100  0.839100  0.105300  1.0  -0.0713
  C  C46  1  0.397100  0.370400  0.432900  1.0  -0.3348
  C  C47  1  0.221600  0.391300  0.511600  1.0  -0.0671
  C  C48  1  0.068500  0.662700  0.835500  1.0  -0.0623
  C  C49  1  0.123800  0.708300  0.710800  1.0  -0.3185
  C  C50  1  0.982500  0.793600  0.651600  1.0  0.7589
  C  C51  1  0.493200  0.750100  0.518100  1.0  0.7719
  C  C52  1  0.049300  0.111500  0.692900  1.0  0.8184
  C  C53  1  0.908800  0.501200  0.537500  1.0  -0.147
  C  C54  1  0.068500  0.207000  0.771600  1.0  -0.3271
  C  C55  1  0.951900  0.225600  0.092500  1.0  -0.1214
  C  C56  1  0.997400  0.272200  0.967400  1.0  -0.116
  C  C57  1  0.009900  0.160900  0.894700  1.0  -0.0703
  C  C58  1  0.602900  0.629600  0.567100  1.0  -0.334
  C  C59  1  0.778400  0.608700  0.488400  1.0  -0.0697
  C  C60  1  0.931500  0.337300  0.164500  1.0  -0.0629
  C  C61  1  0.876200  0.291700  0.289200  1.0  -0.3219
  C  C62  1  0.017500  0.206400  0.348400  1.0  0.7647
  O  O63  1  0.811500  0.937600  0.363400  1.0  -0.7236
  O  O64  1  0.612800  0.260300  0.545200  1.0  -0.6577
  O  O65  1  0.488000  0.135100  0.458000  1.0  -0.8684
  O  O66  1  0.823700  0.798700  0.695600  1.0  -0.6669
  O  O67  1  0.103100  0.913600  0.312100  1.0  -0.743
  O  O68  1  0.029100  0.859300  0.554400  1.0  -0.8423
  O  O69  1  0.188500  0.062400  0.636600  1.0  -0.7248
  O  O70  1  0.387200  0.739700  0.454800  1.0  -0.6563
  O  O71  1  0.512000  0.864900  0.542000  1.0  -0.866
  O  O72  1  0.176300  0.201300  0.304400  1.0  -0.6671
  O  O73  1  0.896900  0.086400  0.687900  1.0  -0.7446
  O  O74  1  0.970900  0.140700  0.445600  1.0  -0.8427
