# generated using pymatgen
data_Ni2H72C60N4O5
_symmetry_space_group_name_H-M   'P 1'
_cell_length_a   14.90700000
_cell_length_b   25.53100000
_cell_length_c   25.53100000
_cell_angle_alpha   120.00000000
_cell_angle_beta   90.00000000
_cell_angle_gamma   90.00000000
_symmetry_Int_Tables_number   1
_chemical_formula_structural   Ni2H72C60N4O5
_chemical_formula_sum   'Ni6 H216 C180 N12 O15'
_cell_volume   8415.04677591
_cell_formula_units_Z   3
loop_
 _symmetry_equiv_pos_site_id
 _symmetry_equiv_pos_as_xyz
  1  'x, y, z'
loop_
 _atom_site_type_symbol
 _atom_site_label
 _atom_site_symmetry_multiplicity
 _atom_site_fract_x
 _atom_site_fract_y
 _atom_site_fract_z
 _atom_site_occupancy
 _atom_site_charge
  Ni  Ni1  1  0.117270  0.483580  0.555020  1.0  0.802
  Ni  Ni2  1  0.783940  0.071440  0.516420  1.0  0.8008
  Ni  Ni3  1  0.450600  0.444980  0.928560  1.0  0.7913
  Ni  Ni4  1  0.882730  0.928560  0.444980  1.0  0.7983
  Ni  Ni5  1  0.216060  0.555020  0.483580  1.0  0.7957
  Ni  Ni6  1  0.549400  0.516420  0.071440  1.0  0.7972
  H  H7  1  0.125500  0.588900  0.576000  1.0  0.382
  H  H8  1  0.962900  0.383000  0.412300  1.0  0.0868
  H  H9  1  0.379000  0.498500  0.688200  1.0  0.1053
  H  H10  1  0.136900  0.485200  0.751200  1.0  0.1381
  H  H11  1  0.307800  0.502700  0.610400  1.0  0.0704
  H  H12  1  0.072200  0.489000  0.671300  1.0  0.0843
  H  H13  1  0.438000  0.496900  0.761600  1.0  0.1082
  H  H14  1  0.043300  0.339700  0.297700  1.0  0.0676
  H  H15  1  0.099500  0.373900  0.359500  1.0  0.0776
  H  H16  1  0.503000  0.473800  0.829800  1.0  0.0641
  H  H17  1  0.741200  0.365500  0.358400  1.0  0.0641
  H  H18  1  0.798100  0.383900  0.418200  1.0  0.0832
  H  H19  1  0.198200  0.471300  0.813900  1.0  0.1086
  H  H20  1  0.039100  0.445000  0.321000  1.0  0.0924
  H  H21  1  0.990300  0.509100  0.359200  1.0  0.0993
  H  H22  1  0.933200  0.450400  0.314600  1.0  0.1009
  H  H23  1  0.882100  0.485300  0.469300  1.0  0.0857
  H  H24  1  0.879400  0.525400  0.437100  1.0  0.0794
  H  H25  1  0.743800  0.470100  0.418800  1.0  0.0632
  H  H26  1  0.794300  0.450800  0.356500  1.0  0.0742
  H  H27  1  0.915000  0.315200  0.251900  1.0  0.0902
  H  H28  1  0.861100  0.377600  0.278900  1.0  0.1034
  H  H29  1  0.808400  0.316000  0.259500  1.0  0.0842
  H  H30  1  0.073800  0.299600  0.382100  1.0  0.0644
  H  H31  1  0.092500  0.262600  0.310700  1.0  0.0753
  H  H32  1  0.268900  0.452800  0.883200  1.0  0.0766
  H  H33  1  0.760700  0.263200  0.329700  1.0  0.0956
  H  H34  1  0.774500  0.167800  0.320900  1.0  0.1072
  H  H35  1  0.044700  0.187500  0.334300  1.0  0.1063
  H  H36  1  0.975000  0.109300  0.350400  1.0  0.0761
  H  H37  1  0.012300  0.076400  0.249400  1.0  0.0958
  H  H38  1  0.911800  0.052900  0.229400  1.0  0.0885
  H  H39  1  0.974700  0.022000  0.257200  1.0  0.0883
  H  H40  1  0.826900  0.109500  0.378800  1.0  0.1001
  H  H41  1  0.856600  0.041500  0.332100  1.0  0.0849
  H  H42  1  0.794900  0.077900  0.309800  1.0  0.0854
  H  H43  1  0.792170  0.987100  0.411100  1.0  0.3809
  H  H44  1  0.629570  0.029300  0.617000  1.0  0.0847
  H  H45  1  0.045670  0.189700  0.501500  1.0  0.1055
  H  H46  1  0.803570  0.266000  0.514800  1.0  0.1375
  H  H47  1  0.974470  0.107700  0.497300  1.0  0.0708
  H  H48  1  0.738870  0.182300  0.511000  1.0  0.083
  H  H49  1  0.104670  0.264700  0.503100  1.0  0.1074
  H  H50  1  0.709970  0.958000  0.660300  1.0  0.0678
  H  H51  1  0.766170  0.985600  0.626100  1.0  0.0782
  H  H52  1  0.169670  0.356000  0.526200  1.0  0.0643
  H  H53  1  0.407870  0.992900  0.634500  1.0  0.0642
  H  H54  1  0.464770  0.034300  0.616100  1.0  0.0787
  H  H55  1  0.864870  0.342600  0.528700  1.0  0.1076
  H  H56  1  0.705770  0.876000  0.555000  1.0  0.0925
  H  H57  1  0.656970  0.850100  0.490900  1.0  0.0991
  H  H58  1  0.599870  0.864200  0.549600  1.0  0.1005
  H  H59  1  0.548770  0.984000  0.514700  1.0  0.0829
  H  H60  1  0.546070  0.911700  0.474600  1.0  0.0772
  H  H61  1  0.410470  0.948700  0.529900  1.0  0.0608
  H  H62  1  0.460970  0.905700  0.549200  1.0  0.0751
  H  H63  1  0.581670  0.936700  0.684800  1.0  0.0921
  H  H64  1  0.527770  0.901300  0.622400  1.0  0.1068
  H  H65  1  0.475070  0.943500  0.684000  1.0  0.0853
  H  H66  1  0.740470  0.082500  0.700400  1.0  0.0629
  H  H67  1  0.759170  0.048100  0.737400  1.0  0.0763
  H  H68  1  0.935570  0.430400  0.547200  1.0  0.0721
  H  H69  1  0.427370  0.066500  0.736800  1.0  0.0955
  H  H70  1  0.441170  0.153100  0.832200  1.0  0.1072
  H  H71  1  0.711370  0.146800  0.812500  1.0  0.1053
  H  H72  1  0.641670  0.241100  0.890700  1.0  0.0808
  H  H73  1  0.678970  0.173000  0.923600  1.0  0.0928
  H  H74  1  0.578470  0.176500  0.947100  1.0  0.0893
  H  H75  1  0.641370  0.235200  0.978000  1.0  0.0866
  H  H76  1  0.493570  0.269300  0.890500  1.0  0.1011
  H  H77  1  0.523270  0.290600  0.958500  1.0  0.0859
  H  H78  1  0.461570  0.231900  0.922100  1.0  0.0847
  H  H79  1  0.458830  0.424000  0.012900  1.0  0.3803
  H  H80  1  0.296230  0.587700  0.970700  1.0  0.085
  H  H81  1  0.712330  0.311800  0.810300  1.0  0.1053
  H  H82  1  0.470230  0.248800  0.734000  1.0  0.1376
  H  H83  1  0.641130  0.389600  0.892300  1.0  0.0703
  H  H84  1  0.405530  0.328700  0.817700  1.0  0.0826
  H  H85  1  0.771330  0.238400  0.735300  1.0  0.1071
  H  H86  1  0.376630  0.702300  0.042000  1.0  0.0696
  H  H87  1  0.432830  0.640500  0.014400  1.0  0.0776
  H  H88  1  0.836330  0.170200  0.644000  1.0  0.0642
  H  H89  1  0.074530  0.641600  0.007100  1.0  0.0637
  H  H90  1  0.131430  0.581800  0.965700  1.0  0.0818
  H  H91  1  0.531530  0.186100  0.657400  1.0  0.1079
  H  H92  1  0.372430  0.679000  0.124000  1.0  0.0915
  H  H93  1  0.323630  0.640800  0.149900  1.0  0.0984
  H  H94  1  0.266530  0.685400  0.135800  1.0  0.1008
  H  H95  1  0.215430  0.530700  0.016000  1.0  0.0856
  H  H96  1  0.212730  0.562900  0.088300  1.0  0.0806
  H  H97  1  0.077130  0.581200  0.051300  1.0  0.0635
  H  H98  1  0.127630  0.643500  0.094300  1.0  0.0752
  H  H99  1  0.248330  0.748100  0.063300  1.0  0.0906
  H  H100  1  0.194430  0.721100  0.098700  1.0  0.1038
  H  H101  1  0.141730  0.740500  0.056500  1.0  0.0843
  H  H102  1  0.407130  0.617900  0.917500  1.0  0.0625
  H  H103  1  0.425830  0.689300  0.951900  1.0  0.0765
  H  H104  1  0.602230  0.116800  0.569600  1.0  0.0718
  H  H105  1  0.094030  0.670300  0.933500  1.0  0.0961
  H  H106  1  0.107830  0.679100  0.846900  1.0  0.1072
  H  H107  1  0.378030  0.665700  0.853200  1.0  0.1048
  H  H108  1  0.308330  0.649600  0.758900  1.0  0.0797
  H  H109  1  0.345630  0.750600  0.827000  1.0  0.0948
  H  H110  1  0.245130  0.770600  0.823500  1.0  0.089
  H  H111  1  0.308030  0.742800  0.764800  1.0  0.088
  H  H112  1  0.160230  0.621200  0.730700  1.0  0.0999
  H  H113  1  0.189930  0.667900  0.709400  1.0  0.0878
  H  H114  1  0.128230  0.690200  0.768100  1.0  0.0852
  H  H115  1  0.874500  0.012900  0.424000  1.0  0.3815
  H  H116  1  0.037100  0.970700  0.587700  1.0  0.085
  H  H117  1  0.621000  0.810300  0.311800  1.0  0.1057
  H  H118  1  0.863100  0.734000  0.248800  1.0  0.1377
  H  H119  1  0.692200  0.892300  0.389600  1.0  0.0702
  H  H120  1  0.927800  0.817700  0.328700  1.0  0.0803
  H  H121  1  0.562000  0.735300  0.238400  1.0  0.1065
  H  H122  1  0.956700  0.042000  0.702300  1.0  0.0661
  H  H123  1  0.900500  0.014400  0.640500  1.0  0.0803
  H  H124  1  0.497000  0.644000  0.170200  1.0  0.0652
  H  H125  1  0.258800  0.007100  0.641600  1.0  0.0625
  H  H126  1  0.201900  0.965700  0.581800  1.0  0.0809
  H  H127  1  0.801800  0.657400  0.186100  1.0  0.1071
  H  H128  1  0.960900  0.124000  0.679000  1.0  0.0905
  H  H129  1  0.009700  0.149900  0.640800  1.0  0.0995
  H  H130  1  0.066800  0.135800  0.685400  1.0  0.1009
  H  H131  1  0.117900  0.016000  0.530700  1.0  0.0831
  H  H132  1  0.120600  0.088300  0.562900  1.0  0.0786
  H  H133  1  0.256200  0.051300  0.581200  1.0  0.0614
  H  H134  1  0.205700  0.094300  0.643500  1.0  0.0752
  H  H135  1  0.085000  0.063300  0.748100  1.0  0.0905
  H  H136  1  0.138900  0.098700  0.721100  1.0  0.1034
  H  H137  1  0.191600  0.056500  0.740500  1.0  0.0854
  H  H138  1  0.926200  0.917500  0.617900  1.0  0.0631
  H  H139  1  0.907500  0.951900  0.689300  1.0  0.077
  H  H140  1  0.731100  0.569600  0.116800  1.0  0.072
  H  H141  1  0.239300  0.933500  0.670300  1.0  0.0962
  H  H142  1  0.225500  0.846900  0.679100  1.0  0.1068
  H  H143  1  0.955300  0.853200  0.665700  1.0  0.1058
  H  H144  1  0.025000  0.758900  0.649600  1.0  0.0798
  H  H145  1  0.987700  0.827000  0.750600  1.0  0.0939
  H  H146  1  0.088200  0.823500  0.770600  1.0  0.0893
  H  H147  1  0.025300  0.764800  0.742800  1.0  0.0861
  H  H148  1  0.173100  0.730700  0.621200  1.0  0.1017
  H  H149  1  0.143400  0.709400  0.667900  1.0  0.0863
  H  H150  1  0.205100  0.768100  0.690200  1.0  0.0839
  H  H151  1  0.207830  0.576000  0.588900  1.0  0.3825
  H  H152  1  0.370430  0.412300  0.383000  1.0  0.085
  H  H153  1  0.954330  0.688200  0.498500  1.0  0.1059
  H  H154  1  0.196430  0.751200  0.485200  1.0  0.1389
  H  H155  1  0.025530  0.610400  0.502700  1.0  0.0698
  H  H156  1  0.261130  0.671300  0.489000  1.0  0.0799
  H  H157  1  0.895330  0.761600  0.496900  1.0  0.1065
  H  H158  1  0.290030  0.297700  0.339700  1.0  0.066
  H  H159  1  0.233830  0.359500  0.373900  1.0  0.0789
  H  H160  1  0.830330  0.829800  0.473800  1.0  0.0651
  H  H161  1  0.592130  0.358400  0.365500  1.0  0.0618
  H  H162  1  0.535230  0.418200  0.383900  1.0  0.0791
  H  H163  1  0.135130  0.813900  0.471300  1.0  0.1077
  H  H164  1  0.294230  0.321000  0.445000  1.0  0.0914
  H  H165  1  0.343030  0.359200  0.509100  1.0  0.0979
  H  H166  1  0.400130  0.314600  0.450400  1.0  0.1004
  H  H167  1  0.451230  0.469300  0.485300  1.0  0.085
  H  H168  1  0.453930  0.437100  0.525400  1.0  0.0784
  H  H169  1  0.589530  0.418800  0.470100  1.0  0.0611
  H  H170  1  0.539030  0.356500  0.450800  1.0  0.0769
  H  H171  1  0.418330  0.251900  0.315200  1.0  0.0902
  H  H172  1  0.472230  0.278900  0.377600  1.0  0.1062
  H  H173  1  0.524930  0.259500  0.316000  1.0  0.0847
  H  H174  1  0.259530  0.382100  0.299600  1.0  0.0648
  H  H175  1  0.240830  0.310700  0.262600  1.0  0.0758
  H  H176  1  0.064430  0.883200  0.452800  1.0  0.0736
  H  H177  1  0.572630  0.329700  0.263200  1.0  0.097
  H  H178  1  0.558830  0.320900  0.167800  1.0  0.1068
  H  H179  1  0.288630  0.334300  0.187500  1.0  0.1053
  H  H180  1  0.358330  0.350400  0.109300  1.0  0.0822
  H  H181  1  0.321030  0.249400  0.076400  1.0  0.0948
  H  H182  1  0.421530  0.229400  0.052900  1.0  0.0853
  H  H183  1  0.358630  0.257200  0.022000  1.0  0.0872
  H  H184  1  0.506430  0.378800  0.109500  1.0  0.1006
  H  H185  1  0.476730  0.332100  0.041500  1.0  0.0875
  H  H186  1  0.538430  0.309800  0.077900  1.0  0.0828
  H  H187  1  0.541170  0.411100  0.987100  1.0  0.384
  H  H188  1  0.703770  0.617000  0.029300  1.0  0.0871
  H  H189  1  0.287670  0.501500  0.189700  1.0  0.1054
  H  H190  1  0.529770  0.514800  0.266000  1.0  0.1384
  H  H191  1  0.358870  0.497300  0.107700  1.0  0.0696
  H  H192  1  0.594470  0.511000  0.182300  1.0  0.0815
  H  H193  1  0.228670  0.503100  0.264700  1.0  0.1066
  H  H194  1  0.623370  0.660300  0.958000  1.0  0.0673
  H  H195  1  0.567170  0.626100  0.985600  1.0  0.0797
  H  H196  1  0.163670  0.526200  0.356000  1.0  0.0648
  H  H197  1  0.925470  0.634500  0.992900  1.0  0.063
  H  H198  1  0.868570  0.616100  0.034300  1.0  0.0835
  H  H199  1  0.468470  0.528700  0.342600  1.0  0.1086
  H  H200  1  0.627570  0.555000  0.876000  1.0  0.0909
  H  H201  1  0.676370  0.490900  0.850100  1.0  0.0988
  H  H202  1  0.733470  0.549600  0.864200  1.0  0.1009
  H  H203  1  0.784570  0.514700  0.984000  1.0  0.0858
  H  H204  1  0.787270  0.474600  0.911700  1.0  0.0777
  H  H205  1  0.922870  0.529900  0.948700  1.0  0.0643
  H  H206  1  0.872370  0.549200  0.905700  1.0  0.0764
  H  H207  1  0.751670  0.684800  0.936700  1.0  0.0912
  H  H208  1  0.805570  0.622400  0.901300  1.0  0.1038
  H  H209  1  0.858270  0.684000  0.943500  1.0  0.0859
  H  H210  1  0.592870  0.700400  0.082500  1.0  0.0631
  H  H211  1  0.574170  0.737400  0.048100  1.0  0.0775
  H  H212  1  0.397770  0.547200  0.430400  1.0  0.0769
  H  H213  1  0.905970  0.736800  0.066500  1.0  0.097
  H  H214  1  0.892170  0.832200  0.153100  1.0  0.1063
  H  H215  1  0.621970  0.812500  0.146800  1.0  0.1058
  H  H216  1  0.691670  0.890700  0.241100  1.0  0.0806
  H  H217  1  0.654370  0.923600  0.173000  1.0  0.0928
  H  H218  1  0.754870  0.947100  0.176500  1.0  0.0865
  H  H219  1  0.691970  0.978000  0.235200  1.0  0.0864
  H  H220  1  0.839770  0.890500  0.269300  1.0  0.1008
  H  H221  1  0.810070  0.958500  0.290600  1.0  0.0846
  H  H222  1  0.871770  0.922100  0.231900  1.0  0.0846
  C  C223  1  0.961700  0.384000  0.373600  1.0  -0.1196
  C  C224  1  0.267700  0.490500  0.728900  1.0  0.0774
  C  C225  1  0.967900  0.452400  0.394700  1.0  0.0728
  C  C226  1  0.046900  0.478200  0.440500  1.0  0.6247
  C  C227  1  0.315400  0.496100  0.685700  1.0  -0.1987
  C  C228  1  0.173800  0.488300  0.722500  1.0  -0.215
  C  C229  1  0.272600  0.498300  0.638900  1.0  0.1507
  C  C230  1  0.135700  0.490500  0.674700  1.0  0.1453
  C  C231  1  0.400800  0.486200  0.785000  1.0  -0.2059
  C  C232  1  0.875800  0.348400  0.341600  1.0  0.0729
  C  C233  1  0.045500  0.349000  0.340300  1.0  -0.1851
  C  C234  1  0.439500  0.473000  0.826700  1.0  0.1496
  C  C235  1  0.797500  0.384900  0.380000  1.0  -0.1873
  C  C236  1  0.261800  0.471800  0.815700  1.0  -0.1941
  C  C237  1  0.984100  0.465400  0.342600  1.0  -0.3795
  C  C238  1  0.881400  0.483400  0.429600  1.0  -0.1933
  C  C239  1  0.797600  0.449500  0.394500  1.0  -0.1237
  C  C240  1  0.864000  0.338400  0.277100  1.0  -0.3697
  C  C241  1  0.050800  0.291100  0.342300  1.0  -0.1381
  C  C242  1  0.304800  0.460400  0.857000  1.0  0.152
  C  C243  1  0.310400  0.483800  0.777400  1.0  0.0583
  C  C244  1  0.978900  0.259500  0.338600  1.0  0.2833
  C  C245  1  0.894500  0.282000  0.337300  1.0  -0.0598
  C  C246  1  0.818300  0.247800  0.330600  1.0  -0.1383
  C  C247  1  0.826500  0.191100  0.325300  1.0  -0.1386
  C  C248  1  0.910900  0.168600  0.326700  1.0  0.018
  C  C249  1  0.987100  0.202800  0.333333  1.0  -0.2505
  C  C250  1  0.926800  0.104600  0.321100  1.0  0.0559
  C  C251  1  0.959200  0.060100  0.258900  1.0  -0.361
  C  C252  1  0.844000  0.081300  0.336800  1.0  -0.3822
  C  C253  1  0.628370  0.989600  0.616000  1.0  -0.115
  C  C254  1  0.934370  0.238400  0.509500  1.0  0.0774
  C  C255  1  0.634570  0.942300  0.547600  1.0  0.0727
  C  C256  1  0.713570  0.962300  0.521800  1.0  0.6293
  C  C257  1  0.982070  0.189600  0.503900  1.0  -0.1989
  C  C258  1  0.840470  0.234200  0.511700  1.0  -0.2186
  C  C259  1  0.939270  0.140600  0.501700  1.0  0.1486
  C  C260  1  0.802370  0.184200  0.509500  1.0  0.1433
  C  C261  1  0.067470  0.298800  0.513800  1.0  -0.2073
  C  C262  1  0.542470  0.993200  0.651600  1.0  0.0738
  C  C263  1  0.712170  0.991300  0.651000  1.0  -0.1859
  C  C264  1  0.106170  0.353700  0.527000  1.0  0.1506
  C  C265  1  0.464170  0.995100  0.615100  1.0  -0.1858
  C  C266  1  0.928470  0.343900  0.528200  1.0  -0.2001
  C  C267  1  0.650770  0.877200  0.534600  1.0  -0.3788
  C  C268  1  0.548070  0.946200  0.516600  1.0  -0.1875
  C  C269  1  0.464270  0.945000  0.550500  1.0  -0.1229
  C  C270  1  0.530670  0.938700  0.661600  1.0  -0.3695
  C  C271  1  0.717470  0.051200  0.708900  1.0  -0.1419
  C  C272  1  0.971470  0.396600  0.539600  1.0  0.1466
  C  C273  1  0.977070  0.293600  0.516200  1.0  0.0607
  C  C274  1  0.645570  0.079100  0.740500  1.0  0.2813
  C  C275  1  0.561170  0.055300  0.718000  1.0  -0.0586
  C  C276  1  0.484970  0.082800  0.752200  1.0  -0.1365
  C  C277  1  0.493170  0.134200  0.808900  1.0  -0.1395
  C  C278  1  0.577570  0.158100  0.831400  1.0  0.0253
  C  C279  1  0.653770  0.130500  0.797200  1.0  -0.2524
  C  C280  1  0.593470  0.216500  0.895400  1.0  0.0569
  C  C281  1  0.625870  0.198800  0.939900  1.0  -0.3596
  C  C282  1  0.510670  0.255500  0.918700  1.0  -0.3829
  C  C283  1  0.295030  0.626400  0.010400  1.0  -0.1148
  C  C284  1  0.601030  0.271100  0.761600  1.0  0.0733
  C  C285  1  0.301230  0.605300  0.057700  1.0  0.0752
  C  C286  1  0.380230  0.559500  0.037700  1.0  0.6276
  C  C287  1  0.648730  0.314300  0.810400  1.0  -0.1976
  C  C288  1  0.507130  0.277500  0.765800  1.0  -0.2151
  C  C289  1  0.605930  0.361100  0.859400  1.0  0.1489
  C  C290  1  0.469030  0.325300  0.815800  1.0  0.1446
  C  C291  1  0.734130  0.215000  0.701200  1.0  -0.209
  C  C292  1  0.209130  0.658400  0.006800  1.0  0.0702
  C  C293  1  0.378830  0.659700  0.008700  1.0  -0.1863
  C  C294  1  0.772830  0.173300  0.646300  1.0  0.153
  C  C295  1  0.130830  0.620000  0.004900  1.0  -0.1894
  C  C296  1  0.595130  0.184300  0.656100  1.0  -0.1966
  C  C297  1  0.317430  0.657400  0.122800  1.0  -0.3785
  C  C298  1  0.214730  0.570400  0.053800  1.0  -0.1902
  C  C299  1  0.130930  0.605500  0.055000  1.0  -0.1228
  C  C300  1  0.197330  0.722900  0.061300  1.0  -0.3739
  C  C301  1  0.384130  0.657700  0.948800  1.0  -0.1407
  C  C302  1  0.638130  0.143000  0.603400  1.0  0.1511
  C  C303  1  0.643730  0.222600  0.706400  1.0  0.0612
  C  C304  1  0.312230  0.661400  0.920900  1.0  0.2853
  C  C305  1  0.227830  0.662700  0.944700  1.0  -0.0645
  C  C306  1  0.151630  0.669400  0.917200  1.0  -0.1367
  C  C307  1  0.159830  0.674700  0.865800  1.0  -0.1398
  C  C308  1  0.244230  0.673300  0.841900  1.0  0.0269
  C  C309  1  0.320430  0.666667  0.869500  1.0  -0.2339
  C  C310  1  0.260130  0.678900  0.783500  1.0  0.0557
  C  C311  1  0.292530  0.741100  0.801200  1.0  -0.3623
  C  C312  1  0.177330  0.663200  0.744500  1.0  -0.3806
  C  C313  1  0.038300  0.010400  0.626400  1.0  -0.1151
  C  C314  1  0.732300  0.761600  0.271100  1.0  0.0773
  C  C315  1  0.032100  0.057700  0.605300  1.0  0.0725
  C  C316  1  0.953100  0.037700  0.559500  1.0  0.6303
  C  C317  1  0.684600  0.810400  0.314300  1.0  -0.2005
  C  C318  1  0.826200  0.765800  0.277500  1.0  -0.2177
  C  C319  1  0.727400  0.859400  0.361100  1.0  0.1488
  C  C320  1  0.864300  0.815800  0.325300  1.0  0.1443
  C  C321  1  0.599200  0.701200  0.215000  1.0  -0.2107
  C  C322  1  0.124200  0.006800  0.658400  1.0  0.0748
  C  C323  1  0.954500  0.008700  0.659700  1.0  -0.1851
  C  C324  1  0.560500  0.646300  0.173300  1.0  0.1513
  C  C325  1  0.202500  0.004900  0.620000  1.0  -0.1864
  C  C326  1  0.738200  0.656100  0.184300  1.0  -0.1971
  C  C327  1  0.015900  0.122800  0.657400  1.0  -0.3784
  C  C328  1  0.118600  0.053800  0.570400  1.0  -0.1854
  C  C329  1  0.202400  0.055000  0.605500  1.0  -0.1232
  C  C330  1  0.136000  0.061300  0.722900  1.0  -0.3706
  C  C331  1  0.949200  0.948800  0.657700  1.0  -0.1405
  C  C332  1  0.695200  0.603400  0.143000  1.0  0.1477
  C  C333  1  0.689600  0.706400  0.222600  1.0  0.06
  C  C334  1  0.021100  0.920900  0.661400  1.0  0.2814
  C  C335  1  0.105500  0.944700  0.662700  1.0  -0.0575
  C  C336  1  0.181700  0.917200  0.669400  1.0  -0.138
  C  C337  1  0.173500  0.865800  0.674700  1.0  -0.1391
  C  C338  1  0.089100  0.841900  0.673300  1.0  0.0264
  C  C339  1  0.012900  0.869500  0.666667  1.0  -0.2355
  C  C340  1  0.073200  0.783500  0.678900  1.0  0.0576
  C  C341  1  0.040800  0.801200  0.741100  1.0  -0.361
  C  C342  1  0.156000  0.744500  0.663200  1.0  -0.3831
  C  C343  1  0.371630  0.373600  0.384000  1.0  -0.1156
  C  C344  1  0.065630  0.728900  0.490500  1.0  0.0737
  C  C345  1  0.365430  0.394700  0.452400  1.0  0.0769
  C  C346  1  0.286430  0.440500  0.478200  1.0  0.6282
  C  C347  1  0.017930  0.685700  0.496100  1.0  -0.2
  C  C348  1  0.159530  0.722500  0.488300  1.0  -0.2155
  C  C349  1  0.060730  0.638900  0.498300  1.0  0.1482
  C  C350  1  0.197630  0.674700  0.490500  1.0  0.1449
  C  C351  1  0.932530  0.785000  0.486200  1.0  -0.2091
  C  C352  1  0.457530  0.341600  0.348400  1.0  0.071
  C  C353  1  0.287830  0.340300  0.349000  1.0  -0.1846
  C  C354  1  0.893830  0.826700  0.473000  1.0  0.1543
  C  C355  1  0.535830  0.380000  0.384900  1.0  -0.1873
  C  C356  1  0.071530  0.815700  0.471800  1.0  -0.1945
  C  C357  1  0.349230  0.342600  0.465400  1.0  -0.3776
  C  C358  1  0.451930  0.429600  0.483400  1.0  -0.1931
  C  C359  1  0.535730  0.394500  0.449500  1.0  -0.1243
  C  C360  1  0.469330  0.277100  0.338400  1.0  -0.3729
  C  C361  1  0.282530  0.342300  0.291100  1.0  -0.1372
  C  C362  1  0.028530  0.857000  0.460400  1.0  0.1514
  C  C363  1  0.022930  0.777400  0.483800  1.0  0.0616
  C  C364  1  0.354430  0.338600  0.259500  1.0  0.2835
  C  C365  1  0.438830  0.337300  0.282000  1.0  -0.064
  C  C366  1  0.515030  0.330600  0.247800  1.0  -0.1386
  C  C367  1  0.506830  0.325300  0.191100  1.0  -0.139
  C  C368  1  0.422430  0.326700  0.168600  1.0  0.0192
  C  C369  1  0.346230  0.333333  0.202800  1.0  -0.2532
  C  C370  1  0.406530  0.321100  0.104600  1.0  0.058
  C  C371  1  0.374130  0.258900  0.060100  1.0  -0.3612
  C  C372  1  0.489330  0.336800  0.081300  1.0  -0.3807
  C  C373  1  0.704970  0.616000  0.989600  1.0  -0.1208
  C  C374  1  0.398970  0.509500  0.238400  1.0  0.0767
  C  C375  1  0.698770  0.547600  0.942300  1.0  0.0715
  C  C376  1  0.619770  0.521800  0.962300  1.0  0.6246
  C  C377  1  0.351270  0.503900  0.189600  1.0  -0.2016
  C  C378  1  0.492870  0.511700  0.234200  1.0  -0.2149
  C  C379  1  0.394070  0.501700  0.140600  1.0  0.1499
  C  C380  1  0.530970  0.509500  0.184200  1.0  0.1452
  C  C381  1  0.265870  0.513800  0.298800  1.0  -0.2068
  C  C382  1  0.790870  0.651600  0.993200  1.0  0.0728
  C  C383  1  0.621170  0.651000  0.991300  1.0  -0.1847
  C  C384  1  0.227170  0.527000  0.353700  1.0  0.1523
  C  C385  1  0.869170  0.615100  0.995100  1.0  -0.1862
  C  C386  1  0.404870  0.528200  0.343900  1.0  -0.1945
  C  C387  1  0.682570  0.534600  0.877200  1.0  -0.3784
  C  C388  1  0.785270  0.516600  0.946200  1.0  -0.1911
  C  C389  1  0.869070  0.550500  0.945000  1.0  -0.1226
  C  C390  1  0.802670  0.661600  0.938700  1.0  -0.372
  C  C391  1  0.615870  0.708900  0.051200  1.0  -0.1374
  C  C392  1  0.361870  0.539600  0.396600  1.0  0.1523
  C  C393  1  0.356270  0.516200  0.293600  1.0  0.0596
  C  C394  1  0.687770  0.740500  0.079100  1.0  0.2839
  C  C395  1  0.772170  0.718000  0.055300  1.0  -0.062
  C  C396  1  0.848370  0.752200  0.082800  1.0  -0.1401
  C  C397  1  0.840170  0.808900  0.134200  1.0  -0.1372
  C  C398  1  0.755770  0.831400  0.158100  1.0  0.0255
  C  C399  1  0.679570  0.797200  0.130500  1.0  -0.2532
  C  C400  1  0.739870  0.895400  0.216500  1.0  0.0576
  C  C401  1  0.707470  0.939900  0.198800  1.0  -0.3603
  C  C402  1  0.822670  0.918700  0.255500  1.0  -0.3816
  N  N403  1  0.183900  0.494600  0.632430  1.0  -0.3255
  N  N404  1  0.392700  0.459300  0.862000  1.0  -0.3135
  N  N405  1  0.850570  0.137830  0.505400  1.0  -0.3243
  N  N406  1  0.059370  0.402700  0.540700  1.0  -0.315
  N  N407  1  0.517230  0.367570  0.862170  1.0  -0.3236
  N  N408  1  0.726030  0.138000  0.597300  1.0  -0.318
  N  N409  1  0.816100  0.862170  0.367570  1.0  -0.3215
  N  N410  1  0.607300  0.597300  0.138000  1.0  -0.3133
  N  N411  1  0.149430  0.632430  0.494600  1.0  -0.3217
  N  N412  1  0.940630  0.862000  0.459300  1.0  -0.3191
  N  N413  1  0.482770  0.505400  0.137830  1.0  -0.3237
  N  N414  1  0.273970  0.540700  0.402700  1.0  -0.3154
  O  O415  1  0.040100  0.470350  0.485140  1.0  -0.6239
  O  O416  1  0.109500  0.506140  0.431950  1.0  -0.613
  O  O417  1  0.706770  0.014790  0.529650  1.0  -0.6164
  O  O418  1  0.776170  0.925810  0.493860  1.0  -0.6121
  O  O419  1  0.373430  0.514860  0.985210  1.0  -0.6138
  O  O420  1  0.442830  0.568050  0.074190  1.0  -0.6132
  O  O421  1  0.959900  0.985210  0.514860  1.0  -0.6165
  O  O422  1  0.890500  0.074190  0.568050  1.0  -0.6112
  O  O423  1  0.293230  0.485140  0.470350  1.0  -0.6148
  O  O424  1  0.223830  0.431950  0.506140  1.0  -0.6131
  O  O425  1  0.626570  0.529650  0.014790  1.0  -0.623
  O  O426  1  0.557170  0.493860  0.925810  1.0  -0.6132
  O  O427  1  0.166670  0.562990  0.562990  1.0  -0.8149
  O  O428  1  0.833330  0.000000  0.437010  1.0  -0.8137
  O  O429  1  0.500000  0.437010  0.000000  1.0  -0.8125
