# generated using pymatgen
data_Cu3H13C8(N3O)2
_symmetry_space_group_name_H-M   'P 1'
_cell_length_a   10.86080000
_cell_length_b   14.83220000
_cell_length_c   14.83220000
_cell_angle_alpha   65.75520000
_cell_angle_beta   75.87240000
_cell_angle_gamma   104.12800000
_symmetry_Int_Tables_number   1
_chemical_formula_structural   Cu3H13C8(N3O)2
_chemical_formula_sum   'Cu9 H39 C24 N18 O6'
_cell_volume   1945.92293778
_cell_formula_units_Z   3
loop_
 _symmetry_equiv_pos_site_id
 _symmetry_equiv_pos_as_xyz
  1  'x, y, z'
loop_
 _atom_site_type_symbol
 _atom_site_label
 _atom_site_symmetry_multiplicity
 _atom_site_fract_x
 _atom_site_fract_y
 _atom_site_fract_z
 _atom_site_occupancy
 _atom_site_charge
  Cu  Cu1  1  0.030610  0.593400  0.521130  1.0  0.7465
  Cu  Cu2  1  0.551740  0.521130  0.885470  1.0  0.7238
  Cu  Cu3  1  0.437210  0.885470  0.593400  1.0  0.7473
  Cu  Cu4  1  0.551740  0.114530  0.478870  1.0  0.7243
  Cu  Cu5  1  0.437210  0.406600  0.114530  1.0  0.7472
  Cu  Cu6  1  0.030610  0.478870  0.406600  1.0  0.7232
  Cu  Cu7  1  0.329910  0.594500  0.405500  1.0  0.4223
  Cu  Cu8  1  0.735410  0.405500  0.000000  1.0  0.4202
  Cu  Cu9  1  0.735410  0.000000  0.594500  1.0  0.4202
  H  H10  1  0.574900  0.715200  0.428100  1.0  0.1282
  H  H11  1  0.587200  0.740800  0.521200  1.0  0.0927
  H  H12  1  0.611300  0.835200  0.406800  1.0  0.125
  H  H13  1  0.019400  0.735700  0.619000  1.0  0.1133
  H  H14  1  0.131700  0.852800  0.573500  1.0  0.1324
  H  H15  1  0.102500  0.757000  0.688600  1.0  0.1364
  H  H16  1  0.003000  0.428100  0.856700  1.0  0.1284
  H  H17  1  0.108400  0.521200  0.738000  1.0  0.0924
  H  H18  1  0.018100  0.406800  0.758000  1.0  0.1221
  H  H19  1  0.638400  0.619000  0.645300  1.0  0.1155
  H  H20  1  0.705200  0.573500  0.573700  1.0  0.1341
  H  H21  1  0.791100  0.688600  0.554400  1.0  0.1396
  H  H22  1  0.859700  0.856700  0.715200  1.0  0.1293
  H  H23  1  0.846400  0.738000  0.740800  1.0  0.0907
  H  H24  1  0.776100  0.758000  0.835200  1.0  0.1204
  H  H25  1  0.283700  0.645300  0.735700  1.0  0.1156
  H  H26  1  0.278900  0.573700  0.852800  1.0  0.1351
  H  H27  1  0.345500  0.554400  0.757000  1.0  0.1371
  H  H28  1  0.003000  0.143300  0.571900  1.0  0.1272
  H  H29  1  0.108400  0.262000  0.478800  1.0  0.0908
  H  H30  1  0.018100  0.242000  0.593200  1.0  0.1215
  H  H31  1  0.638400  0.354700  0.381000  1.0  0.1151
  H  H32  1  0.705200  0.426300  0.426500  1.0  0.1356
  H  H33  1  0.791100  0.445600  0.311400  1.0  0.1399
  H  H34  1  0.859700  0.284800  0.143300  1.0  0.128
  H  H35  1  0.846400  0.259200  0.262000  1.0  0.0934
  H  H36  1  0.776100  0.164800  0.242000  1.0  0.1245
  H  H37  1  0.283700  0.264300  0.354700  1.0  0.1133
  H  H38  1  0.278900  0.147200  0.426300  1.0  0.1344
  H  H39  1  0.345500  0.243000  0.445600  1.0  0.1392
  H  H40  1  0.574900  0.571900  0.284800  1.0  0.129
  H  H41  1  0.587200  0.478800  0.259200  1.0  0.0911
  H  H42  1  0.611300  0.593200  0.164800  1.0  0.1233
  H  H43  1  0.019400  0.381000  0.264300  1.0  0.1148
  H  H44  1  0.131700  0.426500  0.147200  1.0  0.1345
  H  H45  1  0.102500  0.311400  0.243000  1.0  0.1364
  H  H46  1  0.190400  0.668600  0.331400  1.0  0.4662
  H  H47  1  0.521800  0.331400  0.000000  1.0  0.4674
  H  H48  1  0.521800  0.000000  0.668600  1.0  0.4654
  C  C49  1  0.412500  0.738900  0.498000  1.0  0.4041
  C  C50  1  0.558400  0.759200  0.460400  1.0  -0.4168
  C  C51  1  0.218900  0.746800  0.563500  1.0  0.4447
  C  C52  1  0.108300  0.775500  0.615900  1.0  -0.3986
  C  C53  1  0.910500  0.498000  0.763100  1.0  0.4037
  C  C54  1  0.018800  0.460400  0.780400  1.0  -0.4177
  C  C55  1  0.782400  0.563500  0.689700  1.0  0.4437
  C  C56  1  0.724200  0.615900  0.608600  1.0  -0.3983
  C  C57  1  0.673600  0.763100  0.738900  1.0  0.4043
  C  C58  1  0.799200  0.780400  0.759200  1.0  -0.4171
  C  C59  1  0.472100  0.689700  0.746800  1.0  0.4451
  C  C60  1  0.332800  0.608600  0.775500  1.0  -0.3984
  C  C61  1  0.910500  0.236900  0.502000  1.0  0.405
  C  C62  1  0.018800  0.219600  0.539600  1.0  -0.4171
  C  C63  1  0.782400  0.310300  0.436500  1.0  0.4448
  C  C64  1  0.724200  0.391400  0.384100  1.0  -0.3976
  C  C65  1  0.673600  0.261100  0.236900  1.0  0.404
  C  C66  1  0.799200  0.240800  0.219600  1.0  -0.4172
  C  C67  1  0.472100  0.253200  0.310300  1.0  0.4432
  C  C68  1  0.332800  0.224500  0.391400  1.0  -0.3988
  C  C69  1  0.412500  0.502000  0.261100  1.0  0.4036
  C  C70  1  0.558400  0.539600  0.240800  1.0  -0.4198
  C  C71  1  0.218900  0.436500  0.253200  1.0  0.4448
  C  C72  1  0.108300  0.384100  0.224500  1.0  -0.3975
  N  N73  1  0.319000  0.673900  0.486100  1.0  -0.2633
  N  N74  1  0.191500  0.677700  0.529500  1.0  -0.4181
  N  N75  1  0.352400  0.786800  0.547400  1.0  -0.4652
  N  N76  1  0.805100  0.486100  0.840000  1.0  -0.2624
  N  N77  1  0.721000  0.529500  0.792800  1.0  -0.4197
  N  N78  1  0.899800  0.547400  0.665800  1.0  -0.4653
  N  N79  1  0.645100  0.840000  0.673900  1.0  -0.2606
  N  N80  1  0.513800  0.792800  0.677700  1.0  -0.4179
  N  N81  1  0.565600  0.665800  0.786800  1.0  -0.4669
  N  N82  1  0.805100  0.160000  0.513900  1.0  -0.2617
  N  N83  1  0.721000  0.207200  0.470500  1.0  -0.4174
  N  N84  1  0.899800  0.334200  0.452600  1.0  -0.4678
  N  N85  1  0.645100  0.326100  0.160000  1.0  -0.2629
  N  N86  1  0.513800  0.322300  0.207200  1.0  -0.4172
  N  N87  1  0.565600  0.213200  0.334200  1.0  -0.4631
  N  N88  1  0.319000  0.513900  0.326100  1.0  -0.2624
  N  N89  1  0.191500  0.470500  0.322300  1.0  -0.4223
  N  N90  1  0.352400  0.452600  0.213200  1.0  -0.4655
  O  O91  1  0.162000  0.612500  0.387500  1.0  -0.9199
  O  O92  1  0.897500  0.514400  0.485600  1.0  -0.6684
  O  O93  1  0.549500  0.387500  0.000000  1.0  -0.9147
  O  O94  1  0.383100  0.485600  0.000000  1.0  -0.6737
  O  O95  1  0.549500  0.000000  0.612500  1.0  -0.9213
  O  O96  1  0.383100  0.000000  0.514400  1.0  -0.6727
