# generated using pymatgen
data_CoH20C31S2(N3O4)2
_symmetry_space_group_name_H-M   'P 1'
_cell_length_a   13.45100000
_cell_length_b   13.45100000
_cell_length_c   25.49800000
_cell_angle_alpha   90.00000000
_cell_angle_beta   90.00000000
_cell_angle_gamma   90.00000000
_symmetry_Int_Tables_number   1
_chemical_formula_structural   CoH20C31S2(N3O4)2
_chemical_formula_sum   'Co4 H80 C124 S8 N24 O32'
_cell_volume   4613.33786670
_cell_formula_units_Z   4
loop_
 _symmetry_equiv_pos_site_id
 _symmetry_equiv_pos_as_xyz
  1  'x, y, z'
loop_
 _atom_site_type_symbol
 _atom_site_label
 _atom_site_symmetry_multiplicity
 _atom_site_fract_x
 _atom_site_fract_y
 _atom_site_fract_z
 _atom_site_occupancy
 _atom_site_charge
  Co  Co1  1  0.250000  0.250000  0.888240  1.0  0.5509
  Co  Co2  1  0.750000  0.750000  0.388240  1.0  0.5509
  Co  Co3  1  0.750000  0.750000  0.111760  1.0  0.5511
  Co  Co4  1  0.250000  0.250000  0.611760  1.0  0.5511
  H  H5  1  0.367130  0.153970  0.792350  1.0  0.0875
  H  H6  1  0.514420  0.196720  0.735020  1.0  0.1093
  H  H7  1  0.514810  0.496230  0.808760  1.0  0.1044
  H  H8  1  0.366440  0.435340  0.864790  1.0  0.0896
  H  H9  1  0.770870  0.411580  0.668010  1.0  0.091
  H  H10  1  0.588970  0.271980  0.609820  1.0  0.1046
  H  H11  1  0.767900  0.090000  0.489480  1.0  0.106
  H  H12  1  0.570870  0.873560  0.559230  1.0  0.1038
  H  H13  1  0.797930  0.970180  0.415220  1.0  0.0921
  H  H14  1  0.605180  0.758610  0.485240  1.0  0.1112
  H  H15  1  0.132870  0.346030  0.792350  1.0  0.0893
  H  H16  1  0.985580  0.303280  0.735020  1.0  0.1101
  H  H17  1  0.985190  0.003770  0.808760  1.0  0.1035
  H  H18  1  0.133560  0.064660  0.864790  1.0  0.0901
  H  H19  1  0.729130  0.088420  0.668010  1.0  0.0914
  H  H20  1  0.911030  0.228020  0.609820  1.0  0.1049
  H  H21  1  0.732100  0.410000  0.489480  1.0  0.1048
  H  H22  1  0.929130  0.626440  0.559230  1.0  0.1044
  H  H23  1  0.702070  0.529820  0.415220  1.0  0.092
  H  H24  1  0.894820  0.741390  0.485240  1.0  0.1116
  H  H25  1  0.846030  0.867130  0.292350  1.0  0.0877
  H  H26  1  0.803280  0.014420  0.235020  1.0  0.11
  H  H27  1  0.503770  0.014810  0.308760  1.0  0.1032
  H  H28  1  0.564660  0.866440  0.364790  1.0  0.0905
  H  H29  1  0.588420  0.270870  0.168010  1.0  0.0888
  H  H30  1  0.728020  0.088970  0.109820  1.0  0.1043
  H  H31  1  0.910000  0.267900  0.989480  1.0  0.1054
  H  H32  1  0.126440  0.070870  0.059230  1.0  0.1023
  H  H33  1  0.029820  0.297930  0.915220  1.0  0.0909
  H  H34  1  0.241390  0.105180  0.985240  1.0  0.1103
  H  H35  1  0.653970  0.632870  0.292350  1.0  0.0906
  H  H36  1  0.696720  0.485580  0.235020  1.0  0.11
  H  H37  1  0.996230  0.485190  0.308760  1.0  0.1045
  H  H38  1  0.935340  0.633560  0.364790  1.0  0.0904
  H  H39  1  0.911580  0.229130  0.168010  1.0  0.0892
  H  H40  1  0.771980  0.411030  0.109820  1.0  0.1036
  H  H41  1  0.590000  0.232100  0.989480  1.0  0.1052
  H  H42  1  0.373560  0.429130  0.059230  1.0  0.1038
  H  H43  1  0.470180  0.202070  0.915220  1.0  0.0908
  H  H44  1  0.258610  0.394820  0.985240  1.0  0.1076
  H  H45  1  0.632870  0.846030  0.207650  1.0  0.0867
  H  H46  1  0.485580  0.803280  0.264980  1.0  0.1103
  H  H47  1  0.485190  0.503770  0.191240  1.0  0.1037
  H  H48  1  0.633560  0.564660  0.135210  1.0  0.0892
  H  H49  1  0.229130  0.588420  0.331990  1.0  0.091
  H  H50  1  0.411030  0.728020  0.390180  1.0  0.1047
  H  H51  1  0.232100  0.910000  0.510520  1.0  0.1045
  H  H52  1  0.429130  0.126440  0.440770  1.0  0.1043
  H  H53  1  0.202070  0.029820  0.584780  1.0  0.0921
  H  H54  1  0.394820  0.241390  0.514760  1.0  0.1106
  H  H55  1  0.867130  0.653970  0.207650  1.0  0.0869
  H  H56  1  0.014420  0.696720  0.264980  1.0  0.1094
  H  H57  1  0.014810  0.996230  0.191240  1.0  0.1042
  H  H58  1  0.866440  0.935340  0.135210  1.0  0.0898
  H  H59  1  0.270870  0.911580  0.331990  1.0  0.0906
  H  H60  1  0.088970  0.771980  0.390180  1.0  0.104
  H  H61  1  0.267900  0.590000  0.510520  1.0  0.1055
  H  H62  1  0.070870  0.373560  0.440770  1.0  0.1051
  H  H63  1  0.297930  0.470180  0.584780  1.0  0.0914
  H  H64  1  0.105180  0.258610  0.514760  1.0  0.1097
  H  H65  1  0.153970  0.132870  0.707650  1.0  0.0865
  H  H66  1  0.196720  0.985580  0.764980  1.0  0.1102
  H  H67  1  0.496230  0.985190  0.691240  1.0  0.1046
  H  H68  1  0.435340  0.133560  0.635210  1.0  0.0899
  H  H69  1  0.411580  0.729130  0.831990  1.0  0.0888
  H  H70  1  0.271980  0.911030  0.890180  1.0  0.1032
  H  H71  1  0.090000  0.732100  0.010520  1.0  0.1043
  H  H72  1  0.873560  0.929130  0.940770  1.0  0.1042
  H  H73  1  0.970180  0.702070  0.084780  1.0  0.0905
  H  H74  1  0.758610  0.894820  0.014760  1.0  0.1091
  H  H75  1  0.346030  0.367130  0.707650  1.0  0.0875
  H  H76  1  0.303280  0.514420  0.764980  1.0  0.1104
  H  H77  1  0.003770  0.514810  0.691240  1.0  0.1031
  H  H78  1  0.064660  0.366440  0.635210  1.0  0.0901
  H  H79  1  0.088420  0.770870  0.831990  1.0  0.0888
  H  H80  1  0.228020  0.588970  0.890180  1.0  0.1041
  H  H81  1  0.410000  0.767900  0.010520  1.0  0.1046
  H  H82  1  0.626440  0.570870  0.940770  1.0  0.1035
  H  H83  1  0.529820  0.797930  0.084780  1.0  0.0906
  H  H84  1  0.741390  0.605180  0.014760  1.0  0.1063
  C  C85  1  0.126500  0.447000  0.893200  1.0  0.1865
  C  C86  1  0.403300  0.230400  0.795400  1.0  0.1117
  C  C87  1  0.484300  0.253800  0.764000  1.0  -0.0782
  C  C88  1  0.526600  0.349300  0.769500  1.0  -0.0978
  C  C89  1  0.483400  0.417800  0.805200  1.0  -0.0863
  C  C90  1  0.402700  0.384200  0.834700  1.0  0.1398
  C  C91  1  0.611300  0.382700  0.737300  1.0  0.6133
  C  C92  1  0.725500  0.340400  0.672000  1.0  0.2259
  C  C93  1  0.660500  0.227800  0.604200  1.0  0.2824
  C  C94  1  0.634800  0.062000  0.570000  1.0  0.6458
  C  C95  1  0.660600  0.994200  0.527600  1.0  -0.0958
  C  C96  1  0.727300  0.015600  0.489300  1.0  -0.1557
  C  C97  1  0.622300  0.899800  0.526500  1.0  -0.1368
  C  C98  1  0.747600  0.947800  0.449200  1.0  0.3832
  C  C99  1  0.643800  0.834000  0.486700  1.0  0.1301
  C  C100  1  0.373500  0.053000  0.893200  1.0  0.1866
  C  C101  1  0.096700  0.269600  0.795400  1.0  0.1105
  C  C102  1  0.015700  0.246200  0.764000  1.0  -0.0812
  C  C103  1  0.973400  0.150700  0.769500  1.0  -0.0968
  C  C104  1  0.016600  0.082200  0.805200  1.0  -0.086
  C  C105  1  0.097300  0.115800  0.834700  1.0  0.1411
  C  C106  1  0.888700  0.117300  0.737300  1.0  0.613
  C  C107  1  0.774500  0.159600  0.672000  1.0  0.2243
  C  C108  1  0.839500  0.272200  0.604200  1.0  0.2841
  C  C109  1  0.865200  0.438000  0.570000  1.0  0.6439
  C  C110  1  0.839400  0.505800  0.527600  1.0  -0.0969
  C  C111  1  0.772700  0.484400  0.489300  1.0  -0.1531
  C  C112  1  0.877700  0.600200  0.526500  1.0  -0.1352
  C  C113  1  0.752400  0.552200  0.449200  1.0  0.3843
  C  C114  1  0.856200  0.666000  0.486700  1.0  0.1292
  C  C115  1  0.553000  0.626500  0.393200  1.0  0.1862
  C  C116  1  0.769600  0.903300  0.295400  1.0  0.1105
  C  C117  1  0.746200  0.984300  0.264000  1.0  -0.0827
  C  C118  1  0.650700  0.026600  0.269500  1.0  -0.0906
  C  C119  1  0.582200  0.983400  0.305200  1.0  -0.0898
  C  C120  1  0.615800  0.902700  0.334700  1.0  0.1399
  C  C121  1  0.617300  0.111300  0.237300  1.0  0.6148
  C  C122  1  0.659600  0.225500  0.172000  1.0  0.2262
  C  C123  1  0.772200  0.160500  0.104200  1.0  0.2827
  C  C124  1  0.938000  0.134800  0.070000  1.0  0.6452
  C  C125  1  0.005800  0.160600  0.027600  1.0  -0.0946
  C  C126  1  0.984400  0.227300  0.989300  1.0  -0.1511
  C  C127  1  0.100200  0.122300  0.026500  1.0  -0.134
  C  C128  1  0.052200  0.247600  0.949200  1.0  0.3868
  C  C129  1  0.166000  0.143800  0.986700  1.0  0.1337
  C  C130  1  0.947000  0.873500  0.393200  1.0  0.1836
  C  C131  1  0.730400  0.596700  0.295400  1.0  0.1121
  C  C132  1  0.753800  0.515700  0.264000  1.0  -0.0809
  C  C133  1  0.849300  0.473400  0.269500  1.0  -0.0917
  C  C134  1  0.917800  0.516600  0.305200  1.0  -0.0866
  C  C135  1  0.884200  0.597300  0.334700  1.0  0.139
  C  C136  1  0.882700  0.388700  0.237300  1.0  0.6158
  C  C137  1  0.840400  0.274500  0.172000  1.0  0.2271
  C  C138  1  0.727800  0.339500  0.104200  1.0  0.2822
  C  C139  1  0.562000  0.365200  0.070000  1.0  0.6453
  C  C140  1  0.494200  0.339400  0.027600  1.0  -0.0936
  C  C141  1  0.515600  0.272700  0.989300  1.0  -0.1494
  C  C142  1  0.399800  0.377700  0.026500  1.0  -0.1329
  C  C143  1  0.447800  0.252400  0.949200  1.0  0.3864
  C  C144  1  0.334000  0.356200  0.986700  1.0  0.1329
  C  C145  1  0.750000  0.250000  0.637700  1.0  -0.0698
  C  C146  1  0.750000  0.250000  0.137700  1.0  -0.0698
  C  C147  1  0.873500  0.553000  0.106800  1.0  0.189
  C  C148  1  0.596700  0.769600  0.204600  1.0  0.1103
  C  C149  1  0.515700  0.746200  0.236000  1.0  -0.082
  C  C150  1  0.473400  0.650700  0.230500  1.0  -0.0968
  C  C151  1  0.516600  0.582200  0.194800  1.0  -0.0863
  C  C152  1  0.597300  0.615800  0.165300  1.0  0.1429
  C  C153  1  0.388700  0.617300  0.262700  1.0  0.6133
  C  C154  1  0.274500  0.659600  0.328000  1.0  0.222
  C  C155  1  0.339500  0.772200  0.395800  1.0  0.2844
  C  C156  1  0.365200  0.938000  0.430000  1.0  0.6431
  C  C157  1  0.339400  0.005800  0.472400  1.0  -0.097
  C  C158  1  0.272700  0.984400  0.510700  1.0  -0.1534
  C  C159  1  0.377700  0.100200  0.473500  1.0  -0.1356
  C  C160  1  0.252400  0.052200  0.550800  1.0  0.3847
  C  C161  1  0.356200  0.166000  0.513300  1.0  0.1299
  C  C162  1  0.626500  0.947000  0.106800  1.0  0.1881
  C  C163  1  0.903300  0.730400  0.204600  1.0  0.1118
  C  C164  1  0.984300  0.753800  0.236000  1.0  -0.0778
  C  C165  1  0.026600  0.849300  0.230500  1.0  -0.0976
  C  C166  1  0.983400  0.917800  0.194800  1.0  -0.0861
  C  C167  1  0.902700  0.884200  0.165300  1.0  0.1418
  C  C168  1  0.111300  0.882700  0.262700  1.0  0.6126
  C  C169  1  0.225500  0.840400  0.328000  1.0  0.2242
  C  C170  1  0.160500  0.727800  0.395800  1.0  0.2825
  C  C171  1  0.134800  0.562000  0.430000  1.0  0.6451
  C  C172  1  0.160600  0.494200  0.472400  1.0  -0.0963
  C  C173  1  0.227300  0.515600  0.510700  1.0  -0.1558
  C  C174  1  0.122300  0.399800  0.473500  1.0  -0.1358
  C  C175  1  0.247600  0.447800  0.550800  1.0  0.3825
  C  C176  1  0.143800  0.334000  0.513300  1.0  0.1312
  C  C177  1  0.447000  0.373500  0.606800  1.0  0.1859
  C  C178  1  0.230400  0.096700  0.704600  1.0  0.1121
  C  C179  1  0.253800  0.015700  0.736000  1.0  -0.0811
  C  C180  1  0.349300  0.973400  0.730500  1.0  -0.0921
  C  C181  1  0.417800  0.016600  0.694800  1.0  -0.0868
  C  C182  1  0.384200  0.097300  0.665300  1.0  0.1406
  C  C183  1  0.382700  0.888700  0.762700  1.0  0.6159
  C  C184  1  0.340400  0.774500  0.828000  1.0  0.225
  C  C185  1  0.227800  0.839500  0.895800  1.0  0.2816
  C  C186  1  0.062000  0.865200  0.930000  1.0  0.6446
  C  C187  1  0.994200  0.839400  0.972400  1.0  -0.0938
  C  C188  1  0.015600  0.772700  0.010700  1.0  -0.1495
  C  C189  1  0.899800  0.877700  0.973500  1.0  -0.1326
  C  C190  1  0.947800  0.752400  0.050800  1.0  0.387
  C  C191  1  0.834000  0.856200  0.013300  1.0  0.1343
  C  C192  1  0.053000  0.126500  0.606800  1.0  0.1892
  C  C193  1  0.269600  0.403300  0.704600  1.0  0.1109
  C  C194  1  0.246200  0.484300  0.736000  1.0  -0.0835
  C  C195  1  0.150700  0.526600  0.730500  1.0  -0.091
  C  C196  1  0.082200  0.483400  0.694800  1.0  -0.0901
  C  C197  1  0.115800  0.402700  0.665300  1.0  0.1419
  C  C198  1  0.117300  0.611300  0.762700  1.0  0.6143
  C  C199  1  0.159600  0.725500  0.828000  1.0  0.224
  C  C200  1  0.272200  0.660500  0.895800  1.0  0.2822
  C  C201  1  0.438000  0.634800  0.930000  1.0  0.6445
  C  C202  1  0.505800  0.660600  0.972400  1.0  -0.0946
  C  C203  1  0.484400  0.727300  0.010700  1.0  -0.1513
  C  C204  1  0.600200  0.622300  0.973500  1.0  -0.1345
  C  C205  1  0.552200  0.747600  0.050800  1.0  0.386
  C  C206  1  0.666000  0.643800  0.013300  1.0  0.1329
  C  C207  1  0.250000  0.750000  0.362300  1.0  -0.0699
  C  C208  1  0.250000  0.750000  0.862300  1.0  -0.0699
  S  S209  1  0.035200  0.520700  0.897900  1.0  -0.3585
  S  S210  1  0.464800  0.979300  0.897900  1.0  -0.3589
  S  S211  1  0.479300  0.535200  0.397900  1.0  -0.3621
  S  S212  1  0.020700  0.964800  0.397900  1.0  -0.3585
  S  S213  1  0.964800  0.479300  0.102100  1.0  -0.3599
  S  S214  1  0.535200  0.020700  0.102100  1.0  -0.3602
  S  S215  1  0.520700  0.464800  0.602100  1.0  -0.3594
  S  S216  1  0.979300  0.035200  0.602100  1.0  -0.3632
  N  N217  1  0.191300  0.392700  0.886800  1.0  -0.4522
  N  N218  1  0.363300  0.294100  0.830380  1.0  -0.3341
  N  N219  1  0.709500  0.858300  0.450000  1.0  -0.3478
  N  N220  1  0.308700  0.107300  0.886800  1.0  -0.4506
  N  N221  1  0.136700  0.205900  0.830380  1.0  -0.3341
  N  N222  1  0.790500  0.641700  0.450000  1.0  -0.3459
  N  N223  1  0.607300  0.691300  0.386800  1.0  -0.4525
  N  N224  1  0.705900  0.863300  0.330380  1.0  -0.3322
  N  N225  1  0.141700  0.209500  0.950000  1.0  -0.347
  N  N226  1  0.892700  0.808700  0.386800  1.0  -0.451
  N  N227  1  0.794100  0.636700  0.330380  1.0  -0.3328
  N  N228  1  0.358300  0.290500  0.950000  1.0  -0.3458
  N  N229  1  0.808700  0.607300  0.113200  1.0  -0.4536
  N  N230  1  0.636700  0.705900  0.169620  1.0  -0.3346
  N  N231  1  0.290500  0.141700  0.550000  1.0  -0.3468
  N  N232  1  0.691300  0.892700  0.113200  1.0  -0.4548
  N  N233  1  0.863300  0.794100  0.169620  1.0  -0.3349
  N  N234  1  0.209500  0.358300  0.550000  1.0  -0.3479
  N  N235  1  0.392700  0.308700  0.613200  1.0  -0.4532
  N  N236  1  0.294100  0.136700  0.669620  1.0  -0.3334
  N  N237  1  0.858300  0.790500  0.050000  1.0  -0.347
  N  N238  1  0.107300  0.191300  0.613200  1.0  -0.4555
  N  N239  1  0.205900  0.363300  0.669620  1.0  -0.3326
  N  N240  1  0.641700  0.709500  0.050000  1.0  -0.3471
  O  O241  1  0.652900  0.460000  0.743200  1.0  -0.4746
  O  O242  1  0.642500  0.312700  0.704880  1.0  -0.37
  O  O243  1  0.683100  0.147200  0.567560  1.0  -0.4265
  O  O244  1  0.580200  0.041900  0.605600  1.0  -0.5469
  O  O245  1  0.847100  0.040000  0.743200  1.0  -0.4754
  O  O246  1  0.857500  0.187300  0.704880  1.0  -0.3699
  O  O247  1  0.816900  0.352800  0.567560  1.0  -0.428
  O  O248  1  0.919800  0.458100  0.605600  1.0  -0.5481
  O  O249  1  0.540000  0.152900  0.243200  1.0  -0.4769
  O  O250  1  0.687300  0.142500  0.204880  1.0  -0.368
  O  O251  1  0.852800  0.183100  0.067560  1.0  -0.4274
  O  O252  1  0.958100  0.080200  0.105600  1.0  -0.5496
  O  O253  1  0.960000  0.347100  0.243200  1.0  -0.4744
  O  O254  1  0.812700  0.357500  0.204880  1.0  -0.3682
  O  O255  1  0.647200  0.316900  0.067560  1.0  -0.4277
  O  O256  1  0.541900  0.419800  0.105600  1.0  -0.5496
  O  O257  1  0.347100  0.540000  0.256800  1.0  -0.4754
  O  O258  1  0.357500  0.687300  0.295120  1.0  -0.3696
  O  O259  1  0.316900  0.852800  0.432440  1.0  -0.4272
  O  O260  1  0.419800  0.958100  0.394400  1.0  -0.548
  O  O261  1  0.152900  0.960000  0.256800  1.0  -0.475
  O  O262  1  0.142500  0.812700  0.295120  1.0  -0.3699
  O  O263  1  0.183100  0.647200  0.432440  1.0  -0.4256
  O  O264  1  0.080200  0.541900  0.394400  1.0  -0.5477
  O  O265  1  0.460000  0.847100  0.756800  1.0  -0.475
  O  O266  1  0.312700  0.857500  0.795120  1.0  -0.368
  O  O267  1  0.147200  0.816900  0.932440  1.0  -0.4266
  O  O268  1  0.041900  0.919800  0.894400  1.0  -0.5503
  O  O269  1  0.040000  0.652900  0.756800  1.0  -0.4771
  O  O270  1  0.187300  0.642500  0.795120  1.0  -0.368
  O  O271  1  0.352800  0.683100  0.932440  1.0  -0.4271
  O  O272  1  0.458100  0.580200  0.894400  1.0  -0.5494
