# generated using pymatgen
data_CdH14(C9N7)2
_symmetry_space_group_name_H-M   'P 1'
_cell_length_a   20.10770000
_cell_length_b   20.10770000
_cell_length_c   20.23400000
_cell_angle_alpha   90.00000000
_cell_angle_beta   90.00000000
_cell_angle_gamma   120.00000000
_symmetry_Int_Tables_number   1
_chemical_formula_structural   CdH14(C9N7)2
_chemical_formula_sum   'Cd9 H126 C162 N126'
_cell_volume   7084.95622901
_cell_formula_units_Z   9
loop_
 _symmetry_equiv_pos_site_id
 _symmetry_equiv_pos_as_xyz
  1  'x, y, z'
loop_
 _atom_site_type_symbol
 _atom_site_label
 _atom_site_symmetry_multiplicity
 _atom_site_fract_x
 _atom_site_fract_y
 _atom_site_fract_z
 _atom_site_occupancy
 _atom_site_charge
  Cd  Cd1  1  0.333333  0.666667  0.166670  1.0  0.6759
  Cd  Cd2  1  0.000000  0.000000  0.500000  1.0  0.673
  Cd  Cd3  1  0.666667  0.333333  0.833330  1.0  0.6751
  Cd  Cd4  1  0.333333  0.666667  0.961840  1.0  0.8045
  Cd  Cd5  1  0.000000  0.000000  0.295170  1.0  0.8044
  Cd  Cd6  1  0.666667  0.333333  0.628510  1.0  0.8046
  Cd  Cd7  1  0.666667  0.333333  0.038160  1.0  0.8045
  Cd  Cd8  1  0.333333  0.666667  0.371490  1.0  0.8042
  Cd  Cd9  1  0.000000  0.000000  0.704830  1.0  0.8046
  H  H10  1  0.254000  0.465500  0.156900  1.0  0.0585
  H  H11  1  0.232400  0.476700  0.964700  1.0  0.0692
  H  H12  1  0.224400  0.359200  0.954500  1.0  0.1038
  H  H13  1  0.178800  0.227500  0.950300  1.0  0.0777
  H  H14  1  0.136300  0.155600  0.048000  1.0  0.0954
  H  H15  1  0.062100  0.093100  0.139600  1.0  0.0712
  H  H16  1  0.170800  0.287100  0.234800  1.0  0.0613
  H  H17  1  0.920670  0.798830  0.490230  1.0  0.0585
  H  H18  1  0.899070  0.810030  0.298030  1.0  0.0692
  H  H19  1  0.891070  0.692530  0.287830  1.0  0.1038
  H  H20  1  0.845470  0.560830  0.283630  1.0  0.0777
  H  H21  1  0.802970  0.488930  0.381330  1.0  0.0954
  H  H22  1  0.728770  0.426430  0.472930  1.0  0.0712
  H  H23  1  0.837470  0.620430  0.568130  1.0  0.0613
  H  H24  1  0.587330  0.132170  0.823570  1.0  0.0585
  H  H25  1  0.565730  0.143370  0.631370  1.0  0.0692
  H  H26  1  0.557730  0.025870  0.621170  1.0  0.1039
  H  H27  1  0.512130  0.894170  0.616970  1.0  0.0777
  H  H28  1  0.469630  0.822270  0.714670  1.0  0.0954
  H  H29  1  0.395430  0.759770  0.806270  1.0  0.0712
  H  H30  1  0.504130  0.953770  0.901470  1.0  0.0613
  H  H31  1  0.534500  0.788500  0.156900  1.0  0.0587
  H  H32  1  0.523300  0.755700  0.964700  1.0  0.0691
  H  H33  1  0.640800  0.865200  0.954500  1.0  0.1046
  H  H34  1  0.772500  0.951300  0.950300  1.0  0.0774
  H  H35  1  0.844400  0.980700  0.048000  1.0  0.0947
  H  H36  1  0.906900  0.969000  0.139600  1.0  0.071
  H  H37  1  0.712900  0.883700  0.234800  1.0  0.0602
  H  H38  1  0.201170  0.121830  0.490230  1.0  0.0587
  H  H39  1  0.189970  0.089030  0.298030  1.0  0.0691
  H  H40  1  0.307470  0.198530  0.287830  1.0  0.1046
  H  H41  1  0.439170  0.284630  0.283630  1.0  0.0774
  H  H42  1  0.511070  0.314030  0.381330  1.0  0.0947
  H  H43  1  0.573570  0.302330  0.472930  1.0  0.071
  H  H44  1  0.379570  0.217030  0.568130  1.0  0.06
  H  H45  1  0.867830  0.455170  0.823570  1.0  0.0587
  H  H46  1  0.856630  0.422370  0.631370  1.0  0.069
  H  H47  1  0.974130  0.531870  0.621170  1.0  0.1046
  H  H48  1  0.105830  0.617970  0.616970  1.0  0.0774
  H  H49  1  0.177730  0.647370  0.714670  1.0  0.0947
  H  H50  1  0.240230  0.635670  0.806270  1.0  0.071
  H  H51  1  0.046230  0.550370  0.901470  1.0  0.0602
  H  H52  1  0.211500  0.746000  0.156900  1.0  0.059
  H  H53  1  0.244300  0.767600  0.964700  1.0  0.0688
  H  H54  1  0.134800  0.775600  0.954500  1.0  0.1052
  H  H55  1  0.048700  0.821200  0.950300  1.0  0.077
  H  H56  1  0.019300  0.863700  0.048000  1.0  0.0954
  H  H57  1  0.031000  0.937900  0.139600  1.0  0.071
  H  H58  1  0.116300  0.829200  0.234800  1.0  0.06
  H  H59  1  0.878170  0.079330  0.490230  1.0  0.059
  H  H60  1  0.910970  0.100930  0.298030  1.0  0.0688
  H  H61  1  0.801470  0.108930  0.287830  1.0  0.1052
  H  H62  1  0.715370  0.154530  0.283630  1.0  0.077
  H  H63  1  0.685970  0.197030  0.381330  1.0  0.0954
  H  H64  1  0.697670  0.271230  0.472930  1.0  0.071
  H  H65  1  0.782970  0.162530  0.568130  1.0  0.06
  H  H66  1  0.544830  0.412670  0.823570  1.0  0.059
  H  H67  1  0.577630  0.434270  0.631370  1.0  0.0689
  H  H68  1  0.468130  0.442270  0.621170  1.0  0.1052
  H  H69  1  0.382030  0.487870  0.616970  1.0  0.077
  H  H70  1  0.352630  0.530370  0.714670  1.0  0.0954
  H  H71  1  0.364330  0.604570  0.806270  1.0  0.071
  H  H72  1  0.449630  0.495870  0.901470  1.0  0.06
  H  H73  1  0.746000  0.534500  0.843100  1.0  0.0596
  H  H74  1  0.767600  0.523300  0.035300  1.0  0.069
  H  H75  1  0.775600  0.640800  0.045500  1.0  0.1043
  H  H76  1  0.821200  0.772500  0.049700  1.0  0.0774
  H  H77  1  0.863700  0.844400  0.952000  1.0  0.0951
  H  H78  1  0.937900  0.906900  0.860400  1.0  0.0709
  H  H79  1  0.829200  0.712900  0.765200  1.0  0.0612
  H  H80  1  0.412670  0.867830  0.176430  1.0  0.0596
  H  H81  1  0.434270  0.856630  0.368630  1.0  0.0689
  H  H82  1  0.442270  0.974130  0.378830  1.0  0.1043
  H  H83  1  0.487870  0.105830  0.383030  1.0  0.0774
  H  H84  1  0.530370  0.177730  0.285330  1.0  0.0951
  H  H85  1  0.604570  0.240230  0.193730  1.0  0.0709
  H  H86  1  0.495870  0.046230  0.098530  1.0  0.0612
  H  H87  1  0.079330  0.201170  0.509770  1.0  0.0596
  H  H88  1  0.100930  0.189970  0.701970  1.0  0.069
  H  H89  1  0.108930  0.307470  0.712170  1.0  0.1043
  H  H90  1  0.154530  0.439170  0.716370  1.0  0.0774
  H  H91  1  0.197030  0.511070  0.618670  1.0  0.0951
  H  H92  1  0.271230  0.573570  0.527070  1.0  0.0708
  H  H93  1  0.162530  0.379570  0.431870  1.0  0.0611
  H  H94  1  0.465500  0.211500  0.843100  1.0  0.0602
  H  H95  1  0.476700  0.244300  0.035300  1.0  0.0698
  H  H96  1  0.359200  0.134800  0.045500  1.0  0.1047
  H  H97  1  0.227500  0.048700  0.049700  1.0  0.0776
  H  H98  1  0.155600  0.019300  0.952000  1.0  0.0942
  H  H99  1  0.093100  0.031000  0.860400  1.0  0.0711
  H  H100  1  0.287100  0.116300  0.765200  1.0  0.0604
  H  H101  1  0.132170  0.544830  0.176430  1.0  0.0602
  H  H102  1  0.143370  0.577630  0.368630  1.0  0.0697
  H  H103  1  0.025870  0.468130  0.378830  1.0  0.1046
  H  H104  1  0.894170  0.382030  0.383030  1.0  0.0776
  H  H105  1  0.822270  0.352630  0.285330  1.0  0.0942
  H  H106  1  0.759770  0.364330  0.193730  1.0  0.0711
  H  H107  1  0.953770  0.449630  0.098530  1.0  0.0604
  H  H108  1  0.798830  0.878170  0.509770  1.0  0.0602
  H  H109  1  0.810030  0.910970  0.701970  1.0  0.0698
  H  H110  1  0.692530  0.801470  0.712170  1.0  0.1047
  H  H111  1  0.560830  0.715370  0.716370  1.0  0.0776
  H  H112  1  0.488930  0.685970  0.618670  1.0  0.0942
  H  H113  1  0.426430  0.697670  0.527070  1.0  0.0711
  H  H114  1  0.620430  0.782970  0.431870  1.0  0.0602
  H  H115  1  0.788500  0.254000  0.843100  1.0  0.0593
  H  H116  1  0.755700  0.232400  0.035300  1.0  0.0689
  H  H117  1  0.865200  0.224400  0.045500  1.0  0.1046
  H  H118  1  0.951300  0.178800  0.049700  1.0  0.0776
  H  H119  1  0.980700  0.136300  0.952000  1.0  0.0944
  H  H120  1  0.969000  0.062100  0.860400  1.0  0.0716
  H  H121  1  0.883700  0.170800  0.765200  1.0  0.0598
  H  H122  1  0.455170  0.587330  0.176430  1.0  0.0593
  H  H123  1  0.422370  0.565730  0.368630  1.0  0.069
  H  H124  1  0.531870  0.557730  0.378830  1.0  0.1046
  H  H125  1  0.617970  0.512130  0.383030  1.0  0.0776
  H  H126  1  0.647370  0.469630  0.285330  1.0  0.0944
  H  H127  1  0.635670  0.395430  0.193730  1.0  0.0716
  H  H128  1  0.550370  0.504130  0.098530  1.0  0.0598
  H  H129  1  0.121830  0.920670  0.509770  1.0  0.0593
  H  H130  1  0.089030  0.899070  0.701970  1.0  0.0689
  H  H131  1  0.198530  0.891070  0.712170  1.0  0.1046
  H  H132  1  0.284630  0.845470  0.716370  1.0  0.0776
  H  H133  1  0.314030  0.802970  0.618670  1.0  0.0944
  H  H134  1  0.302330  0.728770  0.527070  1.0  0.0717
  H  H135  1  0.217030  0.837470  0.431870  1.0  0.0599
  C  C136  1  0.255600  0.484000  0.114400  1.0  0.1101
  C  C137  1  0.243800  0.490100  0.008900  1.0  0.0843
  C  C138  1  0.204800  0.359900  0.052800  1.0  0.3169
  C  C139  1  0.206200  0.328900  0.992200  1.0  -0.2349
  C  C140  1  0.179500  0.251000  0.990000  1.0  -0.1301
  C  C141  1  0.153500  0.208000  0.047700  1.0  -0.2434
  C  C142  1  0.154500  0.246200  0.104000  1.0  0.316
  C  C143  1  0.081100  0.129300  0.173500  1.0  0.0936
  C  C144  1  0.140800  0.235100  0.225400  1.0  0.1561
  C  C145  1  0.922270  0.817330  0.447730  1.0  0.1103
  C  C146  1  0.910470  0.823430  0.342230  1.0  0.0843
  C  C147  1  0.871470  0.693230  0.386130  1.0  0.3169
  C  C148  1  0.872870  0.662230  0.325530  1.0  -0.2349
  C  C149  1  0.846170  0.584330  0.323330  1.0  -0.1301
  C  C150  1  0.820170  0.541330  0.381030  1.0  -0.2434
  C  C151  1  0.821170  0.579530  0.437330  1.0  0.316
  C  C152  1  0.747770  0.462630  0.506830  1.0  0.0934
  C  C153  1  0.807470  0.568430  0.558730  1.0  0.1561
  C  C154  1  0.588930  0.150670  0.781070  1.0  0.1101
  C  C155  1  0.577130  0.156770  0.675570  1.0  0.0844
  C  C156  1  0.538130  0.026570  0.719470  1.0  0.3169
  C  C157  1  0.539530  0.995570  0.658870  1.0  -0.2349
  C  C158  1  0.512830  0.917670  0.656670  1.0  -0.1301
  C  C159  1  0.486830  0.874670  0.714370  1.0  -0.2434
  C  C160  1  0.487830  0.912870  0.770670  1.0  0.316
  C  C161  1  0.414430  0.795970  0.840170  1.0  0.0936
  C  C162  1  0.474130  0.901770  0.892070  1.0  0.1561
  C  C163  1  0.516000  0.771600  0.114400  1.0  0.108
  C  C164  1  0.509900  0.753700  0.008900  1.0  0.0845
  C  C165  1  0.640100  0.844900  0.052800  1.0  0.3168
  C  C166  1  0.671100  0.877300  0.992200  1.0  -0.2357
  C  C167  1  0.749000  0.928500  0.990000  1.0  -0.1304
  C  C168  1  0.792000  0.945500  0.047700  1.0  -0.2419
  C  C169  1  0.753800  0.908300  0.104000  1.0  0.3151
  C  C170  1  0.870700  0.951800  0.173500  1.0  0.0932
  C  C171  1  0.764900  0.905700  0.225400  1.0  0.1574
  C  C172  1  0.182670  0.104930  0.447730  1.0  0.108
  C  C173  1  0.176570  0.087030  0.342230  1.0  0.0845
  C  C174  1  0.306770  0.178230  0.386130  1.0  0.3167
  C  C175  1  0.337770  0.210630  0.325530  1.0  -0.2357
  C  C176  1  0.415670  0.261830  0.323330  1.0  -0.1304
  C  C177  1  0.458670  0.278830  0.381030  1.0  -0.2419
  C  C178  1  0.420470  0.241630  0.437330  1.0  0.3151
  C  C179  1  0.537370  0.285130  0.506830  1.0  0.093
  C  C180  1  0.431570  0.239030  0.558730  1.0  0.1574
  C  C181  1  0.849330  0.438270  0.781070  1.0  0.108
  C  C182  1  0.843230  0.420370  0.675570  1.0  0.0845
  C  C183  1  0.973430  0.511570  0.719470  1.0  0.3168
  C  C184  1  0.004430  0.543970  0.658870  1.0  -0.2357
  C  C185  1  0.082330  0.595170  0.656670  1.0  -0.1304
  C  C186  1  0.125330  0.612170  0.714370  1.0  -0.2419
  C  C187  1  0.087130  0.574970  0.770670  1.0  0.3151
  C  C188  1  0.204030  0.618470  0.840170  1.0  0.0932
  C  C189  1  0.098230  0.572370  0.892070  1.0  0.1574
  C  C190  1  0.228400  0.744400  0.114400  1.0  0.1092
  C  C191  1  0.246300  0.756200  0.008900  1.0  0.0848
  C  C192  1  0.155100  0.795200  0.052800  1.0  0.3165
  C  C193  1  0.122700  0.793800  0.992200  1.0  -0.2356
  C  C194  1  0.071500  0.820500  0.990000  1.0  -0.1286
  C  C195  1  0.054500  0.846500  0.047700  1.0  -0.2414
  C  C196  1  0.091700  0.845500  0.104000  1.0  0.3151
  C  C197  1  0.048200  0.918900  0.173500  1.0  0.0923
  C  C198  1  0.094300  0.859200  0.225400  1.0  0.1582
  C  C199  1  0.895070  0.077730  0.447730  1.0  0.1092
  C  C200  1  0.912970  0.089530  0.342230  1.0  0.0848
  C  C201  1  0.821770  0.128530  0.386130  1.0  0.3165
  C  C202  1  0.789370  0.127130  0.325530  1.0  -0.2356
  C  C203  1  0.738170  0.153830  0.323330  1.0  -0.1286
  C  C204  1  0.721170  0.179830  0.381030  1.0  -0.2414
  C  C205  1  0.758370  0.178830  0.437330  1.0  0.3151
  C  C206  1  0.714870  0.252230  0.506830  1.0  0.0921
  C  C207  1  0.760970  0.192530  0.558730  1.0  0.1582
  C  C208  1  0.561730  0.411070  0.781070  1.0  0.1092
  C  C209  1  0.579630  0.422870  0.675570  1.0  0.0848
  C  C210  1  0.488430  0.461870  0.719470  1.0  0.3164
  C  C211  1  0.456030  0.460470  0.658870  1.0  -0.2355
  C  C212  1  0.404830  0.487170  0.656670  1.0  -0.1286
  C  C213  1  0.387830  0.513170  0.714370  1.0  -0.2414
  C  C214  1  0.425030  0.512170  0.770670  1.0  0.3151
  C  C215  1  0.381530  0.585570  0.840170  1.0  0.0923
  C  C216  1  0.427630  0.525870  0.892070  1.0  0.1582
  C  C217  1  0.744400  0.516000  0.885600  1.0  0.1088
  C  C218  1  0.756200  0.509900  0.991100  1.0  0.0833
  C  C219  1  0.795200  0.640100  0.947200  1.0  0.3173
  C  C220  1  0.793800  0.671100  0.007800  1.0  -0.2347
  C  C221  1  0.820500  0.749000  0.010000  1.0  -0.1308
  C  C222  1  0.846500  0.792000  0.952300  1.0  -0.2458
  C  C223  1  0.845500  0.753800  0.896000  1.0  0.3145
  C  C224  1  0.918900  0.870700  0.826500  1.0  0.0929
  C  C225  1  0.859200  0.764900  0.774600  1.0  0.1563
  C  C226  1  0.411070  0.849330  0.218930  1.0  0.1088
  C  C227  1  0.422870  0.843230  0.324430  1.0  0.0834
  C  C228  1  0.461870  0.973430  0.280530  1.0  0.3173
  C  C229  1  0.460470  0.004430  0.341130  1.0  -0.2347
  C  C230  1  0.487170  0.082330  0.343330  1.0  -0.1308
  C  C231  1  0.513170  0.125330  0.285630  1.0  -0.2458
  C  C232  1  0.512170  0.087130  0.229330  1.0  0.3145
  C  C233  1  0.585570  0.204030  0.159830  1.0  0.0929
  C  C234  1  0.525870  0.098230  0.107930  1.0  0.1563
  C  C235  1  0.077730  0.182670  0.552270  1.0  0.109
  C  C236  1  0.089530  0.176570  0.657770  1.0  0.0834
  C  C237  1  0.128530  0.306770  0.613870  1.0  0.3173
  C  C238  1  0.127130  0.337770  0.674470  1.0  -0.2347
  C  C239  1  0.153830  0.415670  0.676670  1.0  -0.1308
  C  C240  1  0.179830  0.458670  0.618970  1.0  -0.2458
  C  C241  1  0.178830  0.420470  0.562670  1.0  0.3145
  C  C242  1  0.252230  0.537370  0.493170  1.0  0.0927
  C  C243  1  0.192530  0.431570  0.441270  1.0  0.1563
  C  C244  1  0.484000  0.228400  0.885600  1.0  0.1087
  C  C245  1  0.490100  0.246300  0.991100  1.0  0.084
  C  C246  1  0.359900  0.155100  0.947200  1.0  0.3172
  C  C247  1  0.328900  0.122700  0.007800  1.0  -0.2349
  C  C248  1  0.251000  0.071500  0.010000  1.0  -0.1321
  C  C249  1  0.208000  0.054500  0.952300  1.0  -0.2413
  C  C250  1  0.246200  0.091700  0.896000  1.0  0.3129
  C  C251  1  0.129300  0.048200  0.826500  1.0  0.0922
  C  C252  1  0.235100  0.094300  0.774600  1.0  0.1584
  C  C253  1  0.150670  0.561730  0.218930  1.0  0.1087
  C  C254  1  0.156770  0.579630  0.324430  1.0  0.084
  C  C255  1  0.026570  0.488430  0.280530  1.0  0.3172
  C  C256  1  0.995570  0.456030  0.341130  1.0  -0.2349
  C  C257  1  0.917670  0.404830  0.343330  1.0  -0.1321
  C  C258  1  0.874670  0.387830  0.285630  1.0  -0.2413
  C  C259  1  0.912870  0.425030  0.229330  1.0  0.3129
  C  C260  1  0.795970  0.381530  0.159830  1.0  0.0922
  C  C261  1  0.901770  0.427630  0.107930  1.0  0.1584
  C  C262  1  0.817330  0.895070  0.552270  1.0  0.1087
  C  C263  1  0.823430  0.912970  0.657770  1.0  0.084
  C  C264  1  0.693230  0.821770  0.613870  1.0  0.3171
  C  C265  1  0.662230  0.789370  0.674470  1.0  -0.2349
  C  C266  1  0.584330  0.738170  0.676670  1.0  -0.1321
  C  C267  1  0.541330  0.721170  0.618970  1.0  -0.2413
  C  C268  1  0.579530  0.758370  0.562670  1.0  0.3129
  C  C269  1  0.462630  0.714870  0.493170  1.0  0.092
  C  C270  1  0.568430  0.760970  0.441270  1.0  0.1584
  C  C271  1  0.771600  0.255600  0.885600  1.0  0.1086
  C  C272  1  0.753700  0.243800  0.991100  1.0  0.085
  C  C273  1  0.844900  0.204800  0.947200  1.0  0.3174
  C  C274  1  0.877300  0.206200  0.007800  1.0  -0.236
  C  C275  1  0.928500  0.179500  0.010000  1.0  -0.1285
  C  C276  1  0.945500  0.153500  0.952300  1.0  -0.2407
  C  C277  1  0.908300  0.154500  0.896000  1.0  0.3135
  C  C278  1  0.951800  0.081100  0.826500  1.0  0.0934
  C  C279  1  0.905700  0.140800  0.774600  1.0  0.1587
  C  C280  1  0.438270  0.588930  0.218930  1.0  0.1086
  C  C281  1  0.420370  0.577130  0.324430  1.0  0.085
  C  C282  1  0.511570  0.538130  0.280530  1.0  0.3173
  C  C283  1  0.543970  0.539530  0.341130  1.0  -0.2358
  C  C284  1  0.595170  0.512830  0.343330  1.0  -0.1285
  C  C285  1  0.612170  0.486830  0.285630  1.0  -0.2407
  C  C286  1  0.574970  0.487830  0.229330  1.0  0.3135
  C  C287  1  0.618470  0.414430  0.159830  1.0  0.0934
  C  C288  1  0.572370  0.474130  0.107930  1.0  0.1587
  C  C289  1  0.104930  0.922270  0.552270  1.0  0.1086
  C  C290  1  0.087030  0.910470  0.657770  1.0  0.085
  C  C291  1  0.178230  0.871470  0.613870  1.0  0.3174
  C  C292  1  0.210630  0.872870  0.674470  1.0  -0.236
  C  C293  1  0.261830  0.846170  0.676670  1.0  -0.1285
  C  C294  1  0.278830  0.820170  0.618970  1.0  -0.2407
  C  C295  1  0.241630  0.821170  0.562670  1.0  0.3136
  C  C296  1  0.285130  0.747770  0.493170  1.0  0.0932
  C  C297  1  0.239030  0.807470  0.441270  1.0  0.1587
  N  N298  1  0.280300  0.555630  0.099320  1.0  -0.2241
  N  N299  1  0.273000  0.559420  0.032130  1.0  -0.239
  N  N300  1  0.232500  0.440300  0.058540  1.0  0.0122
  N  N301  1  0.179500  0.320900  0.108170  1.0  -0.4314
  N  N302  1  0.126800  0.205400  0.164400  1.0  0.009
  N  N303  1  0.107000  0.181900  0.269800  1.0  -0.2996
  N  N304  1  0.067200  0.113500  0.235580  1.0  -0.2143
  N  N305  1  0.946970  0.888960  0.432650  1.0  -0.224
  N  N306  1  0.939670  0.892750  0.365460  1.0  -0.2392
  N  N307  1  0.899170  0.773630  0.391870  1.0  0.0122
  N  N308  1  0.846170  0.654230  0.441500  1.0  -0.4314
  N  N309  1  0.793470  0.538730  0.497730  1.0  0.009
  N  N310  1  0.773670  0.515230  0.603130  1.0  -0.2996
  N  N311  1  0.733870  0.446830  0.568910  1.0  -0.2143
  N  N312  1  0.613630  0.222300  0.765990  1.0  -0.2241
  N  N313  1  0.606330  0.226090  0.698800  1.0  -0.2392
  N  N314  1  0.565830  0.106970  0.725210  1.0  0.0122
  N  N315  1  0.512830  0.987570  0.774840  1.0  -0.4314
  N  N316  1  0.460130  0.872070  0.831070  1.0  0.009
  N  N317  1  0.440330  0.848570  0.936470  1.0  -0.2995
  N  N318  1  0.400530  0.780170  0.902250  1.0  -0.2143
  N  N319  1  0.444370  0.724670  0.099320  1.0  -0.2231
  N  N320  1  0.440580  0.713580  0.032130  1.0  -0.2368
  N  N321  1  0.559700  0.792200  0.058540  1.0  0.0114
  N  N322  1  0.679100  0.858600  0.108170  1.0  -0.4314
  N  N323  1  0.794600  0.921400  0.164400  1.0  0.0076
  N  N324  1  0.818100  0.925100  0.269800  1.0  -0.2985
  N  N325  1  0.886500  0.953700  0.235580  1.0  -0.2149
  N  N326  1  0.111040  0.058000  0.432650  1.0  -0.2231
  N  N327  1  0.107250  0.046910  0.365460  1.0  -0.2366
  N  N328  1  0.226370  0.125530  0.391870  1.0  0.0114
  N  N329  1  0.345770  0.191930  0.441500  1.0  -0.4314
  N  N330  1  0.461270  0.254730  0.497730  1.0  0.0076
  N  N331  1  0.484770  0.258430  0.603130  1.0  -0.2985
  N  N332  1  0.553170  0.287030  0.568910  1.0  -0.2149
  N  N333  1  0.777700  0.391340  0.765990  1.0  -0.2231
  N  N334  1  0.773910  0.380250  0.698800  1.0  -0.2366
  N  N335  1  0.893030  0.458870  0.725210  1.0  0.0114
  N  N336  1  0.012430  0.525270  0.774840  1.0  -0.4314
  N  N337  1  0.127930  0.588070  0.831070  1.0  0.0076
  N  N338  1  0.151430  0.591770  0.936470  1.0  -0.2985
  N  N339  1  0.219830  0.620370  0.902250  1.0  -0.2149
  N  N340  1  0.275330  0.719700  0.099320  1.0  -0.2228
  N  N341  1  0.286420  0.727000  0.032130  1.0  -0.2368
  N  N342  1  0.207800  0.767500  0.058540  1.0  0.0124
  N  N343  1  0.141400  0.820500  0.108170  1.0  -0.4317
  N  N344  1  0.078600  0.873200  0.164400  1.0  0.0071
  N  N345  1  0.074900  0.893000  0.269800  1.0  -0.2977
  N  N346  1  0.046300  0.932800  0.235580  1.0  -0.2172
  N  N347  1  0.942000  0.053030  0.432650  1.0  -0.2228
  N  N348  1  0.953090  0.060330  0.365460  1.0  -0.2368
  N  N349  1  0.874470  0.100830  0.391870  1.0  0.0124
  N  N350  1  0.808070  0.153830  0.441500  1.0  -0.4317
  N  N351  1  0.745270  0.206530  0.497730  1.0  0.0071
  N  N352  1  0.741570  0.226330  0.603130  1.0  -0.2976
  N  N353  1  0.712970  0.266130  0.568910  1.0  -0.2172
  N  N354  1  0.608660  0.386370  0.765990  1.0  -0.2228
  N  N355  1  0.619750  0.393670  0.698800  1.0  -0.2371
  N  N356  1  0.541130  0.434170  0.725210  1.0  0.0124
  N  N357  1  0.474730  0.487170  0.774840  1.0  -0.4317
  N  N358  1  0.411930  0.539870  0.831070  1.0  0.0071
  N  N359  1  0.408230  0.559670  0.936470  1.0  -0.2977
  N  N360  1  0.379630  0.599470  0.902250  1.0  -0.2172
  N  N361  1  0.719700  0.444370  0.900680  1.0  -0.2244
  N  N362  1  0.727000  0.440580  0.967870  1.0  -0.2385
  N  N363  1  0.767500  0.559700  0.941460  1.0  0.0116
  N  N364  1  0.820500  0.679100  0.891830  1.0  -0.4319
  N  N365  1  0.873200  0.794600  0.835600  1.0  0.0104
  N  N366  1  0.893000  0.818100  0.730200  1.0  -0.2962
  N  N367  1  0.932800  0.886500  0.764420  1.0  -0.2146
  N  N368  1  0.386370  0.777700  0.234010  1.0  -0.2244
  N  N369  1  0.393670  0.773910  0.301200  1.0  -0.2387
  N  N370  1  0.434170  0.893030  0.274790  1.0  0.0116
  N  N371  1  0.487170  0.012430  0.225160  1.0  -0.4319
  N  N372  1  0.539870  0.127930  0.168930  1.0  0.0104
  N  N373  1  0.559670  0.151430  0.063530  1.0  -0.2962
  N  N374  1  0.599470  0.219830  0.097750  1.0  -0.2146
  N  N375  1  0.053030  0.111040  0.567350  1.0  -0.2244
  N  N376  1  0.060330  0.107250  0.634540  1.0  -0.2387
  N  N377  1  0.100830  0.226370  0.608130  1.0  0.0116
  N  N378  1  0.153830  0.345770  0.558500  1.0  -0.4319
  N  N379  1  0.206530  0.461270  0.502270  1.0  0.0104
  N  N380  1  0.226330  0.484770  0.396870  1.0  -0.2962
  N  N381  1  0.266130  0.553170  0.431090  1.0  -0.2146
  N  N382  1  0.555630  0.275330  0.900680  1.0  -0.2225
  N  N383  1  0.559420  0.286420  0.967870  1.0  -0.2378
  N  N384  1  0.440300  0.207800  0.941460  1.0  0.0124
  N  N385  1  0.320900  0.141400  0.891830  1.0  -0.432
  N  N386  1  0.205400  0.078600  0.835600  1.0  0.0075
  N  N387  1  0.181900  0.074900  0.730200  1.0  -0.2973
  N  N388  1  0.113500  0.046300  0.764420  1.0  -0.2153
  N  N389  1  0.222300  0.608660  0.234010  1.0  -0.2225
  N  N390  1  0.226090  0.619750  0.301200  1.0  -0.2374
  N  N391  1  0.106970  0.541130  0.274790  1.0  0.0124
  N  N392  1  0.987570  0.474730  0.225160  1.0  -0.432
  N  N393  1  0.872070  0.411930  0.168930  1.0  0.0075
  N  N394  1  0.848570  0.408230  0.063530  1.0  -0.2973
  N  N395  1  0.780170  0.379630  0.097750  1.0  -0.2153
  N  N396  1  0.888960  0.942000  0.567350  1.0  -0.2225
  N  N397  1  0.892750  0.953090  0.634540  1.0  -0.2374
  N  N398  1  0.773630  0.874470  0.608130  1.0  0.0124
  N  N399  1  0.654230  0.808070  0.558500  1.0  -0.4321
  N  N400  1  0.538730  0.745270  0.502270  1.0  0.0075
  N  N401  1  0.515230  0.741570  0.396870  1.0  -0.2973
  N  N402  1  0.446830  0.712970  0.431090  1.0  -0.2153
  N  N403  1  0.724670  0.280300  0.900680  1.0  -0.2236
  N  N404  1  0.713580  0.273000  0.967870  1.0  -0.2358
  N  N405  1  0.792200  0.232500  0.941460  1.0  0.0121
  N  N406  1  0.858600  0.179500  0.891830  1.0  -0.4317
  N  N407  1  0.921400  0.126800  0.835600  1.0  0.0093
  N  N408  1  0.925100  0.107000  0.730200  1.0  -0.2956
  N  N409  1  0.953700  0.067200  0.764420  1.0  -0.2148
  N  N410  1  0.391340  0.613630  0.234010  1.0  -0.2236
  N  N411  1  0.380250  0.606330  0.301200  1.0  -0.2361
  N  N412  1  0.458870  0.565830  0.274790  1.0  0.0121
  N  N413  1  0.525270  0.512830  0.225160  1.0  -0.4317
  N  N414  1  0.588070  0.460130  0.168930  1.0  0.0093
  N  N415  1  0.591770  0.440330  0.063530  1.0  -0.2956
  N  N416  1  0.620370  0.400530  0.097750  1.0  -0.2148
  N  N417  1  0.058000  0.946970  0.567350  1.0  -0.2236
  N  N418  1  0.046910  0.939670  0.634540  1.0  -0.2358
  N  N419  1  0.125530  0.899170  0.608130  1.0  0.0121
  N  N420  1  0.191930  0.846170  0.558500  1.0  -0.4317
  N  N421  1  0.254730  0.793470  0.502270  1.0  0.0094
  N  N422  1  0.258430  0.773670  0.396870  1.0  -0.2956
  N  N423  1  0.287030  0.733870  0.431090  1.0  -0.2148
