# generated using pymatgen
data_CuH24C33(N2Cl)2
_symmetry_space_group_name_H-M   'P 1'
_cell_length_a   11.75260000
_cell_length_b   11.75260000
_cell_length_c   11.83230000
_cell_angle_alpha   91.78120000
_cell_angle_beta   91.78120000
_cell_angle_gamma   105.18700000
_symmetry_Int_Tables_number   1
_chemical_formula_structural   CuH24C33(N2Cl)2
_chemical_formula_sum   'Cu2 H48 C66 N8 Cl4'
_cell_volume   1575.17680346
_cell_formula_units_Z   2
loop_
 _symmetry_equiv_pos_site_id
 _symmetry_equiv_pos_as_xyz
  1  'x, y, z'
loop_
 _atom_site_type_symbol
 _atom_site_label
 _atom_site_symmetry_multiplicity
 _atom_site_fract_x
 _atom_site_fract_y
 _atom_site_fract_z
 _atom_site_occupancy
 _atom_site_charge
  Cu  Cu1  1  0.129450  0.731220  0.530170  1.0  0.634
  Cu  Cu2  1  0.731220  0.129450  0.030170  1.0  0.6339
  H  H3  1  0.125600  0.565400  0.725100  1.0  0.0844
  H  H4  1  0.031500  0.521900  0.893200  1.0  0.1172
  H  H5  1  0.889800  0.798200  0.850300  1.0  0.1268
  H  H6  1  0.986800  0.832600  0.682800  1.0  0.0831
  H  H7  1  0.617000  0.635800  0.088600  1.0  0.1107
  H  H8  1  0.743100  0.698900  0.942400  1.0  0.1105
  H  H9  1  0.974400  0.532000  0.075000  1.0  0.0971
  H  H10  1  0.850700  0.471900  0.224100  1.0  0.1109
  H  H11  1  0.960900  0.213700  0.932000  1.0  0.0863
  H  H12  1  0.157900  0.304300  0.972200  1.0  0.1297
  H  H13  1  0.077100  0.355700  0.297300  1.0  0.1267
  H  H14  1  0.881700  0.266500  0.246400  1.0  0.0772
  H  H15  1  0.460200  0.548800  0.355800  1.0  0.1141
  H  H16  1  0.258000  0.479400  0.314300  1.0  0.113
  H  H17  1  0.325900  0.303100  0.034400  1.0  0.118
  H  H18  1  0.528100  0.372500  0.076600  1.0  0.1194
  H  H19  1  0.791800  0.372000  0.938700  1.0  0.0736
  H  H20  1  0.783000  0.461800  0.767800  1.0  0.1264
  H  H21  1  0.702300  0.137500  0.612000  1.0  0.118
  H  H22  1  0.711600  0.057000  0.786600  1.0  0.0889
  H  H23  1  0.530900  0.302700  0.341400  1.0  0.1164
  H  H24  1  0.574000  0.226000  0.511700  1.0  0.0918
  H  H25  1  0.857400  0.506800  0.571000  1.0  0.1014
  H  H26  1  0.815300  0.585500  0.399900  1.0  0.1161
  H  H27  1  0.565400  0.125600  0.225100  1.0  0.0841
  H  H28  1  0.521900  0.031500  0.393200  1.0  0.1172
  H  H29  1  0.798200  0.889800  0.350300  1.0  0.1274
  H  H30  1  0.832600  0.986800  0.182800  1.0  0.0837
  H  H31  1  0.635800  0.617000  0.588600  1.0  0.111
  H  H32  1  0.698900  0.743100  0.442400  1.0  0.1103
  H  H33  1  0.532000  0.974400  0.575000  1.0  0.0975
  H  H34  1  0.471900  0.850700  0.724100  1.0  0.1108
  H  H35  1  0.213700  0.960900  0.432000  1.0  0.087
  H  H36  1  0.304300  0.157900  0.472200  1.0  0.1304
  H  H37  1  0.355700  0.077100  0.797300  1.0  0.1268
  H  H38  1  0.266500  0.881700  0.746400  1.0  0.0792
  H  H39  1  0.548800  0.460200  0.855800  1.0  0.1154
  H  H40  1  0.479400  0.258000  0.814300  1.0  0.113
  H  H41  1  0.303100  0.325900  0.534400  1.0  0.1184
  H  H42  1  0.372500  0.528100  0.576600  1.0  0.1202
  H  H43  1  0.372000  0.791800  0.438700  1.0  0.0734
  H  H44  1  0.461800  0.783000  0.267800  1.0  0.1266
  H  H45  1  0.137500  0.702300  0.112000  1.0  0.1167
  H  H46  1  0.057000  0.711600  0.286600  1.0  0.0862
  H  H47  1  0.302700  0.530900  0.841400  1.0  0.1162
  H  H48  1  0.226000  0.574000  0.011700  1.0  0.0913
  H  H49  1  0.506800  0.857400  0.071000  1.0  0.1013
  H  H50  1  0.585500  0.815300  0.899900  1.0  0.1144
  C  C51  1  0.075580  0.612000  0.750160  1.0  0.1641
  C  C52  1  0.019470  0.585410  0.850920  1.0  -0.2068
  C  C53  1  0.944680  0.652100  0.890670  1.0  0.1035
  C  C54  1  0.936000  0.747540  0.825700  1.0  -0.2076
  C  C55  1  0.994810  0.767910  0.725600  1.0  0.1636
  C  C56  1  0.718800  0.543960  0.170210  1.0  0.1755
  C  C57  1  0.689180  0.613840  0.085800  1.0  -0.1857
  C  C58  1  0.764590  0.651210  0.998300  1.0  -0.08
  C  C59  1  0.871740  0.620140  0.990660  1.0  -0.0145
  C  C60  1  0.901650  0.552970  0.077130  1.0  -0.0823
  C  C61  1  0.827470  0.516070  0.166050  1.0  -0.1804
  C  C62  1  0.984960  0.242860  0.007120  1.0  0.1575
  C  C63  1  0.103350  0.295650  0.030940  1.0  -0.2085
  C  C64  1  0.143160  0.336480  0.141500  1.0  0.105
  C  C65  1  0.056070  0.326310  0.221720  1.0  -0.1868
  C  C66  1  0.938920  0.273100  0.190320  1.0  0.1606
  C  C67  1  0.513510  0.466830  0.220540  1.0  0.1554
  C  C68  1  0.432670  0.498690  0.290670  1.0  -0.1655
  C  C69  1  0.312360  0.457660  0.265850  1.0  -0.0898
  C  C70  1  0.270620  0.384020  0.169270  1.0  -0.0184
  C  C71  1  0.352850  0.353070  0.099780  1.0  -0.099
  C  C72  1  0.473390  0.394090  0.124800  1.0  -0.1414
  C  C73  1  0.772390  0.323890  0.871250  1.0  0.1605
  C  C74  1  0.767090  0.378370  0.769400  1.0  -0.2029
  C  C75  1  0.738110  0.308950  0.669310  1.0  0.1295
  C  C76  1  0.719510  0.187810  0.678170  1.0  -0.2114
  C  C77  1  0.725910  0.140150  0.782700  1.0  0.1689
  C  C78  1  0.668250  0.452530  0.354340  1.0  0.156
  C  C79  1  0.596720  0.344580  0.387980  1.0  -0.1654
  C  C80  1  0.622560  0.299340  0.489460  1.0  -0.1092
  C  C81  1  0.718700  0.359400  0.559890  1.0  -0.0015
  C  C82  1  0.790780  0.465840  0.524880  1.0  -0.0763
  C  C83  1  0.765990  0.512830  0.422740  1.0  -0.1622
  C  C84  1  0.612000  0.075580  0.250160  1.0  0.1655
  C  C85  1  0.585410  0.019470  0.350920  1.0  -0.2066
  C  C86  1  0.652100  0.944680  0.390670  1.0  0.1017
  C  C87  1  0.747540  0.936000  0.325700  1.0  -0.204
  C  C88  1  0.767910  0.994810  0.225600  1.0  0.167
  C  C89  1  0.543960  0.718800  0.670210  1.0  0.1756
  C  C90  1  0.613840  0.689180  0.585800  1.0  -0.1838
  C  C91  1  0.651210  0.764590  0.498300  1.0  -0.0795
  C  C92  1  0.620140  0.871740  0.490660  1.0  -0.0152
  C  C93  1  0.552970  0.901650  0.577130  1.0  -0.0774
  C  C94  1  0.516070  0.827470  0.666050  1.0  -0.1814
  C  C95  1  0.242860  0.984960  0.507120  1.0  0.1579
  C  C96  1  0.295650  0.103350  0.530940  1.0  -0.2059
  C  C97  1  0.336480  0.143160  0.641500  1.0  0.1055
  C  C98  1  0.326310  0.056070  0.721720  1.0  -0.1847
  C  C99  1  0.273100  0.938920  0.690320  1.0  0.161
  C  C100  1  0.466830  0.513510  0.720540  1.0  0.1544
  C  C101  1  0.498690  0.432670  0.790670  1.0  -0.1668
  C  C102  1  0.457660  0.312360  0.765850  1.0  -0.0912
  C  C103  1  0.384020  0.270620  0.669270  1.0  -0.021
  C  C104  1  0.353070  0.352850  0.599780  1.0  -0.0989
  C  C105  1  0.394090  0.473390  0.624800  1.0  -0.1411
  C  C106  1  0.323890  0.772390  0.371250  1.0  0.1595
  C  C107  1  0.378370  0.767090  0.269400  1.0  -0.2054
  C  C108  1  0.308950  0.738110  0.169310  1.0  0.1278
  C  C109  1  0.187810  0.719510  0.178170  1.0  -0.2142
  C  C110  1  0.140150  0.725910  0.282700  1.0  0.1715
  C  C111  1  0.452530  0.668250  0.854340  1.0  0.156
  C  C112  1  0.344580  0.596720  0.887980  1.0  -0.1678
  C  C113  1  0.299340  0.622560  0.989460  1.0  -0.1079
  C  C114  1  0.359400  0.718700  0.059890  1.0  -0.0036
  C  C115  1  0.465840  0.790780  0.024880  1.0  -0.0809
  C  C116  1  0.512830  0.765990  0.922740  1.0  -0.1642
  N  N117  1  0.062480  0.701040  0.685930  1.0  -0.3002
  N  N118  1  0.902030  0.230630  0.085240  1.0  -0.3309
  N  N119  1  0.751480  0.206840  0.878960  1.0  -0.2714
  N  N120  1  0.636760  0.501740  0.253570  1.0  -0.1529
  N  N121  1  0.701040  0.062480  0.185930  1.0  -0.301
  N  N122  1  0.230630  0.902030  0.585240  1.0  -0.3292
  N  N123  1  0.206840  0.751480  0.378960  1.0  -0.2689
  N  N124  1  0.501740  0.636760  0.753570  1.0  -0.1522
  Cl  Cl125  1  0.115700  0.533820  0.495370  1.0  -0.5317
  Cl  Cl126  1  0.964710  0.804530  0.455940  1.0  -0.6089
  Cl  Cl127  1  0.533820  0.115700  0.995370  1.0  -0.5321
  Cl  Cl128  1  0.804530  0.964710  0.955940  1.0  -0.6103
