# generated using pymatgen
data_CoAgH30(C14N3)3
_symmetry_space_group_name_H-M   'P 1'
_cell_length_a   33.41000000
_cell_length_b   26.93200000
_cell_length_c   12.36500000
_cell_angle_alpha   90.00000000
_cell_angle_beta   91.53300000
_cell_angle_gamma   90.00000000
_symmetry_Int_Tables_number   1
_chemical_formula_structural   CoAgH30(C14N3)3
_chemical_formula_sum   'Co8 Ag8 H240 C336 N72'
_cell_volume   11122.02156045
_cell_formula_units_Z   8
loop_
 _symmetry_equiv_pos_site_id
 _symmetry_equiv_pos_as_xyz
  1  'x, y, z'
loop_
 _atom_site_type_symbol
 _atom_site_label
 _atom_site_symmetry_multiplicity
 _atom_site_fract_x
 _atom_site_fract_y
 _atom_site_fract_z
 _atom_site_occupancy
 _atom_site_charge
  Co  Co1  1  0.386710  0.430140  0.468200  1.0  0.1954
  Co  Co2  1  0.886160  0.432240  0.518140  1.0  0.337
  Co  Co3  1  0.613290  0.930140  0.031800  1.0  0.1964
  Co  Co4  1  0.113840  0.932240  0.981860  1.0  0.3357
  Co  Co5  1  0.613290  0.569860  0.531800  1.0  0.1962
  Co  Co6  1  0.113840  0.567760  0.481860  1.0  0.335
  Co  Co7  1  0.386710  0.069860  0.968200  1.0  0.1952
  Co  Co8  1  0.886160  0.067760  0.018140  1.0  0.3362
  Ag  Ag9  1  0.638570  0.280530  0.221890  1.0  0.2554
  Ag  Ag10  1  0.142680  0.277520  0.747920  1.0  0.2599
  Ag  Ag11  1  0.361430  0.780530  0.278110  1.0  0.2565
  Ag  Ag12  1  0.857320  0.777520  0.752080  1.0  0.2584
  Ag  Ag13  1  0.361430  0.719470  0.778110  1.0  0.2563
  Ag  Ag14  1  0.857320  0.722480  0.252080  1.0  0.2579
  Ag  Ag15  1  0.638570  0.219470  0.721890  1.0  0.2553
  Ag  Ag16  1  0.142680  0.222480  0.247920  1.0  0.2595
  H  H17  1  0.439000  0.491900  0.631800  1.0  0.0996
  H  H18  1  0.512300  0.483900  0.660200  1.0  0.1124
  H  H19  1  0.536500  0.418800  0.532800  1.0  0.1256
  H  H20  1  0.454000  0.294000  0.257100  1.0  0.1209
  H  H21  1  0.380700  0.280500  0.229100  1.0  0.1128
  H  H22  1  0.345600  0.348500  0.333700  1.0  0.0928
  H  H23  1  0.505800  0.283200  0.430900  1.0  0.1273
  H  H24  1  0.564800  0.252500  0.360600  1.0  0.0894
  H  H25  1  0.530700  0.415600  0.288400  1.0  0.135
  H  H26  1  0.588800  0.380000  0.227500  1.0  0.0786
  H  H27  1  0.644200  0.953700  0.800900  1.0  0.0934
  H  H28  1  0.665600  0.037500  0.733200  1.0  0.1231
  H  H29  1  0.659800  0.096500  0.890100  1.0  0.1189
  H  H30  1  0.600700  0.073900  0.292900  1.0  0.1377
  H  H31  1  0.571500  0.999300  0.386300  1.0  0.1172
  H  H32  1  0.577100  0.928400  0.262800  1.0  0.0898
  H  H33  1  0.678100  0.096800  0.212200  1.0  0.0973
  H  H34  1  0.686500  0.179300  0.254700  1.0  0.0952
  H  H35  1  0.594700  0.134500  0.986300  1.0  0.0943
  H  H36  1  0.603000  0.216600  0.035600  1.0  0.092
  H  H37  1  0.332000  0.465300  0.273800  1.0  0.0921
  H  H38  1  0.256900  0.453900  0.259400  1.0  0.1267
  H  H39  1  0.237000  0.405600  0.427000  1.0  0.1338
  H  H40  1  0.326800  0.318600  0.746300  1.0  0.1213
  H  H41  1  0.400400  0.315500  0.782700  1.0  0.1162
  H  H42  1  0.432400  0.371400  0.647200  1.0  0.1007
  H  H43  1  0.267700  0.392400  0.746800  1.0  0.1324
  H  H44  1  0.210900  0.353400  0.812400  1.0  0.0841
  H  H45  1  0.252900  0.310500  0.472900  1.0  0.1312
  H  H46  1  0.198300  0.272000  0.550300  1.0  0.0767
  H  H47  1  0.927700  0.422300  0.749400  1.0  0.1027
  H  H48  1  0.934000  0.490800  0.883500  1.0  0.1139
  H  H49  1  0.903300  0.567100  0.798800  1.0  0.1323
  H  H50  1  0.839200  0.602500  0.399600  1.0  0.1218
  H  H51  1  0.827100  0.547700  0.240100  1.0  0.1181
  H  H52  1  0.854200  0.464100  0.286800  1.0  0.0994
  H  H53  1  0.824800  0.591700  0.725300  1.0  0.1287
  H  H54  1  0.817500  0.675000  0.771300  1.0  0.0568
  H  H55  1  0.907500  0.636600  0.510000  1.0  0.1151
  H  H56  1  0.894200  0.718200  0.563300  1.0  0.0817
  H  H57  1  0.926300  0.375400  0.330300  1.0  0.0967
  H  H58  1  0.888600  0.323100  0.190600  1.0  0.1211
  H  H59  1  0.816400  0.327000  0.236100  1.0  0.1141
  H  H60  1  0.736700  0.415500  0.558600  1.0  0.1153
  H  H61  1  0.761600  0.453900  0.731800  1.0  0.12
  H  H62  1  0.836200  0.460000  0.721800  1.0  0.0903
  H  H63  1  0.750500  0.319600  0.495700  1.0  0.1325
  H  H64  1  0.691700  0.286800  0.420600  1.0  0.0771
  H  H65  1  0.758800  0.407600  0.229900  1.0  0.1333
  H  H66  1  0.700000  0.370900  0.163800  1.0  0.0855
  H  H67  1  0.935500  0.495000  0.357400  1.0  0.0986
  H  H68  1  0.009800  0.487200  0.329200  1.0  0.11
  H  H69  1  0.035000  0.423300  0.457300  1.0  0.1119
  H  H70  1  0.955900  0.289100  0.708200  1.0  0.1153
  H  H71  1  0.883800  0.276400  0.736600  1.0  0.1109
  H  H72  1  0.846700  0.347600  0.645500  1.0  0.1008
  H  H73  1  0.033300  0.413100  0.692200  1.0  0.1355
  H  H74  1  0.092400  0.376100  0.756600  1.0  0.0741
  H  H75  1  0.006100  0.283800  0.536600  1.0  0.131
  H  H76  1  0.065200  0.251400  0.608600  1.0  0.0855
  H  H77  1  0.561000  0.991900  0.868200  1.0  0.0997
  H  H78  1  0.487700  0.983900  0.839800  1.0  0.1124
  H  H79  1  0.463500  0.918800  0.967200  1.0  0.1245
  H  H80  1  0.546000  0.794000  0.242900  1.0  0.1217
  H  H81  1  0.619300  0.780500  0.270900  1.0  0.1131
  H  H82  1  0.654400  0.848500  0.166300  1.0  0.0935
  H  H83  1  0.494200  0.783200  0.069100  1.0  0.1264
  H  H84  1  0.435200  0.752500  0.139400  1.0  0.089
  H  H85  1  0.469300  0.915600  0.211600  1.0  0.1336
  H  H86  1  0.411200  0.880000  0.272500  1.0  0.0782
  H  H87  1  0.355800  0.453700  0.699100  1.0  0.0931
  H  H88  1  0.334400  0.537500  0.766800  1.0  0.1235
  H  H89  1  0.340200  0.596500  0.609900  1.0  0.1194
  H  H90  1  0.399300  0.573900  0.207100  1.0  0.1387
  H  H91  1  0.428500  0.499300  0.113700  1.0  0.1185
  H  H92  1  0.422900  0.428400  0.237200  1.0  0.0893
  H  H93  1  0.321900  0.596800  0.287800  1.0  0.0976
  H  H94  1  0.313500  0.679300  0.245300  1.0  0.0944
  H  H95  1  0.405300  0.634500  0.513700  1.0  0.0943
  H  H96  1  0.397000  0.716600  0.464400  1.0  0.092
  H  H97  1  0.668000  0.965300  0.226200  1.0  0.0924
  H  H98  1  0.743100  0.953900  0.240600  1.0  0.1277
  H  H99  1  0.763000  0.905600  0.073000  1.0  0.1339
  H  H100  1  0.673200  0.818600  0.753700  1.0  0.1211
  H  H101  1  0.599600  0.815500  0.717300  1.0  0.1158
  H  H102  1  0.567600  0.871400  0.852800  1.0  0.1002
  H  H103  1  0.732300  0.892400  0.753200  1.0  0.1339
  H  H104  1  0.789100  0.853400  0.687600  1.0  0.0848
  H  H105  1  0.747100  0.810500  0.027100  1.0  0.1315
  H  H106  1  0.801700  0.772000  0.949700  1.0  0.0765
  H  H107  1  0.072300  0.922300  0.750600  1.0  0.1035
  H  H108  1  0.066000  0.990800  0.616500  1.0  0.1139
  H  H109  1  0.096700  0.067100  0.701200  1.0  0.1331
  H  H110  1  0.160800  0.102500  0.100400  1.0  0.1219
  H  H111  1  0.172900  0.047700  0.259900  1.0  0.118
  H  H112  1  0.145800  0.964100  0.213200  1.0  0.1002
  H  H113  1  0.175200  0.091700  0.774700  1.0  0.129
  H  H114  1  0.182500  0.175000  0.728700  1.0  0.0566
  H  H115  1  0.092500  0.136600  0.990000  1.0  0.116
  H  H116  1  0.105800  0.218200  0.936700  1.0  0.0823
  H  H117  1  0.073700  0.875400  0.169700  1.0  0.0975
  H  H118  1  0.111400  0.823100  0.309400  1.0  0.1209
  H  H119  1  0.183600  0.827000  0.263900  1.0  0.1138
  H  H120  1  0.263300  0.915500  0.941400  1.0  0.1157
  H  H121  1  0.238400  0.953900  0.768200  1.0  0.1194
  H  H122  1  0.163800  0.960000  0.778200  1.0  0.0916
  H  H123  1  0.249500  0.819600  0.004300  1.0  0.1324
  H  H124  1  0.308300  0.786800  0.079400  1.0  0.0767
  H  H125  1  0.241200  0.907600  0.270100  1.0  0.132
  H  H126  1  0.300000  0.870900  0.336200  1.0  0.0852
  H  H127  1  0.064500  0.995000  0.142600  1.0  0.0991
  H  H128  1  0.990200  0.987200  0.170800  1.0  0.1109
  H  H129  1  0.965000  0.923300  0.042700  1.0  0.1117
  H  H130  1  0.044100  0.789100  0.791800  1.0  0.1146
  H  H131  1  0.116200  0.776400  0.763400  1.0  0.1104
  H  H132  1  0.153300  0.847600  0.854500  1.0  0.0997
  H  H133  1  0.966700  0.913100  0.807800  1.0  0.1369
  H  H134  1  0.907600  0.876100  0.743400  1.0  0.0755
  H  H135  1  0.993900  0.783800  0.963400  1.0  0.1316
  H  H136  1  0.934800  0.751400  0.891400  1.0  0.0855
  H  H137  1  0.561000  0.508100  0.368200  1.0  0.1
  H  H138  1  0.487700  0.516100  0.339800  1.0  0.1132
  H  H139  1  0.463500  0.581200  0.467200  1.0  0.1252
  H  H140  1  0.546000  0.706000  0.742900  1.0  0.1219
  H  H141  1  0.619300  0.719500  0.770900  1.0  0.1122
  H  H142  1  0.654400  0.651500  0.666300  1.0  0.0935
  H  H143  1  0.494200  0.716800  0.569100  1.0  0.1268
  H  H144  1  0.435200  0.747500  0.639400  1.0  0.0886
  H  H145  1  0.469300  0.584400  0.711600  1.0  0.134
  H  H146  1  0.411200  0.620000  0.772500  1.0  0.0782
  H  H147  1  0.355800  0.046300  0.199100  1.0  0.0928
  H  H148  1  0.334400  0.962500  0.266800  1.0  0.1236
  H  H149  1  0.340200  0.903500  0.109900  1.0  0.1197
  H  H150  1  0.399300  0.926100  0.707100  1.0  0.1376
  H  H151  1  0.428500  0.000700  0.613700  1.0  0.1183
  H  H152  1  0.422900  0.071600  0.737200  1.0  0.0898
  H  H153  1  0.321900  0.903200  0.787800  1.0  0.0978
  H  H154  1  0.313500  0.820700  0.745300  1.0  0.0941
  H  H155  1  0.405300  0.865500  0.013700  1.0  0.0943
  H  H156  1  0.397000  0.783400  0.964400  1.0  0.0936
  H  H157  1  0.668000  0.534700  0.726200  1.0  0.0927
  H  H158  1  0.743100  0.546100  0.740600  1.0  0.1276
  H  H159  1  0.763000  0.594400  0.573000  1.0  0.134
  H  H160  1  0.673200  0.681400  0.253700  1.0  0.1215
  H  H161  1  0.599600  0.684500  0.217300  1.0  0.116
  H  H162  1  0.567600  0.628600  0.352800  1.0  0.1006
  H  H163  1  0.732300  0.607600  0.253200  1.0  0.1329
  H  H164  1  0.789100  0.646600  0.187600  1.0  0.0846
  H  H165  1  0.747100  0.689500  0.527100  1.0  0.1313
  H  H166  1  0.801700  0.728000  0.449700  1.0  0.0763
  H  H167  1  0.072300  0.577700  0.250600  1.0  0.1038
  H  H168  1  0.066000  0.509200  0.116500  1.0  0.114
  H  H169  1  0.096700  0.432900  0.201200  1.0  0.132
  H  H170  1  0.160800  0.397500  0.600400  1.0  0.1222
  H  H171  1  0.172900  0.452300  0.759900  1.0  0.1179
  H  H172  1  0.145800  0.535900  0.713200  1.0  0.0999
  H  H173  1  0.175200  0.408300  0.274700  1.0  0.1283
  H  H174  1  0.182500  0.325000  0.228700  1.0  0.0563
  H  H175  1  0.092500  0.363400  0.490000  1.0  0.1163
  H  H176  1  0.105800  0.281800  0.436700  1.0  0.0827
  H  H177  1  0.073700  0.624600  0.669700  1.0  0.0969
  H  H178  1  0.111400  0.676900  0.809400  1.0  0.1206
  H  H179  1  0.183600  0.673000  0.763900  1.0  0.1137
  H  H180  1  0.263300  0.584500  0.441400  1.0  0.1162
  H  H181  1  0.238400  0.546100  0.268200  1.0  0.1193
  H  H182  1  0.163800  0.540000  0.278200  1.0  0.091
  H  H183  1  0.249500  0.680400  0.504300  1.0  0.133
  H  H184  1  0.308300  0.713200  0.579400  1.0  0.077
  H  H185  1  0.241200  0.592400  0.770100  1.0  0.1317
  H  H186  1  0.300000  0.629100  0.836200  1.0  0.0856
  H  H187  1  0.064500  0.505000  0.642600  1.0  0.0975
  H  H188  1  0.990200  0.512800  0.670800  1.0  0.1112
  H  H189  1  0.965000  0.576700  0.542700  1.0  0.1114
  H  H190  1  0.044100  0.710900  0.291800  1.0  0.1152
  H  H191  1  0.116200  0.723600  0.263400  1.0  0.1109
  H  H192  1  0.153300  0.652400  0.354500  1.0  0.1008
  H  H193  1  0.966700  0.586900  0.307800  1.0  0.1369
  H  H194  1  0.907600  0.623900  0.243400  1.0  0.0751
  H  H195  1  0.993900  0.716200  0.463400  1.0  0.1311
  H  H196  1  0.934800  0.748600  0.391400  1.0  0.0852
  H  H197  1  0.439000  0.008100  0.131800  1.0  0.0993
  H  H198  1  0.512300  0.016100  0.160200  1.0  0.1127
  H  H199  1  0.536500  0.081200  0.032800  1.0  0.1253
  H  H200  1  0.454000  0.206000  0.757100  1.0  0.1213
  H  H201  1  0.380700  0.219500  0.729100  1.0  0.1126
  H  H202  1  0.345600  0.151500  0.833700  1.0  0.0931
  H  H203  1  0.505800  0.216800  0.930900  1.0  0.1273
  H  H204  1  0.564800  0.247500  0.860600  1.0  0.0878
  H  H205  1  0.530700  0.084400  0.788400  1.0  0.1348
  H  H206  1  0.588800  0.120000  0.727500  1.0  0.0783
  H  H207  1  0.644200  0.546300  0.300900  1.0  0.0931
  H  H208  1  0.665600  0.462500  0.233200  1.0  0.1231
  H  H209  1  0.659800  0.403500  0.390100  1.0  0.1189
  H  H210  1  0.600700  0.426100  0.792900  1.0  0.1376
  H  H211  1  0.571500  0.500700  0.886300  1.0  0.1171
  H  H212  1  0.577100  0.571600  0.762800  1.0  0.0897
  H  H213  1  0.678100  0.403200  0.712200  1.0  0.0965
  H  H214  1  0.686500  0.320700  0.754700  1.0  0.0955
  H  H215  1  0.594700  0.365500  0.486300  1.0  0.0941
  H  H216  1  0.603000  0.283400  0.535600  1.0  0.0932
  H  H217  1  0.332000  0.034700  0.773800  1.0  0.0922
  H  H218  1  0.256900  0.046100  0.759400  1.0  0.1263
  H  H219  1  0.237000  0.094400  0.927000  1.0  0.1339
  H  H220  1  0.326800  0.181400  0.246300  1.0  0.1217
  H  H221  1  0.400400  0.184500  0.282700  1.0  0.1167
  H  H222  1  0.432400  0.128600  0.147200  1.0  0.1006
  H  H223  1  0.267700  0.107600  0.246800  1.0  0.1323
  H  H224  1  0.210900  0.146600  0.312400  1.0  0.0841
  H  H225  1  0.252900  0.189500  0.972900  1.0  0.1309
  H  H226  1  0.198300  0.228000  0.050300  1.0  0.0776
  H  H227  1  0.927700  0.077700  0.249400  1.0  0.1029
  H  H228  1  0.934000  0.009200  0.383500  1.0  0.1136
  H  H229  1  0.903300  0.932900  0.298800  1.0  0.1323
  H  H230  1  0.839200  0.897500  0.899600  1.0  0.1217
  H  H231  1  0.827100  0.952300  0.740100  1.0  0.118
  H  H232  1  0.854200  0.035900  0.786800  1.0  0.0989
  H  H233  1  0.824800  0.908300  0.225300  1.0  0.128
  H  H234  1  0.817500  0.825000  0.271300  1.0  0.0569
  H  H235  1  0.907500  0.863400  0.010000  1.0  0.1154
  H  H236  1  0.894200  0.781800  0.063300  1.0  0.0835
  H  H237  1  0.926300  0.124600  0.830300  1.0  0.0969
  H  H238  1  0.888600  0.176900  0.690600  1.0  0.1211
  H  H239  1  0.816400  0.173000  0.736100  1.0  0.1145
  H  H240  1  0.736700  0.084500  0.058600  1.0  0.1155
  H  H241  1  0.761600  0.046100  0.231800  1.0  0.1201
  H  H242  1  0.836200  0.040000  0.221800  1.0  0.0904
  H  H243  1  0.750500  0.180400  0.995700  1.0  0.1329
  H  H244  1  0.691700  0.213200  0.920600  1.0  0.0771
  H  H245  1  0.758800  0.092400  0.729900  1.0  0.1324
  H  H246  1  0.700000  0.129100  0.663800  1.0  0.0856
  H  H247  1  0.935500  0.005000  0.857400  1.0  0.097
  H  H248  1  0.009800  0.012800  0.829200  1.0  0.1107
  H  H249  1  0.035000  0.076700  0.957300  1.0  0.112
  H  H250  1  0.955900  0.210900  0.208200  1.0  0.1151
  H  H251  1  0.883800  0.223600  0.236600  1.0  0.111
  H  H252  1  0.846700  0.152400  0.145500  1.0  0.1009
  H  H253  1  0.033300  0.086900  0.192200  1.0  0.1355
  H  H254  1  0.092400  0.123900  0.256600  1.0  0.0743
  H  H255  1  0.006100  0.216200  0.036600  1.0  0.1318
  H  H256  1  0.065200  0.248600  0.108600  1.0  0.0848
  C  C257  1  0.455420  0.469500  0.593600  1.0  0.0399
  C  C258  1  0.496330  0.465400  0.609800  1.0  -0.0673
  C  C259  1  0.509740  0.429900  0.539900  1.0  -0.1828
  C  C260  1  0.474910  0.413000  0.479700  1.0  0.122
  C  C261  1  0.472300  0.373800  0.404900  1.0  -0.0835
  C  C262  1  0.437420  0.353900  0.359300  1.0  0.1571
  C  C263  1  0.433000  0.312800  0.287700  1.0  -0.1784
  C  C264  1  0.393300  0.305700  0.271500  1.0  -0.1562
  C  C265  1  0.373800  0.344200  0.331900  1.0  0.0346
  C  C266  1  0.510700  0.353200  0.365000  1.0  0.0794
  C  C267  1  0.522020  0.303800  0.387700  1.0  -0.1887
  C  C268  1  0.557290  0.285900  0.345600  1.0  0.1378
  C  C269  1  0.536670  0.381800  0.304300  1.0  -0.1604
  C  C270  1  0.571000  0.360200  0.267900  1.0  0.162
  C  C271  1  0.643300  0.983400  0.842100  1.0  0.0417
  C  C272  1  0.656400  0.030100  0.803400  1.0  -0.1333
  C  C273  1  0.652700  0.062400  0.888800  1.0  -0.1841
  C  C274  1  0.636000  0.034300  0.976100  1.0  0.1489
  C  C275  1  0.625500  0.051500  0.077000  1.0  -0.0305
  C  C276  1  0.608670  0.024800  0.156700  1.0  0.1259
  C  C277  1  0.597700  0.041400  0.264100  1.0  -0.1735
  C  C278  1  0.582200  0.000200  0.315900  1.0  -0.082
  C  C279  1  0.585300  0.961100  0.245500  1.0  0.037
  C  C280  1  0.633500  0.105300  0.101600  1.0  0.0735
  C  C281  1  0.661700  0.120800  0.176400  1.0  -0.1444
  C  C282  1  0.667000  0.170200  0.201300  1.0  0.1184
  C  C283  1  0.612600  0.142900  0.044400  1.0  -0.1735
  C  C284  1  0.618200  0.191800  0.072400  1.0  0.1417
  C  C285  1  0.316500  0.448500  0.325600  1.0  -0.0042
  C  C286  1  0.274100  0.442300  0.316200  1.0  -0.1701
  C  C287  1  0.263200  0.415400  0.408200  1.0  -0.1616
  C  C288  1  0.299850  0.405800  0.467700  1.0  0.2012
  C  C289  1  0.303850  0.377400  0.561000  1.0  -0.0978
  C  C290  1  0.340620  0.365800  0.613000  1.0  0.2169
  C  C291  1  0.346800  0.335000  0.706600  1.0  -0.1864
  C  C292  1  0.386800  0.333800  0.727300  1.0  -0.0963
  C  C293  1  0.404480  0.365100  0.651000  1.0  0.0134
  C  C294  1  0.266840  0.354100  0.605300  1.0  0.059
  C  C295  1  0.253900  0.367900  0.704900  1.0  -0.1991
  C  C296  1  0.219600  0.344700  0.742400  1.0  0.1361
  C  C297  1  0.245100  0.319200  0.543800  1.0  -0.1912
  C  C298  1  0.211870  0.297600  0.589600  1.0  0.1484
  C  C299  1  0.918980  0.455400  0.737500  1.0  0.0101
  C  C300  1  0.922400  0.493300  0.812800  1.0  -0.0855
  C  C301  1  0.905900  0.535400  0.765900  1.0  -0.1821
  C  C302  1  0.893320  0.521900  0.658100  1.0  0.1844
  C  C303  1  0.875000  0.552300  0.581600  1.0  -0.0978
  C  C304  1  0.863390  0.538000  0.476700  1.0  0.1613
  C  C305  1  0.845530  0.568200  0.394500  1.0  -0.1768
  C  C306  1  0.839340  0.538400  0.307300  1.0  -0.1076
  C  C307  1  0.854270  0.491700  0.334500  1.0  0.0114
  C  C308  1  0.867060  0.604600  0.614600  1.0  0.0762
  C  C309  1  0.840200  0.616500  0.690900  1.0  -0.2046
  C  C310  1  0.836020  0.667000  0.717100  1.0  0.172
  C  C311  1  0.888600  0.643400  0.564000  1.0  -0.1848
  C  C312  1  0.880590  0.691700  0.597300  1.0  0.1501
  C  C313  1  0.898150  0.370500  0.327200  1.0  -0.0051
  C  C314  1  0.877200  0.341000  0.248500  1.0  -0.1584
  C  C315  1  0.837700  0.343700  0.272900  1.0  -0.1016
  C  C316  1  0.834140  0.375100  0.360700  1.0  0.1765
  C  C317  1  0.799650  0.387300  0.418000  1.0  -0.1001
  C  C318  1  0.798080  0.411500  0.514400  1.0  0.1717
  C  C319  1  0.763800  0.422100  0.578400  1.0  -0.1638
  C  C320  1  0.777300  0.443500  0.673100  1.0  -0.1159
  C  C321  1  0.819160  0.446900  0.666000  1.0  0.0505
  C  C322  1  0.761390  0.367400  0.370800  1.0  0.031
  C  C323  1  0.740800  0.330800  0.427000  1.0  -0.1973
  C  C324  1  0.705910  0.310900  0.380800  1.0  0.1519
  C  C325  1  0.745890  0.382700  0.270500  1.0  -0.2165
  C  C326  1  0.710920  0.360200  0.231600  1.0  0.1372
  C  C327  1  0.952650  0.472300  0.395000  1.0  0.0387
  C  C328  1  0.994470  0.468600  0.378800  1.0  -0.1209
  C  C329  1  0.007940  0.433600  0.447700  1.0  -0.1682
  C  C330  1  0.974240  0.414500  0.504700  1.0  0.1426
  C  C331  1  0.972920  0.374100  0.574000  1.0  -0.0848
  C  C332  1  0.938650  0.352800  0.615200  1.0  0.164
  C  C333  1  0.934700  0.309400  0.681000  1.0  -0.1765
  C  C334  1  0.895500  0.302700  0.697400  1.0  -0.1308
  C  C335  1  0.874900  0.342500  0.644900  1.0  -0.0003
  C  C336  1  0.011940  0.351000  0.614100  1.0  0.0306
  C  C337  1  0.038890  0.379400  0.675800  1.0  -0.1697
  C  C338  1  0.074330  0.357000  0.712900  1.0  0.158
  C  C339  1  0.022690  0.303100  0.584100  1.0  -0.1936
  C  C340  1  0.058320  0.284600  0.626100  1.0  0.1427
  C  C341  1  0.544580  0.969500  0.906400  1.0  0.0416
  C  C342  1  0.503670  0.965400  0.890200  1.0  -0.0694
  C  C343  1  0.490260  0.929900  0.960100  1.0  -0.183
  C  C344  1  0.525090  0.913000  0.020300  1.0  0.1223
  C  C345  1  0.527700  0.873800  0.095100  1.0  -0.0847
  C  C346  1  0.562580  0.853900  0.140700  1.0  0.1575
  C  C347  1  0.567000  0.812800  0.212300  1.0  -0.1802
  C  C348  1  0.606700  0.805700  0.228500  1.0  -0.156
  C  C349  1  0.626200  0.844200  0.168100  1.0  0.0333
  C  C350  1  0.489300  0.853200  0.135000  1.0  0.0805
  C  C351  1  0.477980  0.803800  0.112300  1.0  -0.1896
  C  C352  1  0.442710  0.785900  0.154400  1.0  0.1381
  C  C353  1  0.463330  0.881800  0.195700  1.0  -0.1634
  C  C354  1  0.429000  0.860200  0.232100  1.0  0.1605
  C  C355  1  0.356700  0.483400  0.657900  1.0  0.0396
  C  C356  1  0.343600  0.530100  0.696600  1.0  -0.1349
  C  C357  1  0.347300  0.562400  0.611200  1.0  -0.1842
  C  C358  1  0.364000  0.534300  0.523900  1.0  0.148
  C  C359  1  0.374500  0.551500  0.423000  1.0  -0.0331
  C  C360  1  0.391330  0.524800  0.343300  1.0  0.1265
  C  C361  1  0.402300  0.541400  0.235900  1.0  -0.1691
  C  C362  1  0.417800  0.500200  0.184100  1.0  -0.0822
  C  C363  1  0.414700  0.461100  0.254500  1.0  0.0355
  C  C364  1  0.366500  0.605300  0.398400  1.0  0.073
  C  C365  1  0.338300  0.620800  0.323600  1.0  -0.1426
  C  C366  1  0.333000  0.670200  0.298700  1.0  0.1199
  C  C367  1  0.387400  0.642900  0.455600  1.0  -0.1744
  C  C368  1  0.381800  0.691800  0.427600  1.0  0.1427
  C  C369  1  0.683500  0.948500  0.174400  1.0  -0.0023
  C  C370  1  0.725900  0.942300  0.183800  1.0  -0.1635
  C  C371  1  0.736800  0.915400  0.091800  1.0  -0.1628
  C  C372  1  0.700150  0.905800  0.032300  1.0  0.2024
  C  C373  1  0.696150  0.877400  0.939000  1.0  -0.098
  C  C374  1  0.659380  0.865800  0.887000  1.0  0.2183
  C  C375  1  0.653200  0.835000  0.793400  1.0  -0.1849
  C  C376  1  0.613200  0.833800  0.772700  1.0  -0.0987
  C  C377  1  0.595520  0.865100  0.849000  1.0  0.0134
  C  C378  1  0.733160  0.854100  0.894700  1.0  0.059
  C  C379  1  0.746100  0.867900  0.795100  1.0  -0.1959
  C  C380  1  0.780400  0.844700  0.757600  1.0  0.139
  C  C381  1  0.754900  0.819200  0.956200  1.0  -0.1918
  C  C382  1  0.788130  0.797600  0.910400  1.0  0.1484
  C  C383  1  0.081020  0.955400  0.762500  1.0  0.0097
  C  C384  1  0.077600  0.993300  0.687200  1.0  -0.0866
  C  C385  1  0.094100  0.035400  0.734100  1.0  -0.1777
  C  C386  1  0.106680  0.021900  0.841900  1.0  0.1848
  C  C387  1  0.125000  0.052300  0.918400  1.0  -0.0989
  C  C388  1  0.136610  0.038000  0.023300  1.0  0.1632
  C  C389  1  0.154470  0.068200  0.105500  1.0  -0.1771
  C  C390  1  0.160660  0.038400  0.192700  1.0  -0.1049
  C  C391  1  0.145730  0.991700  0.165500  1.0  0.0111
  C  C392  1  0.132940  0.104600  0.885400  1.0  0.0773
  C  C393  1  0.159800  0.116500  0.809100  1.0  -0.2012
  C  C394  1  0.163980  0.167000  0.782900  1.0  0.1716
  C  C395  1  0.111400  0.143400  0.936000  1.0  -0.1838
  C  C396  1  0.119410  0.191700  0.902700  1.0  0.1506
  C  C397  1  0.101850  0.870500  0.172800  1.0  -0.0054
  C  C398  1  0.122800  0.841000  0.251500  1.0  -0.1557
  C  C399  1  0.162300  0.843700  0.227100  1.0  -0.1005
  C  C400  1  0.165860  0.875100  0.139300  1.0  0.1782
  C  C401  1  0.200350  0.887300  0.082000  1.0  -0.0996
  C  C402  1  0.201920  0.911500  0.985600  1.0  0.171
  C  C403  1  0.236200  0.922100  0.921600  1.0  -0.1637
  C  C404  1  0.222700  0.943500  0.826900  1.0  -0.1178
  C  C405  1  0.180840  0.946900  0.834000  1.0  0.0521
  C  C406  1  0.238610  0.867400  0.129200  1.0  0.0316
  C  C407  1  0.259200  0.830800  0.073000  1.0  -0.1966
  C  C408  1  0.294090  0.810900  0.119200  1.0  0.1515
  C  C409  1  0.254110  0.882700  0.229500  1.0  -0.2216
  C  C410  1  0.289080  0.860200  0.268400  1.0  0.1384
  C  C411  1  0.047350  0.972300  0.105000  1.0  0.0372
  C  C412  1  0.005530  0.968600  0.121200  1.0  -0.118
  C  C413  1  0.992060  0.933600  0.052300  1.0  -0.1685
  C  C414  1  0.025760  0.914500  0.995300  1.0  0.142
  C  C415  1  0.027080  0.874100  0.926000  1.0  -0.0847
  C  C416  1  0.061350  0.852800  0.884800  1.0  0.1625
  C  C417  1  0.065300  0.809400  0.819000  1.0  -0.1772
  C  C418  1  0.104500  0.802700  0.802600  1.0  -0.1298
  C  C419  1  0.125100  0.842500  0.855100  1.0  -0.0004
  C  C420  1  0.988060  0.851000  0.885900  1.0  0.0298
  C  C421  1  0.961110  0.879400  0.824200  1.0  -0.1655
  C  C422  1  0.925670  0.857000  0.787100  1.0  0.1561
  C  C423  1  0.977310  0.803100  0.915900  1.0  -0.196
  C  C424  1  0.941680  0.784600  0.873900  1.0  0.1413
  C  C425  1  0.544580  0.530500  0.406400  1.0  0.041
  C  C426  1  0.503670  0.534600  0.390200  1.0  -0.069
  C  C427  1  0.490260  0.570100  0.460100  1.0  -0.1832
  C  C428  1  0.525090  0.587000  0.520300  1.0  0.1223
  C  C429  1  0.527700  0.626200  0.595100  1.0  -0.0837
  C  C430  1  0.562580  0.646100  0.640700  1.0  0.1569
  C  C431  1  0.567000  0.687200  0.712300  1.0  -0.1814
  C  C432  1  0.606700  0.694300  0.728500  1.0  -0.1542
  C  C433  1  0.626200  0.655800  0.668100  1.0  0.0329
  C  C434  1  0.489300  0.646800  0.635000  1.0  0.081
  C  C435  1  0.477980  0.696200  0.612300  1.0  -0.1888
  C  C436  1  0.442710  0.714100  0.654400  1.0  0.1402
  C  C437  1  0.463330  0.618200  0.695700  1.0  -0.162
  C  C438  1  0.429000  0.639800  0.732100  1.0  0.16
  C  C439  1  0.356700  0.016600  0.157900  1.0  0.039
  C  C440  1  0.343600  0.969900  0.196600  1.0  -0.1357
  C  C441  1  0.347300  0.937600  0.111200  1.0  -0.1858
  C  C442  1  0.364000  0.965700  0.023900  1.0  0.148
  C  C443  1  0.374500  0.948500  0.923000  1.0  -0.0329
  C  C444  1  0.391330  0.975200  0.843300  1.0  0.1256
  C  C445  1  0.402300  0.958600  0.735900  1.0  -0.1692
  C  C446  1  0.417800  0.999800  0.684100  1.0  -0.0821
  C  C447  1  0.414700  0.038900  0.754500  1.0  0.0362
  C  C448  1  0.366500  0.894700  0.898400  1.0  0.073
  C  C449  1  0.338300  0.879200  0.823600  1.0  -0.1418
  C  C450  1  0.333000  0.829800  0.798700  1.0  0.1198
  C  C451  1  0.387400  0.857100  0.955600  1.0  -0.1763
  C  C452  1  0.381800  0.808200  0.927600  1.0  0.1414
  C  C453  1  0.683500  0.551500  0.674400  1.0  -0.0011
  C  C454  1  0.725900  0.557700  0.683800  1.0  -0.1634
  C  C455  1  0.736800  0.584600  0.591800  1.0  -0.1631
  C  C456  1  0.700150  0.594200  0.532300  1.0  0.2024
  C  C457  1  0.696150  0.622600  0.439000  1.0  -0.0973
  C  C458  1  0.659380  0.634200  0.387000  1.0  0.2188
  C  C459  1  0.653200  0.665000  0.293400  1.0  -0.1849
  C  C460  1  0.613200  0.666200  0.272700  1.0  -0.0976
  C  C461  1  0.595520  0.634900  0.349000  1.0  0.0134
  C  C462  1  0.733160  0.645900  0.394700  1.0  0.0593
  C  C463  1  0.746100  0.632100  0.295100  1.0  -0.1966
  C  C464  1  0.780400  0.655300  0.257600  1.0  0.1394
  C  C465  1  0.754900  0.680800  0.456200  1.0  -0.1926
  C  C466  1  0.788130  0.702400  0.410400  1.0  0.1481
  C  C467  1  0.081020  0.544600  0.262500  1.0  0.0095
  C  C468  1  0.077600  0.506700  0.187200  1.0  -0.0867
  C  C469  1  0.094100  0.464600  0.234100  1.0  -0.1781
  C  C470  1  0.106680  0.478100  0.341900  1.0  0.1844
  C  C471  1  0.125000  0.447700  0.418400  1.0  -0.0987
  C  C472  1  0.136610  0.462000  0.523300  1.0  0.1631
  C  C473  1  0.154470  0.431800  0.605500  1.0  -0.1778
  C  C474  1  0.160660  0.461600  0.692700  1.0  -0.1045
  C  C475  1  0.145730  0.508300  0.665500  1.0  0.0111
  C  C476  1  0.132940  0.395400  0.385400  1.0  0.0775
  C  C477  1  0.159800  0.383500  0.309100  1.0  -0.2002
  C  C478  1  0.163980  0.333000  0.282900  1.0  0.1715
  C  C479  1  0.111400  0.356600  0.436000  1.0  -0.1844
  C  C480  1  0.119410  0.308300  0.402700  1.0  0.1507
  C  C481  1  0.101850  0.629500  0.672800  1.0  -0.0059
  C  C482  1  0.122800  0.659000  0.751500  1.0  -0.1578
  C  C483  1  0.162300  0.656300  0.727100  1.0  -0.1013
  C  C484  1  0.165860  0.624900  0.639300  1.0  0.1779
  C  C485  1  0.200350  0.612700  0.582000  1.0  -0.0992
  C  C486  1  0.201920  0.588500  0.485600  1.0  0.1705
  C  C487  1  0.236200  0.577900  0.421600  1.0  -0.1639
  C  C488  1  0.222700  0.556500  0.326900  1.0  -0.117
  C  C489  1  0.180840  0.553100  0.334000  1.0  0.0523
  C  C490  1  0.238610  0.632600  0.629200  1.0  0.0314
  C  C491  1  0.259200  0.669200  0.573000  1.0  -0.1976
  C  C492  1  0.294090  0.689100  0.619200  1.0  0.1512
  C  C493  1  0.254110  0.617300  0.729500  1.0  -0.2202
  C  C494  1  0.289080  0.639800  0.768400  1.0  0.1378
  C  C495  1  0.047350  0.527700  0.605000  1.0  0.0371
  C  C496  1  0.005530  0.531400  0.621200  1.0  -0.1181
  C  C497  1  0.992060  0.566400  0.552300  1.0  -0.1686
  C  C498  1  0.025760  0.585500  0.495300  1.0  0.1419
  C  C499  1  0.027080  0.625900  0.426000  1.0  -0.0839
  C  C500  1  0.061350  0.647200  0.384800  1.0  0.162
  C  C501  1  0.065300  0.690600  0.319000  1.0  -0.1804
  C  C502  1  0.104500  0.697300  0.302600  1.0  -0.1295
  C  C503  1  0.125100  0.657500  0.355100  1.0  0.0013
  C  C504  1  0.988060  0.649000  0.385900  1.0  0.0298
  C  C505  1  0.961110  0.620600  0.324200  1.0  -0.1658
  C  C506  1  0.925670  0.643000  0.287100  1.0  0.1558
  C  C507  1  0.977310  0.696900  0.415900  1.0  -0.1945
  C  C508  1  0.941680  0.715400  0.373900  1.0  0.1402
  C  C509  1  0.455420  0.030500  0.093600  1.0  0.0393
  C  C510  1  0.496330  0.034600  0.109800  1.0  -0.0675
  C  C511  1  0.509740  0.070100  0.039900  1.0  -0.1827
  C  C512  1  0.474910  0.087000  0.979700  1.0  0.1221
  C  C513  1  0.472300  0.126200  0.904900  1.0  -0.083
  C  C514  1  0.437420  0.146100  0.859300  1.0  0.1571
  C  C515  1  0.433000  0.187200  0.787700  1.0  -0.1783
  C  C516  1  0.393300  0.194300  0.771500  1.0  -0.1553
  C  C517  1  0.373800  0.155800  0.831900  1.0  0.0338
  C  C518  1  0.510700  0.146800  0.865000  1.0  0.0803
  C  C519  1  0.522020  0.196200  0.887700  1.0  -0.19
  C  C520  1  0.557290  0.214100  0.845600  1.0  0.1397
  C  C521  1  0.536670  0.118200  0.804300  1.0  -0.1609
  C  C522  1  0.571000  0.139800  0.767900  1.0  0.1613
  C  C523  1  0.643300  0.516600  0.342100  1.0  0.0415
  C  C524  1  0.656400  0.469900  0.303400  1.0  -0.1332
  C  C525  1  0.652700  0.437600  0.388800  1.0  -0.1858
  C  C526  1  0.636000  0.465700  0.476100  1.0  0.1488
  C  C527  1  0.625500  0.448500  0.577000  1.0  -0.0303
  C  C528  1  0.608670  0.475200  0.656700  1.0  0.126
  C  C529  1  0.597700  0.458600  0.764100  1.0  -0.1732
  C  C530  1  0.582200  0.499800  0.815900  1.0  -0.0817
  C  C531  1  0.585300  0.538900  0.745500  1.0  0.0371
  C  C532  1  0.633500  0.394700  0.601600  1.0  0.073
  C  C533  1  0.661700  0.379200  0.676400  1.0  -0.1444
  C  C534  1  0.667000  0.329800  0.701300  1.0  0.1197
  C  C535  1  0.612600  0.357100  0.544400  1.0  -0.1733
  C  C536  1  0.618200  0.308200  0.572400  1.0  0.1432
  C  C537  1  0.316500  0.051500  0.825600  1.0  -0.0036
  C  C538  1  0.274100  0.057700  0.816200  1.0  -0.17
  C  C539  1  0.263200  0.084600  0.908200  1.0  -0.162
  C  C540  1  0.299850  0.094200  0.967700  1.0  0.201
  C  C541  1  0.303850  0.122600  0.061000  1.0  -0.0969
  C  C542  1  0.340620  0.134200  0.113000  1.0  0.2173
  C  C543  1  0.346800  0.165000  0.206600  1.0  -0.1868
  C  C544  1  0.386800  0.166200  0.227300  1.0  -0.0969
  C  C545  1  0.404480  0.134900  0.151000  1.0  0.0136
  C  C546  1  0.266840  0.145900  0.105300  1.0  0.0586
  C  C547  1  0.253900  0.132100  0.204900  1.0  -0.1981
  C  C548  1  0.219600  0.155300  0.242400  1.0  0.1362
  C  C549  1  0.245100  0.180800  0.043800  1.0  -0.1893
  C  C550  1  0.211870  0.202400  0.089600  1.0  0.1484
  C  C551  1  0.918980  0.044600  0.237500  1.0  0.0088
  C  C552  1  0.922400  0.006700  0.312800  1.0  -0.0854
  C  C553  1  0.905900  0.964600  0.265900  1.0  -0.1814
  C  C554  1  0.893320  0.978100  0.158100  1.0  0.185
  C  C555  1  0.875000  0.947700  0.081600  1.0  -0.0977
  C  C556  1  0.863390  0.962000  0.976700  1.0  0.1614
  C  C557  1  0.845530  0.931800  0.894500  1.0  -0.1769
  C  C558  1  0.839340  0.961600  0.807300  1.0  -0.1074
  C  C559  1  0.854270  0.008300  0.834500  1.0  0.0114
  C  C560  1  0.867060  0.895400  0.114600  1.0  0.076
  C  C561  1  0.840200  0.883500  0.190900  1.0  -0.2048
  C  C562  1  0.836020  0.833000  0.217100  1.0  0.1733
  C  C563  1  0.888600  0.856600  0.064000  1.0  -0.185
  C  C564  1  0.880590  0.808300  0.097300  1.0  0.1489
  C  C565  1  0.898150  0.129500  0.827200  1.0  -0.0035
  C  C566  1  0.877200  0.159000  0.748500  1.0  -0.1575
  C  C567  1  0.837700  0.156300  0.772900  1.0  -0.1017
  C  C568  1  0.834140  0.124900  0.860700  1.0  0.1772
  C  C569  1  0.799650  0.112700  0.918000  1.0  -0.0995
  C  C570  1  0.798080  0.088500  0.014400  1.0  0.1713
  C  C571  1  0.763800  0.077900  0.078400  1.0  -0.1639
  C  C572  1  0.777300  0.056500  0.173100  1.0  -0.1155
  C  C573  1  0.819160  0.053100  0.166000  1.0  0.0501
  C  C574  1  0.761390  0.132600  0.870800  1.0  0.0304
  C  C575  1  0.740800  0.169200  0.927000  1.0  -0.1972
  C  C576  1  0.705910  0.189100  0.880800  1.0  0.1506
  C  C577  1  0.745890  0.117300  0.770500  1.0  -0.216
  C  C578  1  0.710920  0.139800  0.731600  1.0  0.1372
  C  C579  1  0.952650  0.027700  0.895000  1.0  0.0382
  C  C580  1  0.994470  0.031400  0.878800  1.0  -0.1199
  C  C581  1  0.007940  0.066400  0.947700  1.0  -0.1669
  C  C582  1  0.974240  0.085500  0.004700  1.0  0.1425
  C  C583  1  0.972920  0.125900  0.074000  1.0  -0.0843
  C  C584  1  0.938650  0.147200  0.115200  1.0  0.1633
  C  C585  1  0.934700  0.190600  0.181000  1.0  -0.178
  C  C586  1  0.895500  0.197300  0.197400  1.0  -0.1304
  C  C587  1  0.874900  0.157500  0.144900  1.0  -0.0007
  C  C588  1  0.011940  0.149000  0.114100  1.0  0.0309
  C  C589  1  0.038890  0.120600  0.175800  1.0  -0.1676
  C  C590  1  0.074330  0.143000  0.212900  1.0  0.1579
  C  C591  1  0.022690  0.196900  0.084100  1.0  -0.1949
  C  C592  1  0.058320  0.215400  0.126100  1.0  0.1425
  N  N593  1  0.441780  0.438050  0.517700  1.0  -0.3107
  N  N594  1  0.399320  0.372010  0.383100  1.0  -0.3204
  N  N595  1  0.580770  0.312980  0.286000  1.0  -0.3015
  N  N596  1  0.629760  0.985610  0.942700  1.0  -0.3432
  N  N597  1  0.600980  0.973090  0.150400  1.0  -0.3471
  N  N598  1  0.645140  0.205740  0.151800  1.0  -0.3221
  N  N599  1  0.331880  0.427540  0.417300  1.0  -0.3311
  N  N600  1  0.376610  0.384500  0.584600  1.0  -0.2654
  N  N601  1  0.198020  0.310600  0.685300  1.0  -0.3242
  N  N602  1  0.901420  0.472100  0.644600  1.0  -0.3011
  N  N603  1  0.868620  0.490700  0.435900  1.0  -0.3237
  N  N604  1  0.854700  0.702950  0.675000  1.0  -0.3119
  N  N605  1  0.872630  0.390130  0.395600  1.0  -0.3291
  N  N606  1  0.832040  0.429900  0.573000  1.0  -0.3221
  N  N607  1  0.691550  0.323930  0.284800  1.0  -0.3129
  N  N608  1  0.940180  0.440340  0.468600  1.0  -0.3373
  N  N609  1  0.900540  0.371310  0.595200  1.0  -0.3059
  N  N610  1  0.084140  0.310720  0.690500  1.0  -0.316
  N  N611  1  0.558220  0.938050  0.982300  1.0  -0.3128
  N  N612  1  0.600680  0.872010  0.116900  1.0  -0.3188
  N  N613  1  0.419230  0.812980  0.214000  1.0  -0.3026
  N  N614  1  0.370240  0.485610  0.557300  1.0  -0.3433
  N  N615  1  0.399020  0.473090  0.349600  1.0  -0.3501
  N  N616  1  0.354860  0.705740  0.348200  1.0  -0.3204
  N  N617  1  0.668120  0.927540  0.082700  1.0  -0.3313
  N  N618  1  0.623390  0.884500  0.915400  1.0  -0.2657
  N  N619  1  0.801980  0.810600  0.814700  1.0  -0.3221
  N  N620  1  0.098580  0.972100  0.855400  1.0  -0.3028
  N  N621  1  0.131380  0.990700  0.064100  1.0  -0.3234
  N  N622  1  0.145300  0.202950  0.825000  1.0  -0.3115
  N  N623  1  0.127370  0.890130  0.104400  1.0  -0.3289
  N  N624  1  0.167960  0.929900  0.927000  1.0  -0.3212
  N  N625  1  0.308450  0.823930  0.215200  1.0  -0.3104
  N  N626  1  0.059820  0.940340  0.031400  1.0  -0.3369
  N  N627  1  0.099460  0.871310  0.904800  1.0  -0.307
  N  N628  1  0.915860  0.810720  0.809500  1.0  -0.3179
  N  N629  1  0.558220  0.561950  0.482300  1.0  -0.3132
  N  N630  1  0.600680  0.627990  0.616900  1.0  -0.3204
  N  N631  1  0.419230  0.687020  0.714000  1.0  -0.3013
  N  N632  1  0.370240  0.014390  0.057300  1.0  -0.3433
  N  N633  1  0.399020  0.026910  0.849600  1.0  -0.3499
  N  N634  1  0.354860  0.794260  0.848200  1.0  -0.3229
  N  N635  1  0.668120  0.572460  0.582700  1.0  -0.3315
  N  N636  1  0.623390  0.615500  0.415400  1.0  -0.2657
  N  N637  1  0.801980  0.689400  0.314700  1.0  -0.3198
  N  N638  1  0.098580  0.527900  0.355400  1.0  -0.3022
  N  N639  1  0.131380  0.509300  0.564100  1.0  -0.3227
  N  N640  1  0.145300  0.297050  0.325000  1.0  -0.3099
  N  N641  1  0.127370  0.609870  0.604400  1.0  -0.3287
  N  N642  1  0.167960  0.570100  0.427000  1.0  -0.3215
  N  N643  1  0.308450  0.676070  0.715200  1.0  -0.312
  N  N644  1  0.059820  0.559660  0.531400  1.0  -0.337
  N  N645  1  0.099460  0.628690  0.404800  1.0  -0.3069
  N  N646  1  0.915860  0.689280  0.309500  1.0  -0.3155
  N  N647  1  0.441780  0.061950  0.017700  1.0  -0.3109
  N  N648  1  0.399320  0.127990  0.883100  1.0  -0.3203
  N  N649  1  0.580770  0.187020  0.786000  1.0  -0.3034
  N  N650  1  0.629760  0.514390  0.442700  1.0  -0.343
  N  N651  1  0.600980  0.526910  0.650400  1.0  -0.3473
  N  N652  1  0.645140  0.294260  0.651800  1.0  -0.3233
  N  N653  1  0.331880  0.072460  0.917300  1.0  -0.3316
  N  N654  1  0.376610  0.115500  0.084600  1.0  -0.2656
  N  N655  1  0.198020  0.189400  0.185300  1.0  -0.321
  N  N656  1  0.901420  0.027900  0.144600  1.0  -0.3011
  N  N657  1  0.868620  0.009300  0.935900  1.0  -0.3237
  N  N658  1  0.854700  0.797050  0.175000  1.0  -0.3102
  N  N659  1  0.872630  0.109870  0.895600  1.0  -0.3287
  N  N660  1  0.832040  0.070100  0.073000  1.0  -0.3219
  N  N661  1  0.691550  0.176070  0.784800  1.0  -0.312
  N  N662  1  0.940180  0.059660  0.968600  1.0  -0.3375
  N  N663  1  0.900540  0.128690  0.095200  1.0  -0.3069
  N  N664  1  0.084140  0.189280  0.190500  1.0  -0.3156
