# generated using pymatgen
data_CoH8C12(NO2)2
_symmetry_space_group_name_H-M   'P 1'
_cell_length_a   6.30700000
_cell_length_b   10.49190000
_cell_length_c   12.61100000
_cell_angle_alpha   90.00000000
_cell_angle_beta   90.00000000
_cell_angle_gamma   91.22700000
_symmetry_Int_Tables_number   1
_chemical_formula_structural   CoH8C12(NO2)2
_chemical_formula_sum   'Co2 H16 C24 N4 O8'
_cell_volume   834.30895620
_cell_formula_units_Z   2
loop_
 _symmetry_equiv_pos_site_id
 _symmetry_equiv_pos_as_xyz
  1  'x, y, z'
loop_
 _atom_site_type_symbol
 _atom_site_label
 _atom_site_symmetry_multiplicity
 _atom_site_fract_x
 _atom_site_fract_y
 _atom_site_fract_z
 _atom_site_occupancy
 _atom_site_charge
  Co  Co1  1  0.372000  0.259950  0.246260  1.0  0.8575
  Co  Co2  1  0.872000  0.759950  0.753740  1.0  0.8574
  H  H3  1  0.764500  0.986800  0.629800  1.0  0.083
  H  H4  1  0.886600  0.113600  0.491300  1.0  0.1152
  H  H5  1  0.424800  0.916600  0.492400  1.0  0.111
  H  H6  1  0.291100  0.800200  0.633500  1.0  0.0812
  H  H7  1  0.946800  0.319500  0.150600  1.0  0.0695
  H  H8  1  0.803400  0.440900  0.021800  1.0  0.1255
  H  H9  1  0.353300  0.641600  0.013300  1.0  0.1063
  H  H10  1  0.477800  0.515100  0.143600  1.0  0.0858
  H  H11  1  0.264500  0.486800  0.370200  1.0  0.0832
  H  H12  1  0.386600  0.613600  0.508700  1.0  0.1152
  H  H13  1  0.924800  0.416600  0.507600  1.0  0.1112
  H  H14  1  0.791100  0.300200  0.366500  1.0  0.0811
  H  H15  1  0.446800  0.819500  0.849400  1.0  0.0697
  H  H16  1  0.303400  0.940900  0.978200  1.0  0.1255
  H  H17  1  0.853300  0.141600  0.986700  1.0  0.1061
  H  H18  1  0.977800  0.015100  0.856400  1.0  0.0858
  C  C19  1  0.207300  0.862200  0.603900  1.0  0.1739
  C  C20  1  0.976700  0.634700  0.912000  1.0  0.6275
  C  C21  1  0.898900  0.973500  0.602100  1.0  0.146
  C  C22  1  0.971100  0.049900  0.518600  1.0  -0.1041
  C  C23  1  0.172400  0.029200  0.476700  1.0  -0.0311
  C  C24  1  0.291100  0.933600  0.519300  1.0  -0.138
  C  C25  1  0.257600  0.109500  0.385200  1.0  0.6111
  C  C26  1  0.030700  0.384200  0.120900  1.0  0.1655
  C  C27  1  0.941300  0.457400  0.044800  1.0  -0.1514
  C  C28  1  0.063700  0.559200  0.001600  1.0  -0.0671
  C  C29  1  0.267000  0.576200  0.040100  1.0  -0.1237
  C  C30  1  0.342500  0.498500  0.116900  1.0  0.1576
  C  C31  1  0.707300  0.362200  0.396100  1.0  0.1734
  C  C32  1  0.476700  0.134700  0.088000  1.0  0.6284
  C  C33  1  0.398900  0.473500  0.397900  1.0  0.1462
  C  C34  1  0.471100  0.549900  0.481400  1.0  -0.1048
  C  C35  1  0.672400  0.529200  0.523300  1.0  -0.0321
  C  C36  1  0.791100  0.433600  0.480700  1.0  -0.1379
  C  C37  1  0.757600  0.609500  0.614800  1.0  0.6113
  C  C38  1  0.530700  0.884200  0.879100  1.0  0.1646
  C  C39  1  0.441300  0.957400  0.955200  1.0  -0.1512
  C  C40  1  0.563700  0.059200  0.998400  1.0  -0.065
  C  C41  1  0.767000  0.076200  0.959900  1.0  -0.1239
  C  C42  1  0.842500  0.998500  0.883100  1.0  0.1578
  N  N43  1  0.017700  0.881000  0.643800  1.0  -0.3293
  N  N44  1  0.229200  0.397600  0.156300  1.0  -0.3414
  N  N45  1  0.517700  0.381000  0.356200  1.0  -0.3295
  N  N46  1  0.729200  0.897600  0.843700  1.0  -0.3435
  O  O47  1  0.440800  0.098700  0.356800  1.0  -0.5403
  O  O48  1  0.134200  0.195200  0.347600  1.0  -0.5713
  O  O49  1  0.788600  0.623300  0.884700  1.0  -0.5458
  O  O50  1  0.100200  0.715500  0.865500  1.0  -0.571
  O  O51  1  0.940800  0.598700  0.643200  1.0  -0.5405
  O  O52  1  0.634200  0.695200  0.652400  1.0  -0.5712
  O  O53  1  0.288600  0.123300  0.115300  1.0  -0.5456
  O  O54  1  0.600200  0.215500  0.134500  1.0  -0.5734
