# generated using pymatgen
data_CoH8C12(NO2)2
_symmetry_space_group_name_H-M   'P 1'
_cell_length_a   6.20810000
_cell_length_b   12.68100000
_cell_length_c   10.41400000
_cell_angle_alpha   90.00000000
_cell_angle_beta   91.21000000
_cell_angle_gamma   90.00000000
_symmetry_Int_Tables_number   1
_chemical_formula_structural   CoH8C12(NO2)2
_chemical_formula_sum   'Co2 H16 C24 N4 O8'
_cell_volume   819.65846241
_cell_formula_units_Z   2
loop_
 _symmetry_equiv_pos_site_id
 _symmetry_equiv_pos_as_xyz
  1  'x, y, z'
loop_
 _atom_site_type_symbol
 _atom_site_label
 _atom_site_symmetry_multiplicity
 _atom_site_fract_x
 _atom_site_fract_y
 _atom_site_fract_z
 _atom_site_occupancy
 _atom_site_charge
  Co  Co1  1  0.165800  0.746600  0.275660  1.0  0.8476
  Co  Co2  1  0.665800  0.253400  0.775660  1.0  0.8475
  H  H3  1  0.743200  0.521200  0.093800  1.0  0.1153
  H  H4  1  0.149600  0.009000  0.919900  1.0  0.1002
  H  H5  1  0.187600  0.514500  0.890000  1.0  0.091
  H  H6  1  0.594800  0.649100  0.220900  1.0  0.0706
  H  H7  1  0.276300  0.869900  0.045900  1.0  0.0933
  H  H8  1  0.741300  0.868500  0.239800  1.0  0.0887
  H  H9  1  0.060800  0.649700  0.015300  1.0  0.0946
  H  H10  1  0.608200  0.010100  0.122300  1.0  0.1113
  H  H11  1  0.243200  0.478800  0.593800  1.0  0.115
  H  H12  1  0.649600  0.991000  0.419900  1.0  0.1004
  H  H13  1  0.687600  0.485500  0.390000  1.0  0.0909
  H  H14  1  0.094800  0.350900  0.720900  1.0  0.0706
  H  H15  1  0.776300  0.130100  0.545900  1.0  0.0936
  H  H16  1  0.241300  0.131500  0.739800  1.0  0.0885
  H  H17  1  0.560800  0.350300  0.515300  1.0  0.0947
  H  H18  1  0.108200  0.989900  0.622300  1.0  0.1118
  C  C19  1  0.865100  0.023700  0.006600  1.0  -0.0948
  C  C20  1  0.603000  0.544100  0.077900  1.0  -0.1456
  C  C21  1  0.064700  0.981600  0.984400  1.0  -0.0655
  C  C22  1  0.274200  0.541300  0.956300  1.0  -0.056
  C  C23  1  0.564200  0.411100  0.900800  1.0  0.6353
  C  C24  1  0.511500  0.621300  0.153800  1.0  0.158
  C  C25  1  0.478400  0.501400  0.976000  1.0  -0.0854
  C  C26  1  0.139600  0.897100  0.059600  1.0  0.1509
  C  C27  1  0.823500  0.896900  0.174700  1.0  0.1483
  C  C28  1  0.195700  0.620800  0.033600  1.0  0.1386
  C  C29  1  0.742500  0.981800  0.104300  1.0  -0.091
  C  C30  1  0.778000  0.115100  0.926600  1.0  0.6301
  C  C31  1  0.365100  0.976300  0.506600  1.0  -0.0959
  C  C32  1  0.103000  0.455900  0.577900  1.0  -0.1464
  C  C33  1  0.564700  0.018400  0.484400  1.0  -0.0651
  C  C34  1  0.774200  0.458700  0.456300  1.0  -0.0562
  C  C35  1  0.064200  0.588900  0.400800  1.0  0.6352
  C  C36  1  0.011500  0.378700  0.653800  1.0  0.158
  C  C37  1  0.978400  0.498600  0.476000  1.0  -0.0857
  C  C38  1  0.639600  0.102900  0.559600  1.0  0.1511
  C  C39  1  0.323500  0.103100  0.674700  1.0  0.1484
  C  C40  1  0.695700  0.379200  0.533600  1.0  0.1392
  C  C41  1  0.242500  0.018200  0.604300  1.0  -0.0906
  C  C42  1  0.278000  0.884900  0.426600  1.0  0.6302
  N  N43  1  0.018000  0.854600  0.151100  1.0  -0.3238
  N  N44  1  0.314600  0.657400  0.137000  1.0  -0.3309
  N  N45  1  0.518000  0.145400  0.651100  1.0  -0.3235
  N  N46  1  0.814600  0.342600  0.637000  1.0  -0.3304
  O  O47  1  0.903700  0.153200  0.842100  1.0  -0.5795
  O  O48  1  0.590600  0.142800  0.936700  1.0  -0.5609
  O  O49  1  0.436400  0.364900  0.821900  1.0  -0.5814
  O  O50  1  0.753700  0.384700  0.913300  1.0  -0.5595
  O  O51  1  0.403700  0.846800  0.342100  1.0  -0.5794
  O  O52  1  0.090600  0.857200  0.436700  1.0  -0.56
  O  O53  1  0.936400  0.635100  0.321900  1.0  -0.5812
  O  O54  1  0.253700  0.615300  0.413300  1.0  -0.5598
