# generated using pymatgen
data_ZnH20C34(NO2)4
_symmetry_space_group_name_H-M   'P 1'
_cell_length_a   14.17440000
_cell_length_b   25.91510000
_cell_length_c   20.60420000
_cell_angle_alpha   90.00000000
_cell_angle_beta   90.00000000
_cell_angle_gamma   90.00000000
_symmetry_Int_Tables_number   1
_chemical_formula_structural   ZnH20C34(NO2)4
_chemical_formula_sum   'Zn8 H160 C272 N32 O64'
_cell_volume   7568.56125504
_cell_formula_units_Z   8
loop_
 _symmetry_equiv_pos_site_id
 _symmetry_equiv_pos_as_xyz
  1  'x, y, z'
loop_
 _atom_site_type_symbol
 _atom_site_label
 _atom_site_symmetry_multiplicity
 _atom_site_fract_x
 _atom_site_fract_y
 _atom_site_fract_z
 _atom_site_occupancy
 _atom_site_charge
  Zn  Zn1  1  0.758460  0.900400  0.623080  1.0  0.8889
  Zn  Zn2  1  0.741540  0.599600  0.123080  1.0  0.8877
  Zn  Zn3  1  0.241540  0.900400  0.123080  1.0  0.8887
  Zn  Zn4  1  0.258460  0.599600  0.623080  1.0  0.8876
  Zn  Zn5  1  0.758460  0.099600  0.876920  1.0  0.8875
  Zn  Zn6  1  0.741540  0.400400  0.376920  1.0  0.8882
  Zn  Zn7  1  0.241540  0.099600  0.376920  1.0  0.8876
  Zn  Zn8  1  0.258460  0.400400  0.876920  1.0  0.8884
  H  H9  1  0.566500  0.918800  0.565700  1.0  0.0914
  H  H10  1  0.453000  0.983100  0.562600  1.0  0.1237
  H  H11  1  0.611200  0.065800  0.688200  1.0  0.1254
  H  H12  1  0.720400  0.999600  0.688500  1.0  0.0878
  H  H13  1  0.404000  0.068500  0.586700  1.0  0.1108
  H  H14  1  0.404000  0.068100  0.664200  1.0  0.1206
  H  H15  1  0.525600  0.250800  0.506400  1.0  0.1208
  H  H16  1  0.508900  0.256800  0.738600  1.0  0.1264
  H  H17  1  0.625400  0.439100  0.578100  1.0  0.1194
  H  H18  1  0.625300  0.440300  0.655600  1.0  0.1069
  H  H19  1  0.562600  0.519200  0.690000  1.0  0.1188
  H  H20  1  0.444700  0.581500  0.687900  1.0  0.0877
  H  H21  1  0.321000  0.513000  0.540500  1.0  0.09
  H  H22  1  0.432900  0.447900  0.540200  1.0  0.1191
  H  H23  1  0.759900  0.773100  0.750000  1.0  0.1094
  H  H24  1  0.756800  0.681700  0.785500  1.0  0.1266
  H  H25  1  0.759900  0.621000  0.868500  1.0  0.117
  H  H26  1  0.775800  0.735100  0.003400  1.0  0.1098
  H  H27  1  0.783500  0.826900  0.967400  1.0  0.1221
  H  H28  1  0.783400  0.887400  0.883700  1.0  0.1066
  H  H29  1  0.933500  0.581200  0.065700  1.0  0.092
  H  H30  1  0.047000  0.516900  0.062600  1.0  0.1239
  H  H31  1  0.888800  0.434200  0.188200  1.0  0.1259
  H  H32  1  0.779600  0.500400  0.188500  1.0  0.0877
  H  H33  1  0.096000  0.431500  0.086700  1.0  0.1107
  H  H34  1  0.096000  0.431900  0.164200  1.0  0.12
  H  H35  1  0.974400  0.249200  0.006400  1.0  0.121
  H  H36  1  0.991100  0.243200  0.238600  1.0  0.1264
  H  H37  1  0.874600  0.060900  0.078100  1.0  0.1198
  H  H38  1  0.874700  0.059700  0.155600  1.0  0.1077
  H  H39  1  0.937400  0.980800  0.190000  1.0  0.1186
  H  H40  1  0.055300  0.918500  0.187900  1.0  0.0879
  H  H41  1  0.179000  0.987000  0.040500  1.0  0.0901
  H  H42  1  0.067100  0.052100  0.040200  1.0  0.119
  H  H43  1  0.740100  0.726900  0.250000  1.0  0.1097
  H  H44  1  0.743200  0.818300  0.285500  1.0  0.1267
  H  H45  1  0.740100  0.879000  0.368500  1.0  0.1179
  H  H46  1  0.724200  0.764900  0.503400  1.0  0.1103
  H  H47  1  0.716500  0.673100  0.467400  1.0  0.1219
  H  H48  1  0.716600  0.612600  0.383700  1.0  0.1073
  H  H49  1  0.433500  0.918800  0.065700  1.0  0.0917
  H  H50  1  0.547000  0.983100  0.062600  1.0  0.1238
  H  H51  1  0.388800  0.065800  0.188200  1.0  0.1258
  H  H52  1  0.279600  0.999600  0.188500  1.0  0.0877
  H  H53  1  0.596000  0.068500  0.086700  1.0  0.1103
  H  H54  1  0.596000  0.068100  0.164200  1.0  0.1198
  H  H55  1  0.474400  0.250800  0.006400  1.0  0.121
  H  H56  1  0.491100  0.256800  0.238600  1.0  0.1265
  H  H57  1  0.374600  0.439100  0.078100  1.0  0.1199
  H  H58  1  0.374700  0.440300  0.155600  1.0  0.1072
  H  H59  1  0.437400  0.519200  0.190000  1.0  0.1188
  H  H60  1  0.555300  0.581500  0.187900  1.0  0.088
  H  H61  1  0.679000  0.513000  0.040500  1.0  0.0901
  H  H62  1  0.567100  0.447900  0.040200  1.0  0.1192
  H  H63  1  0.240100  0.773100  0.250000  1.0  0.1095
  H  H64  1  0.243200  0.681700  0.285500  1.0  0.1265
  H  H65  1  0.240100  0.621000  0.368500  1.0  0.1171
  H  H66  1  0.224200  0.735100  0.503400  1.0  0.1098
  H  H67  1  0.216500  0.826900  0.467400  1.0  0.1218
  H  H68  1  0.216600  0.887400  0.383700  1.0  0.1068
  H  H69  1  0.066500  0.581200  0.565700  1.0  0.092
  H  H70  1  0.953000  0.516900  0.562600  1.0  0.1237
  H  H71  1  0.111200  0.434200  0.688200  1.0  0.1256
  H  H72  1  0.220400  0.500400  0.688500  1.0  0.0878
  H  H73  1  0.904000  0.431500  0.586700  1.0  0.1117
  H  H74  1  0.904000  0.431900  0.664200  1.0  0.1202
  H  H75  1  0.025600  0.249200  0.506400  1.0  0.1209
  H  H76  1  0.008900  0.243200  0.738600  1.0  0.1266
  H  H77  1  0.125400  0.060900  0.578100  1.0  0.1195
  H  H78  1  0.125300  0.059700  0.655600  1.0  0.1072
  H  H79  1  0.062600  0.980800  0.690000  1.0  0.1187
  H  H80  1  0.944700  0.918500  0.687900  1.0  0.0878
  H  H81  1  0.821000  0.987000  0.540500  1.0  0.09
  H  H82  1  0.932900  0.052100  0.540200  1.0  0.119
  H  H83  1  0.259900  0.726900  0.750000  1.0  0.1096
  H  H84  1  0.256800  0.818300  0.785500  1.0  0.1268
  H  H85  1  0.259900  0.879000  0.868500  1.0  0.1179
  H  H86  1  0.275800  0.764900  0.003400  1.0  0.1103
  H  H87  1  0.283500  0.673100  0.967400  1.0  0.1221
  H  H88  1  0.283400  0.612600  0.883700  1.0  0.107
  H  H89  1  0.566500  0.081200  0.934300  1.0  0.0925
  H  H90  1  0.453000  0.016900  0.937400  1.0  0.1231
  H  H91  1  0.611200  0.934200  0.811800  1.0  0.1255
  H  H92  1  0.720400  0.000400  0.811500  1.0  0.0876
  H  H93  1  0.404000  0.931500  0.913300  1.0  0.1126
  H  H94  1  0.404000  0.931900  0.835800  1.0  0.1192
  H  H95  1  0.525600  0.749200  0.993600  1.0  0.1208
  H  H96  1  0.508900  0.743200  0.761400  1.0  0.1278
  H  H97  1  0.625400  0.560900  0.921900  1.0  0.1207
  H  H98  1  0.625300  0.559700  0.844400  1.0  0.1085
  H  H99  1  0.562600  0.480800  0.810000  1.0  0.1189
  H  H100  1  0.444700  0.418500  0.812100  1.0  0.0879
  H  H101  1  0.321000  0.487000  0.959500  1.0  0.0901
  H  H102  1  0.432900  0.552100  0.959800  1.0  0.1195
  H  H103  1  0.759900  0.226900  0.750000  1.0  0.1098
  H  H104  1  0.756800  0.318300  0.714500  1.0  0.1256
  H  H105  1  0.759900  0.379000  0.631500  1.0  0.1169
  H  H106  1  0.775800  0.264900  0.496600  1.0  0.1102
  H  H107  1  0.783500  0.173100  0.532600  1.0  0.1228
  H  H108  1  0.783400  0.112600  0.616300  1.0  0.1072
  H  H109  1  0.933500  0.418800  0.434300  1.0  0.0919
  H  H110  1  0.047000  0.483100  0.437400  1.0  0.1236
  H  H111  1  0.888800  0.565800  0.311800  1.0  0.1261
  H  H112  1  0.779600  0.499600  0.311500  1.0  0.0876
  H  H113  1  0.096000  0.568500  0.413300  1.0  0.1123
  H  H114  1  0.096000  0.568100  0.335800  1.0  0.1194
  H  H115  1  0.974400  0.750800  0.493600  1.0  0.1205
  H  H116  1  0.991100  0.756800  0.261400  1.0  0.1276
  H  H117  1  0.874600  0.939100  0.421900  1.0  0.1204
  H  H118  1  0.874700  0.940300  0.344400  1.0  0.109
  H  H119  1  0.937400  0.019200  0.310000  1.0  0.1194
  H  H120  1  0.055300  0.081500  0.312100  1.0  0.0883
  H  H121  1  0.179000  0.013000  0.459500  1.0  0.0905
  H  H122  1  0.067100  0.947900  0.459800  1.0  0.1195
  H  H123  1  0.740100  0.273100  0.250000  1.0  0.1105
  H  H124  1  0.743200  0.181700  0.214500  1.0  0.1261
  H  H125  1  0.740100  0.121000  0.131500  1.0  0.1179
  H  H126  1  0.724200  0.235100  0.996600  1.0  0.1101
  H  H127  1  0.716500  0.326900  0.032600  1.0  0.1233
  H  H128  1  0.716600  0.387400  0.116300  1.0  0.1074
  H  H129  1  0.433500  0.081200  0.434300  1.0  0.0924
  H  H130  1  0.547000  0.016900  0.437400  1.0  0.1233
  H  H131  1  0.388800  0.934200  0.311800  1.0  0.1257
  H  H132  1  0.279600  0.000400  0.311500  1.0  0.0875
  H  H133  1  0.596000  0.931500  0.413300  1.0  0.1123
  H  H134  1  0.596000  0.931900  0.335800  1.0  0.1197
  H  H135  1  0.474400  0.749200  0.493600  1.0  0.1205
  H  H136  1  0.491100  0.743200  0.261400  1.0  0.1274
  H  H137  1  0.374600  0.560900  0.421900  1.0  0.1208
  H  H138  1  0.374700  0.559700  0.344400  1.0  0.1087
  H  H139  1  0.437400  0.480800  0.310000  1.0  0.1187
  H  H140  1  0.555300  0.418500  0.312100  1.0  0.0878
  H  H141  1  0.679000  0.487000  0.459500  1.0  0.0903
  H  H142  1  0.567100  0.552100  0.459800  1.0  0.1191
  H  H143  1  0.240100  0.226900  0.250000  1.0  0.1101
  H  H144  1  0.243200  0.318300  0.214500  1.0  0.1258
  H  H145  1  0.240100  0.379000  0.131500  1.0  0.1171
  H  H146  1  0.224200  0.264900  0.996600  1.0  0.1103
  H  H147  1  0.216500  0.173100  0.032600  1.0  0.1229
  H  H148  1  0.216600  0.112600  0.116300  1.0  0.1073
  H  H149  1  0.066500  0.418800  0.934300  1.0  0.0919
  H  H150  1  0.953000  0.483100  0.937400  1.0  0.1236
  H  H151  1  0.111200  0.565800  0.811800  1.0  0.1256
  H  H152  1  0.220400  0.499600  0.811500  1.0  0.0875
  H  H153  1  0.904000  0.568500  0.913300  1.0  0.1126
  H  H154  1  0.904000  0.568100  0.835800  1.0  0.1188
  H  H155  1  0.025600  0.750800  0.993600  1.0  0.1209
  H  H156  1  0.008900  0.756800  0.761400  1.0  0.1279
  H  H157  1  0.125400  0.939100  0.921900  1.0  0.1203
  H  H158  1  0.125300  0.940300  0.844400  1.0  0.1085
  H  H159  1  0.062600  0.019200  0.810000  1.0  0.1196
  H  H160  1  0.944700  0.081500  0.812100  1.0  0.0883
  H  H161  1  0.821000  0.013000  0.959500  1.0  0.0903
  H  H162  1  0.932900  0.947900  0.959800  1.0  0.12
  H  H163  1  0.259900  0.273100  0.750000  1.0  0.1102
  H  H164  1  0.256800  0.181700  0.714500  1.0  0.126
  H  H165  1  0.259900  0.121000  0.631500  1.0  0.1178
  H  H166  1  0.275800  0.235100  0.496600  1.0  0.1102
  H  H167  1  0.283500  0.326900  0.532600  1.0  0.1233
  H  H168  1  0.283400  0.387400  0.616300  1.0  0.1072
  C  C169  1  0.575330  0.949010  0.591060  1.0  0.1681
  C  C170  1  0.507540  0.987280  0.588880  1.0  -0.1938
  C  C171  1  0.519260  0.031720  0.625130  1.0  0.1132
  C  C172  1  0.600460  0.035870  0.662730  1.0  -0.1887
  C  C173  1  0.665150  0.996260  0.662730  1.0  0.1657
  C  C174  1  0.444330  0.072890  0.625480  1.0  -0.1541
  C  C175  1  0.497780  0.153530  0.569330  1.0  0.4857
  C  C176  1  0.510140  0.208280  0.589990  1.0  -0.063
  C  C177  1  0.521770  0.252000  0.552360  1.0  -0.0227
  C  C178  1  0.527390  0.297620  0.586990  1.0  -0.0816
  C  C179  1  0.541710  0.351270  0.562930  1.0  0.4642
  C  C180  1  0.538630  0.354020  0.675210  1.0  0.5127
  C  C181  1  0.523510  0.299250  0.654840  1.0  -0.0703
  C  C182  1  0.511590  0.255630  0.692560  1.0  -0.0332
  C  C183  1  0.503940  0.210110  0.657680  1.0  -0.0664
  C  C184  1  0.484460  0.156590  0.681160  1.0  0.428
  C  C185  1  0.585090  0.434900  0.616950  1.0  -0.1363
  C  C186  1  0.509090  0.475870  0.615900  1.0  0.1053
  C  C187  1  0.512620  0.516720  0.659470  1.0  -0.2082
  C  C188  1  0.442260  0.553810  0.657790  1.0  0.1691
  C  C189  1  0.369880  0.513660  0.572000  1.0  0.1599
  C  C190  1  0.436720  0.474970  0.571240  1.0  -0.1717
  C  C191  1  0.775110  0.873970  0.753500  1.0  0.6578
  C  C192  1  0.773140  0.835020  0.808020  1.0  -0.1247
  C  C193  1  0.765440  0.783670  0.794000  1.0  -0.1284
  C  C194  1  0.765470  0.745530  0.844040  1.0  0.0299
  C  C195  1  0.760850  0.692630  0.829380  1.0  -0.1328
  C  C196  1  0.762220  0.656710  0.878520  1.0  -0.0867
  C  C197  1  0.767160  0.673150  0.944790  1.0  -0.0726
  C  C198  1  0.772150  0.724500  0.959320  1.0  -0.1385
  C  C199  1  0.771980  0.762640  0.908960  1.0  0.0499
  C  C200  1  0.778950  0.815840  0.923540  1.0  -0.1148
  C  C201  1  0.779200  0.851630  0.873960  1.0  -0.0398
  C  C202  1  0.765230  0.632750  0.997620  1.0  0.6413
  C  C203  1  0.924670  0.550990  0.091060  1.0  0.1689
  C  C204  1  0.992460  0.512720  0.088880  1.0  -0.1944
  C  C205  1  0.980740  0.468280  0.125130  1.0  0.1145
  C  C206  1  0.899540  0.464130  0.162730  1.0  -0.189
  C  C207  1  0.834850  0.503740  0.162730  1.0  0.1668
  C  C208  1  0.055670  0.427110  0.125480  1.0  -0.1557
  C  C209  1  0.002220  0.346470  0.069330  1.0  0.4841
  C  C210  1  0.989860  0.291720  0.089990  1.0  -0.0623
  C  C211  1  0.978230  0.248000  0.052360  1.0  -0.0227
  C  C212  1  0.972610  0.202380  0.086990  1.0  -0.0813
  C  C213  1  0.958290  0.148730  0.062930  1.0  0.4642
  C  C214  1  0.961370  0.145980  0.175210  1.0  0.5129
  C  C215  1  0.976490  0.200750  0.154840  1.0  -0.07
  C  C216  1  0.988410  0.244370  0.192560  1.0  -0.033
  C  C217  1  0.996060  0.289890  0.157680  1.0  -0.0666
  C  C218  1  0.015540  0.343410  0.181160  1.0  0.4273
  C  C219  1  0.914910  0.065100  0.116950  1.0  -0.1365
  C  C220  1  0.990910  0.024130  0.115900  1.0  0.1049
  C  C221  1  0.987380  0.983280  0.159470  1.0  -0.2073
  C  C222  1  0.057740  0.946190  0.157790  1.0  0.1682
  C  C223  1  0.130120  0.986340  0.072000  1.0  0.1598
  C  C224  1  0.063280  0.025030  0.071240  1.0  -0.1718
  C  C225  1  0.724890  0.626030  0.253500  1.0  0.658
  C  C226  1  0.726860  0.664980  0.308020  1.0  -0.1261
  C  C227  1  0.734560  0.716330  0.294000  1.0  -0.1296
  C  C228  1  0.734530  0.754470  0.344040  1.0  0.0298
  C  C229  1  0.739150  0.807370  0.329380  1.0  -0.1343
  C  C230  1  0.737780  0.843290  0.378520  1.0  -0.0871
  C  C231  1  0.732840  0.826850  0.444790  1.0  -0.0727
  C  C232  1  0.727850  0.775500  0.459320  1.0  -0.1397
  C  C233  1  0.728020  0.737360  0.408960  1.0  0.0501
  C  C234  1  0.721050  0.684160  0.423540  1.0  -0.114
  C  C235  1  0.720800  0.648370  0.373960  1.0  -0.0358
  C  C236  1  0.734770  0.867250  0.497620  1.0  0.6409
  C  C237  1  0.424670  0.949010  0.091060  1.0  0.1682
  C  C238  1  0.492460  0.987280  0.088880  1.0  -0.1933
  C  C239  1  0.480740  0.031720  0.125130  1.0  0.1141
  C  C240  1  0.399540  0.035870  0.162730  1.0  -0.189
  C  C241  1  0.334850  0.996260  0.162730  1.0  0.1672
  C  C242  1  0.555670  0.072890  0.125480  1.0  -0.1572
  C  C243  1  0.502220  0.153530  0.069330  1.0  0.4844
  C  C244  1  0.489860  0.208280  0.089990  1.0  -0.0635
  C  C245  1  0.478230  0.252000  0.052360  1.0  -0.0227
  C  C246  1  0.472610  0.297620  0.086990  1.0  -0.0814
  C  C247  1  0.458290  0.351270  0.062930  1.0  0.4634
  C  C248  1  0.461370  0.354020  0.175210  1.0  0.5129
  C  C249  1  0.476490  0.299250  0.154840  1.0  -0.0704
  C  C250  1  0.488410  0.255630  0.192560  1.0  -0.0329
  C  C251  1  0.496060  0.210110  0.157680  1.0  -0.066
  C  C252  1  0.515540  0.156590  0.181160  1.0  0.4267
  C  C253  1  0.414910  0.434900  0.116950  1.0  -0.1352
  C  C254  1  0.490910  0.475870  0.115900  1.0  0.1046
  C  C255  1  0.487380  0.516720  0.159470  1.0  -0.2066
  C  C256  1  0.557740  0.553810  0.157790  1.0  0.169
  C  C257  1  0.630120  0.513660  0.072000  1.0  0.1601
  C  C258  1  0.563280  0.474970  0.071240  1.0  -0.1724
  C  C259  1  0.224890  0.873970  0.253500  1.0  0.6579
  C  C260  1  0.226860  0.835020  0.308020  1.0  -0.125
  C  C261  1  0.234560  0.783670  0.294000  1.0  -0.129
  C  C262  1  0.234530  0.745530  0.344040  1.0  0.0299
  C  C263  1  0.239150  0.692630  0.329380  1.0  -0.1332
  C  C264  1  0.237780  0.656710  0.378520  1.0  -0.0869
  C  C265  1  0.232840  0.673150  0.444790  1.0  -0.0725
  C  C266  1  0.227850  0.724500  0.459320  1.0  -0.1388
  C  C267  1  0.228020  0.762640  0.408960  1.0  0.0501
  C  C268  1  0.221050  0.815840  0.423540  1.0  -0.1145
  C  C269  1  0.220800  0.851630  0.373960  1.0  -0.0392
  C  C270  1  0.234770  0.632750  0.497620  1.0  0.6409
  C  C271  1  0.075330  0.550990  0.591060  1.0  0.1687
  C  C272  1  0.007540  0.512720  0.588880  1.0  -0.1943
  C  C273  1  0.019260  0.468280  0.625130  1.0  0.1131
  C  C274  1  0.100460  0.464130  0.662730  1.0  -0.1887
  C  C275  1  0.165150  0.503740  0.662730  1.0  0.1657
  C  C276  1  0.944330  0.427110  0.625480  1.0  -0.1535
  C  C277  1  0.997780  0.346470  0.569330  1.0  0.4857
  C  C278  1  0.010140  0.291720  0.589990  1.0  -0.0622
  C  C279  1  0.021770  0.248000  0.552360  1.0  -0.0227
  C  C280  1  0.027390  0.202380  0.586990  1.0  -0.0816
  C  C281  1  0.041710  0.148730  0.562930  1.0  0.4648
  C  C282  1  0.038630  0.145980  0.675210  1.0  0.5125
  C  C283  1  0.023510  0.200750  0.654840  1.0  -0.07
  C  C284  1  0.011590  0.244370  0.692560  1.0  -0.0334
  C  C285  1  0.003940  0.289890  0.657680  1.0  -0.0671
  C  C286  1  0.984460  0.343410  0.681160  1.0  0.4285
  C  C287  1  0.085090  0.065100  0.616950  1.0  -0.1381
  C  C288  1  0.009090  0.024130  0.615900  1.0  0.1051
  C  C289  1  0.012620  0.983280  0.659470  1.0  -0.2086
  C  C290  1  0.942260  0.946190  0.657790  1.0  0.1687
  C  C291  1  0.869880  0.986340  0.572000  1.0  0.1599
  C  C292  1  0.936720  0.025030  0.571240  1.0  -0.1711
  C  C293  1  0.275110  0.626030  0.753500  1.0  0.6579
  C  C294  1  0.273140  0.664980  0.808020  1.0  -0.126
  C  C295  1  0.265440  0.716330  0.794000  1.0  -0.1291
  C  C296  1  0.265470  0.754470  0.844040  1.0  0.0298
  C  C297  1  0.260850  0.807370  0.829380  1.0  -0.1339
  C  C298  1  0.262220  0.843290  0.878520  1.0  -0.0872
  C  C299  1  0.267160  0.826850  0.944790  1.0  -0.0728
  C  C300  1  0.272150  0.775500  0.959320  1.0  -0.1394
  C  C301  1  0.271980  0.737360  0.908960  1.0  0.05
  C  C302  1  0.278950  0.684160  0.923540  1.0  -0.1139
  C  C303  1  0.279200  0.648370  0.873960  1.0  -0.0366
  C  C304  1  0.265230  0.867250  0.997620  1.0  0.6413
  C  C305  1  0.575330  0.050990  0.908940  1.0  0.1687
  C  C306  1  0.507540  0.012720  0.911120  1.0  -0.1944
  C  C307  1  0.519260  0.968280  0.874870  1.0  0.1133
  C  C308  1  0.600460  0.964130  0.837270  1.0  -0.189
  C  C309  1  0.665150  0.003740  0.837270  1.0  0.1653
  C  C310  1  0.444330  0.927110  0.874520  1.0  -0.1539
  C  C311  1  0.497780  0.846470  0.930670  1.0  0.4883
  C  C312  1  0.510140  0.791720  0.910010  1.0  -0.0638
  C  C313  1  0.521770  0.748000  0.947640  1.0  -0.022
  C  C314  1  0.527390  0.702380  0.913010  1.0  -0.0822
  C  C315  1  0.541710  0.648730  0.937070  1.0  0.4637
  C  C316  1  0.538630  0.645980  0.824790  1.0  0.5123
  C  C317  1  0.523510  0.700750  0.845160  1.0  -0.0701
  C  C318  1  0.511590  0.744370  0.807440  1.0  -0.0338
  C  C319  1  0.503940  0.789890  0.842320  1.0  -0.066
  C  C320  1  0.484460  0.843410  0.818840  1.0  0.4263
  C  C321  1  0.585090  0.565100  0.883050  1.0  -0.1379
  C  C322  1  0.509090  0.524130  0.884100  1.0  0.1053
  C  C323  1  0.512620  0.483280  0.840530  1.0  -0.2091
  C  C324  1  0.442260  0.446190  0.842210  1.0  0.1677
  C  C325  1  0.369880  0.486340  0.928000  1.0  0.1603
  C  C326  1  0.436720  0.525030  0.928760  1.0  -0.1711
  C  C327  1  0.775110  0.126030  0.746500  1.0  0.6581
  C  C328  1  0.773140  0.164980  0.691980  1.0  -0.124
  C  C329  1  0.765440  0.216330  0.706000  1.0  -0.129
  C  C330  1  0.765470  0.254470  0.655960  1.0  0.0303
  C  C331  1  0.760850  0.307370  0.670620  1.0  -0.138
  C  C332  1  0.762220  0.343290  0.621480  1.0  -0.0865
  C  C333  1  0.767160  0.326850  0.555210  1.0  -0.0727
  C  C334  1  0.772150  0.275500  0.540680  1.0  -0.1378
  C  C335  1  0.771980  0.237360  0.591040  1.0  0.0496
  C  C336  1  0.778950  0.184160  0.576460  1.0  -0.1143
  C  C337  1  0.779200  0.148370  0.626040  1.0  -0.0365
  C  C338  1  0.765230  0.367250  0.502380  1.0  0.6409
  C  C339  1  0.924670  0.449010  0.408940  1.0  0.1683
  C  C340  1  0.992460  0.487280  0.411120  1.0  -0.1929
  C  C341  1  0.980740  0.531720  0.374870  1.0  0.1143
  C  C342  1  0.899540  0.535870  0.337270  1.0  -0.1885
  C  C343  1  0.834850  0.496260  0.337270  1.0  0.1665
  C  C344  1  0.055670  0.572890  0.374520  1.0  -0.1578
  C  C345  1  0.002220  0.653530  0.430670  1.0  0.4862
  C  C346  1  0.989860  0.708280  0.410010  1.0  -0.0637
  C  C347  1  0.978230  0.752000  0.447640  1.0  -0.0223
  C  C348  1  0.972610  0.797620  0.413010  1.0  -0.0825
  C  C349  1  0.958290  0.851270  0.437070  1.0  0.4647
  C  C350  1  0.961370  0.854020  0.324790  1.0  0.5114
  C  C351  1  0.976490  0.799250  0.345160  1.0  -0.0699
  C  C352  1  0.988410  0.755630  0.307440  1.0  -0.0333
  C  C353  1  0.996060  0.710110  0.342320  1.0  -0.0662
  C  C354  1  0.015540  0.656590  0.318840  1.0  0.4258
  C  C355  1  0.914910  0.934900  0.383050  1.0  -0.1352
  C  C356  1  0.990910  0.975870  0.384100  1.0  0.1048
  C  C357  1  0.987380  0.016720  0.340530  1.0  -0.2063
  C  C358  1  0.057740  0.053810  0.342210  1.0  0.1683
  C  C359  1  0.130120  0.013660  0.428000  1.0  0.1602
  C  C360  1  0.063280  0.974970  0.428760  1.0  -0.172
  C  C361  1  0.724890  0.373970  0.246500  1.0  0.6579
  C  C362  1  0.726860  0.335020  0.191980  1.0  -0.1241
  C  C363  1  0.734560  0.283670  0.206000  1.0  -0.129
  C  C364  1  0.734530  0.245530  0.155960  1.0  0.0301
  C  C365  1  0.739150  0.192630  0.170620  1.0  -0.1376
  C  C366  1  0.737780  0.156710  0.121480  1.0  -0.0871
  C  C367  1  0.732840  0.173150  0.055210  1.0  -0.0735
  C  C368  1  0.727850  0.224500  0.040680  1.0  -0.1391
  C  C369  1  0.728020  0.262640  0.091040  1.0  0.0507
  C  C370  1  0.721050  0.315840  0.076460  1.0  -0.1141
  C  C371  1  0.720800  0.351630  0.126040  1.0  -0.0389
  C  C372  1  0.734770  0.132750  0.002380  1.0  0.6414
  C  C373  1  0.424670  0.050990  0.408940  1.0  0.1689
  C  C374  1  0.492460  0.012720  0.411120  1.0  -0.194
  C  C375  1  0.480740  0.968280  0.374870  1.0  0.1147
  C  C376  1  0.399540  0.964130  0.337270  1.0  -0.1889
  C  C377  1  0.334850  0.003740  0.337270  1.0  0.1662
  C  C378  1  0.555670  0.927110  0.374520  1.0  -0.1563
  C  C379  1  0.502220  0.846470  0.430670  1.0  0.4865
  C  C380  1  0.489860  0.791720  0.410010  1.0  -0.0639
  C  C381  1  0.478230  0.748000  0.447640  1.0  -0.0222
  C  C382  1  0.472610  0.702380  0.413010  1.0  -0.082
  C  C383  1  0.458290  0.648730  0.437070  1.0  0.4643
  C  C384  1  0.461370  0.645980  0.324790  1.0  0.5116
  C  C385  1  0.476490  0.700750  0.345160  1.0  -0.0701
  C  C386  1  0.488410  0.744370  0.307440  1.0  -0.0334
  C  C387  1  0.496060  0.789890  0.342320  1.0  -0.0659
  C  C388  1  0.515540  0.843410  0.318840  1.0  0.426
  C  C389  1  0.414910  0.565100  0.383050  1.0  -0.1364
  C  C390  1  0.490910  0.524130  0.384100  1.0  0.1051
  C  C391  1  0.487380  0.483280  0.340530  1.0  -0.2074
  C  C392  1  0.557740  0.446190  0.342210  1.0  0.1672
  C  C393  1  0.630120  0.486340  0.428000  1.0  0.16
  C  C394  1  0.563280  0.525030  0.428760  1.0  -0.1716
  C  C395  1  0.224890  0.126030  0.246500  1.0  0.6582
  C  C396  1  0.226860  0.164980  0.191980  1.0  -0.1244
  C  C397  1  0.234560  0.216330  0.206000  1.0  -0.1289
  C  C398  1  0.234530  0.254470  0.155960  1.0  0.0302
  C  C399  1  0.239150  0.307370  0.170620  1.0  -0.138
  C  C400  1  0.237780  0.343290  0.121480  1.0  -0.0865
  C  C401  1  0.232840  0.326850  0.055210  1.0  -0.0726
  C  C402  1  0.227850  0.275500  0.040680  1.0  -0.1381
  C  C403  1  0.228020  0.237360  0.091040  1.0  0.0498
  C  C404  1  0.221050  0.184160  0.076460  1.0  -0.1146
  C  C405  1  0.220800  0.148370  0.126040  1.0  -0.0358
  C  C406  1  0.234770  0.367250  0.002380  1.0  0.6408
  C  C407  1  0.075330  0.449010  0.908940  1.0  0.1683
  C  C408  1  0.007540  0.487280  0.911120  1.0  -0.1934
  C  C409  1  0.019260  0.531720  0.874870  1.0  0.1133
  C  C410  1  0.100460  0.535870  0.837270  1.0  -0.1885
  C  C411  1  0.165150  0.496260  0.837270  1.0  0.1652
  C  C412  1  0.944330  0.572890  0.874520  1.0  -0.1544
  C  C413  1  0.997780  0.653530  0.930670  1.0  0.488
  C  C414  1  0.010140  0.708280  0.910010  1.0  -0.0636
  C  C415  1  0.021770  0.752000  0.947640  1.0  -0.0221
  C  C416  1  0.027390  0.797620  0.913010  1.0  -0.0827
  C  C417  1  0.041710  0.851270  0.937070  1.0  0.4643
  C  C418  1  0.038630  0.854020  0.824790  1.0  0.5121
  C  C419  1  0.023510  0.799250  0.845160  1.0  -0.0698
  C  C420  1  0.011590  0.755630  0.807440  1.0  -0.0336
  C  C421  1  0.003940  0.710110  0.842320  1.0  -0.0662
  C  C422  1  0.984460  0.656590  0.818840  1.0  0.4262
  C  C423  1  0.085090  0.934900  0.883050  1.0  -0.136
  C  C424  1  0.009090  0.975870  0.884100  1.0  0.1055
  C  C425  1  0.012620  0.016720  0.840530  1.0  -0.208
  C  C426  1  0.942260  0.053810  0.842210  1.0  0.1683
  C  C427  1  0.869880  0.013660  0.928000  1.0  0.1601
  C  C428  1  0.936720  0.974970  0.928760  1.0  -0.1715
  C  C429  1  0.275110  0.373970  0.746500  1.0  0.6578
  C  C430  1  0.273140  0.335020  0.691980  1.0  -0.1238
  C  C431  1  0.265440  0.283670  0.706000  1.0  -0.1287
  C  C432  1  0.265470  0.245530  0.655960  1.0  0.0302
  C  C433  1  0.260850  0.192630  0.670620  1.0  -0.1376
  C  C434  1  0.262220  0.156710  0.621480  1.0  -0.0868
  C  C435  1  0.267160  0.173150  0.555210  1.0  -0.0736
  C  C436  1  0.272150  0.224500  0.540680  1.0  -0.1389
  C  C437  1  0.271980  0.262640  0.591040  1.0  0.0505
  C  C438  1  0.278950  0.315840  0.576460  1.0  -0.114
  C  C439  1  0.279200  0.351630  0.626040  1.0  -0.0393
  C  C440  1  0.265230  0.132750  0.502380  1.0  0.6415
  N  N441  1  0.653010  0.953060  0.627570  1.0  -0.3108
  N  N442  1  0.481840  0.125430  0.625920  1.0  -0.1423
  N  N443  1  0.548470  0.382330  0.618190  1.0  -0.1719
  N  N444  1  0.371300  0.552000  0.615370  1.0  -0.3088
  N  N445  1  0.846990  0.546940  0.127570  1.0  -0.3117
  N  N446  1  0.018160  0.374570  0.125920  1.0  -0.1433
  N  N447  1  0.951530  0.117670  0.118190  1.0  -0.1713
  N  N448  1  0.128700  0.948000  0.115370  1.0  -0.3097
  N  N449  1  0.346990  0.953060  0.127570  1.0  -0.3116
  N  N450  1  0.518160  0.125430  0.125920  1.0  -0.1438
  N  N451  1  0.451530  0.382330  0.118190  1.0  -0.1715
  N  N452  1  0.628700  0.552000  0.115370  1.0  -0.3098
  N  N453  1  0.153010  0.546940  0.627570  1.0  -0.3113
  N  N454  1  0.981840  0.374570  0.625920  1.0  -0.1425
  N  N455  1  0.048470  0.117670  0.618190  1.0  -0.172
  N  N456  1  0.871300  0.948000  0.615370  1.0  -0.3091
  N  N457  1  0.653010  0.046940  0.872430  1.0  -0.3115
  N  N458  1  0.481840  0.874570  0.874080  1.0  -0.1425
  N  N459  1  0.548470  0.617670  0.881810  1.0  -0.1721
  N  N460  1  0.371300  0.448000  0.884630  1.0  -0.3093
  N  N461  1  0.846990  0.453060  0.372430  1.0  -0.3117
  N  N462  1  0.018160  0.625430  0.374080  1.0  -0.1439
  N  N463  1  0.951530  0.882330  0.381810  1.0  -0.1715
  N  N464  1  0.128700  0.052000  0.384630  1.0  -0.3099
  N  N465  1  0.346990  0.046940  0.372430  1.0  -0.3118
  N  N466  1  0.518160  0.874570  0.374080  1.0  -0.1434
  N  N467  1  0.451530  0.617670  0.381810  1.0  -0.1714
  N  N468  1  0.628700  0.448000  0.384630  1.0  -0.3099
  N  N469  1  0.153010  0.453060  0.872430  1.0  -0.311
  N  N470  1  0.981840  0.625430  0.874080  1.0  -0.1422
  N  N471  1  0.048470  0.882330  0.881810  1.0  -0.1718
  N  N472  1  0.871300  0.052000  0.884630  1.0  -0.3089
  O  O473  1  0.500400  0.135680  0.515190  1.0  -0.4635
  O  O474  1  0.546980  0.366540  0.507640  1.0  -0.4479
  O  O475  1  0.543810  0.371360  0.729520  1.0  -0.4622
  O  O476  1  0.471590  0.141810  0.735810  1.0  -0.4464
  O  O477  1  0.772110  0.854580  0.696150  1.0  -0.6004
  O  O478  1  0.779850  0.919810  0.765970  1.0  -0.5508
  O  O479  1  0.766020  0.586910  0.982940  1.0  -0.5487
  O  O480  1  0.762070  0.650440  0.056110  1.0  -0.5986
  O  O481  1  0.999600  0.364320  0.015190  1.0  -0.4638
  O  O482  1  0.953020  0.133460  0.007640  1.0  -0.4466
  O  O483  1  0.956190  0.128640  0.229520  1.0  -0.4624
  O  O484  1  0.028410  0.358190  0.235810  1.0  -0.4464
  O  O485  1  0.727890  0.645420  0.196150  1.0  -0.6006
  O  O486  1  0.720150  0.580190  0.265970  1.0  -0.5497
  O  O487  1  0.733980  0.913090  0.482940  1.0  -0.5488
  O  O488  1  0.737930  0.849560  0.556110  1.0  -0.5998
  O  O489  1  0.499600  0.135680  0.015190  1.0  -0.4644
  O  O490  1  0.453020  0.366540  0.007640  1.0  -0.4466
  O  O491  1  0.456190  0.371360  0.229520  1.0  -0.4625
  O  O492  1  0.528410  0.141810  0.235810  1.0  -0.4464
  O  O493  1  0.227890  0.854580  0.196150  1.0  -0.5998
  O  O494  1  0.220150  0.919810  0.265970  1.0  -0.5503
  O  O495  1  0.233980  0.586910  0.482940  1.0  -0.5497
  O  O496  1  0.237930  0.650440  0.556110  1.0  -0.5988
  O  O497  1  0.000400  0.364320  0.515190  1.0  -0.4628
  O  O498  1  0.046980  0.133460  0.507640  1.0  -0.4474
  O  O499  1  0.043810  0.128640  0.729520  1.0  -0.4622
  O  O500  1  0.971590  0.358190  0.735810  1.0  -0.4466
  O  O501  1  0.272110  0.645420  0.696150  1.0  -0.6011
  O  O502  1  0.279850  0.580190  0.765970  1.0  -0.5502
  O  O503  1  0.266020  0.913090  0.982940  1.0  -0.5493
  O  O504  1  0.262070  0.849560  0.056110  1.0  -0.5998
  O  O505  1  0.500400  0.864320  0.984810  1.0  -0.4618
  O  O506  1  0.546980  0.633460  0.992360  1.0  -0.4461
  O  O507  1  0.543810  0.628640  0.770480  1.0  -0.4633
  O  O508  1  0.471590  0.858190  0.764190  1.0  -0.4472
  O  O509  1  0.772110  0.145420  0.803850  1.0  -0.6002
  O  O510  1  0.779850  0.080190  0.734030  1.0  -0.5499
  O  O511  1  0.766020  0.413090  0.517060  1.0  -0.5479
  O  O512  1  0.762070  0.349560  0.443890  1.0  -0.6006
  O  O513  1  0.999600  0.635680  0.484810  1.0  -0.4604
  O  O514  1  0.953020  0.866540  0.492360  1.0  -0.4462
  O  O515  1  0.956190  0.871360  0.270480  1.0  -0.464
  O  O516  1  0.028410  0.641810  0.264190  1.0  -0.4463
  O  O517  1  0.727890  0.354580  0.303850  1.0  -0.6008
  O  O518  1  0.720150  0.419810  0.234030  1.0  -0.5504
  O  O519  1  0.733980  0.086910  0.017060  1.0  -0.5488
  O  O520  1  0.737930  0.150440  0.943890  1.0  -0.6006
  O  O521  1  0.499600  0.864320  0.484810  1.0  -0.4609
  O  O522  1  0.453020  0.633460  0.492360  1.0  -0.4462
  O  O523  1  0.456190  0.628640  0.270480  1.0  -0.464
  O  O524  1  0.528410  0.858190  0.264190  1.0  -0.4462
  O  O525  1  0.227890  0.145420  0.303850  1.0  -0.5997
  O  O526  1  0.220150  0.080190  0.234030  1.0  -0.5493
  O  O527  1  0.233980  0.413090  0.017060  1.0  -0.5486
  O  O528  1  0.237930  0.349560  0.943890  1.0  -0.6006
  O  O529  1  0.000400  0.635680  0.984810  1.0  -0.461
  O  O530  1  0.046980  0.866540  0.992360  1.0  -0.4463
  O  O531  1  0.043810  0.871360  0.770480  1.0  -0.4634
  O  O532  1  0.971590  0.641810  0.764190  1.0  -0.4472
  O  O533  1  0.272110  0.354580  0.803850  1.0  -0.6013
  O  O534  1  0.279850  0.419810  0.734030  1.0  -0.5509
  O  O535  1  0.266020  0.086910  0.517060  1.0  -0.5488
  O  O536  1  0.262070  0.150440  0.443890  1.0  -0.6004
