# generated using pymatgen
data_NaU2H6(C6O7)3
_symmetry_space_group_name_H-M   'P 1'
_cell_length_a   7.96740000
_cell_length_b   9.73040000
_cell_length_c   21.29600000
_cell_angle_alpha   90.00000000
_cell_angle_beta   90.00000000
_cell_angle_gamma   114.16800000
_symmetry_Int_Tables_number   1
_chemical_formula_structural   NaU2H6(C6O7)3
_chemical_formula_sum   'Na2 U4 H12 C36 O42'
_cell_volume   1506.28209786
_cell_formula_units_Z   2
loop_
 _symmetry_equiv_pos_site_id
 _symmetry_equiv_pos_as_xyz
  1  'x, y, z'
loop_
 _atom_site_type_symbol
 _atom_site_label
 _atom_site_symmetry_multiplicity
 _atom_site_fract_x
 _atom_site_fract_y
 _atom_site_fract_z
 _atom_site_occupancy
 _atom_site_charge
  Na  Na1  1  0.113100  0.000000  0.500000  1.0  0.8773
  Na  Na2  1  0.886900  0.000000  0.000000  1.0  0.8778
  U  U3  1  0.541050  0.143240  0.381910  1.0  2.7492
  U  U4  1  0.458950  0.856760  0.881910  1.0  2.7496
  U  U5  1  0.602190  0.143240  0.118090  1.0  2.7494
  U  U6  1  0.397810  0.856760  0.618090  1.0  2.7489
  H  H7  1  0.017800  0.336400  0.458900  1.0  0.1531
  H  H8  1  0.017800  0.601400  0.452400  1.0  0.1268
  H  H9  1  0.149700  0.557000  0.282300  1.0  0.1323
  H  H10  1  0.982200  0.663600  0.958900  1.0  0.1522
  H  H11  1  0.982200  0.398600  0.952400  1.0  0.1265
  H  H12  1  0.850300  0.443000  0.782300  1.0  0.132
  H  H13  1  0.318600  0.336400  0.041100  1.0  0.1525
  H  H14  1  0.583600  0.601400  0.047600  1.0  0.1293
  H  H15  1  0.407300  0.557000  0.217700  1.0  0.1313
  H  H16  1  0.681400  0.663600  0.541100  1.0  0.1527
  H  H17  1  0.416400  0.398600  0.547600  1.0  0.1293
  H  H18  1  0.592700  0.443000  0.717700  1.0  0.1322
  C  C19  1  0.368900  0.339200  0.413100  1.0  0.6382
  C  C20  1  0.279500  0.443800  0.425100  1.0  0.0726
  C  C21  1  0.044400  0.326600  0.277100  1.0  0.0981
  C  C22  1  0.275800  0.667000  0.422700  1.0  0.1314
  C  C23  1  0.363000  0.828200  0.411600  1.0  0.6994
  C  C24  1  0.113100  0.425000  0.445600  1.0  -0.1086
  C  C25  1  0.114900  0.575800  0.442300  1.0  -0.1066
  C  C26  1  0.876600  0.257600  0.313200  1.0  0.611
  C  C27  1  0.163600  0.472200  0.267600  1.0  -0.0852
  C  C28  1  0.631100  0.660800  0.913100  1.0  0.6375
  C  C29  1  0.720500  0.556200  0.925100  1.0  0.0724
  C  C30  1  0.955600  0.673400  0.777100  1.0  0.0975
  C  C31  1  0.724200  0.333000  0.922700  1.0  0.1312
  C  C32  1  0.637000  0.171800  0.911600  1.0  0.6995
  C  C33  1  0.886900  0.575000  0.945600  1.0  -0.1089
  C  C34  1  0.885100  0.424200  0.942300  1.0  -0.1056
  C  C35  1  0.123400  0.742400  0.813200  1.0  0.61
  C  C36  1  0.836400  0.527800  0.767600  1.0  -0.085
  C  C37  1  0.970300  0.339200  0.086900  1.0  0.638
  C  C38  1  0.164300  0.443800  0.074900  1.0  0.0718
  C  C39  1  0.282200  0.326600  0.222900  1.0  0.0984
  C  C40  1  0.391200  0.667000  0.077300  1.0  0.1305
  C  C41  1  0.465200  0.828200  0.088400  1.0  0.7043
  C  C42  1  0.311900  0.425000  0.054400  1.0  -0.1095
  C  C43  1  0.460900  0.575800  0.057700  1.0  -0.1051
  C  C44  1  0.381000  0.257600  0.186800  1.0  0.6102
  C  C45  1  0.308600  0.472200  0.232400  1.0  -0.0806
  C  C46  1  0.029700  0.660800  0.586900  1.0  0.6391
  C  C47  1  0.835700  0.556200  0.574900  1.0  0.0726
  C  C48  1  0.717800  0.673400  0.722900  1.0  0.0981
  C  C49  1  0.608800  0.333000  0.577300  1.0  0.1317
  C  C50  1  0.534800  0.171800  0.588400  1.0  0.7056
  C  C51  1  0.688100  0.575000  0.554400  1.0  -0.1096
  C  C52  1  0.539100  0.424200  0.557700  1.0  -0.1062
  C  C53  1  0.619000  0.742400  0.686800  1.0  0.6111
  C  C54  1  0.691400  0.527800  0.732400  1.0  -0.0802
  O  O55  1  0.523100  0.387200  0.388300  1.0  -0.594
  O  O56  1  0.288900  0.200600  0.429600  1.0  -0.7621
  O  O57  1  0.520600  0.884400  0.383900  1.0  -0.6309
  O  O58  1  0.809400  0.122400  0.328600  1.0  -0.6021
  O  O59  1  0.283300  0.911000  0.425300  1.0  -0.6964
  O  O60  1  0.800800  0.344600  0.330900  1.0  -0.6316
  O  O61  1  0.384600  0.589800  0.410100  1.0  -0.1062
  O  O62  1  0.419100  0.107400  0.310300  1.0  -0.5838
  O  O63  1  0.661600  0.179200  0.453800  1.0  -0.6964
  O  O64  1  0.976500  0.119200  0.561500  1.0  -0.1837
  O  O65  1  0.476900  0.612800  0.888300  1.0  -0.5945
  O  O66  1  0.711100  0.799400  0.929600  1.0  -0.7623
  O  O67  1  0.479400  0.115600  0.883900  1.0  -0.6296
  O  O68  1  0.190600  0.877600  0.828600  1.0  -0.6026
  O  O69  1  0.716700  0.089000  0.925300  1.0  -0.6942
  O  O70  1  0.199200  0.655400  0.830900  1.0  -0.6334
  O  O71  1  0.615400  0.410200  0.910100  1.0  -0.1076
  O  O72  1  0.580900  0.892600  0.810300  1.0  -0.5841
  O  O73  1  0.338400  0.820800  0.953800  1.0  -0.6964
  O  O74  1  0.023500  0.880800  0.061500  1.0  -0.1832
  O  O75  1  0.864100  0.387200  0.111700  1.0  -0.5944
  O  O76  1  0.911700  0.200600  0.070400  1.0  -0.7611
  O  O77  1  0.363800  0.884400  0.116100  1.0  -0.6285
  O  O78  1  0.313000  0.122400  0.171400  1.0  -0.6009
  O  O79  1  0.627700  0.911000  0.074700  1.0  -0.6943
  O  O80  1  0.543800  0.344600  0.169100  1.0  -0.632
  O  O81  1  0.205200  0.589800  0.089900  1.0  -0.1089
  O  O82  1  0.688300  0.107400  0.189700  1.0  -0.5847
  O  O83  1  0.517600  0.179200  0.046200  1.0  -0.6969
  O  O84  1  0.142700  0.119200  0.938500  1.0  -0.1825
  O  O85  1  0.135900  0.612800  0.611700  1.0  -0.5931
  O  O86  1  0.088300  0.799400  0.570400  1.0  -0.7621
  O  O87  1  0.636200  0.115600  0.616100  1.0  -0.6286
  O  O88  1  0.687000  0.877600  0.671400  1.0  -0.6019
  O  O89  1  0.372300  0.089000  0.574700  1.0  -0.698
  O  O90  1  0.456200  0.655400  0.669100  1.0  -0.6323
  O  O91  1  0.794800  0.410200  0.589900  1.0  -0.1058
  O  O92  1  0.311700  0.892600  0.689700  1.0  -0.5851
  O  O93  1  0.482400  0.820800  0.546200  1.0  -0.6968
  O  O94  1  0.857300  0.880800  0.438500  1.0  -0.1827
  O  O95  1  0.116200  0.232400  0.250000  1.0  -0.1382
  O  O96  1  0.883800  0.767600  0.750000  1.0  -0.1382
