# generated using pymatgen
data_NaU2H6(C6O5)3
_symmetry_space_group_name_H-M   'P 1'
_cell_length_a   7.97140000
_cell_length_b   9.74030000
_cell_length_c   21.31200000
_cell_angle_alpha   90.00000000
_cell_angle_beta   90.00000000
_cell_angle_gamma   114.15400000
_symmetry_Int_Tables_number   1
_chemical_formula_structural   NaU2H6(C6O5)3
_chemical_formula_sum   'Na2 U4 H12 C36 O30'
_cell_volume   1509.87053190
_cell_formula_units_Z   2
loop_
 _symmetry_equiv_pos_site_id
 _symmetry_equiv_pos_as_xyz
  1  'x, y, z'
loop_
 _atom_site_type_symbol
 _atom_site_label
 _atom_site_symmetry_multiplicity
 _atom_site_fract_x
 _atom_site_fract_y
 _atom_site_fract_z
 _atom_site_occupancy
 _atom_site_charge
  Na  Na1  1  0.889900  0.000000  0.500000  1.0  0.9714
  Na  Na2  1  0.110100  0.000000  0.000000  1.0  0.9749
  U  U3  1  0.459050  0.856800  0.618080  1.0  1.6249
  U  U4  1  0.540950  0.143200  0.118080  1.0  1.625
  U  U5  1  0.397750  0.856800  0.881920  1.0  1.6247
  U  U6  1  0.602250  0.143200  0.381920  1.0  1.6256
  H  H7  1  0.984500  0.663600  0.543000  1.0  0.1084
  H  H8  1  0.982900  0.399200  0.546900  1.0  0.1297
  H  H9  1  0.855100  0.445000  0.720000  1.0  0.1421
  H  H10  1  0.015500  0.336400  0.043000  1.0  0.1086
  H  H11  1  0.017100  0.600800  0.046900  1.0  0.1305
  H  H12  1  0.144900  0.555000  0.220000  1.0  0.1422
  H  H13  1  0.679100  0.663600  0.957000  1.0  0.1087
  H  H14  1  0.416300  0.399200  0.953100  1.0  0.1326
  H  H15  1  0.589900  0.445000  0.780000  1.0  0.1414
  H  H16  1  0.320900  0.336400  0.457000  1.0  0.1093
  H  H17  1  0.583700  0.600800  0.453100  1.0  0.1321
  H  H18  1  0.410100  0.555000  0.280000  1.0  0.1406
  C  C19  1  0.628200  0.659000  0.586300  1.0  0.6235
  C  C20  1  0.719900  0.556000  0.574600  1.0  0.0367
  C  C21  1  0.953400  0.673000  0.722300  1.0  0.0625
  C  C22  1  0.724100  0.334200  0.577800  1.0  0.0449
  C  C23  1  0.635500  0.173000  0.589000  1.0  0.574
  C  C24  1  0.888200  0.574600  0.555300  1.0  -0.125
  C  C25  1  0.886600  0.425200  0.557700  1.0  -0.1222
  C  C26  1  0.123000  0.740400  0.687100  1.0  0.5267
  C  C27  1  0.838900  0.529800  0.733100  1.0  -0.1204
  C  C28  1  0.371800  0.341000  0.086300  1.0  0.6246
  C  C29  1  0.280100  0.444000  0.074600  1.0  0.036
  C  C30  1  0.046600  0.327000  0.222300  1.0  0.0622
  C  C31  1  0.275900  0.665800  0.077800  1.0  0.0449
  C  C32  1  0.364500  0.827000  0.089000  1.0  0.5697
  C  C33  1  0.111800  0.425400  0.055300  1.0  -0.1267
  C  C34  1  0.113400  0.574800  0.057700  1.0  -0.1224
  C  C35  1  0.877000  0.259600  0.187100  1.0  0.5291
  C  C36  1  0.161100  0.470200  0.233100  1.0  -0.1196
  C  C37  1  0.030800  0.659000  0.913700  1.0  0.625
  C  C38  1  0.836100  0.556000  0.925400  1.0  0.0361
  C  C39  1  0.719600  0.673000  0.777700  1.0  0.0628
  C  C40  1  0.610100  0.334200  0.922200  1.0  0.0428
  C  C41  1  0.537500  0.173000  0.911000  1.0  0.5735
  C  C42  1  0.686400  0.574600  0.944700  1.0  -0.1245
  C  C43  1  0.538600  0.425200  0.942300  1.0  -0.1223
  C  C44  1  0.617400  0.740400  0.812900  1.0  0.5274
  C  C45  1  0.690900  0.529800  0.766900  1.0  -0.1197
  C  C46  1  0.969200  0.341000  0.413700  1.0  0.6237
  C  C47  1  0.163900  0.444000  0.425400  1.0  0.0359
  C  C48  1  0.280400  0.327000  0.277700  1.0  0.0622
  C  C49  1  0.389900  0.665800  0.422200  1.0  0.0421
  C  C50  1  0.462500  0.827000  0.411000  1.0  0.5725
  C  C51  1  0.313600  0.425400  0.444700  1.0  -0.1257
  C  C52  1  0.461400  0.574800  0.442300  1.0  -0.1231
  C  C53  1  0.382600  0.259600  0.312900  1.0  0.529
  C  C54  1  0.309100  0.470200  0.266900  1.0  -0.1211
  O  O55  1  0.477900  0.614000  0.610900  1.0  -0.5417
  O  O56  1  0.710900  0.799800  0.570000  1.0  -0.7488
  O  O57  1  0.480200  0.113800  0.616700  1.0  -0.6068
  O  O58  1  0.192900  0.878800  0.671700  1.0  -0.6077
  O  O59  1  0.716200  0.088800  0.574500  1.0  -0.7165
  O  O60  1  0.200700  0.655600  0.669000  1.0  -0.5917
  O  O61  1  0.614200  0.409800  0.589800  1.0  -0.1049
  O  O62  1  0.522100  0.386000  0.110900  1.0  -0.5417
  O  O63  1  0.289100  0.200200  0.070000  1.0  -0.7488
  O  O64  1  0.519800  0.886200  0.116700  1.0  -0.6086
  O  O65  1  0.807100  0.121200  0.171700  1.0  -0.6064
  O  O66  1  0.283800  0.911200  0.074500  1.0  -0.7222
  O  O67  1  0.799300  0.344400  0.169000  1.0  -0.5911
  O  O68  1  0.385800  0.590200  0.089800  1.0  -0.103
  O  O69  1  0.136100  0.614000  0.889100  1.0  -0.5421
  O  O70  1  0.088900  0.799800  0.930000  1.0  -0.7497
  O  O71  1  0.633600  0.113800  0.883300  1.0  -0.6141
  O  O72  1  0.685900  0.878800  0.828300  1.0  -0.6074
  O  O73  1  0.372600  0.088800  0.925500  1.0  -0.7212
  O  O74  1  0.454900  0.655600  0.831000  1.0  -0.5943
  O  O75  1  0.795600  0.409800  0.910200  1.0  -0.1031
  O  O76  1  0.863900  0.386000  0.389100  1.0  -0.5423
  O  O77  1  0.911100  0.200200  0.430000  1.0  -0.7477
  O  O78  1  0.366400  0.886200  0.383300  1.0  -0.6127
  O  O79  1  0.314100  0.121200  0.328300  1.0  -0.6062
  O  O80  1  0.627400  0.911200  0.425500  1.0  -0.7181
  O  O81  1  0.545100  0.344400  0.331000  1.0  -0.5912
  O  O82  1  0.204400  0.590200  0.410200  1.0  -0.106
  O  O83  1  0.883900  0.767800  0.750000  1.0  -0.1356
  O  O84  1  0.116100  0.232200  0.250000  1.0  -0.1362
