# generated using pymatgen
data_ErH4C6O7
_symmetry_space_group_name_H-M   'P 1'
_cell_length_a   8.45700000
_cell_length_b   9.69000000
_cell_length_c   17.22500000
_cell_angle_alpha   90.00000000
_cell_angle_beta   90.00000000
_cell_angle_gamma   112.22000000
_symmetry_Int_Tables_number   1
_chemical_formula_structural   ErH4C6O7
_chemical_formula_sum   'Er4 H16 C24 O28'
_cell_volume   1306.73561599
_cell_formula_units_Z   4
loop_
 _symmetry_equiv_pos_site_id
 _symmetry_equiv_pos_as_xyz
  1  'x, y, z'
loop_
 _atom_site_type_symbol
 _atom_site_label
 _atom_site_symmetry_multiplicity
 _atom_site_fract_x
 _atom_site_fract_y
 _atom_site_fract_z
 _atom_site_occupancy
 _atom_site_charge
  Er  Er1  1  0.344210  0.023920  0.257410  1.0  1.4894
  Er  Er2  1  0.655790  0.476080  0.757410  1.0  1.4905
  Er  Er3  1  0.344210  0.523920  0.242590  1.0  1.488
  Er  Er4  1  0.655790  0.976080  0.742590  1.0  1.4897
  H  H5  1  0.852000  0.152000  0.321000  1.0  0.1913
  H  H6  1  0.660700  0.831900  0.589600  1.0  0.3738
  H  H7  1  0.160000  0.095000  0.736000  1.0  0.1739
  H  H8  1  0.418000  0.079000  0.992000  1.0  0.2632
  H  H9  1  0.852000  0.652000  0.179000  1.0  0.1908
  H  H10  1  0.660700  0.331900  0.910400  1.0  0.3751
  H  H11  1  0.582000  0.921000  0.008000  1.0  0.2625
  H  H12  1  0.418000  0.579000  0.508000  1.0  0.2646
  H  H13  1  0.148000  0.348000  0.821000  1.0  0.1917
  H  H14  1  0.339300  0.168100  0.410400  1.0  0.3756
  H  H15  1  0.148000  0.848000  0.679000  1.0  0.1893
  H  H16  1  0.840000  0.405000  0.236000  1.0  0.1751
  H  H17  1  0.160000  0.595000  0.764000  1.0  0.1734
  H  H18  1  0.840000  0.905000  0.264000  1.0  0.1737
  H  H19  1  0.582000  0.421000  0.492000  1.0  0.2618
  H  H20  1  0.339300  0.668100  0.089600  1.0  0.3742
  C  C21  1  0.813500  0.961400  0.283200  1.0  0.0015
  C  C22  1  0.186500  0.538600  0.783200  1.0  0.002
  C  C23  1  0.629000  0.867000  0.286200  1.0  0.7225
  C  C24  1  0.371000  0.133000  0.713800  1.0  0.7235
  C  C25  1  0.186500  0.038600  0.716800  1.0  0.0011
  C  C26  1  0.405700  0.025800  0.098400  1.0  0.7111
  C  C27  1  0.443800  0.528100  0.485400  1.0  -0.0642
  C  C28  1  0.124000  0.897200  0.699400  1.0  0.0293
  C  C29  1  0.062600  0.198600  0.289300  1.0  0.7127
  C  C30  1  0.556200  0.971900  0.985400  1.0  -0.0651
  C  C31  1  0.443800  0.028100  0.014600  1.0  -0.0639
  C  C32  1  0.556200  0.471900  0.514600  1.0  -0.0641
  C  C33  1  0.124000  0.397200  0.800600  1.0  0.0274
  C  C34  1  0.876000  0.602800  0.199400  1.0  0.0271
  C  C35  1  0.937400  0.301400  0.789300  1.0  0.7124
  C  C36  1  0.062600  0.698600  0.210700  1.0  0.7103
  C  C37  1  0.937400  0.801400  0.710700  1.0  0.7119
  C  C38  1  0.629000  0.367000  0.213800  1.0  0.7237
  C  C39  1  0.876000  0.102800  0.300600  1.0  0.0262
  C  C40  1  0.594300  0.974200  0.901600  1.0  0.7069
  C  C41  1  0.594300  0.474200  0.598400  1.0  0.7086
  C  C42  1  0.371000  0.633000  0.786200  1.0  0.7224
  C  C43  1  0.813500  0.461400  0.216800  1.0  0.0004
  C  C44  1  0.405700  0.525800  0.401600  1.0  0.7094
  O  O45  1  0.165600  0.638800  0.230000  1.0  -0.737
  O  O46  1  0.588300  0.732000  0.268800  1.0  -0.6239
  O  O47  1  0.464100  0.954600  0.145300  1.0  -0.6144
  O  O48  1  0.105100  0.336200  0.296500  1.0  -0.6316
  O  O49  1  0.464100  0.454600  0.354700  1.0  -0.6137
  O  O50  1  0.429000  0.662500  0.121900  1.0  -0.6441
  O  O51  1  0.894900  0.663800  0.703500  1.0  -0.6299
  O  O52  1  0.894900  0.163800  0.796500  1.0  -0.6295
  O  O53  1  0.474900  0.076100  0.694700  1.0  -0.7017
  O  O54  1  0.312300  0.591600  0.377800  1.0  -0.649
  O  O55  1  0.411700  0.768000  0.768800  1.0  -0.6233
  O  O56  1  0.474900  0.576100  0.805300  1.0  -0.7008
  O  O57  1  0.165600  0.138800  0.270000  1.0  -0.7366
  O  O58  1  0.571000  0.837500  0.621900  1.0  -0.6451
  O  O59  1  0.312300  0.091600  0.122200  1.0  -0.6487
  O  O60  1  0.834400  0.861200  0.730000  1.0  -0.7373
  O  O61  1  0.571000  0.337500  0.878100  1.0  -0.6445
  O  O62  1  0.588300  0.232000  0.231200  1.0  -0.6241
  O  O63  1  0.525100  0.423900  0.194700  1.0  -0.7008
  O  O64  1  0.429000  0.162500  0.378100  1.0  -0.6432
  O  O65  1  0.525100  0.923900  0.305300  1.0  -0.701
  O  O66  1  0.687700  0.408400  0.622200  1.0  -0.6508
  O  O67  1  0.687700  0.908400  0.877800  1.0  -0.6512
  O  O68  1  0.105100  0.836200  0.203500  1.0  -0.6316
  O  O69  1  0.535900  0.545400  0.645300  1.0  -0.6138
  O  O70  1  0.834400  0.361200  0.770000  1.0  -0.7361
  O  O71  1  0.535900  0.045400  0.854700  1.0  -0.6132
  O  O72  1  0.411700  0.268000  0.731200  1.0  -0.6236
