# generated using pymatgen
data_InH4(C3O2)4
_symmetry_space_group_name_H-M   'P 1'
_cell_length_a   17.64390000
_cell_length_b   17.64370000
_cell_length_c   17.64370000
_cell_angle_alpha   109.47100000
_cell_angle_beta   109.47100000
_cell_angle_gamma   109.47100000
_symmetry_Int_Tables_number   1
_chemical_formula_structural   InH4(C3O2)4
_chemical_formula_sum   'In6 H24 C72 O48'
_cell_volume   4228.20050779
_cell_formula_units_Z   6
loop_
 _symmetry_equiv_pos_site_id
 _symmetry_equiv_pos_as_xyz
  1  'x, y, z'
loop_
 _atom_site_type_symbol
 _atom_site_label
 _atom_site_symmetry_multiplicity
 _atom_site_fract_x
 _atom_site_fract_y
 _atom_site_fract_z
 _atom_site_occupancy
 _atom_site_charge
  In  In1  1  0.375000  0.750000  0.125000  1.0  1.4901
  In  In2  1  0.125000  0.250000  0.375000  1.0  1.4903
  In  In3  1  0.625000  0.375000  0.250000  1.0  1.4903
  In  In4  1  0.750000  0.625000  0.875000  1.0  1.4903
  In  In5  1  0.250000  0.875000  0.625000  1.0  1.4903
  In  In6  1  0.875000  0.125000  0.750000  1.0  1.4901
  H  H7  1  0.956400  0.612600  0.436600  1.0  0.1432
  H  H8  1  0.936600  0.956400  0.112600  1.0  0.1427
  H  H9  1  0.456400  0.436600  0.612600  1.0  0.1427
  H  H10  1  0.656200  0.480200  0.543600  1.0  0.1432
  H  H11  1  0.112600  0.456400  0.936600  1.0  0.1424
  H  H12  1  0.156200  0.543600  0.480200  1.0  0.1427
  H  H13  1  0.387400  0.324000  0.343800  1.0  0.143
  H  H14  1  0.343800  0.824000  0.387400  1.0  0.1425
  H  H15  1  0.676000  0.519800  0.063400  1.0  0.1428
  H  H16  1  0.063400  0.019800  0.676000  1.0  0.1429
  H  H17  1  0.612600  0.936600  0.456400  1.0  0.1433
  H  H18  1  0.176000  0.063400  0.519800  1.0  0.1431
  H  H19  1  0.436600  0.112600  0.956400  1.0  0.1436
  H  H20  1  0.543600  0.980200  0.656200  1.0  0.1429
  H  H21  1  0.980200  0.156200  0.043600  1.0  0.1437
  H  H22  1  0.019800  0.176000  0.563400  1.0  0.1429
  H  H23  1  0.887400  0.343800  0.324000  1.0  0.1445
  H  H24  1  0.043600  0.656200  0.980200  1.0  0.144
  H  H25  1  0.824000  0.887400  0.843800  1.0  0.1433
  H  H26  1  0.519800  0.563400  0.176000  1.0  0.1428
  H  H27  1  0.324000  0.843800  0.887400  1.0  0.1442
  H  H28  1  0.480200  0.043600  0.156200  1.0  0.1426
  H  H29  1  0.563400  0.676000  0.019800  1.0  0.1434
  H  H30  1  0.843800  0.387400  0.824000  1.0  0.1429
  C  C31  1  0.546000  0.572100  0.139700  1.0  0.0559
  C  C32  1  0.806100  0.445700  0.330800  1.0  0.6627
  C  C33  1  0.125200  0.032300  0.599100  1.0  -0.1363
  C  C34  1  0.330800  0.945700  0.806100  1.0  0.6692
  C  C35  1  0.385100  0.860400  0.054300  1.0  0.6663
  C  C36  1  0.532300  0.625200  0.099100  1.0  -0.1326
  C  C37  1  0.572100  0.639700  0.046000  1.0  0.0596
  C  C38  1  0.567600  0.927900  0.473900  1.0  0.0588
  C  C39  1  0.526100  0.954000  0.593700  1.0  0.0567
  C  C40  1  0.933200  0.526100  0.900900  1.0  -0.137
  C  C41  1  0.360400  0.885100  0.554300  1.0  0.6638
  C  C42  1  0.360300  0.906300  0.932400  1.0  0.0593
  C  C43  1  0.625200  0.599100  0.032300  1.0  -0.1358
  C  C44  1  0.593700  0.454000  0.526100  1.0  0.0582
  C  C45  1  0.432400  0.360300  0.406300  1.0  0.0597
  C  C46  1  0.093700  0.526100  0.454000  1.0  0.0579
  C  C47  1  0.973900  0.567600  0.427900  1.0  0.0601
  C  C48  1  0.860400  0.554300  0.885100  1.0  0.6624
  C  C49  1  0.139700  0.072100  0.546000  1.0  0.0597
  C  C50  1  0.907100  0.473900  0.374800  1.0  -0.1355
  C  C51  1  0.092900  0.566800  0.967700  1.0  -0.1335
  C  C52  1  0.473900  0.874800  0.407100  1.0  -0.1329
  C  C53  1  0.524700  0.193900  0.139600  1.0  0.6652
  C  C54  1  0.433200  0.900900  0.526100  1.0  -0.1381
  C  C55  1  0.566800  0.467700  0.592900  1.0  -0.1345
  C  C56  1  0.026100  0.433200  0.400900  1.0  -0.1329
  C  C57  1  0.975300  0.114900  0.669200  1.0  0.6648
  C  C58  1  0.427900  0.067600  0.973900  1.0  0.0593
  C  C59  1  0.945700  0.306100  0.830800  1.0  0.6657
  C  C60  1  0.614900  0.475300  0.169200  1.0  0.6677
  C  C61  1  0.046000  0.139700  0.572100  1.0  0.0583
  C  C62  1  0.932400  0.406300  0.360300  1.0  0.0601
  C  C63  1  0.067600  0.473900  0.927900  1.0  0.0584
  C  C64  1  0.973900  0.407100  0.874800  1.0  -0.1327
  C  C65  1  0.599100  0.532300  0.125200  1.0  -0.1334
  C  C66  1  0.693900  0.024700  0.639600  1.0  0.663
  C  C67  1  0.592900  0.967700  0.566800  1.0  -0.1337
  C  C68  1  0.885100  0.054300  0.860400  1.0  0.6679
  C  C69  1  0.114900  0.169200  0.475300  1.0  0.6669
  C  C70  1  0.306100  0.330800  0.445700  1.0  0.6627
  C  C71  1  0.900900  0.026100  0.933200  1.0  -0.1324
  C  C72  1  0.454000  0.026100  0.093700  1.0  0.0562
  C  C73  1  0.024700  0.139600  0.193900  1.0  0.6682
  C  C74  1  0.526100  0.400900  0.433200  1.0  -0.1325
  C  C75  1  0.026100  0.593700  0.954000  1.0  0.0584
  C  C76  1  0.906300  0.432400  0.860300  1.0  0.0608
  C  C77  1  0.874800  0.907100  0.973900  1.0  -0.1361
  C  C78  1  0.169200  0.975300  0.614900  1.0  0.6626
  C  C79  1  0.639700  0.546000  0.072100  1.0  0.06
  C  C80  1  0.473900  0.427900  0.567600  1.0  0.0572
  C  C81  1  0.554300  0.385100  0.360400  1.0  0.6672
  C  C82  1  0.830800  0.806100  0.945700  1.0  0.6654
  C  C83  1  0.967700  0.066800  0.092900  1.0  -0.1339
  C  C84  1  0.374800  0.973900  0.907100  1.0  -0.1362
  C  C85  1  0.445700  0.830800  0.306100  1.0  0.6686
  C  C86  1  0.927900  0.973900  0.067600  1.0  0.058
  C  C87  1  0.193900  0.639600  0.024700  1.0  0.6648
  C  C88  1  0.066800  0.592900  0.467700  1.0  -0.1328
  C  C89  1  0.054300  0.360400  0.385100  1.0  0.6631
  C  C90  1  0.400900  0.933200  0.026100  1.0  -0.1328
  C  C91  1  0.860300  0.932400  0.906300  1.0  0.0604
  C  C92  1  0.475300  0.669200  0.114900  1.0  0.6623
  C  C93  1  0.467700  0.092900  0.066800  1.0  -0.1328
  C  C94  1  0.072100  0.046000  0.639700  1.0  0.0583
  C  C95  1  0.139600  0.693900  0.524700  1.0  0.6655
  C  C96  1  0.032300  0.099100  0.625200  1.0  -0.1338
  C  C97  1  0.099100  0.125200  0.532300  1.0  -0.1323
  C  C98  1  0.639600  0.524700  0.693900  1.0  0.6664
  C  C99  1  0.954000  0.093700  0.026100  1.0  0.0567
  C  C100  1  0.406300  0.860300  0.432400  1.0  0.0595
  C  C101  1  0.407100  0.374800  0.473900  1.0  -0.1357
  C  C102  1  0.669200  0.614900  0.975300  1.0  0.6676
  O  O103  1  0.361200  0.778000  0.246800  1.0  -0.533
  O  O104  1  0.567800  0.218700  0.223300  1.0  -0.5732
  O  O105  1  0.138800  0.385600  0.416800  1.0  -0.5337
  O  O106  1  0.650900  0.655500  0.932200  1.0  -0.5734
  O  O107  1  0.932200  0.155500  0.650900  1.0  -0.5721
  O  O108  1  0.031200  0.114400  0.253200  1.0  -0.5345
  O  O109  1  0.276700  0.844500  0.495400  1.0  -0.5724
  O  O110  1  0.916800  0.138800  0.885600  1.0  -0.5308
  O  O111  1  0.861200  0.246800  0.778000  1.0  -0.5331
  O  O112  1  0.655500  0.432200  0.150900  1.0  -0.5728
  O  O113  1  0.468800  0.722000  0.083200  1.0  -0.5326
  O  O114  1  0.968800  0.083200  0.722000  1.0  -0.5333
  O  O115  1  0.067800  0.223300  0.218700  1.0  -0.5705
  O  O116  1  0.723300  0.567800  0.718700  1.0  -0.5724
  O  O117  1  0.722000  0.583200  0.968800  1.0  -0.5341
  O  O118  1  0.155500  0.150900  0.432200  1.0  -0.5739
  O  O119  1  0.004600  0.281300  0.849100  1.0  -0.5728
  O  O120  1  0.349100  0.004600  0.781300  1.0  -0.5737
  O  O121  1  0.776700  0.495400  0.844500  1.0  -0.5724
  O  O122  1  0.885600  0.638800  0.916800  1.0  -0.5328
  O  O123  1  0.781300  0.504600  0.349100  1.0  -0.5719
  O  O124  1  0.223300  0.718700  0.567800  1.0  -0.5751
  O  O125  1  0.746800  0.361200  0.278000  1.0  -0.5335
  O  O126  1  0.495400  0.344500  0.276700  1.0  -0.5743
  O  O127  1  0.281300  0.349100  0.504600  1.0  -0.5703
  O  O128  1  0.849100  0.781300  0.004600  1.0  -0.5734
  O  O129  1  0.344500  0.776700  0.995400  1.0  -0.5706
  O  O130  1  0.432200  0.650900  0.155500  1.0  -0.5708
  O  O131  1  0.083200  0.222000  0.468800  1.0  -0.5325
  O  O132  1  0.614400  0.531200  0.753200  1.0  -0.5343
  O  O133  1  0.778000  0.746800  0.861200  1.0  -0.5334
  O  O134  1  0.114400  0.753200  0.531200  1.0  -0.5321
  O  O135  1  0.385600  0.916800  0.638800  1.0  -0.5338
  O  O136  1  0.718700  0.067800  0.723300  1.0  -0.5731
  O  O137  1  0.150900  0.932200  0.655500  1.0  -0.5731
  O  O138  1  0.844500  0.995400  0.776700  1.0  -0.5737
  O  O139  1  0.995400  0.276700  0.344500  1.0  -0.5727
  O  O140  1  0.222000  0.968800  0.583200  1.0  -0.5314
  O  O141  1  0.246800  0.278000  0.361200  1.0  -0.5324
  O  O142  1  0.583200  0.468800  0.222000  1.0  -0.5343
  O  O143  1  0.218700  0.723300  0.067800  1.0  -0.5731
  O  O144  1  0.531200  0.253200  0.114400  1.0  -0.5336
  O  O145  1  0.253200  0.614400  0.031200  1.0  -0.5332
  O  O146  1  0.753200  0.031200  0.614400  1.0  -0.5317
  O  O147  1  0.416800  0.885600  0.138800  1.0  -0.5315
  O  O148  1  0.638800  0.416800  0.385600  1.0  -0.5326
  O  O149  1  0.278000  0.861200  0.746800  1.0  -0.5313
  O  O150  1  0.504600  0.849100  0.281300  1.0  -0.5727
