# generated using pymatgen
data_CdH2C8NO6
_symmetry_space_group_name_H-M   'P 1'
_cell_length_a   9.19070000
_cell_length_b   9.19070000
_cell_length_c   12.75900000
_cell_angle_alpha   90.00000000
_cell_angle_beta   90.00000000
_cell_angle_gamma   120.00000000
_symmetry_Int_Tables_number   1
_chemical_formula_structural   CdH2C8NO6
_chemical_formula_sum   'Cd3 H6 C24 N3 O18'
_cell_volume   933.34982329
_cell_formula_units_Z   3
loop_
 _symmetry_equiv_pos_site_id
 _symmetry_equiv_pos_as_xyz
  1  'x, y, z'
loop_
 _atom_site_type_symbol
 _atom_site_label
 _atom_site_symmetry_multiplicity
 _atom_site_fract_x
 _atom_site_fract_y
 _atom_site_fract_z
 _atom_site_occupancy
 _atom_site_charge
  Cd  Cd1  1  0.637350  0.000000  0.000000  1.0  1.0023
  Cd  Cd2  1  0.000000  0.637350  0.333333  1.0  1.0029
  Cd  Cd3  1  0.362650  0.362650  0.666667  1.0  1.0024
  H  H4  1  0.963800  0.794300  0.549470  1.0  0.1637
  H  H5  1  0.830500  0.036200  0.216130  1.0  0.1643
  H  H6  1  0.794300  0.963800  0.783870  1.0  0.1652
  H  H7  1  0.169500  0.205700  0.450530  1.0  0.1634
  H  H8  1  0.036200  0.830500  0.117200  1.0  0.1626
  H  H9  1  0.205700  0.169500  0.882800  1.0  0.1646
  C  C10  1  0.071200  0.071200  0.666667  1.0  0.7336
  C  C11  1  0.880000  0.779700  0.596320  1.0  0.0349
  C  C12  1  0.680300  0.483500  0.522950  1.0  0.7351
  C  C13  1  0.483500  0.680300  0.810390  1.0  0.7348
  C  C14  1  0.631000  0.725900  0.735810  1.0  0.1501
  C  C15  1  0.094900  0.369000  0.402470  1.0  0.1516
  C  C16  1  0.905800  0.905800  0.666667  1.0  -0.0923
  C  C17  1  0.120000  0.899700  0.070350  1.0  0.0352
  C  C18  1  0.220300  0.100300  0.929650  1.0  0.0373
  C  C19  1  0.516500  0.196800  0.856280  1.0  0.7355
  C  C20  1  0.725900  0.631000  0.597530  1.0  0.1506
  C  C21  1  0.000000  0.928800  0.333333  1.0  0.7337
  C  C22  1  0.928800  0.000000  0.000000  1.0  0.7348
  C  C23  1  0.779700  0.880000  0.737020  1.0  0.0355
  C  C24  1  0.803200  0.319700  0.189610  1.0  0.7348
  C  C25  1  0.899700  0.120000  0.262980  1.0  0.0346
  C  C26  1  0.905100  0.274100  0.264190  1.0  0.1495
  C  C27  1  0.274100  0.905100  0.069140  1.0  0.1496
  C  C28  1  0.369000  0.094900  0.930860  1.0  0.1494
  C  C29  1  0.000000  0.094200  0.333333  1.0  -0.0927
  C  C30  1  0.094200  0.000000  0.000000  1.0  -0.0929
  C  C31  1  0.100300  0.220300  0.403680  1.0  0.0352
  C  C32  1  0.196800  0.516500  0.477050  1.0  0.735
  C  C33  1  0.319700  0.803200  0.143720  1.0  0.7365
  N  N34  1  0.607600  0.607600  0.666667  1.0  -0.2576
  N  N35  1  0.000000  0.392400  0.333333  1.0  -0.2602
  N  N36  1  0.392400  0.000000  0.000000  1.0  -0.259
  O  O37  1  0.356100  0.539900  0.798140  1.0  -0.5498
  O  O38  1  0.643900  0.183800  0.868530  1.0  -0.5481
  O  O39  1  0.924390  0.118590  0.956570  1.0  -0.5438
  O  O40  1  0.881410  0.805800  0.289900  1.0  -0.5431
  O  O41  1  0.539900  0.356100  0.535200  1.0  -0.5484
  O  O42  1  0.194200  0.075610  0.623240  1.0  -0.5435
  O  O43  1  0.499200  0.785600  0.875720  1.0  -0.6857
  O  O44  1  0.075610  0.194200  0.710100  1.0  -0.5421
  O  O45  1  0.286400  0.500800  0.542380  1.0  -0.6833
  O  O46  1  0.785600  0.499200  0.457620  1.0  -0.6837
  O  O47  1  0.118590  0.924390  0.376760  1.0  -0.5427
  O  O48  1  0.805800  0.881410  0.043430  1.0  -0.5401
  O  O49  1  0.500800  0.286400  0.790950  1.0  -0.6885
  O  O50  1  0.816200  0.460100  0.201860  1.0  -0.5517
  O  O51  1  0.183800  0.643900  0.464800  1.0  -0.5473
  O  O52  1  0.214400  0.713600  0.209050  1.0  -0.6884
  O  O53  1  0.713600  0.214400  0.124280  1.0  -0.6869
  O  O54  1  0.460100  0.816200  0.131470  1.0  -0.5467
