# generated using pymatgen
data_CdH2C8NO6
_symmetry_space_group_name_H-M   'P 1'
_cell_length_a   9.18840000
_cell_length_b   9.18840000
_cell_length_c   12.74300000
_cell_angle_alpha   90.00000000
_cell_angle_beta   90.00000000
_cell_angle_gamma   120.00000000
_symmetry_Int_Tables_number   1
_chemical_formula_structural   CdH2C8NO6
_chemical_formula_sum   'Cd3 H6 C24 N3 O18'
_cell_volume   931.71288401
_cell_formula_units_Z   3
loop_
 _symmetry_equiv_pos_site_id
 _symmetry_equiv_pos_as_xyz
  1  'x, y, z'
loop_
 _atom_site_type_symbol
 _atom_site_label
 _atom_site_symmetry_multiplicity
 _atom_site_fract_x
 _atom_site_fract_y
 _atom_site_fract_z
 _atom_site_occupancy
 _atom_site_charge
  Cd  Cd1  1  0.000000  0.637540  0.666667  1.0  1.0061
  Cd  Cd2  1  0.362460  0.362460  0.333333  1.0  1.0052
  Cd  Cd3  1  0.637540  0.000000  0.000000  1.0  1.007
  H  H4  1  0.829500  0.036000  0.783870  1.0  0.1643
  H  H5  1  0.170500  0.206500  0.549470  1.0  0.1635
  H  H6  1  0.206500  0.170500  0.117200  1.0  0.1624
  H  H7  1  0.036000  0.829500  0.882800  1.0  0.1643
  H  H8  1  0.964000  0.793500  0.450530  1.0  0.1636
  H  H9  1  0.793500  0.964000  0.216130  1.0  0.1643
  C  C10  1  0.220900  0.100900  0.070490  1.0  0.033
  C  C11  1  0.803000  0.319500  0.810470  1.0  0.7146
  C  C12  1  0.197000  0.516500  0.522870  1.0  0.7167
  C  C13  1  0.369300  0.095100  0.069270  1.0  0.1696
  C  C14  1  0.905300  0.905300  0.333333  1.0  -0.1011
  C  C15  1  0.000000  0.094700  0.666667  1.0  -0.1015
  C  C16  1  0.880000  0.779100  0.403820  1.0  0.0277
  C  C17  1  0.680500  0.483500  0.477130  1.0  0.7166
  C  C18  1  0.516500  0.197000  0.143800  1.0  0.7153
  C  C19  1  0.483500  0.680500  0.189530  1.0  0.7153
  C  C20  1  0.071200  0.071200  0.333333  1.0  0.7333
  C  C21  1  0.319500  0.803000  0.856200  1.0  0.7159
  C  C22  1  0.630700  0.725800  0.264060  1.0  0.1687
  C  C23  1  0.094700  0.000000  0.000000  1.0  -0.1032
  C  C24  1  0.120000  0.899100  0.929510  1.0  0.0329
  C  C25  1  0.095100  0.369300  0.597400  1.0  0.1705
  C  C26  1  0.899100  0.120000  0.737160  1.0  0.0313
  C  C27  1  0.000000  0.928800  0.666667  1.0  0.7336
  C  C28  1  0.779100  0.880000  0.262840  1.0  0.0335
  C  C29  1  0.904900  0.274200  0.735940  1.0  0.1695
  C  C30  1  0.928800  0.000000  0.000000  1.0  0.735
  C  C31  1  0.100900  0.220900  0.596180  1.0  0.035
  C  C32  1  0.725800  0.630700  0.402600  1.0  0.1701
  C  C33  1  0.274200  0.904900  0.930730  1.0  0.1692
  N  N34  1  0.607400  0.607400  0.333333  1.0  -0.257
  N  N35  1  0.392600  0.000000  0.000000  1.0  -0.2582
  N  N36  1  0.000000  0.392600  0.666667  1.0  -0.2588
  O  O37  1  0.500900  0.286800  0.209230  1.0  -0.6917
  O  O38  1  0.805600  0.881030  0.956460  1.0  -0.5345
  O  O39  1  0.355600  0.539400  0.201830  1.0  -0.5491
  O  O40  1  0.539400  0.355600  0.464830  1.0  -0.5464
  O  O41  1  0.194400  0.075430  0.376870  1.0  -0.5358
  O  O42  1  0.785900  0.499100  0.542560  1.0  -0.6863
  O  O43  1  0.183800  0.644400  0.535170  1.0  -0.5467
  O  O44  1  0.713200  0.214100  0.875900  1.0  -0.6894
  O  O45  1  0.286800  0.500900  0.457440  1.0  -0.6871
  O  O46  1  0.118970  0.924570  0.623130  1.0  -0.5364
  O  O47  1  0.881030  0.805600  0.710210  1.0  -0.534
  O  O48  1  0.214100  0.713200  0.790770  1.0  -0.6914
  O  O49  1  0.460600  0.816200  0.868500  1.0  -0.5459
  O  O50  1  0.816200  0.460600  0.798170  1.0  -0.5477
  O  O51  1  0.924570  0.118970  0.043540  1.0  -0.5363
  O  O52  1  0.075430  0.194400  0.289790  1.0  -0.5355
  O  O53  1  0.499100  0.785900  0.124100  1.0  -0.6891
  O  O54  1  0.644400  0.183800  0.131500  1.0  -0.545
