# generated using pymatgen
data_KCuH8C11SN2ClO6
_symmetry_space_group_name_H-M   'P 1'
_cell_length_a   7.13640000
_cell_length_b   11.42970000
_cell_length_c   11.74850000
_cell_angle_alpha   62.65800000
_cell_angle_beta   75.56800000
_cell_angle_gamma   88.56000000
_symmetry_Int_Tables_number   1
_chemical_formula_structural   KCuH8C11SN2ClO6
_chemical_formula_sum   'K2 Cu2 H16 C22 S2 N4 Cl2 O12'
_cell_volume   819.91040894
_cell_formula_units_Z   2
loop_
 _symmetry_equiv_pos_site_id
 _symmetry_equiv_pos_as_xyz
  1  'x, y, z'
loop_
 _atom_site_type_symbol
 _atom_site_label
 _atom_site_symmetry_multiplicity
 _atom_site_fract_x
 _atom_site_fract_y
 _atom_site_fract_z
 _atom_site_occupancy
 _atom_site_charge
  K  K1  1  0.767100  0.923000  0.003200  1.0  0.9631
  K  K2  1  0.232900  0.077000  0.996800  1.0  0.9645
  Cu  Cu3  1  0.879970  0.719300  0.356330  1.0  0.8026
  Cu  Cu4  1  0.120030  0.280700  0.643670  1.0  0.802
  H  H5  1  0.307400  0.586200  0.931100  1.0  0.131
  H  H6  1  0.528500  0.431100  0.812800  1.0  0.1384
  H  H7  1  0.434600  0.901500  0.303800  1.0  0.1735
  H  H8  1  0.017000  0.648600  0.692600  1.0  0.1565
  H  H9  1  0.983000  0.351400  0.307400  1.0  0.1567
  H  H10  1  0.603800  0.202500  0.542000  1.0  0.1522
  H  H11  1  0.396200  0.797500  0.458000  1.0  0.1547
  H  H12  1  0.774000  0.181500  0.614100  1.0  0.1632
  H  H13  1  0.631700  0.495800  0.262300  1.0  0.1466
  H  H14  1  0.471500  0.568900  0.187200  1.0  0.1383
  H  H15  1  0.226000  0.818500  0.385900  1.0  0.1641
  H  H16  1  0.471900  0.411700  0.247600  1.0  0.1498
  H  H17  1  0.692600  0.413800  0.068900  1.0  0.1311
  H  H18  1  0.528100  0.588300  0.752400  1.0  0.1495
  H  H19  1  0.565400  0.098500  0.696200  1.0  0.1726
  H  H20  1  0.368300  0.504200  0.737700  1.0  0.1448
  C  C21  1  0.804300  0.312700  0.966300  1.0  -0.2357
  C  C22  1  0.636700  0.529800  0.610400  1.0  0.3776
  C  C23  1  0.846200  0.548000  0.882200  1.0  0.0305
  C  C24  1  0.038800  0.436700  0.237800  1.0  -0.0898
  C  C25  1  0.366600  0.815900  0.374600  1.0  -0.3925
  C  C26  1  0.917700  0.321600  0.845700  1.0  0.3558
  C  C27  1  0.006600  0.547700  0.255000  1.0  0.1959
  C  C28  1  0.961200  0.563300  0.762200  1.0  -0.0901
  C  C29  1  0.153800  0.452000  0.117800  1.0  0.0335
  C  C30  1  0.768900  0.423500  0.985700  1.0  -0.0303
  C  C31  1  0.633400  0.184100  0.625400  1.0  -0.3911
  C  C32  1  0.672600  0.424800  0.578700  1.0  0.123
  C  C33  1  0.082300  0.678400  0.154300  1.0  0.3547
  C  C34  1  0.503900  0.511800  0.739500  1.0  -0.3594
  C  C35  1  0.327400  0.575200  0.421300  1.0  0.1236
  C  C36  1  0.993400  0.452300  0.745000  1.0  0.1952
  C  C37  1  0.195700  0.687300  0.033700  1.0  -0.235
  C  C38  1  0.431600  0.709800  0.338500  1.0  0.2647
  C  C39  1  0.231100  0.576500  0.014300  1.0  -0.0299
  C  C40  1  0.568400  0.290200  0.661500  1.0  0.2617
  C  C41  1  0.496100  0.488200  0.260500  1.0  -0.3602
  C  C42  1  0.363300  0.470200  0.389600  1.0  0.3775
  S  S43  1  0.698100  0.156130  0.100100  1.0  1.4261
  S  S44  1  0.301900  0.843870  0.899900  1.0  1.4253
  N  N45  1  0.200700  0.565400  0.534900  1.0  -0.2475
  N  N46  1  0.888700  0.546400  0.371800  1.0  -0.288
  N  N47  1  0.111300  0.453600  0.628200  1.0  -0.2878
  N  N48  1  0.799300  0.434600  0.465100  1.0  -0.2481
  Cl  Cl49  1  0.213000  0.313590  0.096140  1.0  -0.1662
  Cl  Cl50  1  0.787000  0.686410  0.903860  1.0  -0.1675
  O  O51  1  0.443400  0.891600  0.941400  1.0  -0.7596
  O  O52  1  0.383600  0.822700  0.786300  1.0  -0.6242
  O  O53  1  0.954800  0.221300  0.820900  1.0  -0.6432
  O  O54  1  0.285300  0.351600  0.466800  1.0  -0.5553
  O  O55  1  0.714700  0.648400  0.533200  1.0  -0.5563
  O  O56  1  0.423900  0.267200  0.754300  1.0  -0.5894
  O  O57  1  0.142000  0.927700  0.881500  1.0  -0.7727
  O  O58  1  0.576100  0.732800  0.245700  1.0  -0.5901
  O  O59  1  0.858000  0.072300  0.118500  1.0  -0.7718
  O  O60  1  0.556600  0.108400  0.058600  1.0  -0.758
  O  O61  1  0.616400  0.177300  0.213700  1.0  -0.6213
  O  O62  1  0.045200  0.778700  0.179100  1.0  -0.6396
