# generated using pymatgen
data_ZnH7C11SN2O7
_symmetry_space_group_name_H-M   'P 1'
_cell_length_a   8.13310000
_cell_length_b   14.65560000
_cell_length_c   16.82570000
_cell_angle_alpha   90.00000000
_cell_angle_beta   90.00000000
_cell_angle_gamma   90.00000000
_symmetry_Int_Tables_number   1
_chemical_formula_structural   ZnH7C11SN2O7
_chemical_formula_sum   'Zn4 H28 C44 S4 N8 O28'
_cell_volume   2005.54705738
_cell_formula_units_Z   4
loop_
 _symmetry_equiv_pos_site_id
 _symmetry_equiv_pos_as_xyz
  1  'x, y, z'
loop_
 _atom_site_type_symbol
 _atom_site_label
 _atom_site_symmetry_multiplicity
 _atom_site_fract_x
 _atom_site_fract_y
 _atom_site_fract_z
 _atom_site_occupancy
 _atom_site_charge
  Zn  Zn1  1  0.560250  0.472490  0.954750  1.0  1.0402
  Zn  Zn2  1  0.939750  0.527510  0.454750  1.0  1.0399
  Zn  Zn3  1  0.439750  0.972490  0.545250  1.0  1.0398
  Zn  Zn4  1  0.060250  0.027510  0.045250  1.0  1.0403
  H  H5  1  0.020500  0.577800  0.118700  1.0  0.3097
  H  H6  1  0.317600  0.498700  0.225100  1.0  0.1156
  H  H7  1  0.104000  0.278200  0.320400  1.0  0.1385
  H  H8  1  0.326600  0.260100  0.108600  1.0  0.1253
  H  H9  1  0.732800  0.567000  0.102200  1.0  0.1142
  H  H10  1  0.946700  0.468500  0.912800  1.0  0.1212
  H  H11  1  0.161300  0.515800  0.999000  1.0  0.1294
  H  H12  1  0.479500  0.422200  0.618700  1.0  0.3095
  H  H13  1  0.182400  0.501300  0.725100  1.0  0.1152
  H  H14  1  0.396000  0.721800  0.820400  1.0  0.1381
  H  H15  1  0.173400  0.739900  0.608600  1.0  0.125
  H  H16  1  0.767200  0.433000  0.602200  1.0  0.1143
  H  H17  1  0.553300  0.531500  0.412800  1.0  0.121
  H  H18  1  0.338700  0.484200  0.499000  1.0  0.13
  H  H19  1  0.979500  0.077800  0.381300  1.0  0.309
  H  H20  1  0.682400  0.998700  0.274900  1.0  0.1159
  H  H21  1  0.896000  0.778200  0.179600  1.0  0.1379
  H  H22  1  0.673400  0.760100  0.391400  1.0  0.1255
  H  H23  1  0.267200  0.067000  0.397800  1.0  0.1146
  H  H24  1  0.053300  0.968500  0.587200  1.0  0.1217
  H  H25  1  0.838700  0.015800  0.501000  1.0  0.1298
  H  H26  1  0.520500  0.922200  0.881300  1.0  0.3094
  H  H27  1  0.817600  0.001300  0.774900  1.0  0.1149
  H  H28  1  0.604000  0.221800  0.679600  1.0  0.1376
  H  H29  1  0.826600  0.239900  0.891400  1.0  0.1256
  H  H30  1  0.232800  0.933000  0.897800  1.0  0.1145
  H  H31  1  0.446700  0.031500  0.087200  1.0  0.1213
  H  H32  1  0.661300  0.984200  0.001000  1.0  0.1295
  C  C33  1  0.333333  0.387430  0.155140  1.0  -0.145
  C  C34  1  0.289100  0.437330  0.221990  1.0  0.0164
  C  C35  1  0.204100  0.397730  0.283540  1.0  -0.1174
  C  C36  1  0.163400  0.305490  0.279560  1.0  0.024
  C  C37  1  0.212400  0.254490  0.213950  1.0  -0.1648
  C  C38  1  0.295400  0.294750  0.152370  1.0  0.0438
  C  C39  1  0.414300  0.432700  0.086110  1.0  0.6887
  C  C40  1  0.152000  0.456010  0.353000  1.0  0.6882
  C  C41  1  0.812800  0.548200  0.066200  1.0  0.1621
  C  C42  1  0.931100  0.494400  0.962700  1.0  0.0666
  C  C43  1  0.049000  0.520000  0.008900  1.0  -0.048
  C  C44  1  0.166700  0.612570  0.655140  1.0  -0.1453
  C  C45  1  0.210900  0.562670  0.721990  1.0  0.0141
  C  C46  1  0.295900  0.602270  0.783540  1.0  -0.1168
  C  C47  1  0.336600  0.694510  0.779560  1.0  0.0237
  C  C48  1  0.287600  0.745510  0.713950  1.0  -0.1628
  C  C49  1  0.204600  0.705250  0.652370  1.0  0.0456
  C  C50  1  0.085700  0.567300  0.586110  1.0  0.6892
  C  C51  1  0.348000  0.543990  0.853000  1.0  0.6887
  C  C52  1  0.687200  0.451800  0.566200  1.0  0.1649
  C  C53  1  0.568900  0.505600  0.462700  1.0  0.0673
  C  C54  1  0.451000  0.480000  0.508900  1.0  -0.0501
  C  C55  1  0.666667  0.887430  0.344860  1.0  -0.1452
  C  C56  1  0.710900  0.937330  0.278010  1.0  0.0155
  C  C57  1  0.795900  0.897730  0.216460  1.0  -0.1169
  C  C58  1  0.836600  0.805490  0.220440  1.0  0.025
  C  C59  1  0.787600  0.754490  0.286050  1.0  -0.1648
  C  C60  1  0.704600  0.794750  0.347630  1.0  0.043
  C  C61  1  0.585700  0.932700  0.413890  1.0  0.6892
  C  C62  1  0.848000  0.956010  0.147000  1.0  0.6885
  C  C63  1  0.187200  0.048200  0.433800  1.0  0.1636
  C  C64  1  0.068900  0.994400  0.537300  1.0  0.0661
  C  C65  1  0.951000  0.020000  0.491100  1.0  -0.0508
  C  C66  1  0.833300  0.112570  0.844860  1.0  -0.1462
  C  C67  1  0.789100  0.062670  0.778010  1.0  0.0147
  C  C68  1  0.704100  0.102270  0.716460  1.0  -0.1166
  C  C69  1  0.663400  0.194510  0.720440  1.0  0.0233
  C  C70  1  0.712400  0.245510  0.786050  1.0  -0.1626
  C  C71  1  0.795400  0.205250  0.847630  1.0  0.0453
  C  C72  1  0.914300  0.067300  0.913890  1.0  0.6889
  C  C73  1  0.652000  0.043990  0.647000  1.0  0.6883
  C  C74  1  0.312800  0.951800  0.933800  1.0  0.1629
  C  C75  1  0.431100  0.005600  0.037300  1.0  0.0659
  C  C76  1  0.549000  0.980000  0.991100  1.0  -0.0482
  S  S77  1  0.168980  0.135990  0.210190  1.0  1.387
  S  S78  1  0.331020  0.864010  0.710190  1.0  1.387
  S  S79  1  0.831020  0.635990  0.289810  1.0  1.3869
  S  S80  1  0.668980  0.364010  0.789810  1.0  1.3868
  N  N81  1  0.781900  0.509840  0.995600  1.0  -0.3188
  N  N82  1  0.972300  0.555600  0.077600  1.0  -0.2509
  N  N83  1  0.718100  0.490160  0.495600  1.0  -0.3184
  N  N84  1  0.527700  0.444400  0.577600  1.0  -0.2508
  N  N85  1  0.218100  0.009840  0.504400  1.0  -0.3187
  N  N86  1  0.027700  0.055600  0.422400  1.0  -0.2529
  N  N87  1  0.281900  0.990160  0.004400  1.0  -0.3187
  N  N88  1  0.472300  0.944400  0.922400  1.0  -0.2533
  O  O89  1  0.467900  0.382460  0.030730  1.0  -0.5655
  O  O90  1  0.427100  0.516860  0.083730  1.0  -0.5447
  O  O91  1  0.024800  0.427800  0.390490  1.0  -0.5866
  O  O92  1  0.226700  0.526060  0.368630  1.0  -0.4967
  O  O93  1  0.136700  0.121590  0.125850  1.0  -0.7626
  O  O94  1  0.313500  0.089230  0.236530  1.0  -0.5447
  O  O95  1  0.025400  0.120880  0.259220  1.0  -0.6236
  O  O96  1  0.032100  0.617540  0.530730  1.0  -0.5663
  O  O97  1  0.072900  0.483140  0.583730  1.0  -0.5448
  O  O98  1  0.475200  0.572200  0.890490  1.0  -0.5877
  O  O99  1  0.273300  0.473940  0.868630  1.0  -0.4976
  O  O100  1  0.363300  0.878410  0.625850  1.0  -0.7627
  O  O101  1  0.186500  0.910770  0.736530  1.0  -0.5433
  O  O102  1  0.474600  0.879120  0.759220  1.0  -0.6239
  O  O103  1  0.532100  0.882460  0.469270  1.0  -0.5657
  O  O104  1  0.572900  0.016860  0.416270  1.0  -0.5453
  O  O105  1  0.975200  0.927800  0.109510  1.0  -0.5859
  O  O106  1  0.773300  0.026060  0.131370  1.0  -0.4959
  O  O107  1  0.863300  0.621590  0.374150  1.0  -0.7644
  O  O108  1  0.686500  0.589230  0.263470  1.0  -0.5444
  O  O109  1  0.974600  0.620880  0.240780  1.0  -0.623
  O  O110  1  0.967900  0.117540  0.969270  1.0  -0.5647
  O  O111  1  0.927100  0.983140  0.916270  1.0  -0.545
  O  O112  1  0.524800  0.072200  0.609510  1.0  -0.5882
  O  O113  1  0.726700  0.973940  0.631370  1.0  -0.4983
  O  O114  1  0.636700  0.378410  0.874150  1.0  -0.7642
  O  O115  1  0.813500  0.410770  0.763470  1.0  -0.5442
  O  O116  1  0.525400  0.379120  0.740780  1.0  -0.6223
