# generated using pymatgen
data_GaP2HO8
_symmetry_space_group_name_H-M   'P 1'
_cell_length_a   8.47700000
_cell_length_b   8.79500000
_cell_length_c   8.92900000
_cell_angle_alpha   92.24800000
_cell_angle_beta   95.82500000
_cell_angle_gamma   98.07600000
_symmetry_Int_Tables_number   1
_chemical_formula_structural   GaP2HO8
_chemical_formula_sum   'Ga2 P4 H2 O16'
_cell_volume   654.73086373
_cell_formula_units_Z   2
loop_
 _symmetry_equiv_pos_site_id
 _symmetry_equiv_pos_as_xyz
  1  'x, y, z'
loop_
 _atom_site_type_symbol
 _atom_site_label
 _atom_site_symmetry_multiplicity
 _atom_site_fract_x
 _atom_site_fract_y
 _atom_site_fract_z
 _atom_site_occupancy
 _atom_site_charge
  Ga  Ga1  1  0.011320  0.482960  0.252110  1.0  1.6577
  Ga  Ga2  1  0.988680  0.517040  0.747890  1.0  1.6576
  P  P3  1  0.235690  0.563320  0.530900  1.0  1.7966
  P  P4  1  0.994460  0.731590  0.019010  1.0  1.7311
  P  P5  1  0.764310  0.436680  0.469100  1.0  1.7948
  P  P6  1  0.005540  0.268410  0.980990  1.0  1.7306
  H  H7  1  0.000000  0.000000  0.000000  1.0  0.3454
  H  H8  1  0.500000  0.500000  0.500000  1.0  0.3674
  O  O9  1  0.418110  0.576500  0.566850  1.0  -0.5401
  O  O10  1  0.177300  0.715190  0.523040  1.0  -0.5938
  O  O11  1  0.082700  0.639260  0.136440  1.0  -0.8466
  O  O12  1  0.822700  0.284810  0.476960  1.0  -0.5912
  O  O13  1  0.182520  0.302700  0.983610  1.0  -0.58
  O  O14  1  0.160740  0.470870  0.657590  1.0  -0.8195
  O  O15  1  0.936930  0.099560  0.935950  1.0  -0.5217
  O  O16  1  0.817480  0.697300  0.016390  1.0  -0.5734
  O  O17  1  0.949950  0.304630  0.136870  1.0  -0.8254
  O  O18  1  0.810940  0.537060  0.619080  1.0  -0.8198
  O  O19  1  0.917300  0.360740  0.863560  1.0  -0.8452
  O  O20  1  0.063070  0.900440  0.064050  1.0  -0.5222
  O  O21  1  0.050050  0.695370  0.863130  1.0  -0.8238
  O  O22  1  0.581890  0.423500  0.433150  1.0  -0.5401
  O  O23  1  0.189060  0.462940  0.380920  1.0  -0.8199
  O  O24  1  0.839260  0.529130  0.342410  1.0  -0.8184
