# generated using pymatgen
data_MnH3(C3O2)3
_symmetry_space_group_name_H-M   'P 1'
_cell_length_a   12.43780000
_cell_length_b   14.77170000
_cell_length_c   16.60970000
_cell_angle_alpha   90.00000000
_cell_angle_beta   90.00000000
_cell_angle_gamma   90.00000000
_symmetry_Int_Tables_number   1
_chemical_formula_structural   MnH3(C3O2)3
_chemical_formula_sum   'Mn8 H24 C72 O48'
_cell_volume   3051.65783058
_cell_formula_units_Z   8
loop_
 _symmetry_equiv_pos_site_id
 _symmetry_equiv_pos_as_xyz
  1  'x, y, z'
loop_
 _atom_site_type_symbol
 _atom_site_label
 _atom_site_symmetry_multiplicity
 _atom_site_fract_x
 _atom_site_fract_y
 _atom_site_fract_z
 _atom_site_occupancy
 _atom_site_charge
  Mn  Mn1  1  0.604560  0.016600  0.579850  1.0  1.1295
  Mn  Mn2  1  0.395440  0.516600  0.920150  1.0  1.131
  Mn  Mn3  1  0.395440  0.983400  0.420150  1.0  1.1307
  Mn  Mn4  1  0.104560  0.016600  0.920150  1.0  1.1299
  Mn  Mn5  1  0.895440  0.516600  0.579850  1.0  1.1303
  Mn  Mn6  1  0.604560  0.483400  0.079850  1.0  1.1292
  Mn  Mn7  1  0.895440  0.983400  0.079850  1.0  1.1299
  Mn  Mn8  1  0.104560  0.483400  0.420150  1.0  1.1297
  H  H9  1  0.775400  0.968900  0.349600  1.0  0.1932
  H  H10  1  0.660800  0.240700  0.014300  1.0  0.1976
  H  H11  1  0.839200  0.740700  0.014300  1.0  0.1982
  H  H12  1  0.724600  0.468900  0.349600  1.0  0.1928
  H  H13  1  0.339200  0.740700  0.485700  1.0  0.1984
  H  H14  1  0.160800  0.259300  0.985700  1.0  0.1983
  H  H15  1  0.559100  0.234700  0.285600  1.0  0.2236
  H  H16  1  0.440900  0.765300  0.714400  1.0  0.2238
  H  H17  1  0.940900  0.765300  0.785600  1.0  0.2231
  H  H18  1  0.160800  0.240700  0.485700  1.0  0.1979
  H  H19  1  0.940900  0.734700  0.285600  1.0  0.2232
  H  H20  1  0.660800  0.259300  0.514300  1.0  0.198
  H  H21  1  0.775400  0.531100  0.849600  1.0  0.1923
  H  H22  1  0.224600  0.031100  0.650400  1.0  0.192
  H  H23  1  0.339200  0.759300  0.985700  1.0  0.1985
  H  H24  1  0.059100  0.234700  0.214400  1.0  0.2245
  H  H25  1  0.559100  0.265300  0.785600  1.0  0.2235
  H  H26  1  0.224600  0.468900  0.150400  1.0  0.1922
  H  H27  1  0.440900  0.734700  0.214400  1.0  0.2236
  H  H28  1  0.275400  0.968900  0.150400  1.0  0.1924
  H  H29  1  0.059100  0.265300  0.714400  1.0  0.2242
  H  H30  1  0.275400  0.531100  0.650400  1.0  0.1919
  H  H31  1  0.839200  0.759300  0.514300  1.0  0.1983
  H  H32  1  0.724600  0.031100  0.849600  1.0  0.1925
  C  C33  1  0.862700  0.902200  0.219800  1.0  0.5011
  C  C34  1  0.703400  0.369900  0.439300  1.0  -0.0475
  C  C35  1  0.906200  0.767900  0.327200  1.0  0.0505
  C  C36  1  0.703400  0.130100  0.939300  1.0  -0.0475
  C  C37  1  0.653200  0.280900  0.460700  1.0  0.0038
  C  C38  1  0.593800  0.267900  0.327200  1.0  0.0505
  C  C39  1  0.906200  0.732100  0.827200  1.0  0.0491
  C  C40  1  0.595500  0.228000  0.405500  1.0  0.0121
  C  C41  1  0.857600  0.641500  0.804400  1.0  -0.0476
  C  C42  1  0.296600  0.630100  0.560700  1.0  -0.0479
  C  C43  1  0.804300  0.589100  0.861400  1.0  -0.045
  C  C44  1  0.796600  0.630100  0.939300  1.0  -0.0476
  C  C45  1  0.862700  0.597800  0.719800  1.0  0.5002
  C  C46  1  0.137300  0.097800  0.780200  1.0  0.5021
  C  C47  1  0.142400  0.141500  0.695600  1.0  -0.0495
  C  C48  1  0.153200  0.280900  0.039300  1.0  0.0014
  C  C49  1  0.406200  0.767900  0.172800  1.0  0.0513
  C  C50  1  0.346800  0.780900  0.039300  1.0  -0.0007
  C  C51  1  0.595500  0.272000  0.905500  1.0  0.0128
  C  C52  1  0.357600  0.641500  0.695600  1.0  -0.0489
  C  C53  1  0.695700  0.410900  0.361400  1.0  -0.0472
  C  C54  1  0.268900  0.422100  0.003100  1.0  0.4513
  C  C55  1  0.203400  0.369900  0.060700  1.0  -0.0471
  C  C56  1  0.406200  0.732100  0.672800  1.0  0.0505
  C  C57  1  0.695700  0.089100  0.861400  1.0  -0.0439
  C  C58  1  0.093800  0.232100  0.672800  1.0  0.0505
  C  C59  1  0.846800  0.780900  0.460700  1.0  0.0039
  C  C60  1  0.731100  0.922100  0.496900  1.0  0.4504
  C  C61  1  0.137300  0.402200  0.280200  1.0  0.5036
  C  C62  1  0.357600  0.858500  0.195600  1.0  -0.0493
  C  C63  1  0.231100  0.922100  0.003100  1.0  0.451
  C  C64  1  0.768900  0.077900  0.996900  1.0  0.4507
  C  C65  1  0.093800  0.267900  0.172800  1.0  0.0523
  C  C66  1  0.461200  0.639600  0.071000  1.0  0.7216
  C  C67  1  0.961200  0.860400  0.929000  1.0  0.7216
  C  C68  1  0.195700  0.410900  0.138600  1.0  -0.0465
  C  C69  1  0.404500  0.772000  0.594500  1.0  0.0116
  C  C70  1  0.153200  0.219100  0.539300  1.0  0.0028
  C  C71  1  0.538800  0.139600  0.429000  1.0  0.7224
  C  C72  1  0.195700  0.089100  0.638600  1.0  -0.0441
  C  C73  1  0.095500  0.228000  0.094500  1.0  0.0121
  C  C74  1  0.768900  0.422100  0.496900  1.0  0.4505
  C  C75  1  0.296600  0.869900  0.060700  1.0  -0.0477
  C  C76  1  0.804300  0.910900  0.361400  1.0  -0.0456
  C  C77  1  0.142400  0.358500  0.195600  1.0  -0.0498
  C  C78  1  0.593800  0.232100  0.827200  1.0  0.0501
  C  C79  1  0.653200  0.219100  0.960700  1.0  0.0022
  C  C80  1  0.731100  0.577900  0.996900  1.0  0.4508
  C  C81  1  0.904500  0.772000  0.905500  1.0  0.0117
  C  C82  1  0.857600  0.858500  0.304400  1.0  -0.0484
  C  C83  1  0.404500  0.728000  0.094500  1.0  0.0115
  C  C84  1  0.362700  0.597800  0.780200  1.0  0.5019
  C  C85  1  0.961200  0.639600  0.429000  1.0  0.7219
  C  C86  1  0.231100  0.577900  0.503100  1.0  0.4502
  C  C87  1  0.203400  0.130100  0.560700  1.0  -0.0475
  C  C88  1  0.904500  0.728000  0.405500  1.0  0.0116
  C  C89  1  0.304300  0.910900  0.138600  1.0  -0.0474
  C  C90  1  0.095500  0.272000  0.594500  1.0  0.0126
  C  C91  1  0.038800  0.139600  0.071000  1.0  0.7219
  C  C92  1  0.038800  0.360400  0.571000  1.0  0.7218
  C  C93  1  0.304300  0.589100  0.638600  1.0  -0.0447
  C  C94  1  0.637300  0.402200  0.219800  1.0  0.5024
  C  C95  1  0.538800  0.360400  0.929000  1.0  0.7221
  C  C96  1  0.642400  0.358500  0.304400  1.0  -0.0487
  C  C97  1  0.637300  0.097800  0.719800  1.0  0.5018
  C  C98  1  0.642400  0.141500  0.804400  1.0  -0.0479
  C  C99  1  0.846800  0.719100  0.960700  1.0  0.0039
  C  C100  1  0.362700  0.902200  0.280200  1.0  0.502
  C  C101  1  0.268900  0.077900  0.503100  1.0  0.4505
  C  C102  1  0.796600  0.869900  0.439300  1.0  -0.0477
  C  C103  1  0.461200  0.860400  0.571000  1.0  0.7214
  C  C104  1  0.346800  0.719100  0.539300  1.0  0.002
  O  O105  1  0.328000  0.990300  0.295700  1.0  -0.5069
  O  O106  1  0.699100  0.867200  0.553200  1.0  -0.5824
  O  O107  1  0.672000  0.490300  0.204300  1.0  -0.505
  O  O108  1  0.499100  0.582900  0.124960  1.0  -0.5202
  O  O109  1  0.199100  0.632800  0.446800  1.0  -0.5848
  O  O110  1  0.404100  0.652100  0.832500  1.0  -0.5098
  O  O111  1  0.707700  0.483000  0.985700  1.0  -0.5759
  O  O112  1  0.328000  0.509700  0.795700  1.0  -0.5064
  O  O113  1  0.974700  0.619600  0.503830  1.0  -0.6464
  O  O114  1  0.595900  0.347900  0.167500  1.0  -0.5105
  O  O115  1  0.707700  0.017000  0.485700  1.0  -0.5739
  O  O116  1  0.499100  0.917100  0.624960  1.0  -0.5206
  O  O117  1  0.800900  0.132800  0.053200  1.0  -0.5851
  O  O118  1  0.404100  0.847900  0.332500  1.0  -0.5104
  O  O119  1  0.474700  0.880400  0.496170  1.0  -0.645
  O  O120  1  0.172000  0.009700  0.795700  1.0  -0.5051
  O  O121  1  0.025300  0.380400  0.496170  1.0  -0.6455
  O  O122  1  0.699100  0.632800  0.053200  1.0  -0.5835
  O  O123  1  0.792300  0.983000  0.985700  1.0  -0.5742
  O  O124  1  0.800900  0.367200  0.553200  1.0  -0.5841
  O  O125  1  0.792300  0.517000  0.485700  1.0  -0.575
  O  O126  1  0.525300  0.119600  0.503830  1.0  -0.6464
  O  O127  1  0.500900  0.417100  0.875040  1.0  -0.5206
  O  O128  1  0.172000  0.490300  0.295700  1.0  -0.5044
  O  O129  1  0.199100  0.867200  0.946800  1.0  -0.5841
  O  O130  1  0.300900  0.132800  0.446800  1.0  -0.5864
  O  O131  1  0.292300  0.983000  0.514300  1.0  -0.5737
  O  O132  1  0.025300  0.119600  0.996170  1.0  -0.645
  O  O133  1  0.207700  0.017000  0.014300  1.0  -0.5734
  O  O134  1  0.904100  0.847900  0.167500  1.0  -0.5125
  O  O135  1  0.000900  0.082900  0.124960  1.0  -0.5198
  O  O136  1  0.904100  0.652100  0.667500  1.0  -0.5095
  O  O137  1  0.974700  0.880400  0.003830  1.0  -0.6453
  O  O138  1  0.672000  0.009700  0.704300  1.0  -0.5038
  O  O139  1  0.300900  0.367200  0.946800  1.0  -0.5856
  O  O140  1  0.999100  0.582900  0.375040  1.0  -0.5228
  O  O141  1  0.000900  0.417100  0.624960  1.0  -0.5199
  O  O142  1  0.828000  0.990300  0.204300  1.0  -0.5053
  O  O143  1  0.999100  0.917100  0.875040  1.0  -0.5224
  O  O144  1  0.828000  0.509700  0.704300  1.0  -0.5061
  O  O145  1  0.095900  0.152100  0.832500  1.0  -0.5123
  O  O146  1  0.095900  0.347900  0.332500  1.0  -0.5131
  O  O147  1  0.207700  0.483000  0.514300  1.0  -0.5756
  O  O148  1  0.525300  0.380400  0.003830  1.0  -0.6456
  O  O149  1  0.500900  0.082900  0.375040  1.0  -0.5206
  O  O150  1  0.292300  0.517000  0.014300  1.0  -0.573
  O  O151  1  0.595900  0.152100  0.667500  1.0  -0.5113
  O  O152  1  0.474700  0.619600  0.996170  1.0  -0.6448
