# generated using pymatgen
data_MnH3(C3O2)3
_symmetry_space_group_name_H-M   'P 1'
_cell_length_a   12.63580000
_cell_length_b   15.28970000
_cell_length_c   16.41830000
_cell_angle_alpha   90.00000000
_cell_angle_beta   90.00000000
_cell_angle_gamma   90.00000000
_symmetry_Int_Tables_number   1
_chemical_formula_structural   MnH3(C3O2)3
_chemical_formula_sum   'Mn8 H24 C72 O48'
_cell_volume   3171.97601258
_cell_formula_units_Z   8
loop_
 _symmetry_equiv_pos_site_id
 _symmetry_equiv_pos_as_xyz
  1  'x, y, z'
loop_
 _atom_site_type_symbol
 _atom_site_label
 _atom_site_symmetry_multiplicity
 _atom_site_fract_x
 _atom_site_fract_y
 _atom_site_fract_z
 _atom_site_occupancy
 _atom_site_charge
  Mn  Mn1  1  0.992090  0.910740  0.601350  1.0  1.1557
  Mn  Mn2  1  0.007910  0.089260  0.398650  1.0  1.1565
  Mn  Mn3  1  0.507910  0.410740  0.601350  1.0  1.1572
  Mn  Mn4  1  0.507910  0.089260  0.101350  1.0  1.1556
  Mn  Mn5  1  0.492090  0.589260  0.398650  1.0  1.1548
  Mn  Mn6  1  0.007910  0.410740  0.898650  1.0  1.1573
  Mn  Mn7  1  0.992090  0.589260  0.101350  1.0  1.1549
  Mn  Mn8  1  0.492090  0.910740  0.898650  1.0  1.156
  H  H9  1  0.746500  0.201400  0.552600  1.0  0.1398
  H  H10  1  0.522900  0.139900  0.723500  1.0  0.1468
  H  H11  1  0.246500  0.298600  0.447400  1.0  0.138
  H  H12  1  0.746500  0.028100  0.164000  1.0  0.1444
  H  H13  1  0.753500  0.798600  0.052600  1.0  0.1381
  H  H14  1  0.746500  0.298600  0.052600  1.0  0.1396
  H  H15  1  0.022900  0.360100  0.276500  1.0  0.1484
  H  H16  1  0.253500  0.971900  0.836000  1.0  0.144
  H  H17  1  0.977100  0.860100  0.223500  1.0  0.1477
  H  H18  1  0.746500  0.471900  0.664000  1.0  0.1437
  H  H19  1  0.253500  0.528100  0.336000  1.0  0.1446
  H  H20  1  0.253500  0.701400  0.947400  1.0  0.1401
  H  H21  1  0.022900  0.139900  0.776500  1.0  0.1474
  H  H22  1  0.477100  0.860100  0.276500  1.0  0.1479
  H  H23  1  0.246500  0.471900  0.836000  1.0  0.1437
  H  H24  1  0.253500  0.798600  0.447400  1.0  0.138
  H  H25  1  0.522900  0.360100  0.223500  1.0  0.1474
  H  H26  1  0.977100  0.639900  0.723500  1.0  0.1473
  H  H27  1  0.246500  0.201400  0.947400  1.0  0.1372
  H  H28  1  0.477100  0.639900  0.776500  1.0  0.1481
  H  H29  1  0.246500  0.028100  0.336000  1.0  0.1444
  H  H30  1  0.753500  0.701400  0.552600  1.0  0.1379
  H  H31  1  0.753500  0.528100  0.164000  1.0  0.1444
  H  H32  1  0.753500  0.971900  0.664000  1.0  0.1442
  C  C33  1  0.369200  0.952100  0.295900  1.0  -0.0726
  C  C34  1  0.858100  0.060800  0.541600  1.0  0.7314
  C  C35  1  0.084500  0.375700  0.306200  1.0  -0.0616
  C  C36  1  0.720900  0.027300  0.656300  1.0  -0.0117
  C  C37  1  0.719100  0.160100  0.590300  1.0  -0.085
  C  C38  1  0.235600  0.583900  0.901600  1.0  -0.0084
  C  C39  1  0.415500  0.875700  0.306200  1.0  -0.0594
  C  C40  1  0.141900  0.560800  0.958400  1.0  0.734
  C  C41  1  0.735600  0.916100  0.098400  1.0  -0.0086
  C  C42  1  0.584500  0.375700  0.193800  1.0  -0.0617
  C  C43  1  0.219100  0.160100  0.909700  1.0  -0.0843
  C  C44  1  0.084500  0.124300  0.806200  1.0  -0.0574
  C  C45  1  0.917400  0.764900  0.628600  1.0  0.7244
  C  C46  1  0.370200  0.818900  0.362600  1.0  -0.1703
  C  C47  1  0.641900  0.560800  0.541600  1.0  0.7331
  C  C48  1  0.264400  0.416100  0.401600  1.0  -0.0054
  C  C49  1  0.915900  0.009700  0.270700  1.0  0.7028
  C  C50  1  0.280900  0.660100  0.909700  1.0  -0.0857
  C  C51  1  0.870200  0.681100  0.637400  1.0  -0.1704
  C  C52  1  0.279100  0.527300  0.843700  1.0  -0.0106
  C  C53  1  0.084100  0.509700  0.229300  1.0  0.7034
  C  C54  1  0.780900  0.839900  0.090300  1.0  -0.0868
  C  C55  1  0.415500  0.624300  0.806200  1.0  -0.0556
  C  C56  1  0.582600  0.235100  0.128600  1.0  0.7208
  C  C57  1  0.280900  0.839900  0.409700  1.0  -0.0849
  C  C58  1  0.082600  0.235100  0.371400  1.0  0.7214
  C  C59  1  0.915900  0.490300  0.770700  1.0  0.7027
  C  C60  1  0.779100  0.527300  0.656300  1.0  -0.0094
  C  C61  1  0.582600  0.264900  0.628600  1.0  0.7206
  C  C62  1  0.417400  0.735100  0.371400  1.0  0.7222
  C  C63  1  0.584100  0.990300  0.770700  1.0  0.7043
  C  C64  1  0.780900  0.660100  0.590300  1.0  -0.086
  C  C65  1  0.641900  0.939200  0.041600  1.0  0.7333
  C  C66  1  0.870200  0.818900  0.137400  1.0  -0.1702
  C  C67  1  0.917400  0.735100  0.128600  1.0  0.7222
  C  C68  1  0.130800  0.452100  0.295900  1.0  -0.0711
  C  C69  1  0.584100  0.509700  0.270700  1.0  0.7035
  C  C70  1  0.764400  0.416100  0.098400  1.0  -0.0048
  C  C71  1  0.630800  0.452100  0.204100  1.0  -0.0718
  C  C72  1  0.129800  0.181100  0.862600  1.0  -0.1694
  C  C73  1  0.358100  0.439200  0.458400  1.0  0.7328
  C  C74  1  0.869200  0.547900  0.704100  1.0  -0.0733
  C  C75  1  0.235600  0.916100  0.401600  1.0  -0.0087
  C  C76  1  0.720900  0.472700  0.156300  1.0  -0.0127
  C  C77  1  0.858100  0.439200  0.041600  1.0  0.7315
  C  C78  1  0.915500  0.875700  0.193800  1.0  -0.0598
  C  C79  1  0.084100  0.990300  0.729300  1.0  0.7044
  C  C80  1  0.417400  0.764900  0.871400  1.0  0.7209
  C  C81  1  0.129800  0.318900  0.362600  1.0  -0.1694
  C  C82  1  0.279100  0.972700  0.343700  1.0  -0.0109
  C  C83  1  0.220900  0.027300  0.843700  1.0  -0.0075
  C  C84  1  0.130800  0.047900  0.795900  1.0  -0.0722
  C  C85  1  0.219100  0.339900  0.409700  1.0  -0.0846
  C  C86  1  0.719100  0.339900  0.090300  1.0  -0.085
  C  C87  1  0.764400  0.083900  0.598400  1.0  -0.0051
  C  C88  1  0.370200  0.681100  0.862600  1.0  -0.1706
  C  C89  1  0.584500  0.124300  0.693800  1.0  -0.0585
  C  C90  1  0.082600  0.264900  0.871400  1.0  0.7202
  C  C91  1  0.141900  0.939200  0.458400  1.0  0.7342
  C  C92  1  0.220900  0.472700  0.343700  1.0  -0.012
  C  C93  1  0.358100  0.060800  0.958400  1.0  0.7327
  C  C94  1  0.369200  0.547900  0.795900  1.0  -0.073
  C  C95  1  0.869200  0.952100  0.204100  1.0  -0.0733
  C  C96  1  0.915500  0.624300  0.693800  1.0  -0.0604
  C  C97  1  0.735600  0.583900  0.598400  1.0  -0.0089
  C  C98  1  0.415900  0.009700  0.229300  1.0  0.7022
  C  C99  1  0.629800  0.318900  0.137400  1.0  -0.1692
  C  C100  1  0.264400  0.083900  0.901600  1.0  -0.0052
  C  C101  1  0.415900  0.490300  0.729300  1.0  0.7031
  C  C102  1  0.629800  0.181100  0.637400  1.0  -0.1692
  C  C103  1  0.779100  0.972700  0.156300  1.0  -0.0123
  C  C104  1  0.630800  0.047900  0.704100  1.0  -0.0724
  O  O105  1  0.132500  0.181300  0.411500  1.0  -0.5583
  O  O106  1  0.990700  0.499800  0.205200  1.0  -0.5401
  O  O107  1  0.867500  0.818700  0.588500  1.0  -0.5587
  O  O108  1  0.490700  0.499800  0.294800  1.0  -0.5405
  O  O109  1  0.118300  0.013200  0.467000  1.0  -0.5697
  O  O110  1  0.639600  0.936100  0.803600  1.0  -0.5495
  O  O111  1  0.493300  0.220700  0.161900  1.0  -0.5277
  O  O112  1  0.618300  0.013200  0.033000  1.0  -0.5699
  O  O113  1  0.139600  0.563900  0.196400  1.0  -0.5496
  O  O114  1  0.881700  0.986800  0.533000  1.0  -0.5703
  O  O115  1  0.139600  0.936100  0.696400  1.0  -0.5501
  O  O116  1  0.118300  0.486800  0.967000  1.0  -0.5689
  O  O117  1  0.381700  0.986800  0.967000  1.0  -0.5696
  O  O118  1  0.867500  0.681300  0.088500  1.0  -0.559
  O  O119  1  0.906100  0.118800  0.503900  1.0  -0.5933
  O  O120  1  0.593900  0.881200  0.003900  1.0  -0.5922
  O  O121  1  0.132500  0.318700  0.911500  1.0  -0.5586
  O  O122  1  0.881700  0.513200  0.033000  1.0  -0.5709
  O  O123  1  0.093900  0.881200  0.496100  1.0  -0.5915
  O  O124  1  0.993300  0.220700  0.338100  1.0  -0.5288
  O  O125  1  0.632500  0.181300  0.088500  1.0  -0.5598
  O  O126  1  0.360400  0.063900  0.196400  1.0  -0.5497
  O  O127  1  0.506700  0.720700  0.338100  1.0  -0.5296
  O  O128  1  0.993300  0.279300  0.838100  1.0  -0.5281
  O  O129  1  0.009300  0.999800  0.294800  1.0  -0.5412
  O  O130  1  0.506700  0.779300  0.838100  1.0  -0.53
  O  O131  1  0.493300  0.279300  0.661900  1.0  -0.5273
  O  O132  1  0.367500  0.818700  0.911500  1.0  -0.558
  O  O133  1  0.093900  0.618800  0.996100  1.0  -0.5924
  O  O134  1  0.632500  0.318700  0.588500  1.0  -0.5596
  O  O135  1  0.406100  0.381200  0.496100  1.0  -0.5918
  O  O136  1  0.406100  0.118800  0.996100  1.0  -0.5926
  O  O137  1  0.381700  0.513200  0.467000  1.0  -0.5708
  O  O138  1  0.490700  0.000200  0.794800  1.0  -0.5403
  O  O139  1  0.593900  0.618800  0.503900  1.0  -0.5929
  O  O140  1  0.860400  0.063900  0.303600  1.0  -0.5494
  O  O141  1  0.509300  0.500200  0.705200  1.0  -0.5406
  O  O142  1  0.618300  0.486800  0.533000  1.0  -0.5695
  O  O143  1  0.367500  0.681300  0.411500  1.0  -0.558
  O  O144  1  0.860400  0.436100  0.803600  1.0  -0.5496
  O  O145  1  0.006700  0.720700  0.161900  1.0  -0.5268
  O  O146  1  0.509300  0.999800  0.205200  1.0  -0.5405
  O  O147  1  0.990700  0.000200  0.705200  1.0  -0.54
  O  O148  1  0.906100  0.381200  0.003900  1.0  -0.5926
  O  O149  1  0.009300  0.500200  0.794800  1.0  -0.5414
  O  O150  1  0.006700  0.779300  0.661900  1.0  -0.5268
  O  O151  1  0.360400  0.436100  0.696400  1.0  -0.5502
  O  O152  1  0.639600  0.563900  0.303600  1.0  -0.5493
