# generated using pymatgen
data_CoH20(C3N)8
_symmetry_space_group_name_H-M   'P 1'
_cell_length_a   6.29850000
_cell_length_b   14.35200000
_cell_length_c   14.35200000
_cell_angle_alpha   90.00000000
_cell_angle_beta   90.00000000
_cell_angle_gamma   90.00000000
_symmetry_Int_Tables_number   1
_chemical_formula_structural   CoH20(C3N)8
_chemical_formula_sum   'Co2 H40 C48 N16'
_cell_volume   1297.36442534
_cell_formula_units_Z   2
loop_
 _symmetry_equiv_pos_site_id
 _symmetry_equiv_pos_as_xyz
  1  'x, y, z'
loop_
 _atom_site_type_symbol
 _atom_site_label
 _atom_site_symmetry_multiplicity
 _atom_site_fract_x
 _atom_site_fract_y
 _atom_site_fract_z
 _atom_site_occupancy
 _atom_site_charge
  Co  Co1  1  0.500000  0.000000  0.000000  1.0  0.4917
  Co  Co2  1  0.000000  0.500000  0.500000  1.0  0.6495
  H  H3  1  0.366900  0.342700  0.466300  1.0  0.0716
  H  H4  1  0.834700  0.306400  0.963800  1.0  0.2385
  H  H5  1  0.662000  0.794200  0.415600  1.0  0.2803
  H  H6  1  0.834700  0.693600  0.036200  1.0  0.2412
  H  H7  1  0.987800  0.712200  0.848100  1.0  0.0682
  H  H8  1  0.633100  0.466300  0.657300  1.0  0.0729
  H  H9  1  0.419400  0.041900  0.786300  1.0  0.0718
  H  H10  1  0.288900  0.800300  0.381500  1.0  0.08
  H  H11  1  0.079800  0.505300  0.285800  1.0  0.0739
  H  H12  1  0.338000  0.415600  0.205800  1.0  0.2787
  H  H13  1  0.165300  0.963800  0.693600  1.0  0.242
  H  H14  1  0.580600  0.213700  0.041900  1.0  0.0712
  H  H15  1  0.366900  0.657300  0.533700  1.0  0.0715
  H  H16  1  0.803800  0.090200  0.331400  1.0  0.0743
  H  H17  1  0.165300  0.036200  0.306400  1.0  0.2416
  H  H18  1  0.529500  0.183500  0.381300  1.0  0.0879
  H  H19  1  0.196200  0.331400  0.909800  1.0  0.075
  H  H20  1  0.470500  0.618700  0.183500  1.0  0.0875
  H  H21  1  0.711100  0.381500  0.199700  1.0  0.0798
  H  H22  1  0.196200  0.668600  0.090200  1.0  0.0753
  H  H23  1  0.987800  0.287800  0.151900  1.0  0.0688
  H  H24  1  0.859000  0.062400  0.849800  1.0  0.07
  H  H25  1  0.633100  0.533700  0.342700  1.0  0.0728
  H  H26  1  0.419400  0.958100  0.213700  1.0  0.0715
  H  H27  1  0.711100  0.618500  0.800300  1.0  0.0804
  H  H28  1  0.803800  0.909800  0.668600  1.0  0.0741
  H  H29  1  0.338000  0.584400  0.794200  1.0  0.2797
  H  H30  1  0.580600  0.786300  0.958100  1.0  0.0708
  H  H31  1  0.141000  0.849800  0.937600  1.0  0.0702
  H  H32  1  0.288900  0.199700  0.618500  1.0  0.0802
  H  H33  1  0.529500  0.816500  0.618700  1.0  0.0882
  H  H34  1  0.141000  0.150200  0.062400  1.0  0.0701
  H  H35  1  0.859000  0.937600  0.150200  1.0  0.0703
  H  H36  1  0.012200  0.848100  0.287800  1.0  0.0694
  H  H37  1  0.920200  0.714200  0.505300  1.0  0.0742
  H  H38  1  0.470500  0.381300  0.816500  1.0  0.0874
  H  H39  1  0.079800  0.494700  0.714200  1.0  0.0743
  H  H40  1  0.662000  0.205800  0.584400  1.0  0.2762
  H  H41  1  0.920200  0.285800  0.494700  1.0  0.0736
  H  H42  1  0.012200  0.151900  0.712200  1.0  0.0695
  C  C43  1  0.379900  0.334700  0.795400  1.0  -0.117
  C  C44  1  0.668200  0.805400  0.006700  1.0  0.181
  C  C45  1  0.178400  0.887500  0.887500  1.0  0.0086
  C  C46  1  0.829700  0.312100  0.538700  1.0  0.1754
  C  C47  1  0.785200  0.148600  0.304600  1.0  -0.1213
  C  C48  1  0.821600  0.887500  0.112500  1.0  0.0078
  C  C49  1  0.671400  0.589300  0.371300  1.0  0.0074
  C  C50  1  0.620100  0.795400  0.665300  1.0  -0.1188
  C  C51  1  0.907400  0.801700  0.117900  1.0  0.0637
  C  C52  1  0.214800  0.695400  0.148600  1.0  -0.1207
  C  C53  1  0.894500  0.733600  0.802700  1.0  -0.1284
  C  C54  1  0.620100  0.204600  0.334700  1.0  -0.1183
  C  C55  1  0.585200  0.326400  0.647100  1.0  0.0249
  C  C56  1  0.328600  0.371300  0.410700  1.0  0.0109
  C  C57  1  0.907400  0.198300  0.882100  1.0  0.0639
  C  C58  1  0.076700  0.764600  0.177600  1.0  0.024
  C  C59  1  0.785200  0.851400  0.695400  1.0  -0.1215
  C  C60  1  0.821600  0.112500  0.887500  1.0  0.0082
  C  C61  1  0.414800  0.647100  0.673600  1.0  0.0251
  C  C62  1  0.270900  0.773600  0.323000  1.0  -0.1308
  C  C63  1  0.092600  0.882100  0.801700  1.0  0.0626
  C  C64  1  0.092600  0.117900  0.198300  1.0  0.0629
  C  C65  1  0.178400  0.112500  0.112500  1.0  0.0079
  C  C66  1  0.589000  0.292500  0.295500  1.0  0.0192
  C  C67  1  0.076700  0.235400  0.822400  1.0  0.0235
  C  C68  1  0.923300  0.177600  0.235400  1.0  0.0242
  C  C69  1  0.894500  0.266400  0.197300  1.0  -0.1246
  C  C70  1  0.331800  0.006700  0.194600  1.0  0.1813
  C  C71  1  0.589000  0.707500  0.704500  1.0  0.0192
  C  C72  1  0.328600  0.628700  0.589300  1.0  0.004
  C  C73  1  0.585200  0.673600  0.352900  1.0  0.025
  C  C74  1  0.105500  0.802700  0.266400  1.0  -0.1199
  C  C75  1  0.729100  0.677000  0.773600  1.0  -0.1356
  C  C76  1  0.379900  0.665300  0.204600  1.0  -0.1183
  C  C77  1  0.414800  0.352900  0.326400  1.0  0.0248
  C  C78  1  0.923300  0.822400  0.764600  1.0  0.0236
  C  C79  1  0.671400  0.410700  0.628700  1.0  0.0062
  C  C80  1  0.214800  0.304600  0.851400  1.0  -0.1231
  C  C81  1  0.105500  0.197300  0.733600  1.0  -0.1186
  C  C82  1  0.668200  0.194600  0.993300  1.0  0.1813
  C  C83  1  0.170300  0.538700  0.687900  1.0  0.1766
  C  C84  1  0.411000  0.295500  0.707500  1.0  0.0193
  C  C85  1  0.170300  0.461300  0.312100  1.0  0.1759
  C  C86  1  0.270900  0.226400  0.677000  1.0  -0.1326
  C  C87  1  0.411000  0.704500  0.292500  1.0  0.0198
  C  C88  1  0.331800  0.993300  0.805400  1.0  0.1806
  C  C89  1  0.729100  0.323000  0.226400  1.0  -0.136
  C  C90  1  0.829700  0.687900  0.461300  1.0  0.1754
  N  N91  1  0.330500  0.042710  0.109480  1.0  -0.429
  N  N92  1  0.190700  0.950600  0.751020  1.0  -0.2818
  N  N93  1  0.330500  0.957290  0.890520  1.0  -0.4293
  N  N94  1  0.825400  0.401410  0.560580  1.0  -0.4093
  N  N95  1  0.825400  0.598590  0.439420  1.0  -0.4086
  N  N96  1  0.313300  0.588330  0.735420  1.0  -0.291
  N  N97  1  0.313300  0.411670  0.264580  1.0  -0.291
  N  N98  1  0.686700  0.735420  0.411670  1.0  -0.2908
  N  N99  1  0.809300  0.751020  0.049400  1.0  -0.2812
  N  N100  1  0.174600  0.439420  0.401410  1.0  -0.411
  N  N101  1  0.669500  0.890520  0.042710  1.0  -0.4307
  N  N102  1  0.686700  0.264580  0.588330  1.0  -0.2924
  N  N103  1  0.174600  0.560580  0.598590  1.0  -0.4108
  N  N104  1  0.669500  0.109480  0.957290  1.0  -0.4306
  N  N105  1  0.190700  0.049400  0.248980  1.0  -0.2795
  N  N106  1  0.809300  0.248980  0.950600  1.0  -0.2783
