# generated using pymatgen
data_Cu3H28C52(NO4)4
_symmetry_space_group_name_H-M   'P 1'
_cell_length_a   21.27370000
_cell_length_b   21.27370000
_cell_length_c   30.08600000
_cell_angle_alpha   90.00000000
_cell_angle_beta   90.00000000
_cell_angle_gamma   90.00000000
_symmetry_Int_Tables_number   1
_chemical_formula_structural   Cu3H28C52(NO4)4
_chemical_formula_sum   'Cu12 H112 C208 N16 O64'
_cell_volume   13616.03039751
_cell_formula_units_Z   4
loop_
 _symmetry_equiv_pos_site_id
 _symmetry_equiv_pos_as_xyz
  1  'x, y, z'
loop_
 _atom_site_type_symbol
 _atom_site_label
 _atom_site_symmetry_multiplicity
 _atom_site_fract_x
 _atom_site_fract_y
 _atom_site_fract_z
 _atom_site_occupancy
 _atom_site_charge
  Cu  Cu1  1  0.250000  0.750000  0.248400  1.0  0.7863
  Cu  Cu2  1  0.250000  0.750000  0.748400  1.0  0.7863
  Cu  Cu3  1  0.750000  0.250000  0.751600  1.0  0.7865
  Cu  Cu4  1  0.750000  0.250000  0.251600  1.0  0.7865
  Cu  Cu5  1  0.000000  0.000000  0.000000  1.0  0.7573
  Cu  Cu6  1  0.500000  0.500000  0.000000  1.0  0.7573
  Cu  Cu7  1  0.000000  0.500000  0.500000  1.0  0.7573
  Cu  Cu8  1  0.500000  0.000000  0.500000  1.0  0.7573
  Cu  Cu9  1  0.000000  0.500000  0.000000  1.0  0.8478
  Cu  Cu10  1  0.500000  0.000000  0.000000  1.0  0.8478
  Cu  Cu11  1  0.500000  0.500000  0.500000  1.0  0.8478
  Cu  Cu12  1  0.000000  0.000000  0.500000  1.0  0.8478
  H  H13  1  0.188700  0.851200  0.309300  1.0  0.1166
  H  H14  1  0.129000  0.850700  0.370100  1.0  0.1166
  H  H15  1  0.123900  0.659500  0.369500  1.0  0.1141
  H  H16  1  0.184900  0.661200  0.305800  1.0  0.0967
  H  H17  1  0.655300  0.052300  0.085700  1.0  0.0879
  H  H18  1  0.741800  0.964200  0.988800  1.0  0.1115
  H  H19  1  0.843200  0.065300  0.076500  1.0  0.1123
  H  H20  1  0.986800  0.862100  0.980900  1.0  0.1059
  H  H21  1  0.013400  0.772600  0.011600  1.0  0.1058
  H  H22  1  0.104300  0.870500  0.109300  1.0  0.123
  H  H23  1  0.076100  0.957700  0.075800  1.0  0.0997
  H  H24  1  0.026500  0.689200  0.051200  1.0  0.0916
  H  H25  1  0.133400  0.596700  0.136700  1.0  0.1071
  H  H26  1  0.135600  0.784200  0.137700  1.0  0.1097
  H  H27  1  0.311300  0.648800  0.309300  1.0  0.1148
  H  H28  1  0.371000  0.649300  0.370100  1.0  0.1169
  H  H29  1  0.376100  0.840500  0.369500  1.0  0.1146
  H  H30  1  0.315100  0.838800  0.305800  1.0  0.0976
  H  H31  1  0.844700  0.447700  0.085700  1.0  0.0889
  H  H32  1  0.758200  0.535800  0.988800  1.0  0.1121
  H  H33  1  0.656800  0.434700  0.076500  1.0  0.1122
  H  H34  1  0.513200  0.637900  0.980900  1.0  0.106
  H  H35  1  0.486600  0.727400  0.011600  1.0  0.1068
  H  H36  1  0.395700  0.629500  0.109300  1.0  0.1224
  H  H37  1  0.423900  0.542300  0.075800  1.0  0.1001
  H  H38  1  0.473500  0.810800  0.051200  1.0  0.0908
  H  H39  1  0.366600  0.903300  0.136700  1.0  0.1075
  H  H40  1  0.364400  0.715800  0.137700  1.0  0.1097
  H  H41  1  0.148800  0.688700  0.809300  1.0  0.1158
  H  H42  1  0.149300  0.629000  0.870100  1.0  0.1148
  H  H43  1  0.340500  0.623900  0.869500  1.0  0.1113
  H  H44  1  0.338800  0.684900  0.805800  1.0  0.0971
  H  H45  1  0.947700  0.155300  0.585700  1.0  0.0879
  H  H46  1  0.035800  0.241800  0.488800  1.0  0.1111
  H  H47  1  0.934700  0.343200  0.576500  1.0  0.1129
  H  H48  1  0.137900  0.486800  0.480900  1.0  0.1063
  H  H49  1  0.227400  0.513400  0.511600  1.0  0.1062
  H  H50  1  0.129500  0.604300  0.609300  1.0  0.1223
  H  H51  1  0.042300  0.576100  0.575800  1.0  0.1007
  H  H52  1  0.310800  0.526500  0.551200  1.0  0.0897
  H  H53  1  0.403300  0.633400  0.636700  1.0  0.1076
  H  H54  1  0.215800  0.635600  0.637700  1.0  0.1093
  H  H55  1  0.351200  0.811300  0.809300  1.0  0.1156
  H  H56  1  0.350700  0.871000  0.870100  1.0  0.1149
  H  H57  1  0.159500  0.876100  0.869500  1.0  0.1118
  H  H58  1  0.161200  0.815100  0.805800  1.0  0.0969
  H  H59  1  0.552300  0.344700  0.585700  1.0  0.088
  H  H60  1  0.464200  0.258200  0.488800  1.0  0.1111
  H  H61  1  0.565300  0.156800  0.576500  1.0  0.1124
  H  H62  1  0.362100  0.013200  0.480900  1.0  0.1052
  H  H63  1  0.272600  0.986600  0.511600  1.0  0.1064
  H  H64  1  0.370500  0.895700  0.609300  1.0  0.1215
  H  H65  1  0.457700  0.923900  0.575800  1.0  0.1002
  H  H66  1  0.189200  0.973500  0.551200  1.0  0.0913
  H  H67  1  0.096700  0.866600  0.636700  1.0  0.1069
  H  H68  1  0.284200  0.864400  0.637700  1.0  0.109
  H  H69  1  0.811300  0.148800  0.690700  1.0  0.115
  H  H70  1  0.871000  0.149300  0.629900  1.0  0.1168
  H  H71  1  0.876100  0.340500  0.630500  1.0  0.1147
  H  H72  1  0.815100  0.338800  0.694200  1.0  0.0972
  H  H73  1  0.344700  0.947700  0.914300  1.0  0.0883
  H  H74  1  0.258200  0.035800  0.011200  1.0  0.1126
  H  H75  1  0.156800  0.934700  0.923500  1.0  0.1133
  H  H76  1  0.013200  0.137900  0.019100  1.0  0.106
  H  H77  1  0.986600  0.227400  0.988400  1.0  0.1066
  H  H78  1  0.895700  0.129500  0.890700  1.0  0.1228
  H  H79  1  0.923900  0.042300  0.924200  1.0  0.1002
  H  H80  1  0.973500  0.310800  0.948800  1.0  0.0918
  H  H81  1  0.866600  0.403300  0.863300  1.0  0.1074
  H  H82  1  0.864400  0.215800  0.862300  1.0  0.1095
  H  H83  1  0.688700  0.351200  0.690700  1.0  0.116
  H  H84  1  0.629000  0.350700  0.629900  1.0  0.1167
  H  H85  1  0.623900  0.159500  0.630500  1.0  0.1142
  H  H86  1  0.684900  0.161200  0.694200  1.0  0.0968
  H  H87  1  0.155300  0.552300  0.914300  1.0  0.0879
  H  H88  1  0.241800  0.464200  0.011200  1.0  0.1121
  H  H89  1  0.343200  0.565300  0.923500  1.0  0.1133
  H  H90  1  0.486800  0.362100  0.019100  1.0  0.1065
  H  H91  1  0.513400  0.272600  0.988400  1.0  0.1063
  H  H92  1  0.604300  0.370500  0.890700  1.0  0.1229
  H  H93  1  0.576100  0.457700  0.924200  1.0  0.1001
  H  H94  1  0.526500  0.189200  0.948800  1.0  0.0906
  H  H95  1  0.633400  0.096700  0.863300  1.0  0.1066
  H  H96  1  0.635600  0.284200  0.862300  1.0  0.1095
  H  H97  1  0.851200  0.311300  0.190700  1.0  0.1154
  H  H98  1  0.850700  0.371000  0.129900  1.0  0.1151
  H  H99  1  0.659500  0.376100  0.130500  1.0  0.1117
  H  H100  1  0.661200  0.315100  0.194200  1.0  0.0967
  H  H101  1  0.052300  0.844700  0.414300  1.0  0.0868
  H  H102  1  0.964200  0.758200  0.511200  1.0  0.1116
  H  H103  1  0.065300  0.656800  0.423500  1.0  0.1131
  H  H104  1  0.862100  0.513200  0.519100  1.0  0.1063
  H  H105  1  0.772600  0.486600  0.488400  1.0  0.1062
  H  H106  1  0.870500  0.395700  0.390700  1.0  0.1222
  H  H107  1  0.957700  0.423900  0.424200  1.0  0.1005
  H  H108  1  0.689200  0.473500  0.448800  1.0  0.0902
  H  H109  1  0.596700  0.366600  0.363300  1.0  0.1066
  H  H110  1  0.784200  0.364400  0.362300  1.0  0.1093
  H  H111  1  0.648800  0.188700  0.190700  1.0  0.1159
  H  H112  1  0.649300  0.129000  0.129900  1.0  0.1148
  H  H113  1  0.840500  0.123900  0.130500  1.0  0.1113
  H  H114  1  0.838800  0.184900  0.194200  1.0  0.0971
  H  H115  1  0.447700  0.655300  0.414300  1.0  0.0878
  H  H116  1  0.535800  0.741800  0.511200  1.0  0.1113
  H  H117  1  0.434700  0.843200  0.423500  1.0  0.1137
  H  H118  1  0.637900  0.986800  0.519100  1.0  0.1062
  H  H119  1  0.727400  0.013400  0.488400  1.0  0.1061
  H  H120  1  0.629500  0.104300  0.390700  1.0  0.1226
  H  H121  1  0.542300  0.076100  0.424200  1.0  0.1008
  H  H122  1  0.810800  0.026500  0.448800  1.0  0.0913
  H  H123  1  0.903300  0.133400  0.363300  1.0  0.1073
  H  H124  1  0.715800  0.135600  0.362300  1.0  0.1094
  C  C125  1  0.175200  0.813300  0.321400  1.0  0.1216
  C  C126  1  0.139300  0.812800  0.356600  1.0  -0.0899
  C  C127  1  0.114500  0.753500  0.375800  1.0  -0.0513
  C  C128  1  0.135300  0.697800  0.356900  1.0  -0.161
  C  C129  1  0.173100  0.698700  0.319300  1.0  0.1362
  C  C130  1  0.749600  0.072100  0.086200  1.0  -0.0146
  C  C131  1  0.692000  0.045100  0.069700  1.0  -0.0447
  C  C132  1  0.688100  0.011200  0.033900  1.0  -0.0572
  C  C133  1  0.743500  0.991500  0.012900  1.0  -0.0042
  C  C134  1  0.800600  0.012800  0.028300  1.0  -0.164
  C  C135  1  0.804300  0.052400  0.065700  1.0  -0.0978
  C  C136  1  0.625900  0.986300  0.018700  1.0  0.6855
  C  C137  1  0.860700  0.993400  0.007600  1.0  0.6953
  C  C138  1  0.009100  0.862400  0.007500  1.0  0.1348
  C  C139  1  0.025400  0.809800  0.025400  1.0  -0.1204
  C  C140  1  0.061500  0.806400  0.065800  1.0  -0.0241
  C  C141  1  0.079800  0.868400  0.083700  1.0  -0.1158
  C  C142  1  0.062500  0.919400  0.064400  1.0  0.1331
  C  C143  1  0.081500  0.748300  0.086300  1.0  0.0582
  C  C144  1  0.058300  0.689700  0.072400  1.0  -0.0731
  C  C145  1  0.079200  0.634700  0.087800  1.0  -0.051
  C  C146  1  0.120800  0.634700  0.124300  1.0  -0.023
  C  C147  1  0.143000  0.690500  0.142000  1.0  -0.0045
  C  C148  1  0.122700  0.746700  0.124700  1.0  -0.0538
  C  C149  1  0.061700  0.575900  0.069700  1.0  0.6737
  C  C150  1  0.178200  0.692000  0.180700  1.0  0.7106
  C  C151  1  0.324800  0.686700  0.321400  1.0  0.1222
  C  C152  1  0.360700  0.687200  0.356600  1.0  -0.0886
  C  C153  1  0.385500  0.746500  0.375800  1.0  -0.0504
  C  C154  1  0.364700  0.802200  0.356900  1.0  -0.1594
  C  C155  1  0.326900  0.801300  0.319300  1.0  0.1352
  C  C156  1  0.750400  0.427900  0.086200  1.0  -0.0145
  C  C157  1  0.808000  0.454900  0.069700  1.0  -0.0322
  C  C158  1  0.811900  0.488800  0.033900  1.0  -0.0575
  C  C159  1  0.756500  0.508500  0.012900  1.0  -0.0052
  C  C160  1  0.699400  0.487200  0.028300  1.0  -0.1634
  C  C161  1  0.695700  0.447600  0.065700  1.0  -0.0983
  C  C162  1  0.874100  0.513700  0.018700  1.0  0.6855
  C  C163  1  0.639300  0.506600  0.007600  1.0  0.6931
  C  C164  1  0.490900  0.637600  0.007500  1.0  0.1347
  C  C165  1  0.474600  0.690200  0.025400  1.0  -0.1208
  C  C166  1  0.438500  0.693600  0.065800  1.0  -0.0237
  C  C167  1  0.420200  0.631600  0.083700  1.0  -0.1157
  C  C168  1  0.437500  0.580600  0.064400  1.0  0.1335
  C  C169  1  0.418500  0.751700  0.086300  1.0  0.0581
  C  C170  1  0.441700  0.810300  0.072400  1.0  -0.0715
  C  C171  1  0.420800  0.865300  0.087800  1.0  -0.0515
  C  C172  1  0.379200  0.865300  0.124300  1.0  -0.0229
  C  C173  1  0.357000  0.809500  0.142000  1.0  -0.0045
  C  C174  1  0.377300  0.753300  0.124700  1.0  -0.0545
  C  C175  1  0.438300  0.924100  0.069700  1.0  0.6735
  C  C176  1  0.321800  0.808000  0.180700  1.0  0.7096
  C  C177  1  0.186700  0.675200  0.821400  1.0  0.1255
  C  C178  1  0.187200  0.639300  0.856600  1.0  -0.0891
  C  C179  1  0.246500  0.614500  0.875800  1.0  -0.0496
  C  C180  1  0.302200  0.635300  0.856900  1.0  -0.16
  C  C181  1  0.301300  0.673100  0.819300  1.0  0.1355
  C  C182  1  0.927900  0.249600  0.586200  1.0  -0.0154
  C  C183  1  0.954900  0.192000  0.569700  1.0  -0.0447
  C  C184  1  0.988800  0.188100  0.533900  1.0  -0.0567
  C  C185  1  0.008500  0.243500  0.512900  1.0  -0.0043
  C  C186  1  0.987200  0.300600  0.528300  1.0  -0.1647
  C  C187  1  0.947600  0.304300  0.565700  1.0  -0.0974
  C  C188  1  0.013700  0.125900  0.518700  1.0  0.6855
  C  C189  1  0.006600  0.360700  0.507600  1.0  0.6994
  C  C190  1  0.137600  0.509100  0.507500  1.0  0.1338
  C  C191  1  0.190200  0.525400  0.525400  1.0  -0.1209
  C  C192  1  0.193600  0.561500  0.565800  1.0  -0.0236
  C  C193  1  0.131600  0.579800  0.583700  1.0  -0.1167
  C  C194  1  0.080600  0.562500  0.564400  1.0  0.1345
  C  C195  1  0.251700  0.581500  0.586300  1.0  0.0578
  C  C196  1  0.310300  0.558300  0.572400  1.0  -0.0714
  C  C197  1  0.365300  0.579200  0.587800  1.0  -0.0519
  C  C198  1  0.365300  0.620800  0.624300  1.0  -0.0209
  C  C199  1  0.309500  0.643000  0.642000  1.0  -0.0056
  C  C200  1  0.253300  0.622700  0.624700  1.0  -0.0572
  C  C201  1  0.424100  0.561700  0.569700  1.0  0.6727
  C  C202  1  0.308000  0.678200  0.680700  1.0  0.7105
  C  C203  1  0.313300  0.824800  0.821400  1.0  0.1243
  C  C204  1  0.312800  0.860700  0.856600  1.0  -0.0869
  C  C205  1  0.253500  0.885500  0.875800  1.0  -0.0498
  C  C206  1  0.197800  0.864700  0.856900  1.0  -0.1602
  C  C207  1  0.198700  0.826900  0.819300  1.0  0.1366
  C  C208  1  0.572100  0.250400  0.586200  1.0  -0.0151
  C  C209  1  0.545100  0.308000  0.569700  1.0  -0.0335
  C  C210  1  0.511200  0.311900  0.533900  1.0  -0.0568
  C  C211  1  0.491500  0.256500  0.512900  1.0  -0.004
  C  C212  1  0.512800  0.199400  0.528300  1.0  -0.1645
  C  C213  1  0.552400  0.195700  0.565700  1.0  -0.0974
  C  C214  1  0.486300  0.374100  0.518700  1.0  0.685
  C  C215  1  0.493400  0.139300  0.507600  1.0  0.6999
  C  C216  1  0.362400  0.990900  0.507500  1.0  0.132
  C  C217  1  0.309800  0.974600  0.525400  1.0  -0.1196
  C  C218  1  0.306400  0.938500  0.565800  1.0  -0.0233
  C  C219  1  0.368400  0.920200  0.583700  1.0  -0.1163
  C  C220  1  0.419400  0.937500  0.564400  1.0  0.1349
  C  C221  1  0.248300  0.918500  0.586300  1.0  0.058
  C  C222  1  0.189700  0.941700  0.572400  1.0  -0.0713
  C  C223  1  0.134700  0.920800  0.587800  1.0  -0.0522
  C  C224  1  0.134700  0.879200  0.624300  1.0  -0.0218
  C  C225  1  0.190500  0.857000  0.642000  1.0  -0.0049
  C  C226  1  0.246700  0.877300  0.624700  1.0  -0.0567
  C  C227  1  0.075900  0.938300  0.569700  1.0  0.6727
  C  C228  1  0.192000  0.821800  0.680700  1.0  0.7104
  C  C229  1  0.824800  0.186700  0.678600  1.0  0.1214
  C  C230  1  0.860700  0.187200  0.643400  1.0  -0.0861
  C  C231  1  0.885500  0.246500  0.624200  1.0  -0.0504
  C  C232  1  0.864700  0.302200  0.643100  1.0  -0.1589
  C  C233  1  0.826900  0.301300  0.680700  1.0  0.1342
  C  C234  1  0.250400  0.927900  0.913800  1.0  -0.0147
  C  C235  1  0.308000  0.954900  0.930300  1.0  -0.0433
  C  C236  1  0.311900  0.988800  0.966100  1.0  -0.0577
  C  C237  1  0.256500  0.008500  0.987100  1.0  -0.0049
  C  C238  1  0.199400  0.987200  0.971700  1.0  -0.1636
  C  C239  1  0.195700  0.947600  0.934300  1.0  -0.0973
  C  C240  1  0.374100  0.013700  0.981300  1.0  0.6858
  C  C241  1  0.139300  0.006600  0.992400  1.0  0.6932
  C  C242  1  0.990900  0.137600  0.992500  1.0  0.1352
  C  C243  1  0.974600  0.190200  0.974600  1.0  -0.1201
  C  C244  1  0.938500  0.193600  0.934200  1.0  -0.0235
  C  C245  1  0.920200  0.131600  0.916300  1.0  -0.1152
  C  C246  1  0.937500  0.080600  0.935600  1.0  0.1327
  C  C247  1  0.918500  0.251700  0.913700  1.0  0.0575
  C  C248  1  0.941700  0.310300  0.927600  1.0  -0.0715
  C  C249  1  0.920800  0.365300  0.912200  1.0  -0.0518
  C  C250  1  0.879200  0.365300  0.875700  1.0  -0.0233
  C  C251  1  0.857000  0.309500  0.858000  1.0  -0.0042
  C  C252  1  0.877300  0.253300  0.875300  1.0  -0.054
  C  C253  1  0.938300  0.424100  0.930300  1.0  0.6742
  C  C254  1  0.821800  0.308000  0.819300  1.0  0.713
  C  C255  1  0.675200  0.313300  0.678600  1.0  0.1198
  C  C256  1  0.639300  0.312800  0.643400  1.0  -0.0886
  C  C257  1  0.614500  0.253500  0.624200  1.0  -0.0516
  C  C258  1  0.635300  0.197800  0.643100  1.0  -0.1593
  C  C259  1  0.673100  0.198700  0.680700  1.0  0.1359
  C  C260  1  0.249600  0.572100  0.913800  1.0  -0.0148
  C  C261  1  0.192000  0.545100  0.930300  1.0  -0.0338
  C  C262  1  0.188100  0.511200  0.966100  1.0  -0.0568
  C  C263  1  0.243500  0.491500  0.987100  1.0  -0.0033
  C  C264  1  0.300600  0.512800  0.971700  1.0  -0.164
  C  C265  1  0.304300  0.552400  0.934300  1.0  -0.0976
  C  C266  1  0.125900  0.486300  0.981300  1.0  0.6856
  C  C267  1  0.360700  0.493400  0.992400  1.0  0.6957
  C  C268  1  0.509100  0.362400  0.992500  1.0  0.1351
  C  C269  1  0.525400  0.309800  0.974600  1.0  -0.1197
  C  C270  1  0.561500  0.306400  0.934200  1.0  -0.0237
  C  C271  1  0.579800  0.368400  0.916300  1.0  -0.1162
  C  C272  1  0.562500  0.419400  0.935600  1.0  0.1334
  C  C273  1  0.581500  0.248300  0.913700  1.0  0.0575
  C  C274  1  0.558300  0.189700  0.927600  1.0  -0.0732
  C  C275  1  0.579200  0.134700  0.912200  1.0  -0.0512
  C  C276  1  0.620800  0.134700  0.875700  1.0  -0.0231
  C  C277  1  0.643000  0.190500  0.858000  1.0  -0.0044
  C  C278  1  0.622700  0.246700  0.875300  1.0  -0.0533
  C  C279  1  0.561700  0.075900  0.930300  1.0  0.6741
  C  C280  1  0.678200  0.192000  0.819300  1.0  0.7121
  C  C281  1  0.813300  0.324800  0.178600  1.0  0.1225
  C  C282  1  0.812800  0.360700  0.143400  1.0  -0.0855
  C  C283  1  0.753500  0.385500  0.124200  1.0  -0.05
  C  C284  1  0.697800  0.364700  0.143100  1.0  -0.1588
  C  C285  1  0.698700  0.326900  0.180700  1.0  0.1358
  C  C286  1  0.072100  0.750400  0.413800  1.0  -0.0152
  C  C287  1  0.045100  0.808000  0.430300  1.0  -0.0443
  C  C288  1  0.011200  0.811900  0.466100  1.0  -0.0567
  C  C289  1  0.991500  0.756500  0.487100  1.0  -0.0038
  C  C290  1  0.012800  0.699400  0.471700  1.0  -0.1642
  C  C291  1  0.052400  0.695700  0.434300  1.0  -0.0967
  C  C292  1  0.986300  0.874100  0.481300  1.0  0.6856
  C  C293  1  0.993400  0.639300  0.492400  1.0  0.7003
  C  C294  1  0.862400  0.490900  0.492500  1.0  0.1311
  C  C295  1  0.809800  0.474600  0.474600  1.0  -0.1196
  C  C296  1  0.806400  0.438500  0.434200  1.0  -0.023
  C  C297  1  0.868400  0.420200  0.416300  1.0  -0.117
  C  C298  1  0.919400  0.437500  0.435600  1.0  0.1342
  C  C299  1  0.748300  0.418500  0.413700  1.0  0.0574
  C  C300  1  0.689700  0.441700  0.427600  1.0  -0.0718
  C  C301  1  0.634700  0.420800  0.412200  1.0  -0.0523
  C  C302  1  0.634700  0.379200  0.375700  1.0  -0.0216
  C  C303  1  0.690500  0.357000  0.358000  1.0  -0.0049
  C  C304  1  0.746700  0.377300  0.375300  1.0  -0.0563
  C  C305  1  0.575900  0.438300  0.430300  1.0  0.6733
  C  C306  1  0.692000  0.321800  0.319300  1.0  0.7132
  C  C307  1  0.686700  0.175200  0.178600  1.0  0.124
  C  C308  1  0.687200  0.139300  0.143400  1.0  -0.087
  C  C309  1  0.746500  0.114500  0.124200  1.0  -0.0497
  C  C310  1  0.802200  0.135300  0.143100  1.0  -0.1595
  C  C311  1  0.801300  0.173100  0.180700  1.0  0.1355
  C  C312  1  0.427900  0.749600  0.413800  1.0  -0.0157
  C  C313  1  0.454900  0.692000  0.430300  1.0  -0.0338
  C  C314  1  0.488800  0.688100  0.466100  1.0  -0.0565
  C  C315  1  0.508500  0.743500  0.487100  1.0  -0.0034
  C  C316  1  0.487200  0.800600  0.471700  1.0  -0.1651
  C  C317  1  0.447600  0.804300  0.434300  1.0  -0.0969
  C  C318  1  0.513700  0.625900  0.481300  1.0  0.6861
  C  C319  1  0.506600  0.860700  0.492400  1.0  0.6999
  C  C320  1  0.637600  0.009100  0.492500  1.0  0.1352
  C  C321  1  0.690200  0.025400  0.474600  1.0  -0.1198
  C  C322  1  0.693600  0.061500  0.434200  1.0  -0.0233
  C  C323  1  0.631600  0.079800  0.416300  1.0  -0.116
  C  C324  1  0.580600  0.062500  0.435600  1.0  0.1347
  C  C325  1  0.751700  0.081500  0.413700  1.0  0.0572
  C  C326  1  0.810300  0.058300  0.427600  1.0  -0.0713
  C  C327  1  0.865300  0.079200  0.412200  1.0  -0.052
  C  C328  1  0.865300  0.120800  0.375700  1.0  -0.0206
  C  C329  1  0.809500  0.143000  0.358000  1.0  -0.0051
  C  C330  1  0.753300  0.122700  0.375300  1.0  -0.0564
  C  C331  1  0.924100  0.061700  0.430300  1.0  0.6729
  C  C332  1  0.808000  0.178200  0.319300  1.0  0.7128
  N  N333  1  0.193200  0.755500  0.301800  1.0  -0.3379
  N  N334  1  0.024100  0.919300  0.027100  1.0  -0.3417
  N  N335  1  0.306800  0.744500  0.301800  1.0  -0.3391
  N  N336  1  0.475900  0.580700  0.027100  1.0  -0.3414
  N  N337  1  0.244500  0.693200  0.801800  1.0  -0.3384
  N  N338  1  0.080700  0.524100  0.527100  1.0  -0.3418
  N  N339  1  0.255500  0.806800  0.801800  1.0  -0.3384
  N  N340  1  0.419300  0.975900  0.527100  1.0  -0.3433
  N  N341  1  0.806800  0.244500  0.698200  1.0  -0.3387
  N  N342  1  0.975900  0.080700  0.972900  1.0  -0.3411
  N  N343  1  0.693200  0.255500  0.698200  1.0  -0.3378
  N  N344  1  0.524100  0.419300  0.972900  1.0  -0.3413
  N  N345  1  0.755500  0.306800  0.198200  1.0  -0.3382
  N  N346  1  0.919300  0.475900  0.472900  1.0  -0.3432
  N  N347  1  0.744500  0.193200  0.198200  1.0  -0.3382
  N  N348  1  0.580700  0.024100  0.472900  1.0  -0.3416
  O  O349  1  0.578300  0.014400  0.034200  1.0  -0.5836
  O  O350  1  0.625100  0.933100  0.999200  1.0  -0.5095
  O  O351  1  0.859200  0.954100  0.976600  1.0  -0.4564
  O  O352  1  0.913100  0.016700  0.020300  1.0  -0.5997
  O  O353  1  0.022700  0.572800  0.036900  1.0  -0.5994
  O  O354  1  0.076000  0.522800  0.085600  1.0  -0.4293
  O  O355  1  0.192700  0.643900  0.202900  1.0  -0.4477
  O  O356  1  0.195400  0.743800  0.197400  1.0  -0.5933
  O  O357  1  0.921700  0.485600  0.034200  1.0  -0.5833
  O  O358  1  0.874900  0.566900  0.999200  1.0  -0.5088
  O  O359  1  0.640800  0.545900  0.976600  1.0  -0.4578
  O  O360  1  0.586900  0.483300  0.020300  1.0  -0.5997
  O  O361  1  0.477300  0.927200  0.036900  1.0  -0.6
  O  O362  1  0.424000  0.977200  0.085600  1.0  -0.4271
  O  O363  1  0.307300  0.856100  0.202900  1.0  -0.4497
  O  O364  1  0.304600  0.756200  0.197400  1.0  -0.5916
  O  O365  1  0.985600  0.078300  0.534200  1.0  -0.582
  O  O366  1  0.066900  0.125100  0.499200  1.0  -0.5113
  O  O367  1  0.045900  0.359200  0.476600  1.0  -0.4551
  O  O368  1  0.983300  0.413100  0.520300  1.0  -0.6001
  O  O369  1  0.427200  0.522700  0.536900  1.0  -0.5991
  O  O370  1  0.477200  0.576000  0.585600  1.0  -0.4358
  O  O371  1  0.356100  0.692700  0.702900  1.0  -0.4536
  O  O372  1  0.256200  0.695400  0.697400  1.0  -0.5928
  O  O373  1  0.514400  0.421700  0.534200  1.0  -0.5818
  O  O374  1  0.433100  0.374900  0.499200  1.0  -0.5085
  O  O375  1  0.454100  0.140800  0.476600  1.0  -0.4564
  O  O376  1  0.516700  0.086900  0.520300  1.0  -0.6024
  O  O377  1  0.072800  0.977300  0.536900  1.0  -0.6003
  O  O378  1  0.022800  0.924000  0.585600  1.0  -0.4323
  O  O379  1  0.143900  0.807300  0.702900  1.0  -0.4519
  O  O380  1  0.243800  0.804600  0.697400  1.0  -0.5928
  O  O381  1  0.421700  0.985600  0.965800  1.0  -0.5826
  O  O382  1  0.374900  0.066900  0.000800  1.0  -0.5087
  O  O383  1  0.140800  0.045900  0.023400  1.0  -0.4567
  O  O384  1  0.086900  0.983300  0.979700  1.0  -0.5998
  O  O385  1  0.977300  0.427200  0.963100  1.0  -0.6
  O  O386  1  0.924000  0.477200  0.914400  1.0  -0.4286
  O  O387  1  0.807300  0.356100  0.797100  1.0  -0.4497
  O  O388  1  0.804600  0.256200  0.802600  1.0  -0.5923
  O  O389  1  0.078300  0.514400  0.965800  1.0  -0.583
  O  O390  1  0.125100  0.433100  0.000800  1.0  -0.5075
  O  O391  1  0.359200  0.454100  0.023400  1.0  -0.4584
  O  O392  1  0.413100  0.516700  0.979700  1.0  -0.5997
  O  O393  1  0.522700  0.072800  0.963100  1.0  -0.5997
  O  O394  1  0.576000  0.022800  0.914400  1.0  -0.4279
  O  O395  1  0.692700  0.143900  0.797100  1.0  -0.4472
  O  O396  1  0.695400  0.243800  0.802600  1.0  -0.5937
  O  O397  1  0.014400  0.921700  0.465800  1.0  -0.5809
  O  O398  1  0.933100  0.874900  0.500800  1.0  -0.5086
  O  O399  1  0.954100  0.640800  0.523400  1.0  -0.4553
  O  O400  1  0.016700  0.586900  0.479700  1.0  -0.602
  O  O401  1  0.572800  0.477300  0.463100  1.0  -0.6001
  O  O402  1  0.522800  0.424000  0.414400  1.0  -0.4361
  O  O403  1  0.643900  0.307300  0.297100  1.0  -0.4532
  O  O404  1  0.743800  0.304600  0.302600  1.0  -0.5931
  O  O405  1  0.485600  0.578300  0.465800  1.0  -0.5815
  O  O406  1  0.566900  0.625100  0.500800  1.0  -0.5099
  O  O407  1  0.545900  0.859200  0.523400  1.0  -0.4602
  O  O408  1  0.483300  0.913100  0.479700  1.0  -0.6002
  O  O409  1  0.927200  0.022700  0.463100  1.0  -0.5992
  O  O410  1  0.977200  0.076000  0.414400  1.0  -0.4334
  O  O411  1  0.856100  0.192700  0.297100  1.0  -0.4527
  O  O412  1  0.756200  0.195400  0.302600  1.0  -0.5933
