# generated using pymatgen
data_MnH3(C3O2)3
_symmetry_space_group_name_H-M   'P 1'
_cell_length_a   12.69910000
_cell_length_b   15.57110000
_cell_length_c   16.33130000
_cell_angle_alpha   90.00000000
_cell_angle_beta   90.00000000
_cell_angle_gamma   90.00000000
_symmetry_Int_Tables_number   1
_chemical_formula_structural   MnH3(C3O2)3
_chemical_formula_sum   'Mn8 H24 C72 O48'
_cell_volume   3229.33421229
_cell_formula_units_Z   8
loop_
 _symmetry_equiv_pos_site_id
 _symmetry_equiv_pos_as_xyz
  1  'x, y, z'
loop_
 _atom_site_type_symbol
 _atom_site_label
 _atom_site_symmetry_multiplicity
 _atom_site_fract_x
 _atom_site_fract_y
 _atom_site_fract_z
 _atom_site_occupancy
 _atom_site_charge
  Mn  Mn1  1  0.600450  0.495290  0.088790  1.0  1.1366
  Mn  Mn2  1  0.600450  0.004710  0.588790  1.0  1.1369
  Mn  Mn3  1  0.899550  0.995290  0.088790  1.0  1.1348
  Mn  Mn4  1  0.100450  0.004710  0.911210  1.0  1.1359
  Mn  Mn5  1  0.399550  0.504710  0.911210  1.0  1.1348
  Mn  Mn6  1  0.100450  0.495290  0.411210  1.0  1.1355
  Mn  Mn7  1  0.899550  0.504710  0.588790  1.0  1.1355
  Mn  Mn8  1  0.399550  0.995290  0.411210  1.0  1.134
  H  H9  1  0.777600  0.967800  0.366900  1.0  0.1727
  H  H10  1  0.668600  0.256500  0.525000  1.0  0.1749
  H  H11  1  0.331400  0.756500  0.975000  1.0  0.1751
  H  H12  1  0.277600  0.532200  0.633100  1.0  0.1699
  H  H13  1  0.448500  0.757800  0.201500  1.0  0.235
  H  H14  1  0.222400  0.467800  0.133100  1.0  0.1711
  H  H15  1  0.722400  0.032200  0.866900  1.0  0.1707
  H  H16  1  0.448500  0.742200  0.701500  1.0  0.2337
  H  H17  1  0.777600  0.532200  0.866900  1.0  0.1718
  H  H18  1  0.222400  0.032200  0.633100  1.0  0.1704
  H  H19  1  0.168600  0.256500  0.975000  1.0  0.1751
  H  H20  1  0.051500  0.242200  0.701500  1.0  0.2348
  H  H21  1  0.051500  0.257800  0.201500  1.0  0.2351
  H  H22  1  0.168600  0.243500  0.475000  1.0  0.1746
  H  H23  1  0.668600  0.243500  0.025000  1.0  0.1753
  H  H24  1  0.331400  0.743500  0.475000  1.0  0.1745
  H  H25  1  0.948500  0.742200  0.798500  1.0  0.2321
  H  H26  1  0.277600  0.967800  0.133100  1.0  0.1706
  H  H27  1  0.722400  0.467800  0.366900  1.0  0.172
  H  H28  1  0.551500  0.257800  0.298500  1.0  0.2333
  H  H29  1  0.948500  0.757800  0.298500  1.0  0.2325
  H  H30  1  0.831400  0.743500  0.025000  1.0  0.1742
  H  H31  1  0.831400  0.756500  0.525000  1.0  0.1748
  H  H32  1  0.551500  0.242200  0.798500  1.0  0.2329
  C  C33  1  0.693400  0.086200  0.875900  1.0  -0.0593
  C  C34  1  0.956000  0.648900  0.438700  1.0  0.6481
  C  C35  1  0.726600  0.584300  0.012700  1.0  0.5289
  C  C36  1  0.773400  0.415700  0.512700  1.0  0.5286
  C  C37  1  0.204000  0.133800  0.547600  1.0  -0.0201
  C  C38  1  0.128600  0.419800  0.269000  1.0  0.5344
  C  C39  1  0.871400  0.580200  0.731000  1.0  0.5333
  C  C40  1  0.863600  0.629600  0.819500  1.0  -0.0614
  C  C41  1  0.095200  0.229800  0.082200  1.0  -0.0655
  C  C42  1  0.410000  0.717100  0.659400  1.0  0.0453
  C  C43  1  0.704000  0.366200  0.452400  1.0  -0.0212
  C  C44  1  0.544000  0.148900  0.438700  1.0  0.6487
  C  C45  1  0.843500  0.778800  0.473000  1.0  0.0296
  C  C46  1  0.136400  0.129600  0.680500  1.0  -0.0618
  C  C47  1  0.128600  0.080200  0.769000  1.0  0.5357
  C  C48  1  0.456000  0.648900  0.061300  1.0  0.6482
  C  C49  1  0.544000  0.351100  0.938700  1.0  0.6491
  C  C50  1  0.044000  0.351100  0.561300  1.0  0.6493
  C  C51  1  0.863600  0.870400  0.319500  1.0  -0.0612
  C  C52  1  0.156500  0.221200  0.527000  1.0  0.0292
  C  C53  1  0.704000  0.133800  0.952400  1.0  -0.0204
  C  C54  1  0.306600  0.913800  0.124100  1.0  -0.061
  C  C55  1  0.404800  0.729800  0.082200  1.0  -0.065
  C  C56  1  0.156500  0.278800  0.027000  1.0  0.0305
  C  C57  1  0.371400  0.919800  0.269000  1.0  0.534
  C  C58  1  0.343500  0.778800  0.027000  1.0  0.0295
  C  C59  1  0.595200  0.270200  0.917800  1.0  -0.0653
  C  C60  1  0.204000  0.366200  0.047600  1.0  -0.0209
  C  C61  1  0.590000  0.217100  0.840600  1.0  0.0445
  C  C62  1  0.693400  0.413800  0.375900  1.0  -0.0613
  C  C63  1  0.226600  0.915700  0.987300  1.0  0.5286
  C  C64  1  0.363600  0.870400  0.180500  1.0  -0.0611
  C  C65  1  0.871400  0.919800  0.231000  1.0  0.5331
  C  C66  1  0.773400  0.084300  0.012700  1.0  0.5283
  C  C67  1  0.636400  0.129600  0.819500  1.0  -0.0623
  C  C68  1  0.193400  0.413800  0.124100  1.0  -0.0606
  C  C69  1  0.910000  0.782900  0.340600  1.0  0.045
  C  C70  1  0.371400  0.580200  0.769000  1.0  0.5345
  C  C71  1  0.343500  0.721200  0.527000  1.0  0.0287
  C  C72  1  0.193400  0.086200  0.624100  1.0  -0.0593
  C  C73  1  0.296000  0.633800  0.547600  1.0  -0.02
  C  C74  1  0.910000  0.717100  0.840600  1.0  0.0452
  C  C75  1  0.843500  0.721200  0.973000  1.0  0.0303
  C  C76  1  0.796000  0.866200  0.452400  1.0  -0.021
  C  C77  1  0.095200  0.270200  0.582200  1.0  -0.0653
  C  C78  1  0.656500  0.221200  0.973000  1.0  0.0316
  C  C79  1  0.404800  0.770200  0.582200  1.0  -0.0651
  C  C80  1  0.363600  0.629600  0.680500  1.0  -0.0613
  C  C81  1  0.136400  0.370400  0.180500  1.0  -0.0615
  C  C82  1  0.296000  0.866200  0.047600  1.0  -0.0207
  C  C83  1  0.806600  0.586200  0.875900  1.0  -0.0598
  C  C84  1  0.456000  0.851100  0.561300  1.0  0.6488
  C  C85  1  0.595200  0.229800  0.417800  1.0  -0.0656
  C  C86  1  0.410000  0.782900  0.159400  1.0  0.0458
  C  C87  1  0.636400  0.370400  0.319500  1.0  -0.062
  C  C88  1  0.956000  0.851100  0.938700  1.0  0.6486
  C  C89  1  0.796000  0.633800  0.952400  1.0  -0.0203
  C  C90  1  0.806600  0.913800  0.375900  1.0  -0.0609
  C  C91  1  0.090000  0.282900  0.159400  1.0  0.045
  C  C92  1  0.226600  0.584300  0.487300  1.0  0.5282
  C  C93  1  0.628600  0.419800  0.231000  1.0  0.5328
  C  C94  1  0.656500  0.278800  0.473000  1.0  0.0296
  C  C95  1  0.044000  0.148900  0.061300  1.0  0.6488
  C  C96  1  0.628600  0.080200  0.731000  1.0  0.533
  C  C97  1  0.273400  0.084300  0.487300  1.0  0.5281
  C  C98  1  0.726600  0.915700  0.512700  1.0  0.5288
  C  C99  1  0.590000  0.282900  0.340600  1.0  0.0445
  C  C100  1  0.904800  0.729800  0.417800  1.0  -0.0651
  C  C101  1  0.904800  0.770200  0.917800  1.0  -0.0642
  C  C102  1  0.090000  0.217100  0.659400  1.0  0.044
  C  C103  1  0.306600  0.586200  0.624100  1.0  -0.0592
  C  C104  1  0.273400  0.415700  0.987300  1.0  0.529
  O  O105  1  0.201900  0.998500  0.001300  1.0  -0.476
  O  O106  1  0.501500  0.400900  0.882700  1.0  -0.55
  O  O107  1  0.086600  0.372800  0.317300  1.0  -0.5132
  O  O108  1  0.798100  0.498500  0.498700  1.0  -0.4758
  O  O109  1  0.298100  0.498500  0.001300  1.0  -0.4751
  O  O110  1  0.201900  0.501500  0.501300  1.0  -0.4735
  O  O111  1  0.413400  0.872800  0.317300  1.0  -0.5136
  O  O112  1  0.340100  0.494100  0.779000  1.0  -0.5086
  O  O113  1  0.913400  0.872800  0.182700  1.0  -0.5143
  O  O114  1  0.840100  0.494100  0.721000  1.0  -0.5089
  O  O115  1  0.299700  0.358400  0.934600  1.0  -0.5889
  O  O116  1  0.001500  0.099100  0.117300  1.0  -0.5476
  O  O117  1  0.659900  0.994100  0.721000  1.0  -0.5081
  O  O118  1  0.964300  0.882700  0.013400  1.0  -0.6569
  O  O119  1  0.659900  0.505900  0.221000  1.0  -0.5085
  O  O120  1  0.413400  0.627200  0.817300  1.0  -0.513
  O  O121  1  0.200300  0.641600  0.434600  1.0  -0.5896
  O  O122  1  0.001500  0.400900  0.617300  1.0  -0.5482
  O  O123  1  0.501500  0.099100  0.382700  1.0  -0.5509
  O  O124  1  0.498500  0.900900  0.617300  1.0  -0.5483
  O  O125  1  0.913400  0.627200  0.682700  1.0  -0.5139
  O  O126  1  0.535700  0.382700  0.013400  1.0  -0.657
  O  O127  1  0.159900  0.505900  0.279000  1.0  -0.509
  O  O128  1  0.998500  0.599100  0.382700  1.0  -0.5514
  O  O129  1  0.701900  0.998500  0.498700  1.0  -0.475
  O  O130  1  0.586600  0.127200  0.682700  1.0  -0.5134
  O  O131  1  0.840100  0.005900  0.221000  1.0  -0.5089
  O  O132  1  0.464300  0.617300  0.986600  1.0  -0.6568
  O  O133  1  0.086600  0.127200  0.817300  1.0  -0.5127
  O  O134  1  0.200300  0.858400  0.934600  1.0  -0.5899
  O  O135  1  0.700300  0.858400  0.565400  1.0  -0.5924
  O  O136  1  0.964300  0.617300  0.513400  1.0  -0.6575
  O  O137  1  0.340100  0.005900  0.279000  1.0  -0.5101
  O  O138  1  0.586600  0.372800  0.182700  1.0  -0.5135
  O  O139  1  0.998500  0.900900  0.882700  1.0  -0.55
  O  O140  1  0.299700  0.141600  0.434600  1.0  -0.5896
  O  O141  1  0.035700  0.117300  0.986600  1.0  -0.6567
  O  O142  1  0.298100  0.001500  0.501300  1.0  -0.473
  O  O143  1  0.799700  0.358400  0.565400  1.0  -0.5915
  O  O144  1  0.159900  0.994100  0.779000  1.0  -0.5084
  O  O145  1  0.700300  0.641600  0.065400  1.0  -0.59
  O  O146  1  0.535700  0.117300  0.513400  1.0  -0.6575
  O  O147  1  0.798100  0.001500  0.998700  1.0  -0.4729
  O  O148  1  0.701900  0.501500  0.998700  1.0  -0.4746
  O  O149  1  0.035700  0.382700  0.486600  1.0  -0.6575
  O  O150  1  0.498500  0.599100  0.117300  1.0  -0.5484
  O  O151  1  0.799700  0.141600  0.065400  1.0  -0.5907
  O  O152  1  0.464300  0.882700  0.486600  1.0  -0.6575
