# generated using pymatgen
data_Cu2H9(C3O)8
_symmetry_space_group_name_H-M   'P 1'
_cell_length_a   12.43500000
_cell_length_b   14.58400000
_cell_length_c   26.04630000
_cell_angle_alpha   90.00000000
_cell_angle_beta   99.15540000
_cell_angle_gamma   90.00000000
_symmetry_Int_Tables_number   1
_chemical_formula_structural   Cu2H9(C3O)8
_chemical_formula_sum   'Cu8 H36 C96 O32'
_cell_volume   4663.37360189
_cell_formula_units_Z   4
loop_
 _symmetry_equiv_pos_site_id
 _symmetry_equiv_pos_as_xyz
  1  'x, y, z'
loop_
 _atom_site_type_symbol
 _atom_site_label
 _atom_site_symmetry_multiplicity
 _atom_site_fract_x
 _atom_site_fract_y
 _atom_site_fract_z
 _atom_site_occupancy
 _atom_site_charge
  Cu  Cu1  1  0.129630  0.475610  0.136730  1.0  0.8978
  Cu  Cu2  1  0.992820  0.660230  0.776820  1.0  0.6361
  Cu  Cu3  1  0.629630  0.024390  0.636730  1.0  0.9152
  Cu  Cu4  1  0.007180  0.339770  0.223180  1.0  0.635
  Cu  Cu5  1  0.507180  0.160230  0.723180  1.0  0.6353
  Cu  Cu6  1  0.870380  0.524390  0.863280  1.0  0.9
  Cu  Cu7  1  0.370380  0.975610  0.363280  1.0  0.8989
  Cu  Cu8  1  0.492820  0.839770  0.276820  1.0  0.6384
  H  H9  1  0.824200  0.500300  0.588800  1.0  0.1139
  H  H10  1  0.295700  0.874900  0.040200  1.0  0.1113
  H  H11  1  0.734700  0.750200  0.396100  1.0  0.1222
  H  H12  1  0.234700  0.749800  0.896100  1.0  0.1218
  H  H13  1  0.838800  0.239700  0.609400  1.0  0.1321
  H  H14  1  0.561200  0.242800  0.099600  1.0  0.109
  H  H15  1  0.704300  0.125100  0.959800  1.0  0.1109
  H  H16  1  0.265300  0.249800  0.603900  1.0  0.1226
  H  H17  1  0.392000  0.067900  0.516600  1.0  0.1144
  H  H18  1  0.204300  0.374900  0.459800  1.0  0.111
  H  H19  1  0.438800  0.757200  0.900400  1.0  0.1093
  H  H20  1  0.275700  0.179500  0.248000  1.0  0.1212
  H  H21  1  0.892000  0.432100  0.016600  1.0  0.1145
  H  H22  1  0.324200  0.999700  0.088800  1.0  0.1142
  H  H23  1  0.633700  0.282800  0.956000  1.0  0.1054
  H  H24  1  0.522000  0.966200  0.825000  1.0  0.1264
  H  H25  1  0.022000  0.533800  0.325000  1.0  0.1249
  H  H26  1  0.061200  0.257200  0.599600  1.0  0.1089
  H  H27  1  0.866300  0.782800  0.544000  1.0  0.1063
  H  H28  1  0.765300  0.250200  0.103900  1.0  0.1221
  H  H29  1  0.133700  0.217200  0.456000  1.0  0.1058
  H  H30  1  0.478000  0.033800  0.175000  1.0  0.1258
  H  H31  1  0.175800  0.499700  0.411200  1.0  0.1139
  H  H32  1  0.366300  0.717200  0.044000  1.0  0.1065
  H  H33  1  0.108000  0.567900  0.983400  1.0  0.1141
  H  H34  1  0.161200  0.760300  0.390600  1.0  0.1319
  H  H35  1  0.338800  0.260300  0.109400  1.0  0.1316
  H  H36  1  0.938800  0.742800  0.400400  1.0  0.1095
  H  H37  1  0.978000  0.466200  0.675000  1.0  0.1251
  H  H38  1  0.608000  0.932100  0.483400  1.0  0.1142
  H  H39  1  0.224300  0.679500  0.252000  1.0  0.1206
  H  H40  1  0.724300  0.820500  0.752000  1.0  0.1208
  H  H41  1  0.775700  0.320500  0.748000  1.0  0.1208
  H  H42  1  0.795700  0.625100  0.540200  1.0  0.1111
  H  H43  1  0.675800  0.000300  0.911200  1.0  0.1142
  H  H44  1  0.661200  0.739700  0.890600  1.0  0.1316
  C  C45  1  0.392840  0.818000  0.961940  1.0  -0.0134
  C  C46  1  0.762480  0.363900  0.977180  1.0  -0.1984
  C  C47  1  0.598270  0.968400  0.736670  1.0  0.7468
  C  C48  1  0.764480  0.278500  0.071880  1.0  -0.0307
  C  C49  1  0.204150  0.731900  0.321650  1.0  -0.1575
  C  C50  1  0.237520  0.636100  0.022820  1.0  -0.198
  C  C51  1  0.811850  0.329400  0.719750  1.0  0.0317
  C  C52  1  0.925390  0.372500  0.112390  1.0  0.7844
  C  C53  1  0.526380  0.871000  0.910480  1.0  0.0035
  C  C54  1  0.280620  0.808400  0.321120  1.0  0.7311
  C  C55  1  0.348870  0.218600  0.136770  1.0  -0.0658
  C  C56  1  0.187200  0.202300  0.483900  1.0  -0.0601
  C  C57  1  0.590660  0.104000  0.006860  1.0  0.0614
  C  C58  1  0.950730  0.446700  0.557230  1.0  0.0175
  C  C59  1  0.409340  0.896000  0.993140  1.0  0.0612
  C  C60  1  0.812800  0.797700  0.516100  1.0  -0.0599
  C  C61  1  0.840880  0.346200  0.066980  1.0  -0.1644
  C  C62  1  0.312800  0.702300  0.016100  1.0  -0.0607
  C  C63  1  0.219380  0.308400  0.178880  1.0  0.7309
  C  C64  1  0.795850  0.268100  0.678350  1.0  -0.1581
  C  C65  1  0.236220  0.592200  0.073620  1.0  0.7308
  C  C66  1  0.263780  0.092200  0.426380  1.0  0.7289
  C  C67  1  0.489590  0.960900  0.983790  1.0  0.0385
  C  C68  1  0.349640  0.915600  0.033940  1.0  -0.129
  C  C69  1  0.417120  0.144200  0.134820  1.0  0.0803
  C  C70  1  0.909340  0.604000  0.493140  1.0  0.0619
  C  C71  1  0.917120  0.355800  0.634820  1.0  0.0794
  C  C72  1  0.989590  0.539100  0.483790  1.0  0.0404
  C  C73  1  0.582880  0.855800  0.865180  1.0  0.0797
  C  C74  1  0.451250  0.808800  0.921450  1.0  -0.1674
  C  C75  1  0.632570  0.010800  0.936670  1.0  -0.1668
  C  C76  1  0.107160  0.318000  0.538060  1.0  -0.0134
  C  C77  1  0.951250  0.691200  0.421450  1.0  -0.1694
  C  C78  1  0.763780  0.407800  0.926380  1.0  0.7296
  C  C79  1  0.159120  0.653800  0.933020  1.0  -0.1626
  C  C80  1  0.120030  0.598200  0.280730  1.0  -0.1384
  C  C81  1  0.082880  0.644200  0.365180  1.0  0.0804
  C  C82  1  0.735520  0.778500  0.428120  1.0  -0.03
  C  C83  1  0.848870  0.281400  0.636770  1.0  -0.0657
  C  C84  1  0.867430  0.510800  0.563330  1.0  -0.1604
  C  C85  1  0.574610  0.872500  0.387610  1.0  0.784
  C  C86  1  0.879970  0.401800  0.719270  1.0  -0.1382
  C  C87  1  0.151130  0.718600  0.363230  1.0  -0.0667
  C  C88  1  0.849640  0.584400  0.533940  1.0  -0.13
  C  C89  1  0.098270  0.531600  0.236670  1.0  0.7461
  C  C90  1  0.401730  0.031600  0.263330  1.0  0.7479
  C  C91  1  0.892840  0.682000  0.461940  1.0  -0.0131
  C  C92  1  0.049270  0.553300  0.442770  1.0  0.0184
  C  C93  1  0.159810  0.612500  0.979810  1.0  0.0433
  C  C94  1  0.187940  0.247500  0.530740  1.0  0.0672
  C  C95  1  0.132570  0.489200  0.436670  1.0  -0.1601
  C  C96  1  0.340190  0.112500  0.520190  1.0  0.0425
  C  C97  1  0.650360  0.084400  0.966060  1.0  -0.129
  C  C98  1  0.235520  0.721500  0.928120  1.0  -0.0297
  C  C99  1  0.704150  0.768100  0.821650  1.0  -0.1596
  C  C100  1  0.567530  0.915900  0.824130  1.0  -0.0345
  C  C101  1  0.295850  0.231900  0.178350  1.0  -0.1588
  C  C102  1  0.659120  0.846200  0.433020  1.0  -0.1624
  C  C103  1  0.425390  0.127500  0.612390  1.0  0.7847
  C  C104  1  0.090660  0.396000  0.506860  1.0  0.0621
  C  C105  1  0.812060  0.752500  0.469260  1.0  0.0673
  C  C106  1  0.262480  0.136100  0.477180  1.0  -0.2
  C  C107  1  0.620030  0.901800  0.780730  1.0  -0.1413
  C  C108  1  0.450730  0.053300  0.057230  1.0  0.0176
  C  C109  1  0.549270  0.946700  0.942770  1.0  0.0183
  C  C110  1  0.973620  0.371000  0.589520  1.0  0.0028
  C  C111  1  0.510410  0.039100  0.016210  1.0  0.0385
  C  C112  1  0.264480  0.221500  0.571880  1.0  -0.0309
  C  C113  1  0.379970  0.098200  0.219270  1.0  -0.141
  C  C114  1  0.736220  0.907800  0.573620  1.0  0.7296
  C  C115  1  0.311850  0.170600  0.219750  1.0  0.0349
  C  C116  1  0.932470  0.415900  0.675870  1.0  -0.0343
  C  C117  1  0.719380  0.191600  0.678880  1.0  0.7313
  C  C118  1  0.432470  0.084100  0.175870  1.0  -0.0352
  C  C119  1  0.026380  0.629000  0.410480  1.0  0.003
  C  C120  1  0.188150  0.670600  0.280250  1.0  0.0318
  C  C121  1  0.150360  0.415600  0.466060  1.0  -0.1248
  C  C122  1  0.688150  0.829400  0.780250  1.0  0.0343
  C  C123  1  0.010410  0.460900  0.516210  1.0  0.0404
  C  C124  1  0.473620  0.129000  0.089520  1.0  0.0024
  C  C125  1  0.607160  0.182000  0.038060  1.0  -0.0131
  C  C126  1  0.340880  0.153800  0.566980  1.0  -0.1639
  C  C127  1  0.067530  0.584100  0.324130  1.0  -0.0359
  C  C128  1  0.840190  0.387500  0.020190  1.0  0.0417
  C  C129  1  0.367430  0.989200  0.063330  1.0  -0.1642
  C  C130  1  0.687940  0.252500  0.030740  1.0  0.0668
  C  C131  1  0.548750  0.191200  0.078550  1.0  -0.1711
  C  C132  1  0.074610  0.627500  0.887610  1.0  0.7839
  C  C133  1  0.901730  0.468400  0.763330  1.0  0.7465
  C  C134  1  0.659810  0.887500  0.479810  1.0  0.0426
  C  C135  1  0.687200  0.297700  0.983900  1.0  -0.0599
  C  C136  1  0.780620  0.691600  0.821120  1.0  0.7311
  C  C137  1  0.737520  0.863900  0.522820  1.0  -0.1979
  C  C138  1  0.312060  0.747500  0.969260  1.0  0.0673
  C  C139  1  0.048750  0.308800  0.578550  1.0  -0.1693
  C  C140  1  0.651130  0.781400  0.863230  1.0  -0.066
  O  O141  1  0.781450  0.632800  0.856950  1.0  -0.5758
  O  O142  1  0.967110  0.529400  0.761310  1.0  -0.626
  O  O143  1  0.516990  0.938600  0.393390  1.0  -0.5813
  O  O144  1  0.842200  0.459200  0.923100  1.0  -0.5802
  O  O145  1  0.070540  0.674000  0.847340  1.0  -0.6082
  O  O146  1  0.570540  0.826000  0.347340  1.0  -0.6073
  O  O147  1  0.467110  0.970600  0.261310  1.0  -0.6244
  O  O148  1  0.429460  0.174000  0.652660  1.0  -0.6082
  O  O149  1  0.983010  0.438600  0.106610  1.0  -0.5831
  O  O150  1  0.690730  0.393400  0.891330  1.0  -0.4282
  O  O151  1  0.157800  0.540800  0.076900  1.0  -0.5812
  O  O152  1  0.342200  0.040800  0.423100  1.0  -0.5798
  O  O153  1  0.660620  0.188200  0.712720  1.0  -0.623
  O  O154  1  0.016990  0.561400  0.893390  1.0  -0.5819
  O  O155  1  0.145600  0.548100  0.198700  1.0  -0.5846
  O  O156  1  0.354400  0.048100  0.301300  1.0  -0.5832
  O  O157  1  0.809270  0.893400  0.608670  1.0  -0.427
  O  O158  1  0.218550  0.367200  0.143050  1.0  -0.5758
  O  O159  1  0.657800  0.959200  0.576900  1.0  -0.5803
  O  O160  1  0.339380  0.811800  0.287280  1.0  -0.6233
  O  O161  1  0.645600  0.951900  0.698700  1.0  -0.5837
  O  O162  1  0.839380  0.688200  0.787280  1.0  -0.6237
  O  O163  1  0.160620  0.311800  0.212720  1.0  -0.6226
  O  O164  1  0.281450  0.867200  0.356950  1.0  -0.5758
  O  O165  1  0.532890  0.029400  0.738690  1.0  -0.6261
  O  O166  1  0.929460  0.326000  0.152660  1.0  -0.6078
  O  O167  1  0.483010  0.061400  0.606610  1.0  -0.5817
  O  O168  1  0.032890  0.470600  0.238690  1.0  -0.6246
  O  O169  1  0.309270  0.606600  0.108670  1.0  -0.4272
  O  O170  1  0.854400  0.451900  0.801300  1.0  -0.583
  O  O171  1  0.718550  0.132800  0.643050  1.0  -0.575
  O  O172  1  0.190730  0.106600  0.391330  1.0  -0.4282
