# generated using pymatgen
data_AgH15C24(NO2)3
_symmetry_space_group_name_H-M   'P 1'
_cell_length_a   10.28400000
_cell_length_b   16.51490000
_cell_length_c   20.90400000
_cell_angle_alpha   85.92630000
_cell_angle_beta   76.81110000
_cell_angle_gamma   71.85910000
_symmetry_Int_Tables_number   1
_chemical_formula_structural   AgH15C24(NO2)3
_chemical_formula_sum   'Ag4 H60 C96 N12 O24'
_cell_volume   3284.85459634
_cell_formula_units_Z   4
loop_
 _symmetry_equiv_pos_site_id
 _symmetry_equiv_pos_as_xyz
  1  'x, y, z'
loop_
 _atom_site_type_symbol
 _atom_site_label
 _atom_site_symmetry_multiplicity
 _atom_site_fract_x
 _atom_site_fract_y
 _atom_site_fract_z
 _atom_site_occupancy
 _atom_site_charge
  Ag  Ag1  1  0.768260  0.613260  0.040630  1.0  0.2909
  Ag  Ag2  1  0.381520  0.386740  0.540630  1.0  0.2913
  Ag  Ag3  1  0.231740  0.386740  0.959370  1.0  0.2901
  Ag  Ag4  1  0.618480  0.613260  0.459370  1.0  0.2897
  H  H5  1  0.258400  0.184000  0.738600  1.0  0.1067
  H  H6  1  0.141500  0.102400  0.242300  1.0  0.1134
  H  H7  1  0.104800  0.794400  0.974400  1.0  0.1293
  H  H8  1  0.439700  0.460600  0.170200  1.0  0.1096
  H  H9  1  0.979800  0.640600  0.491000  1.0  0.1273
  H  H10  1  0.637300  0.809400  0.020700  1.0  0.0635
  H  H11  1  0.243900  0.897600  0.742300  1.0  0.1135
  H  H12  1  0.446700  0.190600  0.520700  1.0  0.0638
  H  H13  1  0.448400  0.058200  0.574300  1.0  0.1125
  H  H14  1  0.631300  0.837000  0.629000  1.0  0.1217
  H  H15  1  0.757800  0.348400  0.328800  1.0  0.1061
  H  H16  1  0.199600  0.546800  0.475800  1.0  0.0645
  H  H17  1  0.948000  0.736600  0.039500  1.0  0.0569
  H  H18  1  0.468300  0.163000  0.129000  1.0  0.1204
  H  H19  1  0.950100  0.596400  0.899700  1.0  0.0825
  H  H20  1  0.571500  0.550200  0.149500  1.0  0.0914
  H  H21  1  0.684600  0.263400  0.539500  1.0  0.0553
  H  H22  1  0.506600  0.941800  0.074300  1.0  0.1128
  H  H23  1  0.121700  0.449800  0.649500  1.0  0.0917
  H  H24  1  0.495100  0.654400  0.733500  1.0  0.1197
  H  H25  1  0.899200  0.205600  0.474400  1.0  0.1292
  H  H26  1  0.900300  0.539400  0.670200  1.0  0.1092
  H  H27  1  0.596000  0.693800  0.183700  1.0  0.0646
  H  H28  1  0.106200  0.651600  0.828800  1.0  0.1059
  H  H29  1  0.442400  0.816000  0.238600  1.0  0.107
  H  H30  1  0.289800  0.306200  0.683700  1.0  0.0658
  H  H31  1  0.746400  0.453200  0.975800  1.0  0.0647
  H  H32  1  0.620400  0.359400  0.991000  1.0  0.1276
  H  H33  1  0.546500  0.403600  0.399700  1.0  0.0831
  H  H34  1  0.149500  0.345600  0.233500  1.0  0.1186
  H  H35  1  0.741600  0.816000  0.261400  1.0  0.107
  H  H36  1  0.560300  0.539400  0.829800  1.0  0.1096
  H  H37  1  0.368700  0.163000  0.371000  1.0  0.1199
  H  H38  1  0.100800  0.794400  0.525600  1.0  0.1294
  H  H39  1  0.895200  0.205600  0.025600  1.0  0.1288
  H  H40  1  0.800400  0.453200  0.524200  1.0  0.0644
  H  H41  1  0.428500  0.449800  0.850500  1.0  0.0907
  H  H42  1  0.551600  0.941800  0.425700  1.0  0.1127
  H  H43  1  0.362700  0.190600  0.979300  1.0  0.0634
  H  H44  1  0.052000  0.263400  0.960500  1.0  0.0563
  H  H45  1  0.253600  0.546800  0.024200  1.0  0.0645
  H  H46  1  0.710200  0.693800  0.316300  1.0  0.0643
  H  H47  1  0.020200  0.359400  0.509000  1.0  0.1281
  H  H48  1  0.850500  0.654400  0.766500  1.0  0.1199
  H  H49  1  0.553300  0.809400  0.479300  1.0  0.063
  H  H50  1  0.557600  0.184000  0.761400  1.0  0.1068
  H  H51  1  0.493400  0.058200  0.925700  1.0  0.1127
  H  H52  1  0.404000  0.306200  0.816300  1.0  0.0655
  H  H53  1  0.453500  0.596400  0.600300  1.0  0.0816
  H  H54  1  0.099700  0.460600  0.329800  1.0  0.1104
  H  H55  1  0.049900  0.403600  0.100300  1.0  0.0812
  H  H56  1  0.893800  0.348400  0.171200  1.0  0.106
  H  H57  1  0.504900  0.345600  0.266500  1.0  0.1189
  H  H58  1  0.242200  0.651600  0.671200  1.0  0.1058
  H  H59  1  0.858500  0.897600  0.757700  1.0  0.1135
  H  H60  1  0.756100  0.102400  0.257700  1.0  0.114
  H  H61  1  0.531700  0.837000  0.871000  1.0  0.1199
  H  H62  1  0.315400  0.736600  0.460500  1.0  0.0564
  H  H63  1  0.878300  0.550200  0.350500  1.0  0.0905
  H  H64  1  0.379600  0.640600  0.009000  1.0  0.1277
  C  C65  1  0.772300  0.663200  0.591300  1.0  0.5307
  C  C66  1  0.745000  0.330800  0.372400  1.0  -0.1508
  C  C67  1  0.479170  0.711260  0.720800  1.0  -0.2056
  C  C68  1  0.913800  0.600400  0.583800  1.0  -0.1068
  C  C69  1  0.092300  0.488600  0.617300  1.0  0.1468
  C  C70  1  0.006430  0.602340  0.523900  1.0  -0.1928
  C  C71  1  0.124600  0.727200  0.894400  1.0  -0.1102
  C  C72  1  0.435500  0.336800  0.091300  1.0  0.5312
  C  C73  1  0.305700  0.182200  0.694900  1.0  -0.1693
  C  C74  1  0.608770  0.397660  0.023900  1.0  -0.1926
  C  C75  1  0.312600  0.122800  0.183700  1.0  0.2763
  C  C76  1  0.561150  0.820300  0.657900  1.0  -0.182
  C  C77  1  0.579540  0.736920  0.676600  1.0  0.2854
  C  C78  1  0.829300  0.246200  0.457900  1.0  -0.1848
  C  C79  1  0.435400  0.877200  0.683700  1.0  0.2812
  C  C80  1  0.316460  0.263080  0.176600  1.0  0.2778
  C  C81  1  0.381450  0.179700  0.157900  1.0  -0.1805
  C  C82  1  0.229900  0.764400  0.853000  1.0  0.6077
  C  C83  1  0.487900  0.817800  0.194900  1.0  -0.1676
  C  C84  1  0.137720  0.545560  0.515700  1.0  0.1724
  C  C85  1  0.075800  0.669200  0.872400  1.0  -0.1504
  C  C86  1  0.126400  0.228000  0.245800  1.0  0.2305
  C  C87  1  0.683280  0.454440  0.015700  1.0  0.173
  C  C88  1  0.364900  0.111000  0.661800  1.0  0.0172
  C  C89  1  0.514200  0.399600  0.083800  1.0  -0.1069
  C  C90  1  0.318300  0.255800  0.659900  1.0  0.1811
  C  C91  1  0.502350  0.457900  0.129900  1.0  -0.1327
  C  C92  1  0.412600  0.189800  0.565900  1.0  0.1346
  C  C93  1  0.414300  0.109000  0.597700  1.0  -0.1022
  C  C94  1  0.580900  0.511400  0.117300  1.0  0.146
  C  C95  1  0.960250  0.542100  0.629900  1.0  -0.1335
  C  C96  1  0.366400  0.025600  0.697400  1.0  0.6469
  C  C97  1  0.574100  0.744200  0.159900  1.0  0.1806
  C  C98  1  0.523300  0.891000  0.097700  1.0  -0.106
  C  C99  1  0.981900  0.636800  0.914900  1.0  0.1183
  C  C100  1  0.602400  0.810200  0.065900  1.0  0.1347
  C  C101  1  0.475900  0.889000  0.161800  1.0  0.0168
  C  C102  1  0.851800  0.272800  0.394400  1.0  -0.1112
  C  C103  1  0.190430  0.288740  0.220800  1.0  -0.2068
  C  C104  1  0.981700  0.718600  0.996000  1.0  0.1809
  C  C105  1  0.185900  0.143400  0.226600  1.0  -0.2159
  C  C106  1  0.075500  0.753800  0.957900  1.0  -0.1834
  C  C107  1  0.392000  0.974400  0.197400  1.0  0.6455
  C  C108  1  0.354400  0.772000  0.745800  1.0  0.2308
  C  C109  1  0.994300  0.235600  0.353000  1.0  0.6115
  C  C110  1  0.329300  0.856600  0.726600  1.0  -0.2183
  C  C111  1  0.618700  0.363200  0.414900  1.0  0.1174
  C  C112  1  0.700300  0.281400  0.496000  1.0  0.1821
  C  C113  1  0.585700  0.891000  0.402300  1.0  -0.1058
  C  C114  1  0.420460  0.263080  0.323400  1.0  0.2865
  C  C115  1  0.438850  0.179700  0.342100  1.0  -0.1808
  C  C116  1  0.875400  0.272800  0.105600  1.0  -0.1125
  C  C117  1  0.687400  0.877200  0.816300  1.0  0.2798
  C  C118  1  0.694300  0.817800  0.305100  1.0  -0.1667
  C  C119  1  0.862280  0.454440  0.484300  1.0  0.1717
  C  C120  1  0.633600  0.974400  0.302600  1.0  0.6459
  C  C121  1  0.018300  0.281400  0.004000  1.0  0.1829
  C  C122  1  0.086200  0.399600  0.416200  1.0  -0.1059
  C  C123  1  0.924500  0.246200  0.042100  1.0  -0.1849
  C  C124  1  0.635100  0.889000  0.338200  1.0  0.0171
  C  C125  1  0.391230  0.602340  0.976100  1.0  -0.1937
  C  C126  1  0.148200  0.727200  0.605600  1.0  -0.111
  C  C127  1  0.907700  0.511400  0.382700  1.0  0.1474
  C  C128  1  0.993570  0.397660  0.476100  1.0  -0.1947
  C  C129  1  0.681700  0.744200  0.340100  1.0  0.1804
  C  C130  1  0.512100  0.182200  0.805100  1.0  -0.1672
  C  C131  1  0.587400  0.810200  0.434100  1.0  0.1354
  C  C132  1  0.608000  0.025600  0.802600  1.0  0.6454
  C  C133  1  0.425900  0.255800  0.840100  1.0  0.1813
  C  C134  1  0.476700  0.109000  0.902300  1.0  -0.1043
  C  C135  1  0.873600  0.772000  0.754200  1.0  0.2315
  C  C136  1  0.419100  0.488600  0.882700  1.0  0.1458
  C  C137  1  0.564600  0.122800  0.316300  1.0  0.2796
  C  C138  1  0.770100  0.235600  0.147000  1.0  0.609
  C  C139  1  0.618550  0.820300  0.842100  1.0  -0.1803
  C  C140  1  0.299700  0.718600  0.504000  1.0  0.1831
  C  C141  1  0.670700  0.143400  0.273400  1.0  -0.217
  C  C142  1  0.497650  0.542100  0.870100  1.0  -0.1337
  C  C143  1  0.381300  0.636800  0.585100  1.0  0.1183
  C  C144  1  0.255000  0.669200  0.627600  1.0  -0.1495
  C  C145  1  0.524100  0.111000  0.838200  1.0  0.0162
  C  C146  1  0.397600  0.189800  0.934100  1.0  0.1356
  C  C147  1  0.809570  0.711260  0.779200  1.0  -0.2051
  C  C148  1  0.316720  0.545560  0.984300  1.0  0.172
  C  C149  1  0.005700  0.764400  0.647000  1.0  0.6078
  C  C150  1  0.520830  0.288740  0.279200  1.0  -0.2057
  C  C151  1  0.564500  0.663200  0.908700  1.0  0.5301
  C  C152  1  0.683540  0.736920  0.823400  1.0  0.2786
  C  C153  1  0.814100  0.856600  0.773400  1.0  -0.2178
  C  C154  1  0.924200  0.330800  0.127600  1.0  -0.1503
  C  C155  1  0.039750  0.457900  0.370100  1.0  -0.1328
  C  C156  1  0.170700  0.753800  0.542100  1.0  -0.1863
  C  C157  1  0.645600  0.228000  0.254200  1.0  0.2218
  C  C158  1  0.227700  0.336800  0.408700  1.0  0.5302
  C  C159  1  0.485800  0.600400  0.916200  1.0  -0.1057
  C  C160  1  0.018100  0.363200  0.085100  1.0  0.1179
  N  N161  1  0.934960  0.661680  0.977200  1.0  -0.3024
  N  N162  1  0.183730  0.489540  0.559400  1.0  -0.319
  N  N163  1  0.596640  0.338320  0.477200  1.0  -0.3017
  N  N164  1  0.366050  0.259900  0.597500  1.0  -0.2961
  N  N165  1  0.673270  0.510460  0.059400  1.0  -0.3199
  N  N166  1  0.625950  0.740100  0.097500  1.0  -0.2961
  N  N167  1  0.403360  0.661680  0.522800  1.0  -0.3022
  N  N168  1  0.065040  0.338320  0.022800  1.0  -0.3012
  N  N169  1  0.326730  0.489540  0.940600  1.0  -0.324
  N  N170  1  0.633950  0.740100  0.402500  1.0  -0.2958
  N  N171  1  0.374050  0.259900  0.902500  1.0  -0.2959
  N  N172  1  0.816270  0.510460  0.440600  1.0  -0.3224
  O  O173  1  0.414760  0.960880  0.659500  1.0  -0.3728
  O  O174  1  0.375640  0.039120  0.159500  1.0  -0.3727
  O  O175  1  0.384840  0.325120  0.156500  1.0  -0.3186
  O  O176  1  0.094250  0.197300  0.372700  1.0  -0.5104
  O  O177  1  0.250110  0.744780  0.790000  1.0  -0.3787
  O  O178  1  0.709960  0.674880  0.656500  1.0  -0.3195
  O  O179  1  0.355850  0.978500  0.259000  1.0  -0.5366
  O  O180  1  0.334350  0.021500  0.759000  1.0  -0.537
  O  O181  1  0.413470  0.300860  0.050300  1.0  -0.4953
  O  O182  1  0.994890  0.255220  0.290000  1.0  -0.3793
  O  O183  1  0.714330  0.699140  0.550300  1.0  -0.4938
  O  O184  1  0.291550  0.802700  0.872700  1.0  -0.5104
  O  O185  1  0.749890  0.255220  0.210000  1.0  -0.3776
  O  O186  1  0.708450  0.197300  0.127300  1.0  -0.5101
  O  O187  1  0.615160  0.674880  0.843500  1.0  -0.3191
  O  O188  1  0.644150  0.021500  0.741000  1.0  -0.5356
  O  O189  1  0.624360  0.960880  0.840500  1.0  -0.3712
  O  O190  1  0.585240  0.039120  0.340500  1.0  -0.3719
  O  O191  1  0.665650  0.978500  0.241000  1.0  -0.5357
  O  O192  1  0.905750  0.802700  0.627300  1.0  -0.5099
  O  O193  1  0.285670  0.300860  0.449700  1.0  -0.4953
  O  O194  1  0.586530  0.699140  0.949700  1.0  -0.4954
  O  O195  1  0.290040  0.325120  0.343500  1.0  -0.3182
  O  O196  1  0.005110  0.744780  0.710000  1.0  -0.3779
