# generated using pymatgen
data_Cu2H9C21NO8
_symmetry_space_group_name_H-M   'P 1'
_cell_length_a   25.29130000
_cell_length_b   33.50900000
_cell_length_c   18.68100000
_cell_angle_alpha   90.00000000
_cell_angle_beta   90.00000000
_cell_angle_gamma   90.00000000
_symmetry_Int_Tables_number   1
_chemical_formula_structural   Cu2H9C21NO8
_chemical_formula_sum   'Cu24 H108 C252 N12 O96'
_cell_volume   15831.88917353
_cell_formula_units_Z   12
loop_
 _symmetry_equiv_pos_site_id
 _symmetry_equiv_pos_as_xyz
  1  'x, y, z'
loop_
 _atom_site_type_symbol
 _atom_site_label
 _atom_site_symmetry_multiplicity
 _atom_site_fract_x
 _atom_site_fract_y
 _atom_site_fract_z
 _atom_site_occupancy
 _atom_site_charge
  Cu  Cu1  1  0.211210  0.231940  0.964840  1.0  0.9049
  Cu  Cu2  1  0.711210  0.731940  0.964840  1.0  0.9049
  Cu  Cu3  1  0.788790  0.768060  0.464840  1.0  0.9062
  Cu  Cu4  1  0.288790  0.268060  0.464840  1.0  0.9062
  Cu  Cu5  1  0.788790  0.231940  0.535160  1.0  0.905
  Cu  Cu6  1  0.288790  0.731940  0.535160  1.0  0.905
  Cu  Cu7  1  0.211210  0.768060  0.035160  1.0  0.9043
  Cu  Cu8  1  0.711210  0.268060  0.035160  1.0  0.9043
  Cu  Cu9  1  0.788790  0.768060  0.035160  1.0  0.9058
  Cu  Cu10  1  0.288790  0.268060  0.035160  1.0  0.9058
  Cu  Cu11  1  0.211210  0.231940  0.535160  1.0  0.905
  Cu  Cu12  1  0.711210  0.731940  0.535160  1.0  0.905
  Cu  Cu13  1  0.211210  0.768060  0.464840  1.0  0.9048
  Cu  Cu14  1  0.711210  0.268060  0.464840  1.0  0.9048
  Cu  Cu15  1  0.788790  0.231940  0.964840  1.0  0.905
  Cu  Cu16  1  0.288790  0.731940  0.964840  1.0  0.905
  Cu  Cu17  1  0.000000  0.564070  0.250000  1.0  0.8872
  Cu  Cu18  1  0.000000  0.643200  0.250000  1.0  0.9048
  Cu  Cu19  1  0.500000  0.064070  0.250000  1.0  0.8983
  Cu  Cu20  1  0.500000  0.143200  0.250000  1.0  0.9048
  Cu  Cu21  1  0.000000  0.435930  0.750000  1.0  0.8863
  Cu  Cu22  1  0.000000  0.356800  0.750000  1.0  0.9057
  Cu  Cu23  1  0.500000  0.935930  0.750000  1.0  0.8919
  Cu  Cu24  1  0.500000  0.856800  0.750000  1.0  0.9057
  H  H25  1  0.877400  0.665300  0.100500  1.0  0.1139
  H  H26  1  0.763600  0.610400  0.989700  1.0  0.1183
  H  H27  1  0.870500  0.545500  0.099400  1.0  0.1203
  H  H28  1  0.713000  0.556300  0.033400  1.0  0.1112
  H  H29  1  0.108100  0.207000  0.142700  1.0  0.1219
  H  H30  1  0.377400  0.165300  0.100500  1.0  0.1139
  H  H31  1  0.263600  0.110400  0.989700  1.0  0.1183
  H  H32  1  0.370500  0.045500  0.099400  1.0  0.1225
  H  H33  1  0.213000  0.056300  0.033400  1.0  0.1112
  H  H34  1  0.608100  0.707000  0.142700  1.0  0.1219
  H  H35  1  0.122600  0.334700  0.600500  1.0  0.1139
  H  H36  1  0.236400  0.389600  0.489700  1.0  0.1177
  H  H37  1  0.129500  0.454500  0.599400  1.0  0.1198
  H  H38  1  0.287000  0.443700  0.533400  1.0  0.1113
  H  H39  1  0.891900  0.793000  0.642700  1.0  0.1222
  H  H40  1  0.622600  0.834700  0.600500  1.0  0.1139
  H  H41  1  0.736400  0.889600  0.489700  1.0  0.1177
  H  H42  1  0.629500  0.954500  0.599400  1.0  0.1198
  H  H43  1  0.787000  0.943700  0.533400  1.0  0.1113
  H  H44  1  0.391900  0.293000  0.642700  1.0  0.1222
  H  H45  1  0.122600  0.665300  0.399500  1.0  0.114
  H  H46  1  0.236400  0.610400  0.510300  1.0  0.1175
  H  H47  1  0.129500  0.545500  0.400600  1.0  0.12
  H  H48  1  0.287000  0.556300  0.466600  1.0  0.1115
  H  H49  1  0.891900  0.207000  0.357300  1.0  0.1218
  H  H50  1  0.622600  0.165300  0.399500  1.0  0.114
  H  H51  1  0.736400  0.110400  0.510300  1.0  0.1175
  H  H52  1  0.629500  0.045500  0.400600  1.0  0.1222
  H  H53  1  0.787000  0.056300  0.466600  1.0  0.1115
  H  H54  1  0.391900  0.707000  0.357300  1.0  0.1218
  H  H55  1  0.877400  0.334700  0.899500  1.0  0.1139
  H  H56  1  0.763600  0.389600  0.010300  1.0  0.1181
  H  H57  1  0.870500  0.454500  0.900600  1.0  0.1195
  H  H58  1  0.713000  0.443700  0.966600  1.0  0.1117
  H  H59  1  0.108100  0.793000  0.857300  1.0  0.1222
  H  H60  1  0.377400  0.834700  0.899500  1.0  0.1139
  H  H61  1  0.263600  0.889600  0.010300  1.0  0.1181
  H  H62  1  0.370500  0.954500  0.900600  1.0  0.1193
  H  H63  1  0.213000  0.943700  0.966600  1.0  0.1117
  H  H64  1  0.608100  0.293000  0.857300  1.0  0.1222
  H  H65  1  0.122600  0.334700  0.899500  1.0  0.1141
  H  H66  1  0.236400  0.389600  0.010300  1.0  0.1177
  H  H67  1  0.129500  0.454500  0.900600  1.0  0.1197
  H  H68  1  0.287000  0.443700  0.966600  1.0  0.111
  H  H69  1  0.891900  0.793000  0.857300  1.0  0.1218
  H  H70  1  0.622600  0.834700  0.899500  1.0  0.1141
  H  H71  1  0.736400  0.889600  0.010300  1.0  0.1177
  H  H72  1  0.629500  0.954500  0.900600  1.0  0.1195
  H  H73  1  0.787000  0.943700  0.966600  1.0  0.111
  H  H74  1  0.391900  0.293000  0.857300  1.0  0.1218
  H  H75  1  0.877400  0.665300  0.399500  1.0  0.114
  H  H76  1  0.763600  0.610400  0.510300  1.0  0.1181
  H  H77  1  0.870500  0.545500  0.400600  1.0  0.1202
  H  H78  1  0.713000  0.556300  0.466600  1.0  0.1122
  H  H79  1  0.108100  0.207000  0.357300  1.0  0.1221
  H  H80  1  0.377400  0.165300  0.399500  1.0  0.114
  H  H81  1  0.263600  0.110400  0.510300  1.0  0.1181
  H  H82  1  0.370500  0.045500  0.400600  1.0  0.1223
  H  H83  1  0.213000  0.056300  0.466600  1.0  0.1122
  H  H84  1  0.608100  0.707000  0.357300  1.0  0.1221
  H  H85  1  0.877400  0.334700  0.600500  1.0  0.1135
  H  H86  1  0.763600  0.389600  0.489700  1.0  0.1181
  H  H87  1  0.870500  0.454500  0.599400  1.0  0.1197
  H  H88  1  0.713000  0.443700  0.533400  1.0  0.112
  H  H89  1  0.108100  0.793000  0.642700  1.0  0.1221
  H  H90  1  0.377400  0.834700  0.600500  1.0  0.1135
  H  H91  1  0.263600  0.889600  0.489700  1.0  0.1181
  H  H92  1  0.370500  0.954500  0.599400  1.0  0.1196
  H  H93  1  0.213000  0.943700  0.533400  1.0  0.112
  H  H94  1  0.608100  0.293000  0.642700  1.0  0.1221
  H  H95  1  0.122600  0.665300  0.100500  1.0  0.1139
  H  H96  1  0.236400  0.610400  0.989700  1.0  0.1176
  H  H97  1  0.129500  0.545500  0.099400  1.0  0.12
  H  H98  1  0.287000  0.556300  0.033400  1.0  0.1103
  H  H99  1  0.891900  0.207000  0.142700  1.0  0.1221
  H  H100  1  0.622600  0.165300  0.100500  1.0  0.1139
  H  H101  1  0.736400  0.110400  0.989700  1.0  0.1176
  H  H102  1  0.629500  0.045500  0.099400  1.0  0.1223
  H  H103  1  0.787000  0.056300  0.033400  1.0  0.1103
  H  H104  1  0.391900  0.707000  0.142700  1.0  0.1221
  H  H105  1  0.850300  0.500000  0.000000  1.0  0.1158
  H  H106  1  0.350300  0.000000  0.000000  1.0  0.1165
  H  H107  1  0.149700  0.500000  0.500000  1.0  0.116
  H  H108  1  0.649700  0.000000  0.500000  1.0  0.1166
  H  H109  1  0.149700  0.500000  0.000000  1.0  0.116
  H  H110  1  0.649700  0.000000  0.000000  1.0  0.1166
  H  H111  1  0.850300  0.500000  0.500000  1.0  0.1158
  H  H112  1  0.350300  0.000000  0.500000  1.0  0.1165
  H  H113  1  0.229200  0.255800  0.250000  1.0  0.1124
  H  H114  1  0.081500  0.126500  0.250000  1.0  0.1523
  H  H115  1  0.729200  0.755800  0.250000  1.0  0.1124
  H  H116  1  0.581500  0.626500  0.250000  1.0  0.1523
  H  H117  1  0.770800  0.744200  0.750000  1.0  0.1122
  H  H118  1  0.918500  0.873500  0.750000  1.0  0.1524
  H  H119  1  0.270800  0.244200  0.750000  1.0  0.1122
  H  H120  1  0.418500  0.373500  0.750000  1.0  0.1524
  H  H121  1  0.770800  0.255800  0.250000  1.0  0.112
  H  H122  1  0.918500  0.126500  0.250000  1.0  0.1522
  H  H123  1  0.270800  0.755800  0.250000  1.0  0.112
  H  H124  1  0.418500  0.626500  0.250000  1.0  0.1522
  H  H125  1  0.229200  0.744200  0.750000  1.0  0.1121
  H  H126  1  0.081500  0.873500  0.750000  1.0  0.1524
  H  H127  1  0.729200  0.244200  0.750000  1.0  0.1121
  H  H128  1  0.581500  0.373500  0.750000  1.0  0.1524
  H  H129  1  0.000000  0.228900  0.250000  1.0  0.1148
  H  H130  1  0.500000  0.728900  0.250000  1.0  0.1148
  H  H131  1  0.000000  0.771100  0.750000  1.0  0.1152
  H  H132  1  0.500000  0.271100  0.750000  1.0  0.1152
  C  C133  1  0.881560  0.604970  0.105930  1.0  -0.1422
  C  C134  1  0.861220  0.641850  0.085240  1.0  0.0069
  C  C135  1  0.817750  0.643530  0.042750  1.0  -0.1542
  C  C136  1  0.793110  0.608920  0.019290  1.0  -0.0501
  C  C137  1  0.813040  0.571740  0.040500  1.0  0.0326
  C  C138  1  0.857270  0.570070  0.084460  1.0  -0.051
  C  C139  1  0.927830  0.603660  0.156670  1.0  0.6982
  C  C140  1  0.793790  0.682960  0.022360  1.0  0.6901
  C  C141  1  0.786040  0.534010  0.019730  1.0  0.0287
  C  C142  1  0.731530  0.533560  0.019760  1.0  0.0361
  C  C143  1  0.173470  0.232520  0.185650  1.0  -0.1484
  C  C144  1  0.124580  0.213650  0.185530  1.0  -0.0486
  C  C145  1  0.201420  0.240740  0.115660  1.0  0.702
  C  C146  1  0.381560  0.104970  0.105930  1.0  -0.1422
  C  C147  1  0.361220  0.141850  0.085240  1.0  0.0069
  C  C148  1  0.317750  0.143530  0.042750  1.0  -0.1542
  C  C149  1  0.293110  0.108920  0.019290  1.0  -0.0501
  C  C150  1  0.313040  0.071740  0.040500  1.0  0.0326
  C  C151  1  0.357270  0.070070  0.084460  1.0  -0.051
  C  C152  1  0.427830  0.103660  0.156670  1.0  0.6982
  C  C153  1  0.293790  0.182960  0.022360  1.0  0.6901
  C  C154  1  0.286040  0.034010  0.019730  1.0  0.0287
  C  C155  1  0.231530  0.033560  0.019760  1.0  0.0361
  C  C156  1  0.673470  0.732520  0.185650  1.0  -0.1484
  C  C157  1  0.624580  0.713650  0.185530  1.0  -0.0486
  C  C158  1  0.701420  0.740740  0.115660  1.0  0.702
  C  C159  1  0.118440  0.395030  0.605930  1.0  -0.1431
  C  C160  1  0.138780  0.358150  0.585240  1.0  0.0083
  C  C161  1  0.182250  0.356470  0.542750  1.0  -0.1541
  C  C162  1  0.206890  0.391080  0.519290  1.0  -0.05
  C  C163  1  0.186960  0.428260  0.540500  1.0  0.0328
  C  C164  1  0.142730  0.429930  0.584460  1.0  -0.0531
  C  C165  1  0.072170  0.396340  0.656670  1.0  0.6981
  C  C166  1  0.206210  0.317040  0.522360  1.0  0.6901
  C  C167  1  0.213960  0.465990  0.519730  1.0  0.0286
  C  C168  1  0.268470  0.466440  0.519760  1.0  0.0366
  C  C169  1  0.826530  0.767480  0.685650  1.0  -0.1494
  C  C170  1  0.875420  0.786350  0.685530  1.0  -0.049
  C  C171  1  0.798580  0.759260  0.615660  1.0  0.7018
  C  C172  1  0.618440  0.895030  0.605930  1.0  -0.1431
  C  C173  1  0.638780  0.858150  0.585240  1.0  0.0083
  C  C174  1  0.682250  0.856470  0.542750  1.0  -0.1541
  C  C175  1  0.706890  0.891080  0.519290  1.0  -0.05
  C  C176  1  0.686960  0.928260  0.540500  1.0  0.0328
  C  C177  1  0.642730  0.929930  0.584460  1.0  -0.0531
  C  C178  1  0.572170  0.896340  0.656670  1.0  0.6981
  C  C179  1  0.706210  0.817040  0.522360  1.0  0.6901
  C  C180  1  0.713960  0.965990  0.519730  1.0  0.0286
  C  C181  1  0.768470  0.966440  0.519760  1.0  0.0366
  C  C182  1  0.326530  0.267480  0.685650  1.0  -0.1494
  C  C183  1  0.375420  0.286350  0.685530  1.0  -0.049
  C  C184  1  0.298580  0.259260  0.615660  1.0  0.7018
  C  C185  1  0.118440  0.604970  0.394070  1.0  -0.1432
  C  C186  1  0.138780  0.641850  0.414760  1.0  0.0078
  C  C187  1  0.182250  0.643530  0.457250  1.0  -0.154
  C  C188  1  0.206890  0.608920  0.480710  1.0  -0.0501
  C  C189  1  0.186960  0.571740  0.459500  1.0  0.0325
  C  C190  1  0.142730  0.570070  0.415540  1.0  -0.0528
  C  C191  1  0.072170  0.603660  0.343330  1.0  0.6977
  C  C192  1  0.206210  0.682960  0.477640  1.0  0.6906
  C  C193  1  0.213960  0.534010  0.480270  1.0  0.0293
  C  C194  1  0.268470  0.533560  0.480240  1.0  0.0359
  C  C195  1  0.826530  0.232520  0.314350  1.0  -0.1488
  C  C196  1  0.875420  0.213650  0.314470  1.0  -0.0485
  C  C197  1  0.798580  0.240740  0.384340  1.0  0.702
  C  C198  1  0.618440  0.104970  0.394070  1.0  -0.1432
  C  C199  1  0.638780  0.141850  0.414760  1.0  0.0078
  C  C200  1  0.682250  0.143530  0.457250  1.0  -0.154
  C  C201  1  0.706890  0.108920  0.480710  1.0  -0.0501
  C  C202  1  0.686960  0.071740  0.459500  1.0  0.0325
  C  C203  1  0.642730  0.070070  0.415540  1.0  -0.0528
  C  C204  1  0.572170  0.103660  0.343330  1.0  0.6977
  C  C205  1  0.706210  0.182960  0.477640  1.0  0.6906
  C  C206  1  0.713960  0.034010  0.480270  1.0  0.0293
  C  C207  1  0.768470  0.033560  0.480240  1.0  0.0359
  C  C208  1  0.326530  0.732520  0.314350  1.0  -0.1488
  C  C209  1  0.375420  0.713650  0.314470  1.0  -0.0485
  C  C210  1  0.298580  0.740740  0.384340  1.0  0.702
  C  C211  1  0.881560  0.395030  0.894070  1.0  -0.1424
  C  C212  1  0.861220  0.358150  0.914760  1.0  0.0075
  C  C213  1  0.817750  0.356470  0.957250  1.0  -0.1544
  C  C214  1  0.793110  0.391080  0.980710  1.0  -0.05
  C  C215  1  0.813040  0.428260  0.959500  1.0  0.0322
  C  C216  1  0.857270  0.429930  0.915540  1.0  -0.0523
  C  C217  1  0.927830  0.396340  0.843330  1.0  0.698
  C  C218  1  0.793790  0.317040  0.977640  1.0  0.6905
  C  C219  1  0.786040  0.465990  0.980270  1.0  0.0284
  C  C220  1  0.731530  0.466440  0.980240  1.0  0.0364
  C  C221  1  0.173470  0.767480  0.814350  1.0  -0.1489
  C  C222  1  0.124580  0.786350  0.814470  1.0  -0.0505
  C  C223  1  0.201420  0.759260  0.884340  1.0  0.7023
  C  C224  1  0.381560  0.895030  0.894070  1.0  -0.1424
  C  C225  1  0.361220  0.858150  0.914760  1.0  0.0075
  C  C226  1  0.317750  0.856470  0.957250  1.0  -0.1544
  C  C227  1  0.293110  0.891080  0.980710  1.0  -0.05
  C  C228  1  0.313040  0.928260  0.959500  1.0  0.0322
  C  C229  1  0.357270  0.929930  0.915540  1.0  -0.0523
  C  C230  1  0.427830  0.896340  0.843330  1.0  0.698
  C  C231  1  0.293790  0.817040  0.977640  1.0  0.6905
  C  C232  1  0.286040  0.965990  0.980270  1.0  0.0284
  C  C233  1  0.231530  0.966440  0.980240  1.0  0.0364
  C  C234  1  0.673470  0.267480  0.814350  1.0  -0.1489
  C  C235  1  0.624580  0.286350  0.814470  1.0  -0.0505
  C  C236  1  0.701420  0.259260  0.884340  1.0  0.7023
  C  C237  1  0.118440  0.395030  0.894070  1.0  -0.1432
  C  C238  1  0.138780  0.358150  0.914760  1.0  0.008
  C  C239  1  0.182250  0.356470  0.957250  1.0  -0.1539
  C  C240  1  0.206890  0.391080  0.980710  1.0  -0.05
  C  C241  1  0.186960  0.428260  0.959500  1.0  0.0324
  C  C242  1  0.142730  0.429930  0.915540  1.0  -0.0533
  C  C243  1  0.072170  0.396340  0.843330  1.0  0.6977
  C  C244  1  0.206210  0.317040  0.977640  1.0  0.6905
  C  C245  1  0.213960  0.465990  0.980270  1.0  0.0288
  C  C246  1  0.268470  0.466440  0.980240  1.0  0.0366
  C  C247  1  0.826530  0.767480  0.814350  1.0  -0.1489
  C  C248  1  0.875420  0.786350  0.814470  1.0  -0.0488
  C  C249  1  0.798580  0.759260  0.884340  1.0  0.702
  C  C250  1  0.618440  0.895030  0.894070  1.0  -0.1432
  C  C251  1  0.638780  0.858150  0.914760  1.0  0.008
  C  C252  1  0.682250  0.856470  0.957250  1.0  -0.1539
  C  C253  1  0.706890  0.891080  0.980710  1.0  -0.05
  C  C254  1  0.686960  0.928260  0.959500  1.0  0.0324
  C  C255  1  0.642730  0.929930  0.915540  1.0  -0.0533
  C  C256  1  0.572170  0.896340  0.843330  1.0  0.6977
  C  C257  1  0.706210  0.817040  0.977640  1.0  0.6905
  C  C258  1  0.713960  0.965990  0.980270  1.0  0.0288
  C  C259  1  0.768470  0.966440  0.980240  1.0  0.0366
  C  C260  1  0.326530  0.267480  0.814350  1.0  -0.1489
  C  C261  1  0.375420  0.286350  0.814470  1.0  -0.0488
  C  C262  1  0.298580  0.259260  0.884340  1.0  0.702
  C  C263  1  0.881560  0.604970  0.394070  1.0  -0.1422
  C  C264  1  0.861220  0.641850  0.414760  1.0  0.0072
  C  C265  1  0.817750  0.643530  0.457250  1.0  -0.1543
  C  C266  1  0.793110  0.608920  0.480710  1.0  -0.0503
  C  C267  1  0.813040  0.571740  0.459500  1.0  0.0322
  C  C268  1  0.857270  0.570070  0.415540  1.0  -0.0514
  C  C269  1  0.927830  0.603660  0.343330  1.0  0.698
  C  C270  1  0.793790  0.682960  0.477640  1.0  0.6905
  C  C271  1  0.786040  0.534010  0.480270  1.0  0.0288
  C  C272  1  0.731530  0.533560  0.480240  1.0  0.0365
  C  C273  1  0.173470  0.232520  0.314350  1.0  -0.149
  C  C274  1  0.124580  0.213650  0.314470  1.0  -0.0502
  C  C275  1  0.201420  0.240740  0.384340  1.0  0.7023
  C  C276  1  0.381560  0.104970  0.394070  1.0  -0.1422
  C  C277  1  0.361220  0.141850  0.414760  1.0  0.0072
  C  C278  1  0.317750  0.143530  0.457250  1.0  -0.1543
  C  C279  1  0.293110  0.108920  0.480710  1.0  -0.0503
  C  C280  1  0.313040  0.071740  0.459500  1.0  0.0322
  C  C281  1  0.357270  0.070070  0.415540  1.0  -0.0514
  C  C282  1  0.427830  0.103660  0.343330  1.0  0.698
  C  C283  1  0.293790  0.182960  0.477640  1.0  0.6905
  C  C284  1  0.286040  0.034010  0.480270  1.0  0.0288
  C  C285  1  0.231530  0.033560  0.480240  1.0  0.0365
  C  C286  1  0.673470  0.732520  0.314350  1.0  -0.149
  C  C287  1  0.624580  0.713650  0.314470  1.0  -0.0502
  C  C288  1  0.701420  0.740740  0.384340  1.0  0.7023
  C  C289  1  0.881560  0.395030  0.605930  1.0  -0.1424
  C  C290  1  0.861220  0.358150  0.585240  1.0  0.0076
  C  C291  1  0.817750  0.356470  0.542750  1.0  -0.1544
  C  C292  1  0.793110  0.391080  0.519290  1.0  -0.0498
  C  C293  1  0.813040  0.428260  0.540500  1.0  0.0326
  C  C294  1  0.857270  0.429930  0.584460  1.0  -0.0521
  C  C295  1  0.927830  0.396340  0.656670  1.0  0.6982
  C  C296  1  0.793790  0.317040  0.522360  1.0  0.6901
  C  C297  1  0.786040  0.465990  0.519730  1.0  0.0282
  C  C298  1  0.731530  0.466440  0.519760  1.0  0.0358
  C  C299  1  0.173470  0.767480  0.685650  1.0  -0.1491
  C  C300  1  0.124580  0.786350  0.685530  1.0  -0.049
  C  C301  1  0.201420  0.759260  0.615660  1.0  0.7019
  C  C302  1  0.381560  0.895030  0.605930  1.0  -0.1424
  C  C303  1  0.361220  0.858150  0.585240  1.0  0.0076
  C  C304  1  0.317750  0.856470  0.542750  1.0  -0.1544
  C  C305  1  0.293110  0.891080  0.519290  1.0  -0.0498
  C  C306  1  0.313040  0.928260  0.540500  1.0  0.0326
  C  C307  1  0.357270  0.929930  0.584460  1.0  -0.0521
  C  C308  1  0.427830  0.896340  0.656670  1.0  0.6982
  C  C309  1  0.293790  0.817040  0.522360  1.0  0.6901
  C  C310  1  0.286040  0.965990  0.519730  1.0  0.0282
  C  C311  1  0.231530  0.966440  0.519760  1.0  0.0358
  C  C312  1  0.673470  0.267480  0.685650  1.0  -0.1491
  C  C313  1  0.624580  0.286350  0.685530  1.0  -0.049
  C  C314  1  0.701420  0.259260  0.615660  1.0  0.7019
  C  C315  1  0.118440  0.604970  0.105930  1.0  -0.143
  C  C316  1  0.138780  0.641850  0.085240  1.0  0.0075
  C  C317  1  0.182250  0.643530  0.042750  1.0  -0.154
  C  C318  1  0.206890  0.608920  0.019290  1.0  -0.0501
  C  C319  1  0.186960  0.571740  0.040500  1.0  0.0329
  C  C320  1  0.142730  0.570070  0.084460  1.0  -0.0526
  C  C321  1  0.072170  0.603660  0.156670  1.0  0.698
  C  C322  1  0.206210  0.682960  0.022360  1.0  0.6901
  C  C323  1  0.213960  0.534010  0.019730  1.0  0.0291
  C  C324  1  0.268470  0.533560  0.019760  1.0  0.036
  C  C325  1  0.826530  0.232520  0.185650  1.0  -0.1486
  C  C326  1  0.875420  0.213650  0.185530  1.0  -0.0486
  C  C327  1  0.798580  0.240740  0.115660  1.0  0.7021
  C  C328  1  0.618440  0.104970  0.105930  1.0  -0.143
  C  C329  1  0.638780  0.141850  0.085240  1.0  0.0075
  C  C330  1  0.682250  0.143530  0.042750  1.0  -0.154
  C  C331  1  0.706890  0.108920  0.019290  1.0  -0.0501
  C  C332  1  0.686960  0.071740  0.040500  1.0  0.0329
  C  C333  1  0.642730  0.070070  0.084460  1.0  -0.0526
  C  C334  1  0.572170  0.103660  0.156670  1.0  0.698
  C  C335  1  0.706210  0.182960  0.022360  1.0  0.6901
  C  C336  1  0.713960  0.034010  0.019730  1.0  0.0291
  C  C337  1  0.768470  0.033560  0.019760  1.0  0.036
  C  C338  1  0.326530  0.732520  0.185650  1.0  -0.1486
  C  C339  1  0.375420  0.713650  0.185530  1.0  -0.0486
  C  C340  1  0.298580  0.740740  0.115660  1.0  0.7021
  C  C341  1  0.813560  0.500000  0.000000  1.0  -0.0718
  C  C342  1  0.313560  0.000000  0.000000  1.0  -0.0718
  C  C343  1  0.186440  0.500000  0.500000  1.0  -0.0727
  C  C344  1  0.686440  0.000000  0.500000  1.0  -0.0727
  C  C345  1  0.186440  0.500000  0.000000  1.0  -0.0727
  C  C346  1  0.686440  0.000000  0.000000  1.0  -0.0727
  C  C347  1  0.813560  0.500000  0.500000  1.0  -0.0718
  C  C348  1  0.313560  0.000000  0.500000  1.0  -0.0718
  C  C349  1  0.196970  0.242330  0.250000  1.0  0.0445
  C  C350  1  0.100980  0.205010  0.250000  1.0  0.0368
  C  C351  1  0.049400  0.181640  0.250000  1.0  -0.0142
  C  C352  1  0.049550  0.140270  0.250000  1.0  0.0344
  C  C353  1  0.696970  0.742330  0.250000  1.0  0.0445
  C  C354  1  0.600980  0.705010  0.250000  1.0  0.0368
  C  C355  1  0.549400  0.681640  0.250000  1.0  -0.0142
  C  C356  1  0.549550  0.640270  0.250000  1.0  0.0344
  C  C357  1  0.803030  0.757670  0.750000  1.0  0.0443
  C  C358  1  0.899020  0.794990  0.750000  1.0  0.0372
  C  C359  1  0.950600  0.818360  0.750000  1.0  -0.0147
  C  C360  1  0.950450  0.859730  0.750000  1.0  0.0323
  C  C361  1  0.303030  0.257670  0.750000  1.0  0.0443
  C  C362  1  0.399020  0.294990  0.750000  1.0  0.0372
  C  C363  1  0.450600  0.318360  0.750000  1.0  -0.0147
  C  C364  1  0.450450  0.359730  0.750000  1.0  0.0323
  C  C365  1  0.803030  0.242330  0.250000  1.0  0.0442
  C  C366  1  0.899020  0.205010  0.250000  1.0  0.0373
  C  C367  1  0.950600  0.181640  0.250000  1.0  -0.0142
  C  C368  1  0.950450  0.140270  0.250000  1.0  0.0366
  C  C369  1  0.303030  0.742330  0.250000  1.0  0.0442
  C  C370  1  0.399020  0.705010  0.250000  1.0  0.0373
  C  C371  1  0.450600  0.681640  0.250000  1.0  -0.0142
  C  C372  1  0.450450  0.640270  0.250000  1.0  0.0366
  C  C373  1  0.196970  0.757670  0.750000  1.0  0.0443
  C  C374  1  0.100980  0.794990  0.750000  1.0  0.0368
  C  C375  1  0.049400  0.818360  0.750000  1.0  -0.0147
  C  C376  1  0.049550  0.859730  0.750000  1.0  0.0323
  C  C377  1  0.696970  0.257670  0.750000  1.0  0.0443
  C  C378  1  0.600980  0.294990  0.750000  1.0  0.0368
  C  C379  1  0.549400  0.318360  0.750000  1.0  -0.0147
  C  C380  1  0.549550  0.359730  0.750000  1.0  0.0323
  C  C381  1  0.000000  0.201160  0.250000  1.0  -0.0603
  C  C382  1  0.500000  0.701160  0.250000  1.0  -0.0603
  C  C383  1  0.000000  0.798840  0.750000  1.0  -0.0563
  C  C384  1  0.500000  0.298840  0.750000  1.0  -0.0563
  N  N385  1  0.704370  0.500000  0.000000  1.0  -0.4219
  N  N386  1  0.204370  0.000000  0.000000  1.0  -0.4219
  N  N387  1  0.295630  0.500000  0.500000  1.0  -0.4209
  N  N388  1  0.795630  0.000000  0.500000  1.0  -0.4209
  N  N389  1  0.295630  0.500000  0.000000  1.0  -0.4209
  N  N390  1  0.795630  0.000000  0.000000  1.0  -0.4209
  N  N391  1  0.704370  0.500000  0.500000  1.0  -0.4219
  N  N392  1  0.204370  0.000000  0.500000  1.0  -0.4219
  N  N393  1  0.000000  0.118350  0.250000  1.0  -0.4005
  N  N394  1  0.500000  0.618350  0.250000  1.0  -0.3997
  N  N395  1  0.000000  0.881650  0.750000  1.0  -0.4061
  N  N396  1  0.500000  0.381650  0.750000  1.0  -0.4044
  O  O397  1  0.944970  0.570760  0.176480  1.0  -0.5879
  O  O398  1  0.945270  0.636450  0.177110  1.0  -0.5846
  O  O399  1  0.751950  0.683590  0.987680  1.0  -0.5723
  O  O400  1  0.816630  0.713990  0.047480  1.0  -0.5747
  O  O401  1  0.178920  0.228750  0.060850  1.0  -0.5631
  O  O402  1  0.244350  0.258580  0.118940  1.0  -0.5633
  O  O403  1  0.444970  0.070760  0.176480  1.0  -0.5879
  O  O404  1  0.445270  0.136450  0.177110  1.0  -0.5846
  O  O405  1  0.251950  0.183590  0.987680  1.0  -0.5722
  O  O406  1  0.316630  0.213990  0.047480  1.0  -0.5745
  O  O407  1  0.678920  0.728750  0.060850  1.0  -0.5631
  O  O408  1  0.744350  0.758580  0.118940  1.0  -0.5633
  O  O409  1  0.055030  0.429240  0.676480  1.0  -0.5877
  O  O410  1  0.054730  0.363550  0.677110  1.0  -0.5852
  O  O411  1  0.248050  0.316410  0.487680  1.0  -0.5719
  O  O412  1  0.183370  0.286010  0.547480  1.0  -0.5745
  O  O413  1  0.821080  0.771250  0.560850  1.0  -0.5627
  O  O414  1  0.755650  0.741420  0.618940  1.0  -0.5628
  O  O415  1  0.555030  0.929240  0.676480  1.0  -0.5877
  O  O416  1  0.554730  0.863550  0.677110  1.0  -0.5852
  O  O417  1  0.748050  0.816410  0.487680  1.0  -0.5718
  O  O418  1  0.683370  0.786010  0.547480  1.0  -0.5743
  O  O419  1  0.321080  0.271250  0.560850  1.0  -0.5627
  O  O420  1  0.255650  0.241420  0.618940  1.0  -0.5627
  O  O421  1  0.055030  0.570760  0.323520  1.0  -0.5882
  O  O422  1  0.054730  0.636450  0.322890  1.0  -0.5846
  O  O423  1  0.248050  0.683590  0.512320  1.0  -0.5722
  O  O424  1  0.183370  0.713990  0.452520  1.0  -0.5751
  O  O425  1  0.821080  0.228750  0.439150  1.0  -0.5631
  O  O426  1  0.755650  0.258580  0.381060  1.0  -0.5624
  O  O427  1  0.555030  0.070760  0.323520  1.0  -0.5882
  O  O428  1  0.554730  0.136450  0.322890  1.0  -0.5846
  O  O429  1  0.748050  0.183590  0.512320  1.0  -0.5722
  O  O430  1  0.683370  0.213990  0.452520  1.0  -0.5748
  O  O431  1  0.321080  0.728750  0.439150  1.0  -0.5631
  O  O432  1  0.255650  0.758580  0.381060  1.0  -0.5624
  O  O433  1  0.944970  0.429240  0.823520  1.0  -0.5878
  O  O434  1  0.945270  0.363550  0.822890  1.0  -0.5852
  O  O435  1  0.751950  0.316410  0.012320  1.0  -0.5717
  O  O436  1  0.816630  0.286010  0.952520  1.0  -0.5755
  O  O437  1  0.178920  0.771250  0.939150  1.0  -0.5625
  O  O438  1  0.244350  0.741420  0.881060  1.0  -0.5631
  O  O439  1  0.444970  0.929240  0.823520  1.0  -0.5876
  O  O440  1  0.445270  0.863550  0.822890  1.0  -0.5852
  O  O441  1  0.251950  0.816410  0.012320  1.0  -0.5717
  O  O442  1  0.316630  0.786010  0.952520  1.0  -0.5752
  O  O443  1  0.678920  0.271250  0.939150  1.0  -0.5625
  O  O444  1  0.744350  0.241420  0.881060  1.0  -0.563
  O  O445  1  0.055030  0.429240  0.823520  1.0  -0.5878
  O  O446  1  0.054730  0.363550  0.822890  1.0  -0.5853
  O  O447  1  0.248050  0.316410  0.012320  1.0  -0.5718
  O  O448  1  0.183370  0.286010  0.952520  1.0  -0.575
  O  O449  1  0.821080  0.771250  0.939150  1.0  -0.5632
  O  O450  1  0.755650  0.741420  0.881060  1.0  -0.5627
  O  O451  1  0.555030  0.929240  0.823520  1.0  -0.5878
  O  O452  1  0.554730  0.863550  0.822890  1.0  -0.5853
  O  O453  1  0.748050  0.816410  0.012320  1.0  -0.5718
  O  O454  1  0.683370  0.786010  0.952520  1.0  -0.5748
  O  O455  1  0.321080  0.271250  0.939150  1.0  -0.5632
  O  O456  1  0.255650  0.241420  0.881060  1.0  -0.5626
  O  O457  1  0.944970  0.570760  0.323520  1.0  -0.5876
  O  O458  1  0.945270  0.636450  0.322890  1.0  -0.5847
  O  O459  1  0.751950  0.683590  0.512320  1.0  -0.5722
  O  O460  1  0.816630  0.713990  0.452520  1.0  -0.5744
  O  O461  1  0.178920  0.228750  0.439150  1.0  -0.5626
  O  O462  1  0.244350  0.258580  0.381060  1.0  -0.5632
  O  O463  1  0.444970  0.070760  0.323520  1.0  -0.5876
  O  O464  1  0.445270  0.136450  0.322890  1.0  -0.5847
  O  O465  1  0.251950  0.183590  0.512320  1.0  -0.5722
  O  O466  1  0.316630  0.213990  0.452520  1.0  -0.5741
  O  O467  1  0.678920  0.728750  0.439150  1.0  -0.5626
  O  O468  1  0.744350  0.758580  0.381060  1.0  -0.5631
  O  O469  1  0.944970  0.429240  0.676480  1.0  -0.588
  O  O470  1  0.945270  0.363550  0.677110  1.0  -0.5851
  O  O471  1  0.751950  0.316410  0.487680  1.0  -0.5715
  O  O472  1  0.816630  0.286010  0.547480  1.0  -0.5758
  O  O473  1  0.178920  0.771250  0.560850  1.0  -0.5625
  O  O474  1  0.244350  0.741420  0.618940  1.0  -0.5634
  O  O475  1  0.444970  0.929240  0.676480  1.0  -0.588
  O  O476  1  0.445270  0.863550  0.677110  1.0  -0.5851
  O  O477  1  0.251950  0.816410  0.487680  1.0  -0.5715
  O  O478  1  0.316630  0.786010  0.547480  1.0  -0.5756
  O  O479  1  0.678920  0.271250  0.560850  1.0  -0.5625
  O  O480  1  0.744350  0.241420  0.618940  1.0  -0.5633
  O  O481  1  0.055030  0.570760  0.176480  1.0  -0.5885
  O  O482  1  0.054730  0.636450  0.177110  1.0  -0.5845
  O  O483  1  0.248050  0.683590  0.987680  1.0  -0.5725
  O  O484  1  0.183370  0.713990  0.047480  1.0  -0.5751
  O  O485  1  0.821080  0.228750  0.060850  1.0  -0.5631
  O  O486  1  0.755650  0.258580  0.118940  1.0  -0.5627
  O  O487  1  0.555030  0.070760  0.176480  1.0  -0.5884
  O  O488  1  0.554730  0.136450  0.177110  1.0  -0.5844
  O  O489  1  0.748050  0.183590  0.987680  1.0  -0.5725
  O  O490  1  0.683370  0.213990  0.047480  1.0  -0.5749
  O  O491  1  0.321080  0.728750  0.060850  1.0  -0.5631
  O  O492  1  0.255650  0.758580  0.118940  1.0  -0.5626
