# generated using pymatgen
data_Zn2H9(C3O)8
_symmetry_space_group_name_H-M   'P 1'
_cell_length_a   12.31400000
_cell_length_b   14.98600000
_cell_length_c   26.34930000
_cell_angle_alpha   90.00000000
_cell_angle_beta   99.81670000
_cell_angle_gamma   90.00000000
_symmetry_Int_Tables_number   1
_chemical_formula_structural   Zn2H9(C3O)8
_chemical_formula_sum   'Zn8 H36 C96 O32'
_cell_volume   4791.24208561
_cell_formula_units_Z   4
loop_
 _symmetry_equiv_pos_site_id
 _symmetry_equiv_pos_as_xyz
  1  'x, y, z'
loop_
 _atom_site_type_symbol
 _atom_site_label
 _atom_site_symmetry_multiplicity
 _atom_site_fract_x
 _atom_site_fract_y
 _atom_site_fract_z
 _atom_site_occupancy
 _atom_site_charge
  Zn  Zn1  1  0.132160  0.977070  0.137780  1.0  1.0572
  Zn  Zn2  1  0.992810  0.156760  0.776020  1.0  1.0746
  Zn  Zn3  1  0.367840  0.477070  0.362220  1.0  1.0587
  Zn  Zn4  1  0.632160  0.522930  0.637780  1.0  1.058
  Zn  Zn5  1  0.492810  0.343240  0.276020  1.0  1.0746
  Zn  Zn6  1  0.507190  0.656760  0.723980  1.0  1.0758
  Zn  Zn7  1  0.867840  0.022930  0.862220  1.0  1.0607
  Zn  Zn8  1  0.007190  0.843240  0.223980  1.0  1.0743
  H  H9  1  0.233900  0.247900  0.897400  1.0  0.1065
  H  H10  1  0.766100  0.752100  0.102600  1.0  0.1063
  H  H11  1  0.633600  0.778700  0.953400  1.0  0.1024
  H  H12  1  0.891100  0.931300  0.015400  1.0  0.095
  H  H13  1  0.796600  0.125000  0.540900  1.0  0.0957
  H  H14  1  0.779600  0.815800  0.748200  1.0  0.1087
  H  H15  1  0.974200  0.966000  0.674200  1.0  0.1055
  H  H16  1  0.133600  0.721300  0.453400  1.0  0.1027
  H  H17  1  0.177000  0.999100  0.411300  1.0  0.105
  H  H18  1  0.841700  0.738200  0.610300  1.0  0.1146
  H  H19  1  0.442400  0.257300  0.902500  1.0  0.1026
  H  H20  1  0.341700  0.761800  0.110300  1.0  0.1157
  H  H21  1  0.733900  0.252100  0.397400  1.0  0.1067
  H  H22  1  0.677000  0.500900  0.911300  1.0  0.1052
  H  H23  1  0.720400  0.315800  0.751800  1.0  0.1084
  H  H24  1  0.942400  0.242700  0.402500  1.0  0.1021
  H  H25  1  0.391100  0.568700  0.515400  1.0  0.0953
  H  H26  1  0.203400  0.875000  0.459100  1.0  0.0955
  H  H27  1  0.296600  0.375000  0.040900  1.0  0.0959
  H  H28  1  0.366400  0.221300  0.046600  1.0  0.1035
  H  H29  1  0.866400  0.278700  0.546600  1.0  0.1034
  H  H30  1  0.658300  0.238200  0.889700  1.0  0.1157
  H  H31  1  0.823000  0.000900  0.588700  1.0  0.1049
  H  H32  1  0.220400  0.184200  0.251800  1.0  0.1086
  H  H33  1  0.057600  0.757300  0.597500  1.0  0.1022
  H  H34  1  0.279600  0.684200  0.248200  1.0  0.1085
  H  H35  1  0.108900  0.068700  0.984600  1.0  0.0951
  H  H36  1  0.025800  0.034000  0.325800  1.0  0.1053
  H  H37  1  0.474200  0.534000  0.174200  1.0  0.1045
  H  H38  1  0.703400  0.625000  0.959100  1.0  0.0953
  H  H39  1  0.158300  0.261800  0.389700  1.0  0.1146
  H  H40  1  0.525800  0.466000  0.825800  1.0  0.105
  H  H41  1  0.608900  0.431300  0.484600  1.0  0.0946
  H  H42  1  0.266100  0.747900  0.602600  1.0  0.1066
  H  H43  1  0.557600  0.742700  0.097500  1.0  0.1022
  H  H44  1  0.323000  0.499100  0.088700  1.0  0.1052
  C  C45  1  0.105810  0.818000  0.537010  1.0  -0.0383
  C  C46  1  0.277920  0.312800  0.320320  1.0  0.7317
  C  C47  1  0.701190  0.266700  0.821090  1.0  -0.1632
  C  C48  1  0.618820  0.400200  0.781420  1.0  -0.1659
  C  C49  1  0.261200  0.636700  0.475700  1.0  -0.188
  C  C50  1  0.235530  0.220400  0.929130  1.0  -0.0551
  C  C51  1  0.394190  0.318000  0.962990  1.0  -0.038
  C  C52  1  0.133330  0.988900  0.436230  1.0  -0.141
  C  C53  1  0.916650  0.855600  0.634350  1.0  0.0911
  C  C54  1  0.201190  0.233300  0.321090  1.0  -0.1628
  C  C55  1  0.759980  0.906400  0.925280  1.0  0.6813
  C  C56  1  0.049390  0.052200  0.442790  1.0  0.0284
  C  C57  1  0.186040  0.174200  0.280040  1.0  0.0287
  C  C58  1  0.660620  0.387400  0.481220  1.0  0.0339
  C  C59  1  0.930960  0.915400  0.675460  1.0  -0.0346
  C  C60  1  0.028100  0.129500  0.411400  1.0  -0.0641
  C  C61  1  0.528100  0.370500  0.911400  1.0  -0.064
  C  C62  1  0.569040  0.415400  0.824540  1.0  -0.034
  C  C63  1  0.685460  0.795600  0.981660  1.0  -0.0808
  C  C64  1  0.574300  0.374700  0.387600  1.0  0.7408
  C  C65  1  0.590370  0.604100  0.005870  1.0  0.0078
  C  C66  1  0.814540  0.295600  0.518340  1.0  -0.0795
  C  C67  1  0.950610  0.947800  0.557210  1.0  0.0278
  C  C68  1  0.902240  0.964900  0.763040  1.0  0.7341
  C  C69  1  0.450610  0.552200  0.057210  1.0  0.0276
  C  C70  1  0.841050  0.847300  0.066150  1.0  -0.1524
  C  C71  1  0.185990  0.747200  0.528990  1.0  0.0029
  C  C72  1  0.349980  0.415300  0.034480  1.0  -0.1203
  C  C73  1  0.314010  0.247200  0.971010  1.0  0.0029
  C  C74  1  0.149460  0.220300  0.363060  1.0  -0.072
  C  C75  1  0.546280  0.691600  0.077280  1.0  -0.1157
  C  C76  1  0.881180  0.900200  0.718580  1.0  -0.166
  C  C77  1  0.097760  0.035100  0.236960  1.0  0.7346
  C  C78  1  0.798810  0.766700  0.678910  1.0  -0.1634
  C  C79  1  0.264470  0.720400  0.570870  1.0  -0.0569
  C  C80  1  0.761200  0.863300  0.975700  1.0  -0.1858
  C  C81  1  0.839380  0.887400  0.018780  1.0  0.0334
  C  C82  1  0.583350  0.355600  0.865650  1.0  0.0915
  C  C83  1  0.298810  0.733300  0.178910  1.0  -0.1625
  C  C84  1  0.160620  0.112600  0.981220  1.0  0.0346
  C  C85  1  0.722080  0.687200  0.679680  1.0  0.7331
  C  C86  1  0.549390  0.447800  0.942790  1.0  0.0285
  C  C87  1  0.313960  0.674200  0.219960  1.0  0.0287
  C  C88  1  0.650020  0.584700  0.965520  1.0  -0.1214
  C  C89  1  0.185460  0.704400  0.481660  1.0  -0.0808
  C  C90  1  0.090370  0.895900  0.505870  1.0  0.0078
  C  C91  1  0.350540  0.720300  0.136940  1.0  -0.0711
  C  C92  1  0.633330  0.511100  0.936230  1.0  -0.1394
  C  C93  1  0.381180  0.599800  0.218580  1.0  -0.1658
  C  C94  1  0.510320  0.538800  0.016020  1.0  0.014
  C  C95  1  0.953720  0.191600  0.422720  1.0  -0.1183
  C  C96  1  0.158950  0.152700  0.933850  1.0  -0.1517
  C  C97  1  0.150020  0.915300  0.465520  1.0  -0.1205
  C  C98  1  0.649460  0.279700  0.863060  1.0  -0.0709
  C  C99  1  0.453720  0.308400  0.922720  1.0  -0.1184
  C  C100  1  0.685990  0.752800  0.028990  1.0  0.0028
  C  C101  1  0.740020  0.406400  0.574720  1.0  0.6834
  C  C102  1  0.489680  0.461200  0.983980  1.0  0.0141
  C  C103  1  0.240020  0.093600  0.074720  1.0  0.6838
  C  C104  1  0.849980  0.084700  0.534480  1.0  -0.1202
  C  C105  1  0.416650  0.644400  0.134350  1.0  0.091
  C  C106  1  0.339380  0.612600  0.518780  1.0  0.0341
  C  C107  1  0.814010  0.252800  0.471010  1.0  0.0027
  C  C108  1  0.430960  0.584600  0.175460  1.0  -0.0345
  C  C109  1  0.046280  0.808400  0.577280  1.0  -0.1177
  C  C110  1  0.813960  0.825800  0.719960  1.0  0.0292
  C  C111  1  0.764470  0.779600  0.070870  1.0  -0.0569
  C  C112  1  0.686040  0.325800  0.780040  1.0  0.0289
  C  C113  1  0.341050  0.652700  0.566150  1.0  -0.1518
  C  C114  1  0.069040  0.084600  0.324540  1.0  -0.0344
  C  C115  1  0.605810  0.682000  0.037010  1.0  -0.0383
  C  C116  1  0.222080  0.812800  0.179680  1.0  0.7332
  C  C117  1  0.010320  0.961200  0.516020  1.0  0.0135
  C  C118  1  0.738800  0.363300  0.524300  1.0  -0.1854
  C  C119  1  0.259980  0.593600  0.425280  1.0  0.6817
  C  C120  1  0.894190  0.182000  0.462990  1.0  -0.0381
  C  C121  1  0.971900  0.870500  0.588600  1.0  -0.0638
  C  C122  1  0.238800  0.136700  0.024300  1.0  -0.1866
  C  C123  1  0.118820  0.099800  0.281420  1.0  -0.1667
  C  C124  1  0.850540  0.779700  0.636940  1.0  -0.0706
  C  C125  1  0.925700  0.874700  0.112400  1.0  0.739
  C  C126  1  0.314540  0.204400  0.018340  1.0  -0.0794
  C  C127  1  0.083350  0.144400  0.365650  1.0  0.0913
  C  C128  1  0.471900  0.629500  0.088600  1.0  -0.064
  C  C129  1  0.777920  0.187200  0.820320  1.0  0.7318
  C  C130  1  0.074300  0.125300  0.887600  1.0  0.7405
  C  C131  1  0.597760  0.464900  0.736960  1.0  0.7339
  C  C132  1  0.866670  0.011100  0.563770  1.0  -0.1416
  C  C133  1  0.409630  0.395900  0.994130  1.0  0.0075
  C  C134  1  0.658950  0.347300  0.433850  1.0  -0.1519
  C  C135  1  0.366670  0.488900  0.063770  1.0  -0.1413
  C  C136  1  0.909630  0.104100  0.494130  1.0  0.0074
  C  C137  1  0.735530  0.279600  0.429130  1.0  -0.0555
  C  C138  1  0.989680  0.038800  0.483980  1.0  0.0136
  C  C139  1  0.402240  0.535100  0.263040  1.0  0.7346
  C  C140  1  0.425700  0.625300  0.612400  1.0  0.739
  O  O141  1  0.518420  0.441080  0.393520  1.0  -0.6005
  O  O142  1  0.147310  0.049810  0.199710  1.0  -0.6152
  O  O143  1  0.852690  0.950190  0.800290  1.0  -0.6134
  O  O144  1  0.069480  0.170400  0.848080  1.0  -0.6194
  O  O145  1  0.647310  0.450190  0.699710  1.0  -0.6153
  O  O146  1  0.835210  0.182200  0.786010  1.0  -0.6292
  O  O147  1  0.981580  0.941080  0.106480  1.0  -0.6031
  O  O148  1  0.969090  0.026800  0.761190  1.0  -0.6504
  O  O149  1  0.481580  0.558920  0.606480  1.0  -0.601
  O  O150  1  0.777420  0.130040  0.855620  1.0  -0.6076
  O  O151  1  0.222580  0.869960  0.144380  1.0  -0.6076
  O  O152  1  0.661230  0.458100  0.578430  1.0  -0.6048
  O  O153  1  0.814970  0.391000  0.610870  1.0  -0.4498
  O  O154  1  0.930520  0.829600  0.151920  1.0  -0.6184
  O  O155  1  0.030910  0.973200  0.238810  1.0  -0.6519
  O  O156  1  0.314970  0.109000  0.110870  1.0  -0.4499
  O  O157  1  0.277420  0.369960  0.355620  1.0  -0.6081
  O  O158  1  0.018420  0.058920  0.893520  1.0  -0.6008
  O  O159  1  0.430520  0.670400  0.651920  1.0  -0.619
  O  O160  1  0.838770  0.958100  0.921570  1.0  -0.6044
  O  O161  1  0.164790  0.817800  0.213990  1.0  -0.6279
  O  O162  1  0.185030  0.609000  0.389130  1.0  -0.4472
  O  O163  1  0.469090  0.473200  0.261190  1.0  -0.6502
  O  O164  1  0.685030  0.891000  0.889130  1.0  -0.447
  O  O165  1  0.338770  0.541900  0.421570  1.0  -0.6053
  O  O166  1  0.161230  0.041900  0.078430  1.0  -0.6048
  O  O167  1  0.569480  0.329600  0.348080  1.0  -0.6185
  O  O168  1  0.530910  0.526800  0.738810  1.0  -0.6518
  O  O169  1  0.664790  0.682200  0.713990  1.0  -0.6278
  O  O170  1  0.335210  0.317800  0.286010  1.0  -0.6289
  O  O171  1  0.352690  0.549810  0.300290  1.0  -0.614
  O  O172  1  0.722580  0.630040  0.644380  1.0  -0.6068
