# generated using pymatgen
data_Ni2H39C63(N2O)6
_symmetry_space_group_name_H-M   'P 1'
_cell_length_a   13.91300000
_cell_length_b   16.77400000
_cell_length_c   16.77400000
_cell_angle_alpha   120.00000000
_cell_angle_beta   90.00000000
_cell_angle_gamma   90.00000000
_symmetry_Int_Tables_number   1
_chemical_formula_structural   Ni2H39C63(N2O)6
_chemical_formula_sum   'Ni4 H78 C126 N24 O12'
_cell_volume   3390.19511837
_cell_formula_units_Z   2
loop_
 _symmetry_equiv_pos_site_id
 _symmetry_equiv_pos_as_xyz
  1  'x, y, z'
loop_
 _atom_site_type_symbol
 _atom_site_label
 _atom_site_symmetry_multiplicity
 _atom_site_fract_x
 _atom_site_fract_y
 _atom_site_fract_z
 _atom_site_occupancy
 _atom_site_charge
  Ni  Ni1  1  0.395670  0.666667  0.333333  1.0  0.7398
  Ni  Ni2  1  0.895670  0.333333  0.666667  1.0  0.7398
  Ni  Ni3  1  0.604330  0.333333  0.666667  1.0  0.7393
  Ni  Ni4  1  0.104330  0.666667  0.333333  1.0  0.7393
  H  H5  1  0.855600  0.570100  0.771000  1.0  0.1151
  H  H6  1  0.910800  0.680600  0.687600  1.0  0.1162
  H  H7  1  0.910800  0.007000  0.319400  1.0  0.1171
  H  H8  1  0.631300  0.146400  0.873600  1.0  0.1057
  H  H9  1  0.078500  0.425300  0.638400  1.0  0.0812
  H  H10  1  0.589200  0.312400  0.319400  1.0  0.116
  H  H11  1  0.750000  0.587800  0.412200  1.0  0.1293
  H  H12  1  0.855600  0.229000  0.799100  1.0  0.1174
  H  H13  1  0.983000  0.784400  0.988100  1.0  0.1018
  H  H14  1  0.384600  0.576300  0.512400  1.0  0.1184
  H  H15  1  0.578500  0.786900  0.361600  1.0  0.0823
  H  H16  1  0.144400  0.771000  0.200900  1.0  0.1179
  H  H17  1  0.384600  0.487600  0.063900  1.0  0.1183
  H  H18  1  0.115400  0.936100  0.512400  1.0  0.1178
  H  H19  1  0.410800  0.687600  0.680600  1.0  0.1164
  H  H20  1  0.921500  0.574700  0.361600  1.0  0.0819
  H  H21  1  0.921500  0.786900  0.425300  1.0  0.0819
  H  H22  1  0.410800  0.993000  0.312400  1.0  0.1169
  H  H23  1  0.368700  0.853600  0.126400  1.0  0.1058
  H  H24  1  0.131300  0.272800  0.126400  1.0  0.1059
  H  H25  1  0.115400  0.576300  0.063900  1.0  0.1183
  H  H26  1  0.750000  0.824400  0.412200  1.0  0.127
  H  H27  1  0.368700  0.272800  0.146400  1.0  0.1056
  H  H28  1  0.078500  0.213100  0.574700  1.0  0.0821
  H  H29  1  0.089200  0.993000  0.680600  1.0  0.1176
  H  H30  1  0.355600  0.771000  0.570100  1.0  0.1176
  H  H31  1  0.983000  0.203700  0.215600  1.0  0.1018
  H  H32  1  0.578500  0.638400  0.425300  1.0  0.0822
  H  H33  1  0.421500  0.213100  0.638400  1.0  0.0819
  H  H34  1  0.884600  0.423700  0.936100  1.0  0.1183
  H  H35  1  0.250000  0.175600  0.587800  1.0  0.1272
  H  H36  1  0.868700  0.727200  0.873600  1.0  0.1064
  H  H37  1  0.910800  0.312400  0.993000  1.0  0.116
  H  H38  1  0.421500  0.425300  0.786900  1.0  0.082
  H  H39  1  0.384600  0.936100  0.423700  1.0  0.1174
  H  H40  1  0.517000  0.203700  0.988100  1.0  0.1029
  H  H41  1  0.868700  0.146400  0.272800  1.0  0.1057
  H  H42  1  0.644400  0.570100  0.799100  1.0  0.1157
  H  H43  1  0.410800  0.319400  0.007000  1.0  0.1158
  H  H44  1  0.250000  0.412200  0.824400  1.0  0.1293
  H  H45  1  0.483000  0.988100  0.784400  1.0  0.1017
  H  H46  1  0.921500  0.638400  0.213100  1.0  0.0823
  H  H47  1  0.517000  0.011900  0.215600  1.0  0.1022
  H  H48  1  0.578500  0.574700  0.213100  1.0  0.0814
  H  H49  1  0.421500  0.361600  0.574700  1.0  0.0826
  H  H50  1  0.644400  0.229000  0.429900  1.0  0.1175
  H  H51  1  0.868700  0.126400  0.853600  1.0  0.1066
  H  H52  1  0.089200  0.319400  0.312400  1.0  0.116
  H  H53  1  0.355600  0.429900  0.200900  1.0  0.1145
  H  H54  1  0.631300  0.727200  0.853600  1.0  0.1056
  H  H55  1  0.089200  0.687600  0.007000  1.0  0.116
  H  H56  1  0.131300  0.873600  0.146400  1.0  0.1056
  H  H57  1  0.644400  0.200900  0.771000  1.0  0.1172
  H  H58  1  0.144400  0.429900  0.229000  1.0  0.1152
  H  H59  1  0.855600  0.200900  0.429900  1.0  0.1175
  H  H60  1  0.017000  0.988100  0.203700  1.0  0.102
  H  H61  1  0.615400  0.423700  0.487600  1.0  0.118
  H  H62  1  0.517000  0.784400  0.796300  1.0  0.1021
  H  H63  1  0.017000  0.796300  0.784400  1.0  0.103
  H  H64  1  0.483000  0.215600  0.203700  1.0  0.1008
  H  H65  1  0.368700  0.873600  0.727200  1.0  0.1063
  H  H66  1  0.589200  0.007000  0.687600  1.0  0.1168
  H  H67  1  0.131300  0.853600  0.727200  1.0  0.1053
  H  H68  1  0.250000  0.412200  0.587800  1.0  0.1301
  H  H69  1  0.483000  0.796300  0.011900  1.0  0.1017
  H  H70  1  0.615400  0.063900  0.576300  1.0  0.1179
  H  H71  1  0.078500  0.361600  0.786900  1.0  0.0827
  H  H72  1  0.017000  0.215600  0.011900  1.0  0.1029
  H  H73  1  0.884600  0.512400  0.576300  1.0  0.1183
  H  H74  1  0.750000  0.587800  0.175600  1.0  0.1298
  H  H75  1  0.983000  0.011900  0.796300  1.0  0.1019
  H  H76  1  0.589200  0.680600  0.993000  1.0  0.1158
  H  H77  1  0.355600  0.799100  0.229000  1.0  0.1176
  H  H78  1  0.615400  0.512400  0.936100  1.0  0.1183
  H  H79  1  0.884600  0.063900  0.487600  1.0  0.1174
  H  H80  1  0.631300  0.126400  0.272800  1.0  0.106
  H  H81  1  0.144400  0.799100  0.570100  1.0  0.117
  H  H82  1  0.115400  0.487600  0.423700  1.0  0.118
  C  C83  1  0.979700  0.721100  0.948200  1.0  -0.0986
  C  C84  1  0.020300  0.772900  0.721100  1.0  -0.1066
  C  C85  1  0.597400  0.183400  0.406900  1.0  -0.1124
  C  C86  1  0.456200  0.040000  0.335600  1.0  -0.155
  C  C87  1  0.589600  0.192000  0.878500  1.0  -0.12
  C  C88  1  0.250000  0.111600  0.555800  1.0  -0.2221
  C  C89  1  0.250000  0.816000  0.408000  1.0  0.6544
  C  C90  1  0.035800  0.571200  0.897600  1.0  0.0734
  C  C91  1  0.097400  0.816600  0.223500  1.0  -0.1118
  C  C92  1  0.967900  0.534400  0.825200  1.0  0.1344
  C  C93  1  0.964200  0.428800  0.102400  1.0  0.0729
  C  C94  1  0.467900  0.465600  0.290800  1.0  0.1345
  C  C95  1  0.902600  0.593100  0.816600  1.0  -0.1145
  C  C96  1  0.671100  0.937300  0.495600  1.0  0.1385
  C  C97  1  0.589600  0.121500  0.313500  1.0  -0.1204
  C  C98  1  0.956200  0.960000  0.295600  1.0  -0.1566
  C  C99  1  0.479700  0.772900  0.051800  1.0  -0.101
  C  C100  1  0.043800  0.295600  0.335600  1.0  -0.1565
  C  C101  1  0.535800  0.673600  0.102400  1.0  0.0735
  C  C102  1  0.553500  0.809400  0.420400  1.0  0.2047
  C  C103  1  0.410400  0.808000  0.121500  1.0  -0.1274
  C  C104  1  0.456200  0.295600  0.960000  1.0  -0.1566
  C  C105  1  0.032100  0.709200  0.534400  1.0  0.1348
  C  C106  1  0.750000  0.408000  0.592000  1.0  0.6541
  C  C107  1  0.169400  0.967900  0.510800  1.0  -0.1303
  C  C108  1  0.964200  0.673600  0.571200  1.0  0.0735
  C  C109  1  0.910400  0.121500  0.808000  1.0  -0.1267
  C  C110  1  0.035800  0.326400  0.428800  1.0  0.0734
  C  C111  1  0.250000  0.539550  0.460450  1.0  -0.1438
  C  C112  1  0.097400  0.776500  0.593100  1.0  -0.1079
  C  C113  1  0.669400  0.457100  0.489200  1.0  -0.1296
  C  C114  1  0.671100  0.504400  0.441700  1.0  0.1388
  C  C115  1  0.597400  0.593100  0.776500  1.0  -0.1151
  C  C116  1  0.589600  0.686500  0.808000  1.0  -0.1189
  C  C117  1  0.089600  0.808000  0.686500  1.0  -0.1193
  C  C118  1  0.553500  0.611000  0.190600  1.0  0.2049
  C  C119  1  0.520300  0.227100  0.948200  1.0  -0.1085
  C  C120  1  0.750000  0.184000  0.592000  1.0  0.655
  C  C121  1  0.669400  0.510800  0.967900  1.0  -0.1298
  C  C122  1  0.830600  0.510800  0.542900  1.0  -0.129
  C  C123  1  0.967900  0.174800  0.709200  1.0  0.135
  C  C124  1  0.169400  0.542900  0.032100  1.0  -0.1296
  C  C125  1  0.828900  0.558300  0.495600  1.0  0.139
  C  C126  1  0.456200  0.664400  0.704400  1.0  -0.1553
  C  C127  1  0.250000  0.539550  0.079100  1.0  -0.1439
  C  C128  1  0.446500  0.190600  0.579600  1.0  0.205
  C  C129  1  0.250000  0.592000  0.184000  1.0  0.6546
  C  C130  1  0.750000  0.408000  0.816000  1.0  0.6547
  C  C131  1  0.330600  0.967900  0.457100  1.0  -0.1298
  C  C132  1  0.946500  0.579600  0.190600  1.0  0.2041
  C  C133  1  0.902600  0.183400  0.776500  1.0  -0.1139
  C  C134  1  0.750000  0.460450  0.539550  1.0  -0.1437
  C  C135  1  0.035800  0.102400  0.673600  1.0  0.0741
  C  C136  1  0.543800  0.960000  0.664400  1.0  -0.1546
  C  C137  1  0.467900  0.825200  0.534400  1.0  0.1342
  C  C138  1  0.410400  0.313500  0.192000  1.0  -0.1246
  C  C139  1  0.330600  0.489200  0.032100  1.0  -0.1288
  C  C140  1  0.535800  0.897600  0.571200  1.0  0.0742
  C  C141  1  0.828900  0.937300  0.441700  1.0  0.1391
  C  C142  1  0.830600  0.032100  0.489200  1.0  -0.1298
  C  C143  1  0.446500  0.389000  0.809400  1.0  0.2055
  C  C144  1  0.330600  0.542900  0.510800  1.0  -0.1284
  C  C145  1  0.553500  0.579600  0.389000  1.0  0.2031
  C  C146  1  0.669400  0.032100  0.542900  1.0  -0.1302
  C  C147  1  0.910400  0.686500  0.878500  1.0  -0.1219
  C  C148  1  0.979700  0.227100  0.278900  1.0  -0.1048
  C  C149  1  0.910400  0.192000  0.313500  1.0  -0.127
  C  C150  1  0.946500  0.809400  0.389000  1.0  0.2051
  C  C151  1  0.250000  0.920900  0.460450  1.0  -0.143
  C  C152  1  0.171100  0.062700  0.558300  1.0  0.1384
  C  C153  1  0.043800  0.664400  0.960000  1.0  -0.1566
  C  C154  1  0.543800  0.704400  0.040000  1.0  -0.1566
  C  C155  1  0.750000  0.555800  0.111600  1.0  -0.2228
  C  C156  1  0.169400  0.489200  0.457100  1.0  -0.1296
  C  C157  1  0.830600  0.457100  0.967900  1.0  -0.1282
  C  C158  1  0.250000  0.444200  0.888400  1.0  -0.2209
  C  C159  1  0.171100  0.441700  0.504400  1.0  0.1382
  C  C160  1  0.053500  0.190600  0.611000  1.0  0.2047
  C  C161  1  0.402600  0.406900  0.223500  1.0  -0.116
  C  C162  1  0.402600  0.816600  0.593100  1.0  -0.1134
  C  C163  1  0.828900  0.504400  0.062700  1.0  0.1388
  C  C164  1  0.979700  0.051800  0.772900  1.0  -0.1073
  C  C165  1  0.089600  0.313500  0.121500  1.0  -0.1227
  C  C166  1  0.532100  0.534400  0.709200  1.0  0.1347
  C  C167  1  0.464200  0.102400  0.428800  1.0  0.0734
  C  C168  1  0.520300  0.051800  0.278900  1.0  -0.1055
  C  C169  1  0.467900  0.709200  0.174800  1.0  0.1349
  C  C170  1  0.750000  0.555800  0.444200  1.0  -0.2201
  C  C171  1  0.171100  0.495600  0.937300  1.0  0.1389
  C  C172  1  0.402600  0.776500  0.183400  1.0  -0.1102
  C  C173  1  0.089600  0.878500  0.192000  1.0  -0.1266
  C  C174  1  0.328900  0.495600  0.558300  1.0  0.1389
  C  C175  1  0.479700  0.278900  0.227100  1.0  -0.1022
  C  C176  1  0.410400  0.878500  0.686500  1.0  -0.1211
  C  C177  1  0.464200  0.326400  0.897600  1.0  0.0734
  C  C178  1  0.956200  0.335600  0.040000  1.0  -0.1573
  C  C179  1  0.956200  0.704400  0.664400  1.0  -0.1552
  C  C180  1  0.250000  0.592000  0.408000  1.0  0.655
  C  C181  1  0.032100  0.825200  0.290800  1.0  0.1339
  C  C182  1  0.446500  0.420400  0.611000  1.0  0.2039
  C  C183  1  0.328900  0.441700  0.937300  1.0  0.1387
  C  C184  1  0.020300  0.948200  0.227100  1.0  -0.0997
  C  C185  1  0.328900  0.062700  0.504400  1.0  0.1392
  C  C186  1  0.097400  0.406900  0.183400  1.0  -0.1159
  C  C187  1  0.543800  0.335600  0.295600  1.0  -0.1548
  C  C188  1  0.479700  0.948200  0.721100  1.0  -0.1021
  C  C189  1  0.464200  0.571200  0.673600  1.0  0.0731
  C  C190  1  0.902600  0.223500  0.406900  1.0  -0.107
  C  C191  1  0.750000  0.460450  0.920900  1.0  -0.1436
  C  C192  1  0.946500  0.611000  0.420400  1.0  0.2055
  C  C193  1  0.053500  0.420400  0.809400  1.0  0.2031
  C  C194  1  0.020300  0.278900  0.051800  1.0  -0.1048
  C  C195  1  0.532100  0.290800  0.825200  1.0  0.1355
  C  C196  1  0.597400  0.223500  0.816600  1.0  -0.1116
  C  C197  1  0.750000  0.079100  0.539550  1.0  -0.1427
  C  C198  1  0.053500  0.389000  0.579600  1.0  0.2044
  C  C199  1  0.967900  0.290800  0.465600  1.0  0.1339
  C  C200  1  0.671100  0.558300  0.062700  1.0  0.1383
  C  C201  1  0.032100  0.465600  0.174800  1.0  0.1344
  C  C202  1  0.520300  0.721100  0.772900  1.0  -0.1029
  C  C203  1  0.750000  0.888400  0.444200  1.0  -0.2222
  C  C204  1  0.043800  0.040000  0.704400  1.0  -0.1559
  C  C205  1  0.964200  0.897600  0.326400  1.0  0.0735
  C  C206  1  0.250000  0.444200  0.555800  1.0  -0.2237
  C  C207  1  0.532100  0.174800  0.465600  1.0  0.1347
  C  C208  1  0.535800  0.428800  0.326400  1.0  0.0735
  N  N209  1  0.481300  0.561000  0.331600  1.0  -0.3954
  N  N210  1  0.018700  0.561000  0.229400  1.0  -0.3954
  N  N211  1  0.018700  0.770600  0.331600  1.0  -0.3959
  N  N212  1  0.087900  0.389800  0.504000  1.0  -0.0321
  N  N213  1  0.087900  0.496000  0.885800  1.0  -0.0332
  N  N214  1  0.481300  0.770600  0.439000  1.0  -0.3964
  N  N215  1  0.412100  0.496000  0.610200  1.0  -0.0336
  N  N216  1  0.587900  0.610200  0.114200  1.0  -0.0333
  N  N217  1  0.481300  0.668400  0.229400  1.0  -0.3958
  N  N218  1  0.981300  0.229400  0.668400  1.0  -0.3966
  N  N219  1  0.087900  0.114200  0.610200  1.0  -0.0341
  N  N220  1  0.912100  0.504000  0.114200  1.0  -0.0334
  N  N221  1  0.587900  0.885800  0.496000  1.0  -0.0344
  N  N222  1  0.587900  0.504000  0.389800  1.0  -0.0331
  N  N223  1  0.412100  0.389800  0.885800  1.0  -0.0333
  N  N224  1  0.912100  0.885800  0.389800  1.0  -0.0347
  N  N225  1  0.518700  0.331600  0.770600  1.0  -0.3957
  N  N226  1  0.018700  0.668400  0.439000  1.0  -0.3956
  N  N227  1  0.981300  0.439000  0.770600  1.0  -0.3955
  N  N228  1  0.981300  0.331600  0.561000  1.0  -0.3957
  N  N229  1  0.518700  0.229400  0.561000  1.0  -0.3964
  N  N230  1  0.412100  0.114200  0.504000  1.0  -0.0344
  N  N231  1  0.518700  0.439000  0.668400  1.0  -0.3951
  N  N232  1  0.912100  0.610200  0.496000  1.0  -0.0342
  O  O233  1  0.181500  0.574600  0.353300  1.0  -0.5952
  O  O234  1  0.818500  0.221300  0.574600  1.0  -0.5919
  O  O235  1  0.318500  0.778700  0.353300  1.0  -0.5938
  O  O236  1  0.681500  0.425400  0.778700  1.0  -0.5949
  O  O237  1  0.681500  0.353300  0.574600  1.0  -0.594
  O  O238  1  0.818500  0.353300  0.778700  1.0  -0.5947
  O  O239  1  0.181500  0.646700  0.221300  1.0  -0.5944
  O  O240  1  0.318500  0.574600  0.221300  1.0  -0.5923
  O  O241  1  0.818500  0.425400  0.646700  1.0  -0.5942
  O  O242  1  0.681500  0.221300  0.646700  1.0  -0.5945
  O  O243  1  0.318500  0.646700  0.425400  1.0  -0.5949
  O  O244  1  0.181500  0.778700  0.425400  1.0  -0.5923
