# generated using pymatgen
data_ZnH15C21N2O5
_symmetry_space_group_name_H-M   'P 1'
_cell_length_a   8.19230000
_cell_length_b   14.01590000
_cell_length_c   23.30250000
_cell_angle_alpha   98.56200000
_cell_angle_beta   90.00000000
_cell_angle_gamma   106.99300000
_symmetry_Int_Tables_number   1
_chemical_formula_structural   ZnH15C21N2O5
_chemical_formula_sum   'Zn4 H60 C84 N8 O20'
_cell_volume   2527.63570925
_cell_formula_units_Z   4
loop_
 _symmetry_equiv_pos_site_id
 _symmetry_equiv_pos_as_xyz
  1  'x, y, z'
loop_
 _atom_site_type_symbol
 _atom_site_label
 _atom_site_symmetry_multiplicity
 _atom_site_fract_x
 _atom_site_fract_y
 _atom_site_fract_z
 _atom_site_occupancy
 _atom_site_charge
  Zn  Zn1  1  0.662070  0.080880  0.501600  1.0  0.9324
  Zn  Zn2  1  0.581190  0.919120  0.998400  1.0  0.932
  Zn  Zn3  1  0.418810  0.080880  0.001600  1.0  0.9324
  Zn  Zn4  1  0.337930  0.919120  0.498400  1.0  0.9321
  H  H5  1  0.446800  0.284200  0.969200  1.0  0.0904
  H  H6  1  0.067600  0.126200  0.744500  1.0  0.1318
  H  H7  1  0.699000  0.598600  0.023500  1.0  0.1191
  H  H8  1  0.231500  0.681200  0.948200  1.0  0.1311
  H  H9  1  0.259900  0.230000  0.577600  1.0  0.0997
  H  H10  1  0.788800  0.279600  0.896400  1.0  0.1054
  H  H11  1  0.550300  0.318800  0.551800  1.0  0.1322
  H  H12  1  0.058600  0.126200  0.244500  1.0  0.1323
  H  H13  1  0.098100  0.852400  0.640500  1.0  0.1234
  H  H14  1  0.301000  0.401400  0.976500  1.0  0.119
  H  H15  1  0.864100  0.954600  0.341200  1.0  0.0889
  H  H16  1  0.497900  0.384600  0.606900  1.0  0.1251
  H  H17  1  0.113300  0.615400  0.893100  1.0  0.1261
  H  H18  1  0.245700  0.147600  0.859500  1.0  0.1237
  H  H19  1  0.502100  0.615400  0.393100  1.0  0.1259
  H  H20  1  0.970900  0.930600  0.085600  1.0  0.0901
  H  H21  1  0.959700  0.930600  0.585600  1.0  0.0896
  H  H22  1  0.162600  0.715800  0.530800  1.0  0.0907
  H  H23  1  0.740100  0.770000  0.422400  1.0  0.0988
  H  H24  1  0.901900  0.147600  0.359500  1.0  0.1238
  H  H25  1  0.653100  0.647200  0.662500  1.0  0.1142
  H  H26  1  0.400100  0.749400  0.332400  1.0  0.0979
  H  H27  1  0.040300  0.069400  0.414400  1.0  0.0899
  H  H28  1  0.005900  0.352800  0.837500  1.0  0.1144
  H  H29  1  0.932400  0.873800  0.255500  1.0  0.1326
  H  H30  1  0.535600  0.335000  0.752900  1.0  0.1317
  H  H31  1  0.899600  0.598600  0.523500  1.0  0.1185
  H  H32  1  0.909500  0.045400  0.158800  1.0  0.0892
  H  H33  1  0.128900  0.121400  0.068700  1.0  0.077
  H  H34  1  0.196800  0.561400  0.935900  1.0  0.1316
  H  H35  1  0.992500  0.121400  0.568700  1.0  0.0767
  H  H36  1  0.509200  0.720400  0.603600  1.0  0.1061
  H  H37  1  0.200600  0.665000  0.747100  1.0  0.1294
  H  H38  1  0.349300  0.749400  0.832400  1.0  0.0981
  H  H39  1  0.346900  0.352800  0.337500  1.0  0.114
  H  H40  1  0.886700  0.384600  0.106900  1.0  0.125
  H  H41  1  0.871100  0.878600  0.931300  1.0  0.0763
  H  H42  1  0.211200  0.720400  0.103600  1.0  0.1055
  H  H43  1  0.553200  0.715800  0.030800  1.0  0.0901
  H  H44  1  0.449700  0.681200  0.448200  1.0  0.1321
  H  H45  1  0.100400  0.401400  0.476500  1.0  0.1193
  H  H46  1  0.768500  0.318800  0.051800  1.0  0.1327
  H  H47  1  0.635400  0.438600  0.564100  1.0  0.1307
  H  H48  1  0.464400  0.665000  0.247100  1.0  0.1303
  H  H49  1  0.007500  0.878600  0.431300  1.0  0.0766
  H  H50  1  0.803200  0.438600  0.064100  1.0  0.1317
  H  H51  1  0.754300  0.852400  0.140500  1.0  0.1236
  H  H52  1  0.029900  0.770000  0.922400  1.0  0.0994
  H  H53  1  0.364600  0.561400  0.435900  1.0  0.1313
  H  H54  1  0.490800  0.279600  0.396400  1.0  0.1053
  H  H55  1  0.029100  0.069400  0.914400  1.0  0.0895
  H  H56  1  0.970100  0.230000  0.077600  1.0  0.0994
  H  H57  1  0.135900  0.045400  0.658800  1.0  0.0893
  H  H58  1  0.650700  0.250600  0.167600  1.0  0.098
  H  H59  1  0.599900  0.250600  0.667600  1.0  0.0983
  H  H60  1  0.799400  0.335000  0.252900  1.0  0.132
  H  H61  1  0.837400  0.284200  0.469200  1.0  0.0904
  H  H62  1  0.994100  0.647200  0.162500  1.0  0.1139
  H  H63  1  0.090500  0.954600  0.841200  1.0  0.0889
  H  H64  1  0.941400  0.873800  0.755500  1.0  0.1326
  C  C65  1  0.146900  0.616400  0.933600  1.0  -0.3785
  C  C66  1  0.023400  0.847800  0.771400  1.0  -0.1641
  C  C67  1  0.371400  0.250600  0.388300  1.0  -0.0705
  C  C68  1  0.454000  0.276000  0.733500  1.0  -0.177
  C  C69  1  0.738200  0.656200  0.004600  1.0  -0.1501
  C  C70  1  0.918000  0.656200  0.504600  1.0  -0.1499
  C  C71  1  0.880300  0.748000  0.659700  1.0  0.2965
  C  C72  1  0.148700  0.171200  0.865600  1.0  -0.2148
  C  C73  1  0.373700  0.135600  0.653900  1.0  -0.0293
  C  C74  1  0.608100  0.603400  0.469300  1.0  0.253
  C  C75  1  0.337000  0.921000  0.901700  1.0  0.6894
  C  C76  1  0.104300  0.127600  0.399100  1.0  -0.0728
  C  C77  1  0.880900  0.166000  0.912300  1.0  -0.0762
  C  C78  1  0.469500  0.616400  0.433600  1.0  -0.3781
  C  C79  1  0.285100  0.166000  0.412300  1.0  -0.0749
  C  C80  1  0.530500  0.383600  0.566400  1.0  -0.3791
  C  C81  1  0.073500  0.726000  0.508600  1.0  0.1684
  C  C82  1  0.976700  0.872400  0.100900  1.0  -0.0728
  C  C83  1  0.286400  0.293800  0.352800  1.0  -0.2086
  C  C84  1  0.416000  0.079000  0.598300  1.0  0.6901
  C  C85  1  0.706200  0.760000  0.243800  1.0  0.2281
  C  C86  1  0.546000  0.724000  0.266500  1.0  -0.1783
  C  C87  1  0.984100  0.821600  0.451000  1.0  0.1833
  C  C88  1  0.266400  0.774800  0.816600  1.0  -0.022
  C  C89  1  0.120800  0.749400  0.111700  1.0  -0.0698
  C  C90  1  0.218500  0.104200  0.678200  1.0  -0.0474
  C  C91  1  0.023300  0.127600  0.899100  1.0  -0.0681
  C  C92  1  0.992600  0.706200  0.147200  1.0  -0.2061
  C  C93  1  0.584000  0.921000  0.401700  1.0  0.6898
  C  C94  1  0.238100  0.864400  0.846100  1.0  -0.0281
  C  C95  1  0.626300  0.864400  0.346100  1.0  -0.0287
  C  C96  1  0.217200  0.329800  0.528100  1.0  0.0583
  C  C97  1  0.663000  0.079000  0.098300  1.0  0.6899
  C  C98  1  0.822000  0.276000  0.233500  1.0  -0.1793
  C  C99  1  0.293800  0.240000  0.756200  1.0  0.2277
  C  C100  1  0.508400  0.774800  0.316600  1.0  -0.0224
  C  C101  1  0.977500  0.828800  0.634400  1.0  -0.2174
  C  C102  1  0.162500  0.178400  0.049000  1.0  0.1838
  C  C103  1  0.022500  0.171200  0.365600  1.0  -0.214
  C  C104  1  0.853100  0.383600  0.066400  1.0  -0.3778
  C  C105  1  0.391900  0.396600  0.530700  1.0  0.2524
  C  C106  1  0.004700  0.396600  0.030700  1.0  0.2536
  C  C107  1  0.132300  0.252000  0.840300  1.0  0.2971
  C  C108  1  0.867700  0.748000  0.159700  1.0  0.2968
  C  C109  1  0.261800  0.343800  0.995400  1.0  -0.1491
  C  C110  1  0.628600  0.749400  0.611700  1.0  -0.07
  C  C111  1  0.879200  0.250600  0.888300  1.0  -0.0702
  C  C112  1  0.082000  0.343800  0.495400  1.0  -0.1493
  C  C113  1  0.119100  0.834000  0.087700  1.0  -0.0741
  C  C114  1  0.632900  0.889200  0.552700  1.0  0.663
  C  C115  1  0.652500  0.726000  0.008600  1.0  0.1686
  C  C116  1  0.946200  0.240000  0.256200  1.0  0.2281
  C  C117  1  0.367100  0.110800  0.447300  1.0  0.6639
  C  C118  1  0.256300  0.889200  0.052700  1.0  0.6639
  C  C119  1  0.976600  0.152200  0.228600  1.0  -0.1648
  C  C120  1  0.114300  0.895800  0.821800  1.0  -0.048
  C  C121  1  0.851300  0.828800  0.134400  1.0  -0.2154
  C  C122  1  0.175000  0.243200  0.554900  1.0  -0.2213
  C  C123  1  0.112600  0.329800  0.028100  1.0  0.0578
  C  C124  1  0.931800  0.756800  0.945100  1.0  -0.2216
  C  C125  1  0.068200  0.243200  0.054900  1.0  -0.2215
  C  C126  1  0.782800  0.670200  0.471900  1.0  0.0554
  C  C127  1  0.824400  0.847800  0.271400  1.0  -0.1649
  C  C128  1  0.053800  0.760000  0.743800  1.0  0.2192
  C  C129  1  0.885700  0.104200  0.178200  1.0  -0.048
  C  C130  1  0.713600  0.706200  0.647200  1.0  -0.2126
  C  C131  1  0.175600  0.152200  0.728600  1.0  -0.1647
  C  C132  1  0.895700  0.872400  0.600900  1.0  -0.0682
  C  C133  1  0.825000  0.756800  0.445100  1.0  -0.2203
  C  C134  1  0.491600  0.225200  0.683400  1.0  -0.0253
  C  C135  1  0.347500  0.274000  0.991400  1.0  0.1687
  C  C136  1  0.837500  0.821600  0.951000  1.0  0.1831
  C  C137  1  0.781500  0.895800  0.321800  1.0  -0.05
  C  C138  1  0.995300  0.603400  0.969300  1.0  0.2511
  C  C139  1  0.015900  0.178400  0.549000  1.0  0.1837
  C  C140  1  0.887400  0.670200  0.971900  1.0  0.059
  C  C141  1  0.761900  0.135600  0.153900  1.0  -0.0299
  C  C142  1  0.733600  0.225200  0.183400  1.0  -0.0237
  C  C143  1  0.119700  0.252000  0.340300  1.0  0.297
  C  C144  1  0.743700  0.110800  0.947300  1.0  0.664
  C  C145  1  0.714900  0.834000  0.587700  1.0  -0.0748
  C  C146  1  0.007400  0.293800  0.852800  1.0  -0.2067
  C  C147  1  0.926500  0.274000  0.491400  1.0  0.169
  C  C148  1  0.178000  0.724000  0.766500  1.0  -0.1782
  N  N149  1  0.052300  0.469200  0.999900  1.0  -0.3334
  N  N150  1  0.701500  0.810600  0.982300  1.0  -0.3328
  N  N151  1  0.890900  0.189400  0.517700  1.0  -0.3308
  N  N152  1  0.298500  0.189400  0.017700  1.0  -0.3309
  N  N153  1  0.109100  0.810600  0.482300  1.0  -0.3307
  N  N154  1  0.583100  0.530800  0.500100  1.0  -0.3339
  N  N155  1  0.416900  0.469200  0.499900  1.0  -0.3323
  N  N156  1  0.947700  0.530800  0.000100  1.0  -0.3334
  O  O157  1  0.746700  0.028800  0.959500  1.0  -0.5926
  O  O158  1  0.037500  0.299000  0.306300  1.0  -0.2787
  O  O159  1  0.691400  0.002400  0.424000  1.0  -0.5753
  O  O160  1  0.962500  0.701000  0.693700  1.0  -0.2802
  O  O161  1  0.282100  0.028800  0.459500  1.0  -0.5925
  O  O162  1  0.738500  0.701000  0.193700  1.0  -0.2791
  O  O163  1  0.308600  0.997600  0.576000  1.0  -0.5751
  O  O164  1  0.253300  0.971200  0.040500  1.0  -0.5914
  O  O165  1  0.311000  0.002400  0.924000  1.0  -0.5752
  O  O166  1  0.625900  0.152600  0.958800  1.0  -0.5921
  O  O167  1  0.526700  0.152600  0.458800  1.0  -0.5918
  O  O168  1  0.444100  0.876800  0.423300  1.0  -0.5929
  O  O169  1  0.374100  0.847400  0.041200  1.0  -0.5912
  O  O170  1  0.717900  0.971200  0.540500  1.0  -0.5919
  O  O171  1  0.432700  0.876800  0.923300  1.0  -0.5927
  O  O172  1  0.473300  0.847400  0.541200  1.0  -0.5916
  O  O173  1  0.567300  0.123200  0.076700  1.0  -0.5929
  O  O174  1  0.689000  0.997600  0.076000  1.0  -0.5749
  O  O175  1  0.261500  0.299000  0.806300  1.0  -0.2816
  O  O176  1  0.555900  0.123200  0.576700  1.0  -0.5927
