# generated using pymatgen
data_CdH11(C7O2)3
_symmetry_space_group_name_H-M   'P 1'
_cell_length_a   14.05000000
_cell_length_b   20.15600000
_cell_length_c   20.37800000
_cell_angle_alpha   90.00000000
_cell_angle_beta   101.71700000
_cell_angle_gamma   90.00000000
_symmetry_Int_Tables_number   1
_chemical_formula_structural   CdH11(C7O2)3
_chemical_formula_sum   'Cd4 H44 C84 O24'
_cell_volume   5650.63230945
_cell_formula_units_Z   4
loop_
 _symmetry_equiv_pos_site_id
 _symmetry_equiv_pos_as_xyz
  1  'x, y, z'
loop_
 _atom_site_type_symbol
 _atom_site_label
 _atom_site_symmetry_multiplicity
 _atom_site_fract_x
 _atom_site_fract_y
 _atom_site_fract_z
 _atom_site_occupancy
 _atom_site_charge
  Cd  Cd1  1  0.102940  0.040190  0.034150  1.0  1.1125
  Cd  Cd2  1  0.102940  0.459810  0.534150  1.0  1.1124
  Cd  Cd3  1  0.897060  0.540190  0.465850  1.0  1.1122
  Cd  Cd4  1  0.897060  0.959810  0.965850  1.0  1.1113
  H  H5  1  0.050600  0.208500  0.878700  1.0  0.122
  H  H6  1  0.755300  0.431800  0.578600  1.0  0.1178
  H  H7  1  0.543200  0.995800  0.951900  1.0  0.0906
  H  H8  1  0.803100  0.390700  0.310200  1.0  0.133
  H  H9  1  0.000600  0.291100  0.799300  1.0  0.1289
  H  H10  1  0.450600  0.797500  0.855900  1.0  0.1258
  H  H11  1  0.456800  0.495800  0.548100  1.0  0.091
  H  H12  1  0.999400  0.708900  0.200700  1.0  0.1282
  H  H13  1  0.456800  0.004200  0.048100  1.0  0.0907
  H  H14  1  0.755300  0.068200  0.078600  1.0  0.1178
  H  H15  1  0.450600  0.702500  0.355900  1.0  0.1262
  H  H16  1  0.050600  0.291500  0.378700  1.0  0.1222
  H  H17  1  0.385600  0.176400  0.114400  1.0  0.1275
  H  H18  1  0.549400  0.202500  0.144100  1.0  0.1254
  H  H19  1  0.247300  0.690500  0.765300  1.0  0.1263
  H  H20  1  0.029900  0.824600  0.812700  1.0  0.1258
  H  H21  1  0.949400  0.708500  0.621300  1.0  0.1221
  H  H22  1  0.803100  0.109300  0.810200  1.0  0.1325
  H  H23  1  0.543200  0.504200  0.451900  1.0  0.0904
  H  H24  1  0.384800  0.529200  0.418100  1.0  0.0997
  H  H25  1  0.614400  0.823600  0.885600  1.0  0.1269
  H  H26  1  0.695600  0.202200  0.208400  1.0  0.1199
  H  H27  1  0.970100  0.324600  0.687300  1.0  0.1241
  H  H28  1  0.614400  0.676400  0.385600  1.0  0.1274
  H  H29  1  0.549400  0.297500  0.644100  1.0  0.1255
  H  H30  1  0.244700  0.568200  0.421400  1.0  0.1162
  H  H31  1  0.970100  0.175400  0.187300  1.0  0.124
  H  H32  1  0.615200  0.470800  0.581900  1.0  0.1025
  H  H33  1  0.196900  0.609300  0.689800  1.0  0.1336
  H  H34  1  0.949400  0.791500  0.121300  1.0  0.1221
  H  H35  1  0.244700  0.931800  0.921400  1.0  0.1162
  H  H36  1  0.000600  0.208900  0.299300  1.0  0.1289
  H  H37  1  0.752700  0.190500  0.734700  1.0  0.1266
  H  H38  1  0.752700  0.309500  0.234700  1.0  0.1269
  H  H39  1  0.196900  0.890700  0.189800  1.0  0.1339
  H  H40  1  0.615200  0.029200  0.081900  1.0  0.1018
  H  H41  1  0.695600  0.297800  0.708400  1.0  0.1202
  H  H42  1  0.304400  0.702200  0.291600  1.0  0.1199
  H  H43  1  0.029900  0.675400  0.312700  1.0  0.125
  H  H44  1  0.385600  0.323600  0.614400  1.0  0.1272
  H  H45  1  0.247300  0.809500  0.265300  1.0  0.1263
  H  H46  1  0.384800  0.970800  0.918100  1.0  0.1021
  H  H47  1  0.999400  0.791100  0.700700  1.0  0.1293
  H  H48  1  0.304400  0.797800  0.791600  1.0  0.1198
  C  C49  1  0.432300  0.145000  0.109700  1.0  -0.0879
  C  C50  1  0.468800  0.660300  0.372200  1.0  -0.1128
  C  C51  1  0.837500  0.198800  0.206100  1.0  0.0574
  C  C52  1  0.701800  0.934900  0.935900  1.0  0.6656
  C  C53  1  0.039300  0.754700  0.698500  1.0  -0.114
  C  C54  1  0.569900  0.440400  0.591200  1.0  -0.1311
  C  C55  1  0.813300  0.305800  0.263100  1.0  -0.1015
  C  C56  1  0.224600  0.898600  0.889900  1.0  -0.0182
  C  C57  1  0.870900  0.249900  0.757300  1.0  0.089
  C  C58  1  0.526900  0.956400  0.928500  1.0  -0.0868
  C  C59  1  0.009100  0.795100  0.150800  1.0  -0.0376
  C  C60  1  0.095700  0.665400  0.324800  1.0  -0.0424
  C  C61  1  0.531200  0.339700  0.627800  1.0  -0.1133
  C  C62  1  0.596100  0.919300  0.916100  1.0  -0.0668
  C  C63  1  0.259800  0.681100  0.312500  1.0  -0.1159
  C  C64  1  0.603300  0.385200  0.622300  1.0  0.1423
  C  C65  1  0.095700  0.834600  0.824800  1.0  -0.0423
  C  C66  1  0.933200  0.151200  0.852400  1.0  -0.1186
  C  C67  1  0.990900  0.204900  0.849200  1.0  -0.0358
  C  C68  1  0.596100  0.580700  0.416100  1.0  -0.0674
  C  C69  1  0.066800  0.651200  0.647600  1.0  -0.1201
  C  C70  1  0.298200  0.065100  0.064100  1.0  0.6683
  C  C71  1  0.943100  0.416200  0.590400  1.0  0.7653
  C  C72  1  0.396700  0.614800  0.377700  1.0  0.1412
  C  C73  1  0.129100  0.749900  0.742700  1.0  0.0886
  C  C74  1  0.186700  0.805800  0.236900  1.0  -0.0995
  C  C75  1  0.904300  0.165400  0.175200  1.0  -0.0398
  C  C76  1  0.473100  0.043600  0.071500  1.0  -0.0869
  C  C77  1  0.569900  0.059600  0.091200  1.0  -0.1303
  C  C78  1  0.186700  0.694200  0.736900  1.0  -0.0995
  C  C79  1  0.127300  0.617600  0.373400  1.0  -0.1183
  C  C80  1  0.293600  0.633300  0.360900  1.0  0.0452
  C  C81  1  0.706400  0.366700  0.639100  1.0  0.0448
  C  C82  1  0.603300  0.114800  0.122300  1.0  0.1423
  C  C83  1  0.567700  0.855000  0.890300  1.0  -0.0897
  C  C84  1  0.403900  0.419300  0.583900  1.0  -0.0666
  C  C85  1  0.298200  0.434900  0.564100  1.0  0.6686
  C  C86  1  0.531200  0.160300  0.127800  1.0  -0.1118
  C  C87  1  0.963300  0.403600  0.405000  1.0  0.7307
  C  C88  1  0.963300  0.096400  0.905000  1.0  0.7305
  C  C89  1  0.396700  0.885200  0.877700  1.0  0.1411
  C  C90  1  0.056900  0.583800  0.409600  1.0  0.7648
  C  C91  1  0.430100  0.940400  0.908800  1.0  -0.1306
  C  C92  1  0.036700  0.903600  0.095000  1.0  0.7308
  C  C93  1  0.990900  0.295100  0.349200  1.0  -0.0357
  C  C94  1  0.162500  0.698800  0.293900  1.0  0.0569
  C  C95  1  0.066800  0.848800  0.147600  1.0  -0.1189
  C  C96  1  0.473100  0.456400  0.571500  1.0  -0.0897
  C  C97  1  0.870900  0.250100  0.257300  1.0  0.0891
  C  C98  1  0.567700  0.645000  0.390300  1.0  -0.0885
  C  C99  1  0.842600  0.354000  0.308200  1.0  -0.0619
  C  C100  1  0.526900  0.543600  0.428500  1.0  -0.0856
  C  C101  1  0.872700  0.382400  0.626600  1.0  -0.1179
  C  C102  1  0.259800  0.818900  0.812500  1.0  -0.1174
  C  C103  1  0.157400  0.854000  0.191800  1.0  -0.0606
  C  C104  1  0.403900  0.080700  0.083900  1.0  -0.0658
  C  C105  1  0.813300  0.194200  0.763100  1.0  -0.1012
  C  C106  1  0.157400  0.646000  0.691800  1.0  -0.0602
  C  C107  1  0.872700  0.117600  0.126600  1.0  -0.1178
  C  C108  1  0.056900  0.916200  0.909600  1.0  0.7638
  C  C109  1  0.432300  0.355000  0.609700  1.0  -0.0868
  C  C110  1  0.224600  0.601400  0.389900  1.0  -0.0169
  C  C111  1  0.430100  0.559600  0.408800  1.0  -0.1291
  C  C112  1  0.740200  0.318900  0.687500  1.0  -0.1159
  C  C113  1  0.701800  0.565100  0.435900  1.0  0.6663
  C  C114  1  0.036700  0.596400  0.595000  1.0  0.7306
  C  C115  1  0.468800  0.839700  0.872200  1.0  -0.113
  C  C116  1  0.039300  0.745300  0.198500  1.0  -0.1144
  C  C117  1  0.129100  0.750100  0.242700  1.0  0.0889
  C  C118  1  0.960700  0.254700  0.801500  1.0  -0.1121
  C  C119  1  0.775400  0.398600  0.610100  1.0  -0.0198
  C  C120  1  0.837500  0.301200  0.706100  1.0  0.0575
  C  C121  1  0.009100  0.704900  0.650800  1.0  -0.0377
  C  C122  1  0.127300  0.882400  0.873400  1.0  -0.1184
  C  C123  1  0.943100  0.083800  0.090400  1.0  0.7642
  C  C124  1  0.740200  0.181100  0.187500  1.0  -0.115
  C  C125  1  0.775400  0.101400  0.110100  1.0  -0.0176
  C  C126  1  0.293600  0.866700  0.860900  1.0  0.0451
  C  C127  1  0.162500  0.801200  0.793900  1.0  0.0568
  C  C128  1  0.904300  0.334600  0.675200  1.0  -0.0398
  C  C129  1  0.960700  0.245300  0.301500  1.0  -0.1126
  C  C130  1  0.842600  0.146000  0.808200  1.0  -0.0605
  C  C131  1  0.933200  0.348800  0.352400  1.0  -0.1193
  C  C132  1  0.706400  0.133300  0.139100  1.0  0.0448
  O  O133  1  0.728000  0.519500  0.469200  1.0  -0.5784
  O  O134  1  0.093400  0.549700  0.597500  1.0  -0.6362
  O  O135  1  0.728000  0.980500  0.969200  1.0  -0.5813
  O  O136  1  0.042700  0.394500  0.446000  1.0  -0.6197
  O  O137  1  0.970000  0.897100  0.897400  1.0  -0.55
  O  O138  1  0.238400  0.102900  0.079700  1.0  -0.5565
  O  O139  1  0.911000  0.039600  0.049000  1.0  -0.7717
  O  O140  1  0.761600  0.602900  0.420300  1.0  -0.556
  O  O141  1  0.030000  0.397100  0.602600  1.0  -0.5527
  O  O142  1  0.238400  0.397100  0.579700  1.0  -0.5571
  O  O143  1  0.906600  0.450300  0.402500  1.0  -0.6369
  O  O144  1  0.272000  0.019500  0.030800  1.0  -0.58
  O  O145  1  0.030000  0.102900  0.102600  1.0  -0.5511
  O  O146  1  0.089000  0.539600  0.451000  1.0  -0.7717
  O  O147  1  0.093400  0.950300  0.097500  1.0  -0.6361
  O  O148  1  0.272000  0.480500  0.530800  1.0  -0.5805
  O  O149  1  0.089000  0.960400  0.951000  1.0  -0.7723
  O  O150  1  0.761600  0.897100  0.920300  1.0  -0.5561
  O  O151  1  0.906600  0.049700  0.902500  1.0  -0.6368
  O  O152  1  0.970000  0.602900  0.397400  1.0  -0.5496
  O  O153  1  0.042700  0.105500  0.946000  1.0  -0.6192
  O  O154  1  0.957300  0.605500  0.554000  1.0  -0.6201
  O  O155  1  0.957300  0.894500  0.054000  1.0  -0.6208
  O  O156  1  0.911000  0.460400  0.549000  1.0  -0.7727
