# generated using pymatgen
data_MnCr(CO2)6
_symmetry_space_group_name_H-M   'P 1'
_cell_length_a   22.83780000
_cell_length_b   24.88340000
_cell_length_c   24.38020000
_cell_angle_alpha   105.49700000
_cell_angle_beta   90.00000000
_cell_angle_gamma   90.00000000
_symmetry_Int_Tables_number   1
_chemical_formula_structural   MnCr(CO2)6
_chemical_formula_sum   'Mn16 Cr16 C96 O192'
_cell_volume   13351.13146134
_cell_formula_units_Z   16
loop_
 _symmetry_equiv_pos_site_id
 _symmetry_equiv_pos_as_xyz
  1  'x, y, z'
loop_
 _atom_site_type_symbol
 _atom_site_label
 _atom_site_symmetry_multiplicity
 _atom_site_fract_x
 _atom_site_fract_y
 _atom_site_fract_z
 _atom_site_occupancy
 _atom_site_charge
  Mn  Mn1  1  0.702780  0.916080  0.059650  1.0  1.0782
  Mn  Mn2  1  0.315440  0.242320  0.502840  1.0  0.995
  Mn  Mn3  1  0.684560  0.757680  0.497160  1.0  0.9945
  Mn  Mn4  1  0.057890  0.500000  0.750000  1.0  1.0277
  Mn  Mn5  1  0.702980  0.570060  0.945910  1.0  1.055
  Mn  Mn6  1  0.297020  0.570060  0.445910  1.0  1.0539
  Mn  Mn7  1  0.062840  0.000000  0.250000  1.0  1.0444
  Mn  Mn8  1  0.297220  0.083920  0.940350  1.0  1.077
  Mn  Mn9  1  0.297220  0.916080  0.559650  1.0  1.0776
  Mn  Mn10  1  0.315440  0.757680  0.997160  1.0  0.9943
  Mn  Mn11  1  0.702780  0.083920  0.440350  1.0  1.0777
  Mn  Mn12  1  0.297020  0.429940  0.054090  1.0  1.0536
  Mn  Mn13  1  0.684560  0.242320  0.002840  1.0  0.995
  Mn  Mn14  1  0.937160  0.000000  0.750000  1.0  1.0431
  Mn  Mn15  1  0.702980  0.429940  0.554090  1.0  1.055
  Mn  Mn16  1  0.942110  0.500000  0.250000  1.0  1.026
  Cr  Cr17  1  0.788060  0.959140  0.571580  1.0  1.4279
  Cr  Cr18  1  0.448120  0.256270  0.000190  1.0  1.4264
  Cr  Cr19  1  0.205540  0.440260  0.570640  1.0  1.4267
  Cr  Cr20  1  0.178920  0.500000  0.250000  1.0  1.4285
  Cr  Cr21  1  0.211940  0.959140  0.071580  1.0  1.4286
  Cr  Cr22  1  0.448120  0.743730  0.499810  1.0  1.4269
  Cr  Cr23  1  0.205540  0.559740  0.929360  1.0  1.4293
  Cr  Cr24  1  0.794460  0.440260  0.070640  1.0  1.4256
  Cr  Cr25  1  0.172990  0.000000  0.750000  1.0  1.435
  Cr  Cr26  1  0.794460  0.559740  0.429360  1.0  1.4281
  Cr  Cr27  1  0.827010  0.000000  0.250000  1.0  1.4334
  Cr  Cr28  1  0.788060  0.040860  0.928420  1.0  1.4303
  Cr  Cr29  1  0.821080  0.500000  0.750000  1.0  1.4274
  Cr  Cr30  1  0.551880  0.743730  0.999810  1.0  1.4278
  Cr  Cr31  1  0.551880  0.256270  0.500190  1.0  1.4272
  Cr  Cr32  1  0.211940  0.040860  0.428420  1.0  1.4311
  C  C33  1  0.751400  0.141400  0.994600  1.0  0.5905
  C  C34  1  0.603000  0.842500  0.053000  1.0  0.6052
  C  C35  1  0.268500  0.138900  0.432600  1.0  0.5511
  C  C36  1  0.737700  0.655600  0.428700  1.0  0.5507
  C  C37  1  0.561200  0.234800  0.025400  1.0  0.558
  C  C38  1  0.279900  0.501800  0.980600  1.0  0.5348
  C  C39  1  0.602200  0.642800  0.949800  1.0  0.568
  C  C40  1  0.850800  0.498800  0.166400  1.0  0.569
  C  C41  1  0.638000  0.181900  0.501500  1.0  0.5508
  C  C42  1  0.936400  0.479000  0.768300  1.0  0.5293
  C  C43  1  0.778600  0.929300  0.156000  1.0  0.5546
  C  C44  1  0.240700  0.338000  0.508700  1.0  0.5919
  C  C45  1  0.250800  0.013000  0.837300  1.0  0.6158
  C  C46  1  0.941800  0.019800  0.230200  1.0  0.5812
  C  C47  1  0.846600  0.009000  0.670200  1.0  0.5517
  C  C48  1  0.941800  0.980200  0.269800  1.0  0.5864
  C  C49  1  0.248600  0.858600  0.005400  1.0  0.5891
  C  C50  1  0.435100  0.734900  0.022300  1.0  0.5629
  C  C51  1  0.255400  0.494600  0.162700  1.0  0.5584
  C  C52  1  0.751400  0.858600  0.505400  1.0  0.5886
  C  C53  1  0.397800  0.642800  0.449800  1.0  0.5709
  C  C54  1  0.603000  0.157500  0.447000  1.0  0.6054
  C  C55  1  0.220200  0.033200  0.007800  1.0  0.5943
  C  C56  1  0.365000  0.333400  0.993900  1.0  0.5807
  C  C57  1  0.783400  0.487000  0.494400  1.0  0.5939
  C  C58  1  0.362000  0.181900  0.001500  1.0  0.5465
  C  C59  1  0.216600  0.487000  0.994400  1.0  0.5926
  C  C60  1  0.250800  0.987000  0.662700  1.0  0.6142
  C  C61  1  0.720100  0.498200  0.019400  1.0  0.5359
  C  C62  1  0.268500  0.861100  0.067400  1.0  0.5528
  C  C63  1  0.111000  0.446500  0.641300  1.0  0.5666
  C  C64  1  0.435100  0.265100  0.477700  1.0  0.5626
  C  C65  1  0.564900  0.734900  0.522300  1.0  0.5617
  C  C66  1  0.216600  0.513000  0.505600  1.0  0.5925
  C  C67  1  0.731500  0.861100  0.567400  1.0  0.5512
  C  C68  1  0.561200  0.765200  0.474600  1.0  0.5576
  C  C69  1  0.759300  0.662000  0.491300  1.0  0.594
  C  C70  1  0.889000  0.553500  0.358700  1.0  0.5665
  C  C71  1  0.063600  0.479000  0.268300  1.0  0.5278
  C  C72  1  0.221400  0.929300  0.656000  1.0  0.5547
  C  C73  1  0.638000  0.818100  0.998500  1.0  0.5475
  C  C74  1  0.362000  0.818100  0.498500  1.0  0.5516
  C  C75  1  0.397800  0.357200  0.050200  1.0  0.5688
  C  C76  1  0.749200  0.987000  0.162700  1.0  0.6142
  C  C77  1  0.262300  0.655600  0.928700  1.0  0.5516
  C  C78  1  0.058200  0.980200  0.769800  1.0  0.5854
  C  C79  1  0.716700  0.019600  0.522100  1.0  0.57
  C  C80  1  0.255400  0.505400  0.337300  1.0  0.5595
  C  C81  1  0.759300  0.338000  0.008700  1.0  0.5918
  C  C82  1  0.240700  0.662000  0.991300  1.0  0.5929
  C  C83  1  0.365000  0.666667  0.506100  1.0  0.5835
  C  C84  1  0.438800  0.765200  0.974600  1.0  0.5581
  C  C85  1  0.779800  0.033200  0.507800  1.0  0.5933
  C  C86  1  0.397000  0.842500  0.553000  1.0  0.6091
  C  C87  1  0.783400  0.513000  0.005600  1.0  0.5933
  C  C88  1  0.283300  0.019600  0.022100  1.0  0.5681
  C  C89  1  0.779800  0.966800  0.992200  1.0  0.5965
  C  C90  1  0.635000  0.666667  0.006100  1.0  0.5866
  C  C91  1  0.775100  0.436300  0.650800  1.0  0.5442
  C  C92  1  0.058200  0.019800  0.730200  1.0  0.5804
  C  C93  1  0.117400  0.956700  0.139400  1.0  0.581
  C  C94  1  0.283300  0.980400  0.477900  1.0  0.5714
  C  C95  1  0.744600  0.505400  0.837300  1.0  0.5597
  C  C96  1  0.602200  0.357200  0.550200  1.0  0.5673
  C  C97  1  0.111000  0.553500  0.858700  1.0  0.5662
  C  C98  1  0.846600  0.991000  0.829800  1.0  0.5522
  C  C99  1  0.248600  0.141400  0.494600  1.0  0.5891
  C  C100  1  0.149200  0.501200  0.833600  1.0  0.5698
  C  C101  1  0.720100  0.501800  0.480600  1.0  0.5357
  C  C102  1  0.564900  0.265100  0.977700  1.0  0.562
  C  C103  1  0.221400  0.070700  0.844000  1.0  0.5548
  C  C104  1  0.153400  0.991000  0.329800  1.0  0.5522
  C  C105  1  0.438800  0.234800  0.525400  1.0  0.5576
  C  C106  1  0.778600  0.070700  0.344000  1.0  0.5553
  C  C107  1  0.220200  0.966800  0.492200  1.0  0.5945
  C  C108  1  0.889000  0.446500  0.141300  1.0  0.5682
  C  C109  1  0.882600  0.956700  0.639400  1.0  0.5814
  C  C110  1  0.224900  0.563700  0.349200  1.0  0.548
  C  C111  1  0.775100  0.563700  0.849200  1.0  0.5473
  C  C112  1  0.397000  0.157500  0.947000  1.0  0.6096
  C  C113  1  0.737700  0.344400  0.071300  1.0  0.5498
  C  C114  1  0.635000  0.333400  0.493900  1.0  0.582
  C  C115  1  0.744600  0.494600  0.662700  1.0  0.5581
  C  C116  1  0.716700  0.980400  0.977900  1.0  0.5678
  C  C117  1  0.731500  0.138900  0.932600  1.0  0.5499
  C  C118  1  0.063600  0.521000  0.231700  1.0  0.5277
  C  C119  1  0.749200  0.013000  0.337300  1.0  0.6156
  C  C120  1  0.262300  0.344400  0.571300  1.0  0.5529
  C  C121  1  0.850800  0.501200  0.333600  1.0  0.5699
  C  C122  1  0.224900  0.436300  0.150800  1.0  0.5441
  C  C123  1  0.149200  0.498800  0.666400  1.0  0.5696
  C  C124  1  0.117400  0.043300  0.360600  1.0  0.5765
  C  C125  1  0.882600  0.043300  0.860600  1.0  0.5768
  C  C126  1  0.279900  0.498200  0.519400  1.0  0.5357
  C  C127  1  0.936400  0.521000  0.731700  1.0  0.5292
  C  C128  1  0.153400  0.009000  0.170200  1.0  0.5534
  O  O129  1  0.297100  0.177200  0.424600  1.0  -0.4689
  O  O130  1  0.388200  0.709600  0.538800  1.0  -0.491
  O  O131  1  0.803700  0.501400  0.140500  1.0  -0.4968
  O  O132  1  0.865800  0.040100  0.714800  1.0  -0.4825
  O  O133  1  0.134200  0.959900  0.285200  1.0  -0.4849
  O  O134  1  0.180100  0.989500  0.469900  1.0  -0.5097
  O  O135  1  0.322000  0.517100  0.499500  1.0  -0.4673
  O  O136  1  0.252000  0.905300  0.104900  1.0  -0.5163
  O  O137  1  0.674900  0.962900  0.001100  1.0  -0.4531
  O  O138  1  0.678000  0.482900  0.500500  1.0  -0.469
  O  O139  1  0.315800  0.158600  0.008800  1.0  -0.4909
  O  O140  1  0.239800  0.111200  0.881600  1.0  -0.5012
  O  O141  1  0.282900  0.466000  0.552700  1.0  -0.5254
  O  O142  1  0.711200  0.991100  0.128100  1.0  -0.4747
  O  O143  1  0.819300  0.928400  0.190800  1.0  -0.4945
  O  O144  1  0.618600  0.402000  0.582400  1.0  -0.4875
  O  O145  1  0.210000  0.377200  0.502300  1.0  -0.5056
  O  O146  1  0.180700  0.928400  0.690800  1.0  -0.4967
  O  O147  1  0.983700  0.538200  0.719400  1.0  -0.4741
  O  O148  1  0.108100  0.969400  0.786230  1.0  -0.5036
  O  O149  1  0.134600  0.068200  0.409720  1.0  -0.4773
  O  O150  1  0.211300  0.454200  0.024200  1.0  -0.5124
  O  O151  1  0.761300  0.470400  0.792400  1.0  -0.5147
  O  O152  1  0.128000  0.417100  0.593200  1.0  -0.4845
  O  O153  1  0.114300  0.533500  0.216500  1.0  -0.4959
  O  O154  1  0.114300  0.466500  0.283500  1.0  -0.4938
  O  O155  1  0.200100  0.984200  0.355200  1.0  -0.5126
  O  O156  1  0.386800  0.727700  0.040500  1.0  -0.4694
  O  O157  1  0.865400  0.068200  0.909720  1.0  -0.4776
  O  O158  1  0.760200  0.888800  0.118400  1.0  -0.5016
  O  O159  1  0.184600  0.567200  0.314100  1.0  -0.503
  O  O160  1  0.824000  0.489800  0.026100  1.0  -0.5053
  O  O161  1  0.869500  0.466400  0.290400  1.0  -0.5041
  O  O162  1  0.679100  0.357900  0.484800  1.0  -0.4631
  O  O163  1  0.790000  0.622800  0.497700  1.0  -0.5057
  O  O164  1  0.176000  0.489800  0.526100  1.0  -0.506
  O  O165  1  0.819900  0.010500  0.530100  1.0  -0.5085
  O  O166  1  0.288800  0.991100  0.628100  1.0  -0.4727
  O  O167  1  0.745500  0.295500  0.972400  1.0  -0.5162
  O  O168  1  0.872000  0.582900  0.406800  1.0  -0.4852
  O  O169  1  0.010500  0.962280  0.781600  1.0  -0.4489
  O  O170  1  0.252000  0.094700  0.395100  1.0  -0.5193
  O  O171  1  0.815400  0.567200  0.814100  1.0  -0.5026
  O  O172  1  0.707900  0.498400  0.871000  1.0  -0.4776
  O  O173  1  0.758700  0.601200  0.890500  1.0  -0.4407
  O  O174  1  0.241300  0.398800  0.109500  1.0  -0.4432
  O  O175  1  0.515500  0.720200  0.537600  1.0  -0.4732
  O  O176  1  0.872000  0.417100  0.093200  1.0  -0.484
  O  O177  1  0.509100  0.772800  0.459000  1.0  -0.4646
  O  O178  1  0.441200  0.185100  0.940470  1.0  -0.4797
  O  O179  1  0.678000  0.517100  0.999500  1.0  -0.4591
  O  O180  1  0.606300  0.778500  0.455300  1.0  -0.4753
  O  O181  1  0.515500  0.279800  0.962400  1.0  -0.4715
  O  O182  1  0.748000  0.905300  0.604900  1.0  -0.5177
  O  O183  1  0.282900  0.534000  0.947300  1.0  -0.524
  O  O184  1  0.613200  0.727700  0.540500  1.0  -0.4688
  O  O185  1  0.381400  0.402000  0.082400  1.0  -0.4862
  O  O186  1  0.441300  0.671300  0.441000  1.0  -0.4762
  O  O187  1  0.490900  0.227200  0.541000  1.0  -0.4627
  O  O188  1  0.679100  0.642100  0.015200  1.0  -0.4651
  O  O189  1  0.611800  0.290400  0.461200  1.0  -0.4911
  O  O190  1  0.931100  0.563100  0.331300  1.0  -0.4659
  O  O191  1  0.779900  0.099900  0.000300  1.0  -0.5002
  O  O192  1  0.238700  0.529600  0.207600  1.0  -0.5114
  O  O193  1  0.779900  0.900100  0.499700  1.0  -0.5002
  O  O194  1  0.815400  0.432800  0.685900  1.0  -0.5031
  O  O195  1  0.983700  0.461800  0.780600  1.0  -0.4743
  O  O196  1  0.180700  0.071600  0.809200  1.0  -0.4933
  O  O197  1  0.134600  0.931800  0.090280  1.0  -0.4778
  O  O198  1  0.232700  0.024900  0.704100  1.0  -0.5221
  O  O199  1  0.717100  0.534000  0.447300  1.0  -0.5239
  O  O200  1  0.293500  0.307300  0.580400  1.0  -0.4894
  O  O201  1  0.134200  0.040100  0.214800  1.0  -0.482
  O  O202  1  0.737100  0.182700  0.032500  1.0  -0.476
  O  O203  1  0.484500  0.720200  0.037600  1.0  -0.4717
  O  O204  1  0.130500  0.466400  0.790400  1.0  -0.5045
  O  O205  1  0.712100  0.990200  0.556800  1.0  -0.5201
  O  O206  1  0.388200  0.290400  0.961200  1.0  -0.4922
  O  O207  1  0.074800  0.056200  0.335200  1.0  -0.4909
  O  O208  1  0.755300  0.612000  0.392800  1.0  -0.5036
  O  O209  1  0.288800  0.008900  0.871900  1.0  -0.4722
  O  O210  1  0.788700  0.545800  0.975800  1.0  -0.5126
  O  O211  1  0.787300  0.935000  0.022700  1.0  -0.5089
  O  O212  1  0.292100  0.501600  0.129000  1.0  -0.4772
  O  O213  1  0.684200  0.841400  0.991200  1.0  -0.4894
  O  O214  1  0.748000  0.094700  0.895100  1.0  -0.5204
  O  O215  1  0.325100  0.037100  0.998900  1.0  -0.4526
  O  O216  1  0.737100  0.817300  0.467500  1.0  -0.4762
  O  O217  1  0.287900  0.009800  0.443200  1.0  -0.5168
  O  O218  1  0.799900  0.984200  0.855200  1.0  -0.5155
  O  O219  1  0.702900  0.822800  0.575400  1.0  -0.4725
  O  O220  1  0.176000  0.510200  0.973900  1.0  -0.5068
  O  O221  1  0.891900  0.969400  0.286230  1.0  -0.5052
  O  O222  1  0.196300  0.501400  0.640500  1.0  -0.4958
  O  O223  1  0.293500  0.692700  0.919600  1.0  -0.488
  O  O224  1  0.262900  0.182700  0.532500  1.0  -0.4758
  O  O225  1  0.619400  0.887400  0.085400  1.0  -0.5054
  O  O226  1  0.925200  0.943800  0.664800  1.0  -0.4915
  O  O227  1  0.381400  0.598000  0.417600  1.0  -0.4866
  O  O228  1  0.824000  0.510200  0.473900  1.0  -0.5057
  O  O229  1  0.325100  0.962900  0.501100  1.0  -0.4529
  O  O230  1  0.787300  0.065000  0.477300  1.0  -0.509
  O  O231  1  0.606300  0.221500  0.044700  1.0  -0.4733
  O  O232  1  0.799900  0.015800  0.644800  1.0  -0.516
  O  O233  1  0.788700  0.454200  0.524200  1.0  -0.5114
  O  O234  1  0.885700  0.533500  0.716500  1.0  -0.4958
  O  O235  1  0.706500  0.692700  0.419600  1.0  -0.4894
  O  O236  1  0.745500  0.704500  0.527600  1.0  -0.5144
  O  O237  1  0.619400  0.112600  0.414600  1.0  -0.5086
  O  O238  1  0.130500  0.533600  0.709600  1.0  -0.5049
  O  O239  1  0.790000  0.377200  0.002300  1.0  -0.5071
  O  O240  1  0.711200  0.008900  0.371900  1.0  -0.4738
  O  O241  1  0.068900  0.436900  0.668700  1.0  -0.4708
  O  O242  1  0.618600  0.598000  0.917600  1.0  -0.4871
  O  O243  1  0.211300  0.545800  0.475800  1.0  -0.5145
  O  O244  1  0.819300  0.071600  0.309200  1.0  -0.4916
  O  O245  1  0.212700  0.935000  0.522700  1.0  -0.5092
  O  O246  1  0.611800  0.709600  0.038800  1.0  -0.49
  O  O247  1  0.196300  0.498600  0.859500  1.0  -0.4958
  O  O248  1  0.210000  0.622800  0.997700  1.0  -0.5052
  O  O249  1  0.803700  0.498600  0.359500  1.0  -0.4975
  O  O250  1  0.315800  0.841400  0.491200  1.0  -0.4888
  O  O251  1  0.383100  0.225300  0.035860  1.0  -0.5154
  O  O252  1  0.241300  0.601200  0.390500  1.0  -0.4414
  O  O253  1  0.865800  0.959900  0.785200  1.0  -0.4853
  O  O254  1  0.386800  0.272300  0.459500  1.0  -0.4689
  O  O255  1  0.068900  0.563100  0.831300  1.0  -0.4675
  O  O256  1  0.558800  0.185100  0.440470  1.0  -0.4792
  O  O257  1  0.613200  0.272300  0.959500  1.0  -0.4688
  O  O258  1  0.931100  0.436900  0.168700  1.0  -0.467
  O  O259  1  0.616900  0.774700  0.964140  1.0  -0.5142
  O  O260  1  0.767300  0.024900  0.204100  1.0  -0.5229
  O  O261  1  0.380600  0.887400  0.585400  1.0  -0.5033
  O  O262  1  0.220100  0.900100  0.999700  1.0  -0.5003
  O  O263  1  0.865400  0.931800  0.590280  1.0  -0.4768
  O  O264  1  0.885700  0.466500  0.783500  1.0  -0.4957
  O  O265  1  0.761300  0.529600  0.707600  1.0  -0.5125
  O  O266  1  0.484500  0.279800  0.462400  1.0  -0.4726
  O  O267  1  0.292100  0.498400  0.371000  1.0  -0.4773
  O  O268  1  0.755300  0.388000  0.107200  1.0  -0.5011
  O  O269  1  0.262900  0.817300  0.967500  1.0  -0.476
  O  O270  1  0.184600  0.432800  0.185900  1.0  -0.5061
  O  O271  1  0.010500  0.037720  0.718400  1.0  -0.4476
  O  O272  1  0.717100  0.466000  0.052700  1.0  -0.5252
  O  O273  1  0.925200  0.056200  0.835200  1.0  -0.491
  O  O274  1  0.320900  0.357900  0.984800  1.0  -0.4641
  O  O275  1  0.706500  0.307300  0.080400  1.0  -0.4912
  O  O276  1  0.558800  0.814900  0.059530  1.0  -0.4815
  O  O277  1  0.220100  0.099900  0.500300  1.0  -0.5007
  O  O278  1  0.297100  0.822800  0.075400  1.0  -0.4715
  O  O279  1  0.441200  0.814900  0.559530  1.0  -0.4804
  O  O280  1  0.712100  0.009800  0.943200  1.0  -0.5177
  O  O281  1  0.684200  0.158600  0.508800  1.0  -0.4899
  O  O282  1  0.767300  0.975100  0.295900  1.0  -0.5238
  O  O283  1  0.891900  0.030600  0.213770  1.0  -0.5034
  O  O284  1  0.108100  0.030600  0.713770  1.0  -0.5035
  O  O285  1  0.616900  0.225300  0.535860  1.0  -0.5132
  O  O286  1  0.760200  0.111200  0.381600  1.0  -0.5003
  O  O287  1  0.287900  0.990200  0.056800  1.0  -0.5196
  O  O288  1  0.254500  0.295500  0.472400  1.0  -0.5168
  O  O289  1  0.254500  0.704500  0.027600  1.0  -0.5146
  O  O290  1  0.200100  0.015800  0.144800  1.0  -0.5142
  O  O291  1  0.320900  0.642100  0.515200  1.0  -0.4667
  O  O292  1  0.393700  0.221500  0.544700  1.0  -0.4746
  O  O293  1  0.989500  0.037720  0.218400  1.0  -0.4474
  O  O294  1  0.441300  0.328700  0.059000  1.0  -0.4779
  O  O295  1  0.707900  0.501600  0.629000  1.0  -0.4788
  O  O296  1  0.558700  0.671300  0.941000  1.0  -0.4771
  O  O297  1  0.212700  0.065000  0.977300  1.0  -0.5102
  O  O298  1  0.380600  0.112600  0.914600  1.0  -0.5079
  O  O299  1  0.819900  0.989500  0.969900  1.0  -0.5098
  O  O300  1  0.244700  0.388000  0.607200  1.0  -0.5004
  O  O301  1  0.128000  0.582900  0.906800  1.0  -0.4852
  O  O302  1  0.674900  0.037100  0.498900  1.0  -0.4531
  O  O303  1  0.074800  0.943800  0.164800  1.0  -0.4919
  O  O304  1  0.180100  0.010500  0.030100  1.0  -0.5083
  O  O305  1  0.558700  0.328700  0.559000  1.0  -0.479
  O  O306  1  0.238700  0.470400  0.292400  1.0  -0.5131
  O  O307  1  0.509100  0.227200  0.041000  1.0  -0.4647
  O  O308  1  0.989500  0.962280  0.281600  1.0  -0.4496
  O  O309  1  0.758700  0.398800  0.609500  1.0  -0.4425
  O  O310  1  0.702900  0.177200  0.924600  1.0  -0.4712
  O  O311  1  0.490900  0.772800  0.959000  1.0  -0.4644
  O  O312  1  0.869500  0.533600  0.209600  1.0  -0.5045
  O  O313  1  0.393700  0.778500  0.955300  1.0  -0.4757
  O  O314  1  0.322000  0.482900  0.000500  1.0  -0.4586
  O  O315  1  0.232700  0.975100  0.795900  1.0  -0.5232
  O  O316  1  0.383100  0.774700  0.464140  1.0  -0.5133
  O  O317  1  0.239800  0.888800  0.618400  1.0  -0.5019
  O  O318  1  0.016300  0.461800  0.280600  1.0  -0.476
  O  O319  1  0.244700  0.612000  0.892800  1.0  -0.5035
  O  O320  1  0.016300  0.538200  0.219400  1.0  -0.4751
