# generated using pymatgen
data_ZnH13C20N2O5
_symmetry_space_group_name_H-M   'P 1'
_cell_length_a   12.54600000
_cell_length_b   15.73400000
_cell_length_c   26.63300000
_cell_angle_alpha   90.00000000
_cell_angle_beta   90.00000000
_cell_angle_gamma   97.86900000
_symmetry_Int_Tables_number   1
_chemical_formula_structural   ZnH13C20N2O5
_chemical_formula_sum   'Zn8 H104 C160 N16 O40'
_cell_volume   5207.81667739
_cell_formula_units_Z   8
loop_
 _symmetry_equiv_pos_site_id
 _symmetry_equiv_pos_as_xyz
  1  'x, y, z'
loop_
 _atom_site_type_symbol
 _atom_site_label
 _atom_site_symmetry_multiplicity
 _atom_site_fract_x
 _atom_site_fract_y
 _atom_site_fract_z
 _atom_site_occupancy
 _atom_site_charge
  Zn  Zn1  1  0.308440  0.817440  0.748020  1.0  0.9455
  Zn  Zn2  1  0.852170  0.877690  0.256060  1.0  0.9599
  Zn  Zn3  1  0.147830  0.622310  0.756060  1.0  0.9586
  Zn  Zn4  1  0.691560  0.682560  0.248020  1.0  0.9445
  Zn  Zn5  1  0.147830  0.122310  0.743940  1.0  0.9581
  Zn  Zn6  1  0.308440  0.317440  0.751980  1.0  0.9455
  Zn  Zn7  1  0.691560  0.182560  0.251980  1.0  0.9447
  Zn  Zn8  1  0.852170  0.377690  0.243940  1.0  0.9591
  H  H9  1  0.117500  0.277600  0.286200  1.0  0.1052
  H  H10  1  0.923100  0.547600  0.733300  1.0  0.068
  H  H11  1  0.192700  0.872800  0.595700  1.0  0.1012
  H  H12  1  0.191100  0.077700  0.237900  1.0  0.13
  H  H13  1  0.499800  0.997100  0.422500  1.0  0.1163
  H  H14  1  0.043600  0.323800  0.812700  1.0  0.1283
  H  H15  1  0.578100  0.214200  0.788100  1.0  0.1037
  H  H16  1  0.647900  0.742000  0.895000  1.0  0.1257
  H  H17  1  0.479500  0.741700  0.336000  1.0  0.1047
  H  H18  1  0.145000  0.454200  0.806900  1.0  0.077
  H  H19  1  0.197000  0.909100  0.511900  1.0  0.1334
  H  H20  1  0.631700  0.974700  0.365400  1.0  0.0939
  H  H21  1  0.855000  0.045800  0.306900  1.0  0.0774
  H  H22  1  0.946700  0.700900  0.854600  1.0  0.1071
  H  H23  1  0.105300  0.936900  0.852300  1.0  0.0996
  H  H24  1  0.002100  0.824100  0.088200  1.0  0.1061
  H  H25  1  0.894700  0.563100  0.352300  1.0  0.0998
  H  H26  1  0.701800  0.918100  0.019500  1.0  0.1363
  H  H27  1  0.352100  0.758000  0.395000  1.0  0.1254
  H  H28  1  0.808900  0.422300  0.737900  1.0  0.1305
  H  H29  1  0.500200  0.502900  0.922500  1.0  0.1165
  H  H30  1  0.541600  0.890200  0.733100  1.0  0.0882
  H  H31  1  0.716800  0.907700  0.104600  1.0  0.096
  H  H32  1  0.309700  0.983900  0.802200  1.0  0.0799
  H  H33  1  0.479000  0.826100  0.496600  1.0  0.121
  H  H34  1  0.017000  0.668300  0.502100  1.0  0.1155
  H  H35  1  0.690300  0.516100  0.302200  1.0  0.0795
  H  H36  1  0.076900  0.952400  0.233300  1.0  0.0673
  H  H37  1  0.480500  0.795000  0.582000  1.0  0.1086
  H  H38  1  0.803000  0.590900  0.011900  1.0  0.133
  H  H39  1  0.421900  0.285800  0.288100  1.0  0.1039
  H  H40  1  0.519500  0.705000  0.082000  1.0  0.1089
  H  H41  1  0.413100  0.115900  0.808900  1.0  0.1247
  H  H42  1  0.163500  0.758800  0.416500  1.0  0.108
  H  H43  1  0.836500  0.741200  0.916500  1.0  0.1083
  H  H44  1  0.987200  0.977300  0.911500  1.0  0.1112
  H  H45  1  0.983000  0.831700  0.002100  1.0  0.1158
  H  H46  1  0.368300  0.525300  0.865400  1.0  0.0943
  H  H47  1  0.521000  0.673900  0.996600  1.0  0.1209
  H  H48  1  0.648400  0.017500  0.738300  1.0  0.1082
  H  H49  1  0.298200  0.581900  0.519500  1.0  0.1389
  H  H50  1  0.458400  0.609800  0.233100  1.0  0.0881
  H  H51  1  0.053300  0.799100  0.354600  1.0  0.1068
  H  H52  1  0.586900  0.384100  0.308900  1.0  0.1252
  H  H53  1  0.956400  0.176200  0.312700  1.0  0.1273
  H  H54  1  0.807300  0.627200  0.095700  1.0  0.1019
  H  H55  1  0.012800  0.522700  0.411500  1.0  0.1106
  H  H56  1  0.351600  0.482500  0.238300  1.0  0.1083
  H  H57  1  0.997900  0.675900  0.588200  1.0  0.1052
  H  H58  1  0.520500  0.758300  0.836000  1.0  0.1046
  H  H59  1  0.283200  0.592300  0.604600  1.0  0.0965
  H  H60  1  0.882500  0.222400  0.786200  1.0  0.1057
  H  H61  1  0.368300  0.025300  0.634600  1.0  0.0939
  H  H62  1  0.882500  0.722400  0.713800  1.0  0.1048
  H  H63  1  0.987200  0.477300  0.588500  1.0  0.1117
  H  H64  1  0.500200  0.002900  0.577500  1.0  0.1168
  H  H65  1  0.458400  0.109800  0.266900  1.0  0.0882
  H  H66  1  0.807300  0.127200  0.404300  1.0  0.1022
  H  H67  1  0.197000  0.409100  0.988100  1.0  0.1332
  H  H68  1  0.012800  0.022700  0.088500  1.0  0.1113
  H  H69  1  0.983000  0.331700  0.497900  1.0  0.1155
  H  H70  1  0.578100  0.714200  0.711900  1.0  0.1039
  H  H71  1  0.283200  0.092300  0.895400  1.0  0.0972
  H  H72  1  0.105300  0.436900  0.647700  1.0  0.0993
  H  H73  1  0.479000  0.326100  0.003400  1.0  0.121
  H  H74  1  0.520500  0.258300  0.664000  1.0  0.1043
  H  H75  1  0.803000  0.090900  0.488100  1.0  0.1337
  H  H76  1  0.499800  0.497100  0.077500  1.0  0.1168
  H  H77  1  0.521000  0.173900  0.503400  1.0  0.1208
  H  H78  1  0.519500  0.205000  0.418000  1.0  0.1091
  H  H79  1  0.351600  0.982500  0.261700  1.0  0.1081
  H  H80  1  0.836500  0.241200  0.583500  1.0  0.1084
  H  H81  1  0.163500  0.258800  0.083500  1.0  0.108
  H  H82  1  0.421900  0.785800  0.211900  1.0  0.1035
  H  H83  1  0.480500  0.295000  0.918000  1.0  0.1083
  H  H84  1  0.192700  0.372800  0.904300  1.0  0.1014
  H  H85  1  0.997900  0.175900  0.911800  1.0  0.1056
  H  H86  1  0.586900  0.884100  0.191100  1.0  0.125
  H  H87  1  0.309700  0.483900  0.697800  1.0  0.0794
  H  H88  1  0.647900  0.242000  0.605000  1.0  0.1257
  H  H89  1  0.923100  0.047600  0.766700  1.0  0.0675
  H  H90  1  0.076900  0.452400  0.266700  1.0  0.0675
  H  H91  1  0.716800  0.407700  0.395400  1.0  0.0964
  H  H92  1  0.701800  0.418100  0.480500  1.0  0.1379
  H  H93  1  0.946700  0.200900  0.645400  1.0  0.1066
  H  H94  1  0.117500  0.777600  0.213800  1.0  0.105
  H  H95  1  0.956400  0.676200  0.187300  1.0  0.1277
  H  H96  1  0.002100  0.324100  0.411800  1.0  0.1062
  H  H97  1  0.894700  0.063100  0.147700  1.0  0.0993
  H  H98  1  0.053300  0.299100  0.145400  1.0  0.1065
  H  H99  1  0.017000  0.168300  0.997900  1.0  0.1153
  H  H100  1  0.043600  0.823800  0.687300  1.0  0.1284
  H  H101  1  0.808900  0.922300  0.762100  1.0  0.1304
  H  H102  1  0.855000  0.545800  0.193100  1.0  0.0764
  H  H103  1  0.631700  0.474700  0.134600  1.0  0.0936
  H  H104  1  0.690300  0.016100  0.197800  1.0  0.0791
  H  H105  1  0.648400  0.517500  0.761700  1.0  0.108
  H  H106  1  0.413100  0.615900  0.691100  1.0  0.1248
  H  H107  1  0.541600  0.390200  0.766900  1.0  0.0884
  H  H108  1  0.298200  0.081900  0.980500  1.0  0.1372
  H  H109  1  0.479500  0.241700  0.164000  1.0  0.1044
  H  H110  1  0.145000  0.954200  0.693100  1.0  0.0761
  H  H111  1  0.191100  0.577700  0.262100  1.0  0.13
  H  H112  1  0.352100  0.258000  0.105000  1.0  0.1254
  C  C113  1  0.407500  0.802200  0.388400  1.0  -0.2692
  C  C114  1  0.950500  0.603000  0.364100  1.0  -0.0204
  C  C115  1  0.036500  0.813900  0.845890  1.0  -0.0784
  C  C116  1  0.592500  0.697800  0.888400  1.0  -0.2665
  C  C117  1  0.843500  0.877700  0.003360  1.0  0.2914
  C  C118  1  0.516100  0.707200  0.853900  1.0  -0.035
  C  C119  1  0.148200  0.230100  0.275700  1.0  0.1466
  C  C120  1  0.085500  0.144200  0.274900  1.0  0.0079
  C  C121  1  0.378500  0.991500  0.788360  1.0  0.1826
  C  C122  1  0.392500  0.333000  0.276100  1.0  0.1068
  C  C123  1  0.077000  0.446600  0.792320  1.0  0.1897
  C  C124  1  0.650500  0.840900  0.306700  1.0  0.6994
  C  C125  1  0.422200  0.817500  0.568220  1.0  -0.0298
  C  C126  1  0.414000  0.880500  0.414100  1.0  0.2469
  C  C127  1  0.228500  0.607200  0.584160  1.0  -0.005
  C  C128  1  0.440500  0.070900  0.793000  1.0  -0.1861
  C  C129  1  0.496300  0.945200  0.405500  1.0  -0.2272
  C  C130  1  0.059100  0.657400  0.574710  1.0  -0.0909
  C  C131  1  0.946600  0.501200  0.749560  1.0  0.1823
  C  C132  1  0.514800  0.936500  0.747790  1.0  0.1581
  C  C133  1  0.662100  0.668600  0.098470  1.0  -0.1511
  C  C134  1  0.577900  0.663500  0.017100  1.0  -0.1593
  C  C135  1  0.110700  0.786900  0.807480  1.0  0.6922
  C  C136  1  0.889300  0.713100  0.307480  1.0  0.6926
  C  C137  1  0.138700  0.635700  0.606460  1.0  -0.0696
  C  C138  1  0.542600  0.082300  0.773850  1.0  0.0321
  C  C139  1  0.771500  0.892800  0.084160  1.0  -0.0047
  C  C140  1  0.578900  0.012100  0.751240  1.0  -0.1036
  C  C141  1  0.930300  0.848200  0.023110  1.0  -0.1502
  C  C142  1  0.349500  0.659100  0.806700  1.0  0.7003
  C  C143  1  0.748000  0.635500  0.076300  1.0  -0.0207
  C  C144  1  0.607500  0.167000  0.776100  1.0  0.112
  C  C145  1  0.979500  0.921000  0.900000  1.0  -0.2065
  C  C146  1  0.125300  0.637800  0.660410  1.0  0.6535
  C  C147  1  0.956500  0.757300  0.865900  1.0  -0.0308
  C  C148  1  0.237700  0.600700  0.533620  1.0  -0.2322
  C  C149  1  0.043500  0.742700  0.365900  1.0  -0.0283
  C  C150  1  0.940900  0.842600  0.074710  1.0  -0.0908
  C  C151  1  0.337900  0.831400  0.598470  1.0  -0.152
  C  C152  1  0.049500  0.897000  0.864100  1.0  -0.0188
  C  C153  1  0.020500  0.579000  0.400000  1.0  -0.2053
  C  C154  1  0.586000  0.619500  0.914100  1.0  0.2481
  C  C155  1  0.746400  0.614900  0.026230  1.0  -0.224
  C  C156  1  0.122300  0.073500  0.251500  1.0  -0.1571
  C  C157  1  0.156500  0.622300  0.503360  1.0  0.2917
  C  C158  1  0.983100  0.131600  0.296150  1.0  -0.1593
  C  C159  1  0.431300  0.643100  0.844480  1.0  -0.1789
  C  C160  1  0.963500  0.686100  0.345890  1.0  -0.0798
  C  C161  1  0.574200  0.931800  0.370900  1.0  0.0099
  C  C162  1  0.422100  0.836500  0.517100  1.0  -0.1583
  C  C163  1  0.053400  0.998800  0.249560  1.0  0.1822
  C  C164  1  0.483900  0.792800  0.353900  1.0  -0.0359
  C  C165  1  0.457400  0.417700  0.273850  1.0  0.0351
  C  C166  1  0.877700  0.426500  0.751500  1.0  -0.1559
  C  C167  1  0.923000  0.053400  0.292320  1.0  0.189
  C  C168  1  0.559500  0.429100  0.293000  1.0  -0.1887
  C  C169  1  0.098900  0.636700  0.418000  1.0  0.2788
  C  C170  1  0.861300  0.864300  0.106460  1.0  -0.0703
  C  C171  1  0.338100  0.870200  0.498020  1.0  0.2669
  C  C172  1  0.661900  0.629800  0.998020  1.0  0.2743
  C  C173  1  0.485200  0.563500  0.247790  1.0  0.1581
  C  C174  1  0.914500  0.355800  0.774900  1.0  0.0088
  C  C175  1  0.889500  0.781400  0.902500  1.0  -0.2314
  C  C176  1  0.252000  0.864500  0.576300  1.0  -0.0211
  C  C177  1  0.901100  0.863300  0.918000  1.0  0.2758
  C  C178  1  0.110500  0.718600  0.402500  1.0  -0.2335
  C  C179  1  0.621500  0.508500  0.288360  1.0  0.1837
  C  C180  1  0.851800  0.269900  0.775700  1.0  0.1507
  C  C181  1  0.253600  0.885100  0.526230  1.0  -0.228
  C  C182  1  0.421100  0.487900  0.251240  1.0  -0.103
  C  C183  1  0.762300  0.899300  0.033620  1.0  -0.2379
  C  C184  1  0.659000  0.685300  0.153260  1.0  0.633
  C  C185  1  0.503700  0.554800  0.905500  1.0  -0.2262
  C  C186  1  0.069700  0.651800  0.523110  1.0  -0.1525
  C  C187  1  0.568700  0.856900  0.344480  1.0  -0.1779
  C  C188  1  0.577800  0.682500  0.068220  1.0  -0.0362
  C  C189  1  0.425800  0.568200  0.870900  1.0  0.0056
  C  C190  1  0.341000  0.814700  0.653260  1.0  0.6319
  C  C191  1  0.874700  0.862200  0.160410  1.0  0.6538
  C  C192  1  0.016900  0.368400  0.796150  1.0  -0.1598
  C  C193  1  0.110500  0.218600  0.097500  1.0  -0.2324
  C  C194  1  0.559500  0.929100  0.207000  1.0  -0.189
  C  C195  1  0.069700  0.151800  0.976890  1.0  -0.1496
  C  C196  1  0.574200  0.431800  0.129100  1.0  0.0101
  C  C197  1  0.228500  0.107200  0.915840  1.0  -0.0051
  C  C198  1  0.496300  0.445200  0.094500  1.0  -0.2262
  C  C199  1  0.746400  0.114900  0.473770  1.0  -0.2201
  C  C200  1  0.923000  0.553400  0.207680  1.0  0.1897
  C  C201  1  0.771500  0.392800  0.415840  1.0  -0.0048
  C  C202  1  0.901100  0.363300  0.582000  1.0  0.2756
  C  C203  1  0.979500  0.421000  0.600000  1.0  -0.2066
  C  C204  1  0.138700  0.135700  0.893540  1.0  -0.0693
  C  C205  1  0.110700  0.286900  0.692520  1.0  0.6925
  C  C206  1  0.578900  0.512100  0.748760  1.0  -0.1035
  C  C207  1  0.156500  0.122300  0.996640  1.0  0.291
  C  C208  1  0.020500  0.079000  0.100000  1.0  -0.2054
  C  C209  1  0.125300  0.137800  0.839590  1.0  0.6538
  C  C210  1  0.762300  0.399300  0.466380  1.0  -0.2368
  C  C211  1  0.621500  0.008500  0.211640  1.0  0.1847
  C  C212  1  0.843500  0.377700  0.496640  1.0  0.2905
  C  C213  1  0.237700  0.100700  0.966380  1.0  -0.2313
  C  C214  1  0.077000  0.946600  0.707680  1.0  0.1911
  C  C215  1  0.607500  0.667000  0.723900  1.0  0.1088
  C  C216  1  0.349500  0.159100  0.693300  1.0  0.7004
  C  C217  1  0.983100  0.631600  0.203850  1.0  -0.1594
  C  C218  1  0.431300  0.143100  0.655520  1.0  -0.1776
  C  C219  1  0.253600  0.385100  0.973770  1.0  -0.227
  C  C220  1  0.877700  0.926500  0.748500  1.0  -0.1568
  C  C221  1  0.516100  0.207200  0.646100  1.0  -0.0349
  C  C222  1  0.662100  0.168600  0.401530  1.0  -0.151
  C  C223  1  0.059100  0.157400  0.925290  1.0  -0.0904
  C  C224  1  0.485200  0.063500  0.252210  1.0  0.1584
  C  C225  1  0.043500  0.242700  0.134100  1.0  -0.0294
  C  C226  1  0.963500  0.186100  0.154110  1.0  -0.0799
  C  C227  1  0.659000  0.185300  0.346740  1.0  0.6323
  C  C228  1  0.851800  0.769900  0.724300  1.0  0.1548
  C  C229  1  0.874700  0.362200  0.339590  1.0  0.6534
  C  C230  1  0.483900  0.292800  0.146100  1.0  -0.0351
  C  C231  1  0.889500  0.281400  0.597500  1.0  -0.2312
  C  C232  1  0.085500  0.644200  0.225100  1.0  0.0072
  C  C233  1  0.414000  0.380500  0.085900  1.0  0.247
  C  C234  1  0.542600  0.582300  0.726150  1.0  0.0303
  C  C235  1  0.592500  0.197800  0.611600  1.0  -0.2675
  C  C236  1  0.650500  0.340900  0.193300  1.0  0.6994
  C  C237  1  0.122300  0.573500  0.248500  1.0  -0.1568
  C  C238  1  0.940900  0.342600  0.425290  1.0  -0.0912
  C  C239  1  0.748000  0.135500  0.423700  1.0  -0.0217
  C  C240  1  0.950500  0.103000  0.135900  1.0  -0.0164
  C  C241  1  0.577800  0.182500  0.431780  1.0  -0.0307
  C  C242  1  0.956500  0.257300  0.634100  1.0  -0.0314
  C  C243  1  0.586000  0.119500  0.585900  1.0  0.2482
  C  C244  1  0.440500  0.570900  0.707000  1.0  -0.1861
  C  C245  1  0.861300  0.364300  0.393540  1.0  -0.0698
  C  C246  1  0.889300  0.213100  0.192520  1.0  0.6927
  C  C247  1  0.946600  0.001200  0.750440  1.0  0.1832
  C  C248  1  0.422200  0.317500  0.931780  1.0  -0.0366
  C  C249  1  0.914500  0.855800  0.725100  1.0  0.0056
  C  C250  1  0.148200  0.730100  0.224300  1.0  0.1496
  C  C251  1  0.016900  0.868400  0.703850  1.0  -0.1601
  C  C252  1  0.457400  0.917700  0.226150  1.0  0.0308
  C  C253  1  0.036500  0.313900  0.654110  1.0  -0.0791
  C  C254  1  0.338100  0.370200  0.001980  1.0  0.2747
  C  C255  1  0.930300  0.348200  0.476890  1.0  -0.1487
  C  C256  1  0.422100  0.336500  0.982900  1.0  -0.1581
  C  C257  1  0.568700  0.356900  0.155520  1.0  -0.1768
  C  C258  1  0.503700  0.054800  0.594500  1.0  -0.227
  C  C259  1  0.407500  0.302200  0.111600  1.0  -0.2701
  C  C260  1  0.378500  0.491500  0.711640  1.0  0.1833
  C  C261  1  0.421100  0.987900  0.248760  1.0  -0.1029
  C  C262  1  0.049500  0.397000  0.635900  1.0  -0.0183
  C  C263  1  0.661900  0.129800  0.501980  1.0  0.2747
  C  C264  1  0.098900  0.136700  0.082000  1.0  0.2788
  C  C265  1  0.514800  0.436500  0.752210  1.0  0.1579
  C  C266  1  0.392500  0.833000  0.223900  1.0  0.1078
  C  C267  1  0.053400  0.498800  0.250440  1.0  0.1832
  C  C268  1  0.577900  0.163500  0.482900  1.0  -0.1553
  C  C269  1  0.252000  0.364500  0.923700  1.0  -0.0207
  C  C270  1  0.337900  0.331400  0.901530  1.0  -0.1508
  C  C271  1  0.425800  0.068200  0.629100  1.0  0.0115
  C  C272  1  0.341000  0.314700  0.846740  1.0  0.6314
  N  N273  1  0.955200  0.987200  0.269060  1.0  -0.3222
  N  N274  1  0.294500  0.325000  0.261300  1.0  -0.2362
  N  N275  1  0.412800  0.925800  0.765040  1.0  -0.3228
  N  N276  1  0.587200  0.574200  0.265040  1.0  -0.3226
  N  N277  1  0.705500  0.175000  0.761300  1.0  -0.2371
  N  N278  1  0.044800  0.512800  0.769060  1.0  -0.3201
  N  N279  1  0.245600  0.237300  0.261600  1.0  -0.1861
  N  N280  1  0.754400  0.262700  0.761600  1.0  -0.1859
  N  N281  1  0.587200  0.074200  0.234960  1.0  -0.3219
  N  N282  1  0.754400  0.762700  0.738400  1.0  -0.1862
  N  N283  1  0.412800  0.425800  0.734960  1.0  -0.322
  N  N284  1  0.705500  0.675000  0.738700  1.0  -0.2371
  N  N285  1  0.245600  0.737300  0.238400  1.0  -0.1869
  N  N286  1  0.955200  0.487200  0.230940  1.0  -0.3217
  N  N287  1  0.044800  0.012800  0.730940  1.0  -0.3205
  N  N288  1  0.294500  0.825000  0.238700  1.0  -0.2369
  O  O289  1  0.958100  0.843100  0.180110  1.0  -0.61
  O  O290  1  0.914300  0.786600  0.289960  1.0  -0.6185
  O  O291  1  0.580500  0.710100  0.172820  1.0  -0.5875
  O  O292  1  0.419500  0.789900  0.672820  1.0  -0.5871
  O  O293  1  0.259100  0.830100  0.679410  1.0  -0.5875
  O  O294  1  0.733100  0.894700  0.302450  1.0  -0.5891
  O  O295  1  0.085700  0.713400  0.789960  1.0  -0.6192
  O  O296  1  0.809000  0.661400  0.294720  1.0  -0.6022
  O  O297  1  0.796800  0.881300  0.188250  1.0  -0.601
  O  O298  1  0.266900  0.605300  0.802450  1.0  -0.5897
  O  O299  1  0.173700  0.611600  0.451910  1.0  -0.2728
  O  O300  1  0.826300  0.888400  0.951910  1.0  -0.2711
  O  O301  1  0.669100  0.605300  0.947300  1.0  -0.3064
  O  O302  1  0.368900  0.725600  0.781690  1.0  -0.6311
  O  O303  1  0.203200  0.618700  0.688250  1.0  -0.6008
  O  O304  1  0.631100  0.774400  0.281690  1.0  -0.6337
  O  O305  1  0.330900  0.894700  0.447300  1.0  -0.304
  O  O306  1  0.740900  0.669900  0.179410  1.0  -0.5872
  O  O307  1  0.041900  0.656900  0.680110  1.0  -0.6103
  O  O308  1  0.191000  0.838600  0.794720  1.0  -0.6011
  O  O309  1  0.259100  0.330100  0.820590  1.0  -0.5884
  O  O310  1  0.669100  0.105300  0.552700  1.0  -0.3049
  O  O311  1  0.796800  0.381300  0.311750  1.0  -0.5999
  O  O312  1  0.266900  0.105300  0.697550  1.0  -0.5901
  O  O313  1  0.914300  0.286600  0.210040  1.0  -0.6187
  O  O314  1  0.191000  0.338600  0.705280  1.0  -0.6002
  O  O315  1  0.631100  0.274400  0.218310  1.0  -0.6344
  O  O316  1  0.826300  0.388400  0.548090  1.0  -0.2721
  O  O317  1  0.368900  0.225600  0.718310  1.0  -0.6323
  O  O318  1  0.958100  0.343100  0.319890  1.0  -0.6099
  O  O319  1  0.330900  0.394700  0.052700  1.0  -0.3046
  O  O320  1  0.809000  0.161400  0.205280  1.0  -0.6011
  O  O321  1  0.419500  0.289900  0.827180  1.0  -0.5867
  O  O322  1  0.580500  0.210100  0.327180  1.0  -0.5873
  O  O323  1  0.041900  0.156900  0.819890  1.0  -0.6101
  O  O324  1  0.740900  0.169900  0.320590  1.0  -0.5884
  O  O325  1  0.085700  0.213400  0.710040  1.0  -0.6196
  O  O326  1  0.203200  0.118700  0.811750  1.0  -0.601
  O  O327  1  0.733100  0.394700  0.197550  1.0  -0.5897
  O  O328  1  0.173700  0.111600  0.048090  1.0  -0.2736
