# generated using pymatgen
data_NiH28C41(N3O2)2
_symmetry_space_group_name_H-M   'P 1'
_cell_length_a   8.85700000
_cell_length_b   16.09700000
_cell_length_c   31.57400000
_cell_angle_alpha   90.00000000
_cell_angle_beta   90.00000000
_cell_angle_gamma   92.15200000
_symmetry_Int_Tables_number   1
_chemical_formula_structural   NiH28C41(N3O2)2
_chemical_formula_sum   'Ni4 H112 C164 N24 O16'
_cell_volume   4498.36600483
_cell_formula_units_Z   4
loop_
 _symmetry_equiv_pos_site_id
 _symmetry_equiv_pos_as_xyz
  1  'x, y, z'
loop_
 _atom_site_type_symbol
 _atom_site_label
 _atom_site_symmetry_multiplicity
 _atom_site_fract_x
 _atom_site_fract_y
 _atom_site_fract_z
 _atom_site_occupancy
 _atom_site_charge
  Ni  Ni1  1  0.324230  0.017470  0.333930  1.0  0.8556
  Ni  Ni2  1  0.824230  0.517470  0.166070  1.0  0.8556
  Ni  Ni3  1  0.675770  0.982530  0.666070  1.0  0.8563
  Ni  Ni4  1  0.175770  0.482530  0.833930  1.0  0.8564
  H  H5  1  0.490800  0.217200  0.463500  1.0  0.1083
  H  H6  1  0.017900  0.625100  0.445100  1.0  0.1017
  H  H7  1  0.292800  0.935000  0.867300  1.0  0.1092
  H  H8  1  0.703700  0.008100  0.345700  1.0  0.0947
  H  H9  1  0.844700  0.092700  0.055100  1.0  0.1072
  H  H10  1  0.513500  0.946600  0.203700  1.0  0.1051
  H  H11  1  0.533600  0.765900  0.293200  1.0  0.1075
  H  H12  1  0.081800  0.887500  0.176700  1.0  0.1273
  H  H13  1  0.647700  0.381600  0.883500  1.0  0.1181
  H  H14  1  0.043500  0.026600  0.662300  1.0  0.1074
  H  H15  1  0.831300  0.533000  0.454200  1.0  0.1044
  H  H16  1  0.418200  0.612500  0.676700  1.0  0.1281
  H  H17  1  0.279600  0.151400  0.933500  1.0  0.1016
  H  H18  1  0.210700  0.032000  0.725000  1.0  0.1172
  H  H19  1  0.509200  0.782800  0.536500  1.0  0.109
  H  H20  1  0.996700  0.883700  0.106600  1.0  0.0927
  H  H21  1  0.037400  0.002400  0.540900  1.0  0.1194
  H  H22  1  0.982100  0.374900  0.554900  1.0  0.1021
  H  H23  1  0.204600  0.235700  0.471800  1.0  0.1099
  H  H24  1  0.475300  0.661800  0.496500  1.0  0.1111
  H  H25  1  0.268000  0.640900  0.888900  1.0  0.0944
  H  H26  1  0.127400  0.744700  0.414900  1.0  0.1221
  H  H27  1  0.852300  0.118400  0.383500  1.0  0.1179
  H  H28  1  0.003300  0.116300  0.893400  1.0  0.0924
  H  H29  1  0.543500  0.526600  0.837700  1.0  0.1047
  H  H30  1  0.289300  0.468000  0.225000  1.0  0.1172
  H  H31  1  0.352300  0.618400  0.116500  1.0  0.1179
  H  H32  1  0.100000  0.600100  0.564400  1.0  0.0984
  H  H33  1  0.295400  0.264300  0.971800  1.0  0.1106
  H  H34  1  0.486500  0.053400  0.796300  1.0  0.1049
  H  H35  1  0.986500  0.553400  0.703700  1.0  0.1048
  H  H36  1  0.796300  0.491900  0.845700  1.0  0.0947
  H  H37  1  0.135500  0.720200  0.605300  1.0  0.1077
  H  H38  1  0.711900  0.433600  0.703100  1.0  0.122
  H  H39  1  0.872600  0.255300  0.585100  1.0  0.1214
  H  H40  1  0.655300  0.407300  0.555100  1.0  0.1083
  H  H41  1  0.864500  0.279800  0.394700  1.0  0.1065
  H  H42  1  0.768000  0.140900  0.611100  1.0  0.0944
  H  H43  1  0.364500  0.779800  0.105300  1.0  0.1076
  H  H44  1  0.024700  0.838200  0.996500  1.0  0.1113
  H  H45  1  0.456500  0.473400  0.162300  1.0  0.1071
  H  H46  1  0.627400  0.244700  0.085100  1.0  0.1222
  H  H47  1  0.218400  0.989200  0.236800  1.0  0.1003
  H  H48  1  0.344700  0.592700  0.444900  1.0  0.1074
  H  H49  1  0.788100  0.066400  0.203100  1.0  0.1222
  H  H50  1  0.629500  0.675500  0.242500  1.0  0.0951
  H  H51  1  0.462600  0.497600  0.040900  1.0  0.1193
  H  H52  1  0.211900  0.933600  0.796900  1.0  0.121
  H  H53  1  0.707200  0.065000  0.132700  1.0  0.1099
  H  H54  1  0.537400  0.502400  0.959100  1.0  0.1191
  H  H55  1  0.033600  0.265900  0.206800  1.0  0.1076
  H  H56  1  0.113600  0.089700  0.411200  1.0  0.1056
  H  H57  1  0.918200  0.112500  0.823300  1.0  0.128
  H  H58  1  0.013500  0.446600  0.296300  1.0  0.1049
  H  H59  1  0.482100  0.874900  0.945100  1.0  0.1018
  H  H60  1  0.207200  0.565000  0.367300  1.0  0.1101
  H  H61  1  0.581800  0.387500  0.323300  1.0  0.1272
  H  H62  1  0.386400  0.410300  0.911200  1.0  0.1059
  H  H63  1  0.466400  0.234100  0.706800  1.0  0.1083
  H  H64  1  0.496700  0.383700  0.393400  1.0  0.0929
  H  H65  1  0.870500  0.824500  0.742500  1.0  0.0948
  H  H66  1  0.792800  0.435000  0.632700  1.0  0.1093
  H  H67  1  0.600000  0.100100  0.935600  1.0  0.0981
  H  H68  1  0.795400  0.764300  0.528200  1.0  0.1107
  H  H69  1  0.718400  0.489200  0.263200  1.0  0.1003
  H  H70  1  0.900000  0.399900  0.435600  1.0  0.0978
  H  H71  1  0.168700  0.467000  0.545800  1.0  0.1043
  H  H72  1  0.129500  0.175500  0.257500  1.0  0.0949
  H  H73  1  0.596400  0.853400  0.152400  1.0  0.0987
  H  H74  1  0.009200  0.282800  0.963500  1.0  0.1088
  H  H75  1  0.613600  0.589700  0.088800  1.0  0.1051
  H  H76  1  0.720400  0.848600  0.066500  1.0  0.1019
  H  H77  1  0.400000  0.899900  0.064400  1.0  0.098
  H  H78  1  0.732000  0.359100  0.111100  1.0  0.0937
  H  H79  1  0.203700  0.508100  0.154300  1.0  0.0951
  H  H80  1  0.779600  0.651400  0.566500  1.0  0.1017
  H  H81  1  0.588400  0.839300  0.604100  1.0  0.0968
  H  H82  1  0.886400  0.910300  0.588800  1.0  0.1061
  H  H83  1  0.403600  0.146600  0.847600  1.0  0.0986
  H  H84  1  0.147700  0.881600  0.616500  1.0  0.118
  H  H85  1  0.288100  0.566400  0.296900  1.0  0.1224
  H  H86  1  0.281600  0.510800  0.736800  1.0  0.1006
  H  H87  1  0.100100  0.115800  0.502800  1.0  0.1068
  H  H88  1  0.781600  0.010800  0.763200  1.0  0.1008
  H  H89  1  0.399900  0.384200  0.002800  1.0  0.1071
  H  H90  1  0.331300  0.033000  0.045800  1.0  0.1042
  H  H91  1  0.372600  0.755300  0.914900  1.0  0.1223
  H  H92  1  0.962600  0.997600  0.459100  1.0  0.1191
  H  H93  1  0.232000  0.859100  0.388900  1.0  0.0935
  H  H94  1  0.096400  0.353400  0.347600  1.0  0.0983
  H  H95  1  0.668700  0.967000  0.954200  1.0  0.1043
  H  H96  1  0.789300  0.968000  0.275000  1.0  0.1172
  H  H97  1  0.296300  0.991900  0.654300  1.0  0.0943
  H  H98  1  0.220400  0.348600  0.433500  1.0  0.1009
  H  H99  1  0.903600  0.646600  0.652400  1.0  0.0991
  H  H100  1  0.503300  0.616300  0.606600  1.0  0.0928
  H  H101  1  0.088400  0.339300  0.895900  1.0  0.0972
  H  H102  1  0.710700  0.532000  0.775000  1.0  0.117
  H  H103  1  0.411600  0.160700  0.395900  1.0  0.0965
  H  H104  1  0.911600  0.660700  0.104100  1.0  0.0962
  H  H105  1  0.635500  0.220200  0.894700  1.0  0.1075
  H  H106  1  0.990800  0.717200  0.036500  1.0  0.1083
  H  H107  1  0.517900  0.125100  0.054900  1.0  0.102
  H  H108  1  0.155300  0.907300  0.944900  1.0  0.1078
  H  H109  1  0.956500  0.973400  0.337700  1.0  0.1066
  H  H110  1  0.975300  0.161800  0.003500  1.0  0.1107
  H  H111  1  0.899900  0.884200  0.497200  1.0  0.1055
  H  H112  1  0.600100  0.615800  0.997200  1.0  0.1052
  H  H113  1  0.704600  0.735700  0.028200  1.0  0.1103
  H  H114  1  0.524700  0.338200  0.503500  1.0  0.1108
  H  H115  1  0.966400  0.734100  0.793200  1.0  0.1079
  H  H116  1  0.370500  0.324500  0.757500  1.0  0.0949
  C  C117  1  0.709400  0.528720  0.567500  1.0  -0.0033
  C  C118  1  0.923300  0.831330  0.486130  1.0  -0.1217
  C  C119  1  0.195200  0.957370  0.957220  1.0  -0.1145
  C  C120  1  0.519300  0.326360  0.048000  1.0  0.1522
  C  C121  1  0.462600  0.925620  0.286250  1.0  0.6405
  C  C122  1  0.105000  0.230290  0.265450  1.0  -0.0649
  C  C123  1  0.390100  0.181950  0.011140  1.0  0.0545
  C  C124  1  0.179900  0.395530  0.492320  1.0  0.0245
  C  C125  1  0.594000  0.326730  0.481500  1.0  -0.1409
  C  C126  1  0.489100  0.475200  0.190950  1.0  0.008
  C  C127  1  0.076700  0.168670  0.513870  1.0  -0.1205
  C  C128  1  0.510900  0.524800  0.809050  1.0  0.0087
  C  C129  1  0.576700  0.668670  0.986130  1.0  -0.1182
  C  C130  1  0.330400  0.529210  0.316580  1.0  -0.1259
  C  C131  1  0.412800  0.163800  0.818890  1.0  -0.038
  C  C132  1  0.427000  0.745060  0.542510  1.0  -0.1737
  C  C133  1  0.440500  0.476140  0.303680  1.0  0.151
  C  C134  1  0.537400  0.074380  0.713750  1.0  0.6402
  C  C135  1  0.698900  0.968170  0.983050  1.0  -0.1027
  C  C136  1  0.663000  0.053330  0.360740  1.0  0.0219
  C  C137  1  0.830400  0.029210  0.183420  1.0  -0.126
  C  C138  1  0.618300  0.530850  0.087440  1.0  -0.0009
  C  C139  1  0.820100  0.604470  0.507680  1.0  0.0235
  C  C140  1  0.008100  0.322040  0.544320  1.0  -0.1469
  C  C141  1  0.784200  0.117750  0.973650  1.0  0.0419
  C  C142  1  0.828600  0.261940  0.924790  1.0  0.1253
  C  C143  1  0.815800  0.363150  0.441110  1.0  -0.1186
  C  C144  1  0.536200  0.891480  0.211580  1.0  -0.0362
  C  C145  1  0.896600  0.972200  0.274840  1.0  -0.0986
  C  C146  1  0.963800  0.608520  0.711580  1.0  -0.0359
  C  C147  1  0.491900  0.177960  0.044320  1.0  -0.1448
  C  C148  1  0.657400  0.527220  0.612560  1.0  0.0177
  C  C149  1  0.463800  0.108520  0.788420  1.0  -0.0357
  C  C150  1  0.282000  0.528060  0.358340  1.0  -0.1414
  C  C151  1  0.003200  0.635950  0.111960  1.0  0.152
  C  C152  1  0.518500  0.866100  0.253570  1.0  -0.131
  C  C153  1  0.782000  0.028060  0.141660  1.0  -0.1411
  C  C154  1  0.535600  0.480670  0.060840  1.0  -0.1269
  C  C155  1  0.671400  0.238060  0.424790  1.0  0.125
  C  C156  1  0.868200  0.016510  0.745540  1.0  0.1662
  C  C157  1  0.049800  0.284410  0.235060  1.0  -0.0576
  C  C158  1  0.450200  0.215590  0.735060  1.0  -0.0586
  C  C159  1  0.209400  0.028720  0.932500  1.0  -0.0038
  C  C160  1  0.695200  0.457370  0.542780  1.0  -0.1132
  C  C161  1  0.245300  0.613370  0.118460  1.0  -0.0938
  C  C162  1  0.605000  0.730290  0.234550  1.0  -0.0639
  C  C163  1  0.728900  0.897590  0.049750  1.0  -0.0892
  C  C164  1  0.669600  0.470790  0.683420  1.0  -0.1269
  C  C165  1  0.124400  0.256200  0.307420  1.0  -0.1391
  C  C166  1  0.812300  0.803020  0.659920  1.0  0.6637
  C  C167  1  0.163000  0.553330  0.139260  1.0  0.0215
  C  C168  1  0.046100  0.078940  0.873910  1.0  -0.1259
  C  C169  1  0.316800  0.594480  0.900450  1.0  0.1169
  C  C170  1  0.406000  0.673270  0.518500  1.0  -0.1422
  C  C171  1  0.503200  0.135950  0.388040  1.0  0.1515
  C  C172  1  0.059500  0.023860  0.803680  1.0  0.1504
  C  C173  1  0.187700  0.196980  0.340080  1.0  0.6633
  C  C174  1  0.443000  0.750770  0.937430  1.0  -0.1376
  C  C175  1  0.508100  0.822040  0.955680  1.0  -0.1467
  C  C176  1  0.395000  0.269710  0.765450  1.0  -0.0648
  C  C177  1  0.103400  0.027800  0.725160  1.0  -0.0984
  C  C178  1  0.989100  0.975200  0.309050  1.0  0.0009
  C  C179  1  0.004200  0.922780  0.167860  1.0  -0.1254
  C  C180  1  0.035600  0.980670  0.439160  1.0  -0.1263
  C  C181  1  0.171400  0.738060  0.075210  1.0  0.1249
  C  C182  1  0.037400  0.574380  0.786250  1.0  0.6404
  C  C183  1  0.464400  0.519330  0.939160  1.0  -0.1275
  C  C184  1  0.704800  0.208210  0.916630  1.0  -0.1868
  C  C185  1  0.738600  0.457860  0.500180  1.0  -0.0134
  C  C186  1  0.895000  0.769710  0.734550  1.0  -0.0652
  C  C187  1  0.254700  0.886630  0.618460  1.0  -0.0855
  C  C188  1  0.842600  0.972780  0.112560  1.0  0.0196
  C  C189  1  0.573000  0.254940  0.457490  1.0  -0.1742
  C  C190  1  0.890100  0.681950  0.488860  1.0  0.0528
  C  C191  1  0.381700  0.469150  0.912560  1.0  -0.0021
  C  C192  1  0.639700  0.740340  0.004460  1.0  -0.1253
  C  C193  1  0.019300  0.826360  0.452000  1.0  0.1524
  C  C194  1  0.018500  0.366100  0.246430  1.0  -0.1321
  C  C195  1  0.261400  0.542140  0.499820  1.0  -0.0133
  C  C196  1  0.996800  0.364050  0.888040  1.0  0.1514
  C  C197  1  0.761400  0.042140  0.000180  1.0  -0.0128
  C  C198  1  0.624400  0.756200  0.192580  1.0  -0.1373
  C  C199  1  0.238600  0.957860  0.999820  1.0  -0.0138
  C  C200  1  0.801100  0.531830  0.483050  1.0  -0.1018
  C  C201  1  0.271100  0.102410  0.950250  1.0  -0.0879
  C  C202  1  0.718000  0.471940  0.641660  1.0  -0.1416
  C  C203  1  0.183200  0.905520  0.400450  1.0  0.1194
  C  C204  1  0.795200  0.291790  0.416630  1.0  -0.1853
  C  C205  1  0.603400  0.527800  0.774840  1.0  -0.0989
  C  C206  1  0.480700  0.673640  0.952000  1.0  0.1519
  C  C207  1  0.940500  0.976140  0.196320  1.0  0.1507
  C  C208  1  0.687700  0.696980  0.159920  1.0  0.6638
  C  C209  1  0.557000  0.249230  0.062570  1.0  -0.1399
  C  C210  1  0.981500  0.633900  0.753570  1.0  -0.1319
  C  C211  1  0.950200  0.715590  0.764940  1.0  -0.0606
  C  C212  1  0.423300  0.331330  0.013870  1.0  -0.117
  C  C213  1  0.504200  0.422780  0.332140  1.0  -0.1265
  C  C214  1  0.204800  0.708210  0.583370  1.0  -0.1883
  C  C215  1  0.320100  0.104470  0.992320  1.0  0.0238
  C  C216  1  0.546100  0.578940  0.626090  1.0  -0.1253
  C  C217  1  0.337000  0.946670  0.639260  1.0  0.0217
  C  C218  1  0.559500  0.523860  0.696320  1.0  0.1499
  C  C219  1  0.609900  0.818050  0.988860  1.0  0.0531
  C  C220  1  0.036200  0.391480  0.288420  1.0  -0.0366
  C  C221  1  0.368200  0.516510  0.754460  1.0  0.1665
  C  C222  1  0.587200  0.836200  0.181110  1.0  -0.0373
  C  C223  1  0.684200  0.136850  0.941110  1.0  -0.1171
  C  C224  1  0.157400  0.027220  0.887440  1.0  0.0189
  C  C225  1  0.745300  0.113370  0.381540  1.0  -0.0861
  C  C226  1  0.906000  0.173270  0.981500  1.0  -0.1408
  C  C227  1  0.109900  0.318050  0.511140  1.0  0.0538
  C  C228  1  0.218000  0.971940  0.858340  1.0  -0.1425
  C  C229  1  0.057000  0.749230  0.437430  1.0  -0.1391
  C  C230  1  0.087200  0.336200  0.318890  1.0  -0.038
  C  C231  1  0.631800  0.483490  0.245540  1.0  0.1669
  C  C232  1  0.169600  0.970790  0.816580  1.0  -0.1263
  C  C233  1  0.943000  0.250770  0.562570  1.0  -0.1386
  C  C234  1  0.295200  0.791790  0.083370  1.0  -0.1862
  C  C235  1  0.953900  0.921060  0.126090  1.0  -0.1266
  C  C236  1  0.328600  0.761940  0.575210  1.0  0.1253
  C  C237  1  0.995800  0.077220  0.832140  1.0  -0.1257
  C  C238  1  0.290600  0.471280  0.432500  1.0  -0.0043
  C  C239  1  0.301100  0.031830  0.016950  1.0  -0.1023
  C  C240  1  0.228900  0.397590  0.450250  1.0  -0.0888
  C  C241  1  0.396600  0.472200  0.225160  1.0  -0.0984
  C  C242  1  0.964400  0.019330  0.560840  1.0  -0.1248
  C  C243  1  0.312300  0.303020  0.840080  1.0  0.6629
  C  C244  1  0.495800  0.577220  0.667860  1.0  -0.1266
  C  C245  1  0.481500  0.133900  0.746430  1.0  -0.1327
  C  C246  1  0.837000  0.446670  0.860740  1.0  0.0221
  C  C247  1  0.754700  0.386630  0.881540  1.0  -0.0861
  C  C248  1  0.073000  0.754940  0.042510  1.0  -0.1757
  C  C249  1  0.980700  0.173640  0.548000  1.0  0.1518
  C  C250  1  0.804800  0.042630  0.042780  1.0  -0.1142
  C  C251  1  0.715800  0.382250  0.473650  1.0  0.042
  C  C252  1  0.315800  0.863150  0.058890  1.0  -0.1183
  C  C253  1  0.860300  0.759660  0.504460  1.0  -0.1231
  C  C254  1  0.991900  0.677960  0.455680  1.0  -0.1458
  C  C255  1  0.683200  0.405520  0.099550  1.0  0.1199
  C  C256  1  0.875600  0.743800  0.692580  1.0  -0.1376
  C  C257  1  0.304800  0.542630  0.457220  1.0  -0.1133
  C  C258  1  0.453900  0.421060  0.373910  1.0  -0.1275
  C  C259  1  0.790600  0.971280  0.067500  1.0  -0.0035
  C  C260  1  0.118300  0.030850  0.412560  1.0  -0.0013
  C  C261  1  0.215800  0.882250  0.026350  1.0  0.0423
  C  C262  1  0.549800  0.784410  0.264940  1.0  -0.0608
  C  C263  1  0.198900  0.468170  0.516950  1.0  -0.1032
  C  C264  1  0.184200  0.636850  0.558890  1.0  -0.1177
  C  C265  1  0.375600  0.243800  0.807420  1.0  -0.1386
  C  C266  1  0.927000  0.245060  0.957490  1.0  -0.1744
  C  C267  1  0.912800  0.663800  0.681110  1.0  -0.0373
  C  C268  1  0.360300  0.259660  0.995540  1.0  -0.1228
  C  C269  1  0.010900  0.024800  0.690950  1.0  0.0092
  C  C270  1  0.496800  0.864050  0.611960  1.0  0.1519
  C  C271  1  0.284200  0.617750  0.526350  1.0  0.0422
  C  C272  1  0.962600  0.425620  0.213750  1.0  0.641
  C  C273  1  0.131800  0.983490  0.254460  1.0  0.1653
  C  C274  1  0.679900  0.895530  0.007680  1.0  0.0239
  C  C275  1  0.881700  0.969150  0.587440  1.0  -0.0022
  C  C276  1  0.094000  0.826730  0.018500  1.0  -0.1406
  C  C277  1  0.139700  0.240340  0.495540  1.0  -0.1244
  C  C278  1  0.771100  0.602410  0.549750  1.0  -0.0886
  C  C279  1  0.816800  0.094480  0.599550  1.0  0.1168
  C  C280  1  0.342600  0.472780  0.387440  1.0  0.0207
  N  N281  1  0.857140  0.334230  0.899360  1.0  0.0365
  N  N282  1  0.989090  0.431940  0.864710  1.0  -0.3826
  N  N283  1  0.011430  0.023580  0.760180  1.0  0.0405
  N  N284  1  0.511430  0.523580  0.739820  1.0  0.0402
  N  N285  1  0.510910  0.068060  0.364710  1.0  -0.3819
  N  N286  1  0.577880  0.400680  0.068350  1.0  0.0231
  N  N287  1  0.077880  0.900680  0.431650  1.0  0.0236
  N  N288  1  0.642860  0.165770  0.399360  1.0  0.0358
  N  N289  1  0.922120  0.099320  0.568350  1.0  0.0226
  N  N290  1  0.209060  0.983620  0.388160  1.0  -0.3736
  N  N291  1  0.142860  0.665770  0.100640  1.0  0.036
  N  N292  1  0.988570  0.976420  0.239820  1.0  0.0402
  N  N293  1  0.489090  0.931940  0.635290  1.0  -0.3822
  N  N294  1  0.010910  0.568060  0.135290  1.0  -0.3814
  N  N295  1  0.290940  0.516380  0.888160  1.0  -0.3747
  N  N296  1  0.363060  0.518550  0.796100  1.0  -0.395
  N  N297  1  0.790940  0.016380  0.611840  1.0  -0.3756
  N  N298  1  0.488570  0.476420  0.260180  1.0  0.0406
  N  N299  1  0.863060  0.018550  0.703900  1.0  -0.394
  N  N300  1  0.709060  0.483620  0.111840  1.0  -0.3743
  N  N301  1  0.136940  0.981450  0.296100  1.0  -0.3939
  N  N302  1  0.636940  0.481450  0.203900  1.0  -0.3946
  N  N303  1  0.422120  0.599320  0.931650  1.0  0.0231
  N  N304  1  0.357140  0.834230  0.600640  1.0  0.0366
  O  O305  1  0.921060  0.399300  0.177630  1.0  -0.5633
  O  O306  1  0.248790  0.134060  0.324290  1.0  -0.6393
  O  O307  1  0.078940  0.600700  0.822370  1.0  -0.5637
  O  O308  1  0.751210  0.865940  0.675710  1.0  -0.639
  O  O309  1  0.421060  0.899300  0.322370  1.0  -0.5639
  O  O310  1  0.748790  0.634060  0.175710  1.0  -0.6396
  O  O311  1  0.251210  0.365940  0.824290  1.0  -0.6393
  O  O312  1  0.325320  0.285750  0.878510  1.0  -0.5645
  O  O313  1  0.955090  0.501790  0.223490  1.0  -0.5899
  O  O314  1  0.825320  0.785750  0.621490  1.0  -0.5651
  O  O315  1  0.578940  0.100700  0.677630  1.0  -0.5642
  O  O316  1  0.674680  0.714250  0.121490  1.0  -0.5649
  O  O317  1  0.174680  0.214250  0.378510  1.0  -0.5648
  O  O318  1  0.455090  0.001790  0.276510  1.0  -0.59
  O  O319  1  0.544910  0.998210  0.723490  1.0  -0.587
  O  O320  1  0.044910  0.498210  0.776510  1.0  -0.5868
