# generated using pymatgen
data_ZnH10(C3O)8
_symmetry_space_group_name_H-M   'P 1'
_cell_length_a   18.50370000
_cell_length_b   18.50370000
_cell_length_c   18.50370000
_cell_angle_alpha   101.73900000
_cell_angle_beta   101.73900000
_cell_angle_gamma   101.73900000
_symmetry_Int_Tables_number   1
_chemical_formula_structural   ZnH10(C3O)8
_chemical_formula_sum   'Zn6 H60 C144 O48'
_cell_volume   5871.73360435
_cell_formula_units_Z   6
loop_
 _symmetry_equiv_pos_site_id
 _symmetry_equiv_pos_as_xyz
  1  'x, y, z'
loop_
 _atom_site_type_symbol
 _atom_site_label
 _atom_site_symmetry_multiplicity
 _atom_site_fract_x
 _atom_site_fract_y
 _atom_site_fract_z
 _atom_site_occupancy
 _atom_site_charge
  Zn  Zn1  1  0.354210  0.146930  0.749190  1.0  1.1093
  Zn  Zn2  1  0.250810  0.645790  0.853070  1.0  1.111
  Zn  Zn3  1  0.645790  0.853070  0.250810  1.0  1.1111
  Zn  Zn4  1  0.749190  0.354210  0.146930  1.0  1.1105
  Zn  Zn5  1  0.146930  0.749190  0.354210  1.0  1.1107
  Zn  Zn6  1  0.853070  0.250810  0.645790  1.0  1.11
  H  H7  1  0.974000  0.155900  0.208800  1.0  0.1304
  H  H8  1  0.320700  0.870700  0.023400  1.0  0.1158
  H  H9  1  0.590200  0.099500  0.870500  1.0  0.1168
  H  H10  1  0.278200  0.656200  0.144200  1.0  0.1245
  H  H11  1  0.120900  0.779800  0.768100  1.0  0.1275
  H  H12  1  0.007700  0.142800  0.742700  1.0  0.1263
  H  H13  1  0.906200  0.293900  0.801700  1.0  0.1106
  H  H14  1  0.656200  0.144200  0.278200  1.0  0.1261
  H  H15  1  0.879100  0.220200  0.231900  1.0  0.1281
  H  H16  1  0.129500  0.409800  0.900500  1.0  0.1176
  H  H17  1  0.064100  0.830600  0.024300  1.0  0.1162
  H  H18  1  0.855800  0.721800  0.343800  1.0  0.126
  H  H19  1  0.093800  0.706100  0.198300  1.0  0.1108
  H  H20  1  0.129300  0.976600  0.679300  1.0  0.1179
  H  H21  1  0.169400  0.975700  0.935900  1.0  0.1175
  H  H22  1  0.140000  0.088100  0.982200  1.0  0.1255
  H  H23  1  0.099500  0.870500  0.590200  1.0  0.1162
  H  H24  1  0.155900  0.208800  0.974000  1.0  0.1301
  H  H25  1  0.870700  0.023400  0.320700  1.0  0.1172
  H  H26  1  0.706100  0.198300  0.093800  1.0  0.1123
  H  H27  1  0.231900  0.879100  0.220200  1.0  0.1276
  H  H28  1  0.791200  0.026000  0.844100  1.0  0.1315
  H  H29  1  0.900500  0.129500  0.409800  1.0  0.1164
  H  H30  1  0.257300  0.992300  0.857200  1.0  0.1258
  H  H31  1  0.860000  0.911900  0.017800  1.0  0.1252
  H  H32  1  0.721800  0.343800  0.855800  1.0  0.1243
  H  H33  1  0.857200  0.257300  0.992300  1.0  0.126
  H  H34  1  0.844100  0.791200  0.026000  1.0  0.13
  H  H35  1  0.992300  0.857200  0.257300  1.0  0.1262
  H  H36  1  0.975700  0.935900  0.169400  1.0  0.1175
  H  H37  1  0.208800  0.974000  0.155900  1.0  0.1309
  H  H38  1  0.982200  0.140000  0.088100  1.0  0.124
  H  H39  1  0.024300  0.064100  0.830600  1.0  0.1168
  H  H40  1  0.409800  0.900500  0.129500  1.0  0.1183
  H  H41  1  0.768100  0.120900  0.779800  1.0  0.1278
  H  H42  1  0.321400  0.424200  0.836100  1.0  0.1219
  H  H43  1  0.220200  0.231900  0.879100  1.0  0.1271
  H  H44  1  0.976600  0.679300  0.129300  1.0  0.1142
  H  H45  1  0.742700  0.007700  0.142800  1.0  0.1236
  H  H46  1  0.026000  0.844100  0.791200  1.0  0.1301
  H  H47  1  0.836100  0.321400  0.424200  1.0  0.1219
  H  H48  1  0.198300  0.093800  0.706100  1.0  0.11
  H  H49  1  0.424200  0.836100  0.321400  1.0  0.124
  H  H50  1  0.830600  0.024300  0.064100  1.0  0.117
  H  H51  1  0.779800  0.768100  0.120900  1.0  0.1274
  H  H52  1  0.343800  0.855800  0.721800  1.0  0.1258
  H  H53  1  0.679300  0.129300  0.976600  1.0  0.115
  H  H54  1  0.144200  0.278200  0.656200  1.0  0.1261
  H  H55  1  0.935900  0.169400  0.975700  1.0  0.1167
  H  H56  1  0.017800  0.860000  0.911900  1.0  0.1232
  H  H57  1  0.870500  0.590200  0.099500  1.0  0.1176
  H  H58  1  0.023400  0.320700  0.870700  1.0  0.1146
  H  H59  1  0.801700  0.906200  0.293900  1.0  0.111
  H  H60  1  0.911900  0.017800  0.860000  1.0  0.1252
  H  H61  1  0.575800  0.163900  0.678600  1.0  0.122
  H  H62  1  0.088100  0.982200  0.140000  1.0  0.1252
  H  H63  1  0.142800  0.742700  0.007700  1.0  0.1278
  H  H64  1  0.163900  0.678600  0.575800  1.0  0.1212
  H  H65  1  0.293900  0.801700  0.906200  1.0  0.1119
  H  H66  1  0.678600  0.575800  0.163900  1.0  0.1219
  C  C67  1  0.271660  0.918700  0.099590  1.0  0.0149
  C  C68  1  0.358500  0.751100  0.798300  1.0  0.7422
  C  C69  1  0.029420  0.285560  0.899430  1.0  -0.106
  C  C70  1  0.164710  0.124860  0.703830  1.0  -0.1136
  C  C71  1  0.285560  0.899430  0.029420  1.0  -0.1056
  C  C72  1  0.139400  0.776000  0.491800  1.0  0.7246
  C  C73  1  0.218300  0.699090  0.068030  1.0  -0.1346
  C  C74  1  0.249890  0.920610  0.967470  1.0  0.0255
  C  C75  1  0.953060  0.820330  0.017570  1.0  0.035
  C  C76  1  0.612320  0.109810  0.831620  1.0  -0.087
  C  C77  1  0.111760  0.080740  0.017560  1.0  -0.1276
  C  C78  1  0.919260  0.982440  0.888240  1.0  -0.1279
  C  C79  1  0.811750  0.324430  0.817620  1.0  -0.1326
  C  C80  1  0.282030  0.877200  0.221920  1.0  -0.0534
  C  C81  1  0.051860  0.153930  0.725990  1.0  -0.0433
  C  C82  1  0.248900  0.201700  0.641500  1.0  0.7583
  C  C83  1  0.931970  0.781700  0.300910  1.0  -0.1368
  C  C84  1  0.099590  0.271660  0.918700  1.0  0.013
  C  C85  1  0.022570  0.804500  0.038140  1.0  -0.109
  C  C86  1  0.776000  0.491800  0.139400  1.0  0.7251
  C  C87  1  0.717970  0.122800  0.778080  1.0  -0.0531
  C  C88  1  0.080740  0.017560  0.111760  1.0  -0.1258
  C  C89  1  0.750110  0.079390  0.032530  1.0  0.0261
  C  C90  1  0.603340  0.148760  0.718100  1.0  0.0319
  C  C91  1  0.387680  0.890190  0.168380  1.0  -0.0917
  C  C92  1  0.860600  0.224000  0.508200  1.0  0.724
  C  C93  1  0.920610  0.967470  0.249890  1.0  0.0276
  C  C94  1  0.875140  0.296170  0.835290  1.0  -0.1114
  C  C95  1  0.661500  0.714700  0.170200  1.0  0.741
  C  C96  1  0.890190  0.168380  0.387680  1.0  -0.0889
  C  C97  1  0.960320  0.108370  0.218710  1.0  -0.1197
  C  C98  1  0.967470  0.249890  0.920610  1.0  0.0272
  C  C99  1  0.817620  0.811750  0.324430  1.0  -0.1251
  C  C100  1  0.012020  0.266280  0.690200  1.0  0.7116
  C  C101  1  0.728650  0.099970  0.105590  1.0  0.0528
  C  C102  1  0.081300  0.900410  0.728340  1.0  0.015
  C  C103  1  0.674160  0.133290  0.234850  1.0  0.0189
  C  C104  1  0.201700  0.641500  0.248900  1.0  0.7552
  C  C105  1  0.719680  0.677630  0.144890  1.0  -0.118
  C  C106  1  0.685250  0.103100  0.835450  1.0  0.0857
  C  C107  1  0.266280  0.690200  0.012020  1.0  0.7216
  C  C108  1  0.851240  0.281900  0.396660  1.0  0.028
  C  C109  1  0.972680  0.941100  0.876310  1.0  0.0284
  C  C110  1  0.122800  0.778080  0.717970  1.0  -0.0525
  C  C111  1  0.765150  0.325840  0.866710  1.0  0.021
  C  C112  1  0.896900  0.164550  0.314750  1.0  0.087
  C  C113  1  0.109810  0.831620  0.612320  1.0  -0.086
  C  C114  1  0.058900  0.123690  0.027320  1.0  0.0294
  C  C115  1  0.641500  0.248900  0.201700  1.0  0.7451
  C  C116  1  0.108370  0.218710  0.960320  1.0  -0.1218
  C  C117  1  0.314750  0.896900  0.164550  1.0  0.0868
  C  C118  1  0.773380  0.570390  0.130930  1.0  -0.101
  C  C119  1  0.725990  0.051860  0.153930  1.0  -0.0464
  C  C120  1  0.891630  0.781290  0.039680  1.0  -0.1269
  C  C121  1  0.338500  0.285300  0.829800  1.0  0.7354
  C  C122  1  0.195500  0.961860  0.977430  1.0  -0.1094
  C  C123  1  0.168380  0.387680  0.890190  1.0  -0.0899
  C  C124  1  0.846070  0.274010  0.948140  1.0  -0.0447
  C  C125  1  0.164550  0.314750  0.896900  1.0  0.0855
  C  C126  1  0.224000  0.508200  0.860600  1.0  0.7247
  C  C127  1  0.124860  0.703830  0.164710  1.0  -0.1105
  C  C128  1  0.153930  0.725990  0.051860  1.0  -0.0459
  C  C129  1  0.677630  0.144890  0.719680  1.0  -0.1152
  C  C130  1  0.105590  0.728650  0.099970  1.0  0.0546
  C  C131  1  0.148760  0.718100  0.603340  1.0  0.0285
  C  C132  1  0.831620  0.612320  0.109810  1.0  -0.0882
  C  C133  1  0.508200  0.860600  0.224000  1.0  0.7239
  C  C134  1  0.300910  0.931970  0.781700  1.0  -0.1376
  C  C135  1  0.699090  0.068030  0.218300  1.0  -0.1367
  C  C136  1  0.027320  0.058900  0.123690  1.0  0.0264
  C  C137  1  0.982440  0.888240  0.919260  1.0  -0.1276
  C  C138  1  0.835290  0.875140  0.296170  1.0  -0.113
  C  C139  1  0.144890  0.719680  0.677630  1.0  -0.1171
  C  C140  1  0.046940  0.179670  0.982430  1.0  0.0357
  C  C141  1  0.869070  0.226620  0.429610  1.0  -0.096
  C  C142  1  0.982430  0.046940  0.179670  1.0  0.036
  C  C143  1  0.285300  0.829800  0.338500  1.0  0.7454
  C  C144  1  0.820330  0.017570  0.953060  1.0  0.0353
  C  C145  1  0.829800  0.338500  0.285300  1.0  0.7397
  C  C146  1  0.888240  0.919260  0.982440  1.0  -0.1296
  C  C147  1  0.133290  0.234850  0.674160  1.0  0.0258
  C  C148  1  0.221920  0.282030  0.877200  1.0  -0.0484
  C  C149  1  0.977430  0.195500  0.961860  1.0  -0.1096
  C  C150  1  0.296170  0.835290  0.875140  1.0  -0.11
  C  C151  1  0.941100  0.876310  0.972680  1.0  0.0311
  C  C152  1  0.429610  0.869070  0.226620  1.0  -0.1023
  C  C153  1  0.491800  0.139400  0.776000  1.0  0.7239
  C  C154  1  0.100570  0.970580  0.714440  1.0  -0.1047
  C  C155  1  0.271350  0.900030  0.894410  1.0  0.0548
  C  C156  1  0.894410  0.271350  0.900030  1.0  0.054
  C  C157  1  0.570390  0.130930  0.773380  1.0  -0.1036
  C  C158  1  0.714440  0.100570  0.970580  1.0  -0.1049
  C  C159  1  0.182380  0.188250  0.675570  1.0  -0.1311
  C  C160  1  0.987980  0.733720  0.309800  1.0  0.7212
  C  C161  1  0.835450  0.685250  0.103100  1.0  0.0849
  C  C162  1  0.038140  0.022570  0.804500  1.0  -0.109
  C  C163  1  0.718100  0.603340  0.148760  1.0  0.0275
  C  C164  1  0.068030  0.218300  0.699090  1.0  -0.1381
  C  C165  1  0.032530  0.750110  0.079390  1.0  0.0273
  C  C166  1  0.325840  0.866710  0.765150  1.0  0.0208
  C  C167  1  0.280320  0.322370  0.855110  1.0  -0.1166
  C  C168  1  0.188250  0.675570  0.182380  1.0  -0.131
  C  C169  1  0.123690  0.027320  0.058900  1.0  0.0291
  C  C170  1  0.876310  0.972680  0.941100  1.0  0.032
  C  C171  1  0.099970  0.105590  0.728650  1.0  0.053
  C  C172  1  0.396660  0.851240  0.281900  1.0  0.0302
  C  C173  1  0.877200  0.221920  0.282030  1.0  -0.0516
  C  C174  1  0.324430  0.817620  0.811750  1.0  -0.1323
  C  C175  1  0.804500  0.038140  0.022570  1.0  -0.1094
  C  C176  1  0.179670  0.982430  0.046940  1.0  0.035
  C  C177  1  0.103100  0.835450  0.685250  1.0  0.0864
  C  C178  1  0.322370  0.855110  0.280320  1.0  -0.109
  C  C179  1  0.948140  0.846070  0.274010  1.0  -0.0457
  C  C180  1  0.218710  0.960320  0.108370  1.0  -0.1204
  C  C181  1  0.866710  0.765150  0.325840  1.0  0.026
  C  C182  1  0.281900  0.396660  0.851240  1.0  0.0277
  C  C183  1  0.918700  0.099590  0.271660  1.0  0.0138
  C  C184  1  0.781290  0.039680  0.891630  1.0  -0.1195
  C  C185  1  0.781700  0.300910  0.931970  1.0  -0.1356
  C  C186  1  0.079390  0.032530  0.750110  1.0  0.0272
  C  C187  1  0.274010  0.948140  0.846070  1.0  -0.0453
  C  C188  1  0.309800  0.987980  0.733720  1.0  0.7264
  C  C189  1  0.798300  0.358500  0.751100  1.0  0.757
  C  C190  1  0.970580  0.714440  0.100570  1.0  -0.104
  C  C191  1  0.751100  0.798300  0.358500  1.0  0.7512
  C  C192  1  0.017560  0.111760  0.080740  1.0  -0.1296
  C  C193  1  0.900030  0.894410  0.271350  1.0  0.0538
  C  C194  1  0.855110  0.280320  0.322370  1.0  -0.1136
  C  C195  1  0.226620  0.429610  0.869070  1.0  -0.1016
  C  C196  1  0.899430  0.029420  0.285560  1.0  -0.1037
  C  C197  1  0.900410  0.728340  0.081300  1.0  0.0137
  C  C198  1  0.690200  0.012020  0.266280  1.0  0.7191
  C  C199  1  0.234850  0.674160  0.133290  1.0  0.0202
  C  C200  1  0.728340  0.081300  0.900410  1.0  0.0155
  C  C201  1  0.778080  0.717970  0.122800  1.0  -0.0504
  C  C202  1  0.675570  0.182380  0.188250  1.0  -0.131
  C  C203  1  0.714700  0.170200  0.661500  1.0  0.744
  C  C204  1  0.961860  0.977430  0.195500  1.0  -0.1097
  C  C205  1  0.130930  0.773380  0.570390  1.0  -0.0972
  C  C206  1  0.703830  0.164710  0.124860  1.0  -0.1107
  C  C207  1  0.039680  0.891630  0.781290  1.0  -0.1176
  C  C208  1  0.017570  0.953060  0.820330  1.0  0.0355
  C  C209  1  0.733720  0.309800  0.987980  1.0  0.7138
  C  C210  1  0.170200  0.661500  0.714700  1.0  0.737
  O  O211  1  0.322200  0.810510  0.389890  1.0  -0.4502
  O  O212  1  0.169270  0.656720  0.301600  1.0  -0.6372
  O  O213  1  0.810510  0.389890  0.322200  1.0  -0.4483
  O  O214  1  0.761280  0.300740  0.051680  1.0  -0.5793
  O  O215  1  0.451710  0.150230  0.718770  1.0  -0.5537
  O  O216  1  0.343280  0.698400  0.830730  1.0  -0.6277
  O  O217  1  0.330250  0.970880  0.675170  1.0  -0.5268
  O  O218  1  0.970880  0.675170  0.330250  1.0  -0.5258
  O  O219  1  0.169700  0.668750  0.783700  1.0  -0.5886
  O  O220  1  0.869070  0.170050  0.533610  1.0  -0.5194
  O  O221  1  0.216300  0.830300  0.331250  1.0  -0.5834
  O  O222  1  0.656720  0.301600  0.169270  1.0  -0.6313
  O  O223  1  0.548290  0.849770  0.281230  1.0  -0.5552
  O  O224  1  0.331250  0.216300  0.830300  1.0  -0.5845
  O  O225  1  0.718770  0.451710  0.150230  1.0  -0.5563
  O  O226  1  0.675170  0.330250  0.970880  1.0  -0.5364
  O  O227  1  0.300740  0.051680  0.761280  1.0  -0.5802
  O  O228  1  0.597940  0.249080  0.244780  1.0  -0.4679
  O  O229  1  0.699260  0.948320  0.238720  1.0  -0.5782
  O  O230  1  0.755220  0.402060  0.750920  1.0  -0.4622
  O  O231  1  0.150230  0.718770  0.451710  1.0  -0.556
  O  O232  1  0.668750  0.783700  0.169700  1.0  -0.5875
  O  O233  1  0.533610  0.869070  0.170050  1.0  -0.5177
  O  O234  1  0.029120  0.324830  0.669750  1.0  -0.5298
  O  O235  1  0.249080  0.244780  0.597940  1.0  -0.4687
  O  O236  1  0.829950  0.466390  0.130930  1.0  -0.5215
  O  O237  1  0.238720  0.699260  0.948320  1.0  -0.5803
  O  O238  1  0.051680  0.761280  0.300740  1.0  -0.5787
  O  O239  1  0.301600  0.169270  0.656720  1.0  -0.625
  O  O240  1  0.948320  0.238720  0.699260  1.0  -0.5801
  O  O241  1  0.170050  0.533610  0.869070  1.0  -0.5239
  O  O242  1  0.244780  0.597940  0.249080  1.0  -0.466
  O  O243  1  0.783700  0.169700  0.668750  1.0  -0.5821
  O  O244  1  0.281230  0.548290  0.849770  1.0  -0.5568
  O  O245  1  0.389890  0.322200  0.810510  1.0  -0.4507
  O  O246  1  0.610110  0.677800  0.189490  1.0  -0.4514
  O  O247  1  0.849770  0.281230  0.548290  1.0  -0.5574
  O  O248  1  0.830300  0.331250  0.216300  1.0  -0.5857
  O  O249  1  0.677800  0.189490  0.610110  1.0  -0.4494
  O  O250  1  0.189490  0.610110  0.677800  1.0  -0.4473
  O  O251  1  0.324830  0.669750  0.029120  1.0  -0.5319
  O  O252  1  0.750920  0.755220  0.402060  1.0  -0.467
  O  O253  1  0.669750  0.029120  0.324830  1.0  -0.5304
  O  O254  1  0.466390  0.130930  0.829950  1.0  -0.5219
  O  O255  1  0.830730  0.343280  0.698400  1.0  -0.6322
  O  O256  1  0.402060  0.750920  0.755220  1.0  -0.4644
  O  O257  1  0.130930  0.829950  0.466390  1.0  -0.5207
  O  O258  1  0.698400  0.830730  0.343280  1.0  -0.6281
