# generated using pymatgen
data_Co3H14C26(NO3)4
_symmetry_space_group_name_H-M   'P 1'
_cell_length_a   15.24450000
_cell_length_b   15.24450000
_cell_length_c   23.21500000
_cell_angle_alpha   90.00000000
_cell_angle_beta   90.00000000
_cell_angle_gamma   96.09150000
_symmetry_Int_Tables_number   1
_chemical_formula_structural   Co3H14C26(NO3)4
_chemical_formula_sum   'Co12 H56 C104 N16 O48'
_cell_volume   5364.58276996
_cell_formula_units_Z   4
loop_
 _symmetry_equiv_pos_site_id
 _symmetry_equiv_pos_as_xyz
  1  'x, y, z'
loop_
 _atom_site_type_symbol
 _atom_site_label
 _atom_site_symmetry_multiplicity
 _atom_site_fract_x
 _atom_site_fract_y
 _atom_site_fract_z
 _atom_site_occupancy
 _atom_site_charge
  Co  Co1  1  0.298670  0.298670  0.000000  1.0  1.0897
  Co  Co2  1  0.845730  0.261550  0.891930  1.0  0.9727
  Co  Co3  1  0.261550  0.845730  0.108070  1.0  0.9728
  Co  Co4  1  0.211110  0.788890  0.250000  1.0  1.036
  Co  Co5  1  0.743270  0.655710  0.646110  1.0  0.9243
  Co  Co6  1  0.256730  0.344290  0.146110  1.0  0.9242
  Co  Co7  1  0.701330  0.701330  0.500000  1.0  1.0894
  Co  Co8  1  0.738450  0.154270  0.608070  1.0  0.9733
  Co  Co9  1  0.344290  0.256730  0.853890  1.0  0.9224
  Co  Co10  1  0.154270  0.738450  0.391930  1.0  0.9735
  Co  Co11  1  0.788890  0.211110  0.750000  1.0  1.0392
  Co  Co12  1  0.655710  0.743270  0.353890  1.0  0.9199
  H  H13  1  0.176400  0.120000  0.684800  1.0  0.1249
  H  H14  1  0.558200  0.345400  0.041100  1.0  0.099
  H  H15  1  0.858300  0.962900  0.788600  1.0  0.1159
  H  H16  1  0.037100  0.141700  0.711400  1.0  0.1156
  H  H17  1  0.540500  0.865100  0.133200  1.0  0.1057
  H  H18  1  0.017400  0.668800  0.621400  1.0  0.1193
  H  H19  1  0.520400  0.227200  0.791000  1.0  0.0909
  H  H20  1  0.331200  0.982600  0.878600  1.0  0.1185
  H  H21  1  0.702100  0.350100  0.074700  1.0  0.1329
  H  H22  1  0.479600  0.772800  0.291000  1.0  0.0909
  H  H23  1  0.880000  0.823600  0.815200  1.0  0.1243
  H  H24  1  0.117300  0.310100  0.339800  1.0  0.1279
  H  H25  1  0.412600  0.200200  0.064400  1.0  0.01
  H  H26  1  0.649900  0.297900  0.425300  1.0  0.1321
  H  H27  1  0.273900  0.026300  0.042500  1.0  0.0912
  H  H28  1  0.730100  0.366300  0.612500  1.0  0.0793
  H  H29  1  0.166100  0.667300  0.599300  1.0  0.1208
  H  H30  1  0.982600  0.331200  0.121400  1.0  0.1191
  H  H31  1  0.962900  0.858300  0.211400  1.0  0.116
  H  H32  1  0.366300  0.730100  0.387500  1.0  0.0798
  H  H33  1  0.259300  0.944300  0.349800  1.0  0.091
  H  H34  1  0.689900  0.882700  0.160200  1.0  0.1275
  H  H35  1  0.833900  0.332700  0.099300  1.0  0.1206
  H  H36  1  0.441800  0.654600  0.541100  1.0  0.0986
  H  H37  1  0.866100  0.748700  0.357700  1.0  0.0712
  H  H38  1  0.120000  0.176400  0.315200  1.0  0.1243
  H  H39  1  0.134900  0.459500  0.366800  1.0  0.1065
  H  H40  1  0.251300  0.133900  0.142300  1.0  0.0718
  H  H41  1  0.823600  0.880000  0.184800  1.0  0.1245
  H  H42  1  0.297900  0.649900  0.574700  1.0  0.1331
  H  H43  1  0.345400  0.558200  0.958900  1.0  0.098
  H  H44  1  0.227200  0.520400  0.209000  1.0  0.0907
  H  H45  1  0.133900  0.251300  0.857700  1.0  0.0713
  H  H46  1  0.332700  0.833900  0.900700  1.0  0.1207
  H  H47  1  0.026300  0.273900  0.957500  1.0  0.0926
  H  H48  1  0.459500  0.134900  0.633200  1.0  0.1055
  H  H49  1  0.865100  0.540500  0.866800  1.0  0.1059
  H  H50  1  0.587400  0.799800  0.564400  1.0  0.0091
  H  H51  1  0.668800  0.017400  0.378600  1.0  0.1182
  H  H52  1  0.748700  0.866100  0.642300  1.0  0.0722
  H  H53  1  0.269900  0.633700  0.112500  1.0  0.0795
  H  H54  1  0.141700  0.037100  0.288600  1.0  0.1167
  H  H55  1  0.350100  0.702100  0.925300  1.0  0.1319
  H  H56  1  0.799800  0.587400  0.435600  1.0  0.009
  H  H57  1  0.055700  0.740700  0.150200  1.0  0.0896
  H  H58  1  0.740700  0.055700  0.849800  1.0  0.091
  H  H59  1  0.200200  0.412600  0.935600  1.0  0.0079
  H  H60  1  0.667300  0.166100  0.400700  1.0  0.121
  H  H61  1  0.882700  0.689900  0.839800  1.0  0.1275
  H  H62  1  0.310100  0.117300  0.660200  1.0  0.1276
  H  H63  1  0.654600  0.441800  0.458900  1.0  0.0976
  H  H64  1  0.772800  0.479600  0.709000  1.0  0.0908
  H  H65  1  0.973700  0.726100  0.457500  1.0  0.0929
  H  H66  1  0.633700  0.269900  0.887500  1.0  0.0803
  H  H67  1  0.944300  0.259300  0.650200  1.0  0.0896
  H  H68  1  0.726100  0.973700  0.542500  1.0  0.0914
  C  C69  1  0.694500  0.980900  0.459400  1.0  -0.1857
  C  C70  1  0.305500  0.019100  0.959400  1.0  -0.1858
  C  C71  1  0.142600  0.226400  0.821800  1.0  0.1801
  C  C72  1  0.284500  0.647900  0.074500  1.0  0.1952
  C  C73  1  0.818400  0.761200  0.746700  1.0  0.0806
  C  C74  1  0.676900  0.125900  0.429600  1.0  -0.1254
  C  C75  1  0.142400  0.353600  0.314900  1.0  -0.1489
  C  C76  1  0.478400  0.205000  0.764200  1.0  0.2014
  C  C77  1  0.768700  0.108300  0.864300  1.0  0.5947
  C  C78  1  0.108300  0.768700  0.135700  1.0  0.5929
  C  C79  1  0.154100  0.689100  0.515300  1.0  0.1747
  C  C80  1  0.396900  0.234500  0.095100  1.0  0.5659
  C  C81  1  0.603200  0.180600  0.698000  1.0  0.7215
  C  C82  1  0.694700  0.883300  0.447200  1.0  0.7295
  C  C83  1  0.667100  0.312500  0.462800  1.0  -0.1548
  C  C84  1  0.116700  0.305300  0.052800  1.0  0.7309
  C  C85  1  0.396800  0.819400  0.198000  1.0  0.7213
  C  C86  1  0.798500  0.930300  0.711700  1.0  -0.1419
  C  C87  1  0.689100  0.154100  0.484700  1.0  0.1748
  C  C88  1  0.580000  0.303000  0.961800  1.0  -0.1819
  C  C89  1  0.824400  0.492800  0.787900  1.0  -0.175
  C  C90  1  0.312500  0.667100  0.537200  1.0  -0.1578
  C  C91  1  0.976400  0.215800  0.805400  1.0  0.7196
  C  C92  1  0.980900  0.694500  0.540600  1.0  -0.1866
  C  C93  1  0.857400  0.773600  0.321800  1.0  0.1897
  C  C94  1  0.125900  0.676900  0.570400  1.0  -0.1229
  C  C95  1  0.987400  0.288400  0.986100  1.0  0.1785
  C  C96  1  0.513200  0.703000  0.442600  1.0  0.7139
  C  C97  1  0.765500  0.603100  0.404900  1.0  0.5644
  C  C98  1  0.397800  0.670600  0.516700  1.0  -0.0162
  C  C99  1  0.333000  0.175400  0.738100  1.0  0.2029
  C  C100  1  0.305300  0.116700  0.947200  1.0  0.7288
  C  C101  1  0.175600  0.507200  0.287900  1.0  -0.1752
  C  C102  1  0.238800  0.181600  0.753300  1.0  0.0769
  C  C103  1  0.309100  0.751100  0.002400  1.0  0.1499
  C  C104  1  0.845900  0.310900  0.015300  1.0  0.1755
  C  C105  1  0.149500  0.166900  0.281000  1.0  -0.1444
  C  C106  1  0.557400  0.851400  0.170400  1.0  -0.041
  C  C107  1  0.795000  0.521600  0.735800  1.0  0.2079
  C  C108  1  0.690900  0.248900  0.502400  1.0  0.1504
  C  C109  1  0.297000  0.486800  0.057400  1.0  0.7127
  C  C110  1  0.962500  0.321500  0.083900  1.0  -0.0117
  C  C111  1  0.201500  0.069700  0.211700  1.0  -0.1422
  C  C112  1  0.602200  0.329400  0.016700  1.0  -0.017
  C  C113  1  0.711600  0.012600  0.513900  1.0  0.1822
  C  C114  1  0.670600  0.397800  0.483300  1.0  -0.0186
  C  C115  1  0.248900  0.690900  0.497600  1.0  0.1507
  C  C116  1  0.353600  0.142400  0.685100  1.0  -0.1439
  C  C117  1  0.647900  0.284500  0.925500  1.0  0.2006
  C  C118  1  0.175400  0.333000  0.261900  1.0  0.2037
  C  C119  1  0.930300  0.798500  0.288300  1.0  -0.1408
  C  C120  1  0.850500  0.833100  0.781000  1.0  -0.143
  C  C121  1  0.231300  0.891700  0.364300  1.0  0.5944
  C  C122  1  0.751100  0.309100  0.997600  1.0  0.151
  C  C123  1  0.323100  0.874100  0.929600  1.0  -0.1261
  C  C124  1  0.332900  0.687500  0.962800  1.0  -0.1552
  C  C125  1  0.603100  0.765500  0.595100  1.0  0.568
  C  C126  1  0.915500  0.839300  0.235100  1.0  -0.0118
  C  C127  1  0.166900  0.149500  0.719000  1.0  -0.1426
  C  C128  1  0.761200  0.818400  0.253300  1.0  0.0834
  C  C129  1  0.507200  0.175600  0.712100  1.0  -0.1761
  C  C130  1  0.819400  0.396800  0.802000  1.0  0.7238
  C  C131  1  0.839300  0.915500  0.764900  1.0  -0.0149
  C  C132  1  0.069700  0.201500  0.788300  1.0  -0.1417
  C  C133  1  0.851400  0.557400  0.829600  1.0  -0.039
  C  C134  1  0.687500  0.332900  0.037200  1.0  -0.1568
  C  C135  1  0.486800  0.297000  0.942600  1.0  0.7149
  C  C136  1  0.303000  0.580000  0.038200  1.0  -0.1845
  C  C137  1  0.037500  0.678500  0.583900  1.0  -0.0125
  C  C138  1  0.521600  0.795000  0.264200  1.0  0.2073
  C  C139  1  0.180600  0.603200  0.302000  1.0  0.7221
  C  C140  1  0.874100  0.323100  0.070400  1.0  -0.1232
  C  C141  1  0.883300  0.694700  0.552800  1.0  0.7316
  C  C142  1  0.181600  0.238800  0.246700  1.0  0.0766
  C  C143  1  0.321500  0.962500  0.916100  1.0  -0.0097
  C  C144  1  0.703000  0.513200  0.557400  1.0  0.7144
  C  C145  1  0.012600  0.711600  0.486100  1.0  0.1811
  C  C146  1  0.352100  0.715500  0.425500  1.0  0.2004
  C  C147  1  0.857600  0.646400  0.814900  1.0  -0.1444
  C  C148  1  0.678500  0.037500  0.416100  1.0  -0.0093
  C  C149  1  0.160700  0.084500  0.264900  1.0  -0.0148
  C  C150  1  0.833100  0.850500  0.219000  1.0  -0.1425
  C  C151  1  0.773600  0.857400  0.678200  1.0  0.1904
  C  C152  1  0.084500  0.160700  0.735100  1.0  -0.0112
  C  C153  1  0.420000  0.697000  0.461800  1.0  -0.1822
  C  C154  1  0.442600  0.148600  0.670400  1.0  -0.0401
  C  C155  1  0.697000  0.420000  0.538200  1.0  -0.186
  C  C156  1  0.667000  0.824600  0.238100  1.0  0.2026
  C  C157  1  0.492800  0.824400  0.212100  1.0  -0.1755
  C  C158  1  0.234500  0.396900  0.904900  1.0  0.5663
  C  C159  1  0.288400  0.987400  0.013900  1.0  0.1803
  C  C160  1  0.891700  0.231300  0.635700  1.0  0.5958
  C  C161  1  0.310900  0.845900  0.984700  1.0  0.1748
  C  C162  1  0.148600  0.442600  0.329600  1.0  -0.0402
  C  C163  1  0.784200  0.023600  0.694600  1.0  0.7213
  C  C164  1  0.646400  0.857600  0.185100  1.0  -0.1463
  C  C165  1  0.019100  0.305500  0.040600  1.0  -0.1855
  C  C166  1  0.226400  0.142600  0.178200  1.0  0.1894
  C  C167  1  0.715500  0.352100  0.574500  1.0  0.201
  C  C168  1  0.215800  0.976400  0.194600  1.0  0.7203
  C  C169  1  0.023600  0.784200  0.305400  1.0  0.718
  C  C170  1  0.824600  0.667000  0.761900  1.0  0.2035
  C  C171  1  0.205000  0.478400  0.235800  1.0  0.2061
  C  C172  1  0.329400  0.602200  0.983300  1.0  -0.0181
  N  N173  1  0.708300  0.098500  0.527800  1.0  -0.3148
  N  N174  1  0.225400  0.216600  0.805400  1.0  -0.3033
  N  N175  1  0.098500  0.708300  0.472200  1.0  -0.3141
  N  N176  1  0.608000  0.796800  0.278200  1.0  -0.3454
  N  N177  1  0.203200  0.392000  0.221800  1.0  -0.3462
  N  N178  1  0.713700  0.266700  0.558310  1.0  -0.3096
  N  N179  1  0.774600  0.783400  0.305400  1.0  -0.3027
  N  N180  1  0.266700  0.713700  0.441690  1.0  -0.3064
  N  N181  1  0.796800  0.608000  0.721800  1.0  -0.3454
  N  N182  1  0.286300  0.733300  0.058310  1.0  -0.3085
  N  N183  1  0.216600  0.225400  0.194600  1.0  -0.3061
  N  N184  1  0.291700  0.901500  0.027800  1.0  -0.3141
  N  N185  1  0.392000  0.203200  0.778200  1.0  -0.3461
  N  N186  1  0.783400  0.774600  0.694600  1.0  -0.3063
  N  N187  1  0.733300  0.286300  0.941690  1.0  -0.3063
  N  N188  1  0.901500  0.291700  0.972200  1.0  -0.3134
  O  O189  1  0.843080  0.378320  0.852730  1.0  -0.6119
  O  O190  1  0.722700  0.669500  0.413100  1.0  -0.6794
  O  O191  1  0.277300  0.330500  0.913100  1.0  -0.6785
  O  O192  1  0.234500  0.820900  0.337200  1.0  -0.6731
  O  O193  1  0.560500  0.766900  0.635700  1.0  -0.3651
  O  O194  1  0.164900  0.289900  0.011360  1.0  -0.6222
  O  O195  1  0.190100  0.891500  0.411400  1.0  -0.6203
  O  O196  1  0.319900  0.139900  0.895890  1.0  -0.6102
  O  O197  1  0.077600  0.788400  0.266100  1.0  -0.59
  O  O198  1  0.719400  0.530400  0.610080  1.0  -0.5954
  O  O199  1  0.788400  0.077600  0.733900  1.0  -0.5898
  O  O200  1  0.108500  0.809900  0.088600  1.0  -0.6191
  O  O201  1  0.680100  0.860100  0.395890  1.0  -0.6107
  O  O202  1  0.710100  0.835100  0.488640  1.0  -0.6225
  O  O203  1  0.235110  0.964090  0.142510  1.0  -0.5881
  O  O204  1  0.035910  0.764890  0.357490  1.0  -0.5893
  O  O205  1  0.691700  0.568100  0.519590  1.0  -0.6031
  O  O206  1  0.766900  0.560500  0.364300  1.0  -0.365
  O  O207  1  0.211600  0.922400  0.233900  1.0  -0.5891
  O  O208  1  0.530400  0.719400  0.389920  1.0  -0.5962
  O  O209  1  0.809900  0.108500  0.911400  1.0  -0.6273
  O  O210  1  0.206400  0.655200  0.263260  1.0  -0.5923
  O  O211  1  0.308300  0.431900  0.019590  1.0  -0.6041
  O  O212  1  0.439500  0.233100  0.135700  1.0  -0.3647
  O  O213  1  0.280600  0.469600  0.110080  1.0  -0.5959
  O  O214  1  0.330500  0.277300  0.086900  1.0  -0.6773
  O  O215  1  0.156920  0.621680  0.352730  1.0  -0.6117
  O  O216  1  0.431900  0.308300  0.980410  1.0  -0.6035
  O  O217  1  0.568100  0.691700  0.480410  1.0  -0.6026
  O  O218  1  0.835100  0.710100  0.511360  1.0  -0.6229
  O  O219  1  0.793600  0.344800  0.763260  1.0  -0.5923
  O  O220  1  0.820900  0.234500  0.662800  1.0  -0.6721
  O  O221  1  0.764890  0.035910  0.642510  1.0  -0.5879
  O  O222  1  0.179100  0.765500  0.162800  1.0  -0.6719
  O  O223  1  0.289900  0.164900  0.988640  1.0  -0.6225
  O  O224  1  0.765500  0.179100  0.837200  1.0  -0.6733
  O  O225  1  0.891500  0.190100  0.588600  1.0  -0.6218
  O  O226  1  0.964090  0.235110  0.857490  1.0  -0.589
  O  O227  1  0.233100  0.439500  0.864300  1.0  -0.3671
  O  O228  1  0.860100  0.680100  0.604110  1.0  -0.6129
  O  O229  1  0.378320  0.843080  0.147270  1.0  -0.6118
  O  O230  1  0.139900  0.319900  0.104110  1.0  -0.6134
  O  O231  1  0.655200  0.206400  0.736740  1.0  -0.5943
  O  O232  1  0.669500  0.722700  0.586900  1.0  -0.6769
  O  O233  1  0.621680  0.156920  0.647270  1.0  -0.6134
  O  O234  1  0.469600  0.280600  0.889920  1.0  -0.5958
  O  O235  1  0.922400  0.211600  0.766100  1.0  -0.5894
  O  O236  1  0.344800  0.793600  0.236740  1.0  -0.5933
