# generated using pymatgen
data_FeSi2H8(C2N)8
_symmetry_space_group_name_H-M   'P 1'
_cell_length_a   9.65210000
_cell_length_b   15.49460000
_cell_length_c   15.49460000
_cell_angle_alpha   64.19400000
_cell_angle_beta   78.01560000
_cell_angle_gamma   101.98400000
_symmetry_Int_Tables_number   1
_chemical_formula_structural   FeSi2H8(C2N)8
_chemical_formula_sum   'Fe3 Si6 H24 C48 N24'
_cell_volume   1920.31913684
_cell_formula_units_Z   3
loop_
 _symmetry_equiv_pos_site_id
 _symmetry_equiv_pos_as_xyz
  1  'x, y, z'
loop_
 _atom_site_type_symbol
 _atom_site_label
 _atom_site_symmetry_multiplicity
 _atom_site_fract_x
 _atom_site_fract_y
 _atom_site_fract_z
 _atom_site_occupancy
 _atom_site_charge
  Fe  Fe1  1  0.000000  0.500000  0.000000  1.0  0.6462
  Fe  Fe2  1  0.000000  0.000000  0.500000  1.0  0.6462
  Fe  Fe3  1  0.500000  0.500000  0.500000  1.0  0.6475
  Si  Si4  1  0.500000  0.296760  0.296760  1.0  0.9734
  Si  Si5  1  0.203240  0.703240  0.593520  1.0  0.9749
  Si  Si6  1  0.796760  0.296760  0.406480  1.0  0.9761
  Si  Si7  1  0.796760  0.593520  0.703240  1.0  0.9745
  Si  Si8  1  0.203240  0.406480  0.296760  1.0  0.9739
  Si  Si9  1  0.500000  0.703240  0.703240  1.0  0.9747
  H  H10  1  0.393900  0.278900  0.572000  1.0  0.055
  H  H11  1  0.982500  0.278300  0.846700  1.0  0.089
  H  H12  1  0.295800  0.278300  0.875000  1.0  0.0905
  H  H13  1  0.115000  0.721100  0.850900  1.0  0.0548
  H  H14  1  0.704200  0.875000  0.278300  1.0  0.0908
  H  H15  1  0.606100  0.721100  0.428000  1.0  0.0547
  H  H16  1  0.115000  0.149100  0.278900  1.0  0.054
  H  H17  1  0.017500  0.721700  0.153300  1.0  0.0896
  H  H18  1  0.295800  0.125000  0.721700  1.0  0.0907
  H  H19  1  0.170800  0.875000  0.846700  1.0  0.0908
  H  H20  1  0.965900  0.850900  0.428000  1.0  0.0541
  H  H21  1  0.393900  0.428000  0.721100  1.0  0.0536
  H  H22  1  0.170800  0.153300  0.125000  1.0  0.0896
  H  H23  1  0.829200  0.846700  0.875000  1.0  0.0895
  H  H24  1  0.829200  0.125000  0.153300  1.0  0.0907
  H  H25  1  0.017500  0.846700  0.278300  1.0  0.0907
  H  H26  1  0.885000  0.850900  0.721100  1.0  0.0539
  H  H27  1  0.034100  0.149100  0.572000  1.0  0.0541
  H  H28  1  0.885000  0.278900  0.149100  1.0  0.0551
  H  H29  1  0.606100  0.572000  0.278900  1.0  0.0541
  H  H30  1  0.034100  0.428000  0.850900  1.0  0.0542
  H  H31  1  0.704200  0.721700  0.125000  1.0  0.0902
  H  H32  1  0.965900  0.572000  0.149100  1.0  0.0541
  H  H33  1  0.982500  0.153300  0.721700  1.0  0.0911
  C  C34  1  0.903750  0.912110  0.721560  1.0  0.1227
  C  C35  1  0.008360  0.912110  0.366330  1.0  0.1219
  C  C36  1  0.684340  0.814470  0.276750  1.0  -0.1541
  C  C37  1  0.703060  0.398780  0.424100  1.0  -0.039
  C  C38  1  0.315660  0.185530  0.723250  1.0  -0.1518
  C  C39  1  0.102250  0.815750  0.000000  1.0  -0.1246
  C  C40  1  0.096250  0.087890  0.278440  1.0  0.124
  C  C41  1  0.296940  0.424100  0.398780  1.0  -0.057
  C  C42  1  0.897750  0.184250  0.000000  1.0  -0.1218
  C  C43  1  0.315660  0.276750  0.814470  1.0  -0.1464
  C  C44  1  0.903750  0.278440  0.087890  1.0  0.1255
  C  C45  1  0.684340  0.723250  0.185530  1.0  -0.1479
  C  C46  1  0.223090  0.085840  0.914160  1.0  0.3605
  C  C47  1  0.703060  0.575900  0.601220  1.0  -0.0561
  C  C48  1  0.304280  0.177120  0.398780  1.0  -0.0556
  C  C49  1  0.897750  0.000000  0.815750  1.0  -0.1257
  C  C50  1  0.872840  0.177120  0.424100  1.0  -0.0404
  C  C51  1  0.991640  0.087890  0.633670  1.0  0.1228
  C  C52  1  0.961090  0.091220  0.723250  1.0  -0.1439
  C  C53  1  0.038910  0.908780  0.276750  1.0  -0.1429
  C  C54  1  0.713500  0.815750  0.184250  1.0  -0.1169
  C  C55  1  0.304280  0.601220  0.822880  1.0  -0.0582
  C  C56  1  0.695720  0.398780  0.177120  1.0  -0.0584
  C  C57  1  0.991640  0.366330  0.912110  1.0  0.1224
  C  C58  1  0.862750  0.085840  0.000000  1.0  0.3622
  C  C59  1  0.127160  0.822880  0.575900  1.0  -0.0385
  C  C60  1  0.625310  0.633670  0.278440  1.0  0.1235
  C  C61  1  0.130130  0.814470  0.908780  1.0  -0.1501
  C  C62  1  0.869870  0.185530  0.091220  1.0  -0.1529
  C  C63  1  0.374690  0.278440  0.633670  1.0  0.1251
  C  C64  1  0.008360  0.633670  0.087890  1.0  0.1221
  C  C65  1  0.872840  0.575900  0.822880  1.0  -0.0599
  C  C66  1  0.296940  0.601220  0.575900  1.0  -0.0395
  C  C67  1  0.776910  0.914160  0.085840  1.0  0.3639
  C  C68  1  0.961090  0.276750  0.908780  1.0  -0.1451
  C  C69  1  0.286500  0.184250  0.815750  1.0  -0.1189
  C  C70  1  0.096250  0.721560  0.912110  1.0  0.1225
  C  C71  1  0.038910  0.723250  0.091220  1.0  -0.1417
  C  C72  1  0.102250  0.000000  0.184250  1.0  -0.1271
  C  C73  1  0.869870  0.908780  0.814470  1.0  -0.1471
  C  C74  1  0.695720  0.822880  0.601220  1.0  -0.0539
  C  C75  1  0.130130  0.091220  0.185530  1.0  -0.1495
  C  C76  1  0.127160  0.424100  0.177120  1.0  -0.0593
  C  C77  1  0.137250  0.000000  0.085840  1.0  0.3674
  C  C78  1  0.137250  0.914160  0.000000  1.0  0.359
  C  C79  1  0.862750  0.000000  0.914160  1.0  0.3691
  C  C80  1  0.374690  0.366330  0.721560  1.0  0.122
  C  C81  1  0.625310  0.721560  0.366330  1.0  0.1248
  N  N82  1  0.636280  0.442460  0.450020  1.0  -0.3786
  N  N83  1  0.804080  0.000000  0.090760  1.0  -0.5738
  N  N84  1  0.193820  0.557540  0.892480  1.0  -0.3775
  N  N85  1  0.894840  0.090760  0.909240  1.0  -0.572
  N  N86  1  0.363720  0.557540  0.549980  1.0  -0.3807
  N  N87  1  0.636280  0.549980  0.557540  1.0  -0.3792
  N  N88  1  0.086300  0.450020  0.107520  1.0  -0.382
  N  N89  1  0.105160  0.909240  0.090760  1.0  -0.5711
  N  N90  1  0.195920  0.000000  0.909240  1.0  -0.5789
  N  N91  1  0.405550  0.368230  0.631770  1.0  -0.3432
  N  N92  1  0.594450  0.631770  0.368230  1.0  -0.3446
  N  N93  1  0.363720  0.450020  0.442460  1.0  -0.3783
  N  N94  1  0.086300  0.892480  0.549980  1.0  -0.3797
  N  N95  1  0.806180  0.442460  0.107520  1.0  -0.3786
  N  N96  1  0.037320  0.000000  0.368230  1.0  -0.3443
  N  N97  1  0.806180  0.892480  0.557540  1.0  -0.3787
  N  N98  1  0.193820  0.107520  0.442460  1.0  -0.3796
  N  N99  1  0.037320  0.631770  0.000000  1.0  -0.3412
  N  N100  1  0.913700  0.107520  0.450020  1.0  -0.3805
  N  N101  1  0.804080  0.909240  0.000000  1.0  -0.5721
  N  N102  1  0.962680  0.368230  0.000000  1.0  -0.3403
  N  N103  1  0.913700  0.549980  0.892480  1.0  -0.3807
  N  N104  1  0.195920  0.090760  0.000000  1.0  -0.5787
  N  N105  1  0.962680  0.000000  0.631770  1.0  -0.3453
