# generated using pymatgen
data_Co9H72C108(N9O20)2
_symmetry_space_group_name_H-M   'P 1'
_cell_length_a   20.13500000
_cell_length_b   20.13500000
_cell_length_c   26.21700000
_cell_angle_alpha   69.91000000
_cell_angle_beta   69.91000000
_cell_angle_gamma   78.14760000
_symmetry_Int_Tables_number   1
_chemical_formula_structural   Co9H72C108(N9O20)2
_chemical_formula_sum   'Co18 H144 C216 N36 O80'
_cell_volume   9328.61678551
_cell_formula_units_Z   2
loop_
 _symmetry_equiv_pos_site_id
 _symmetry_equiv_pos_as_xyz
  1  'x, y, z'
loop_
 _atom_site_type_symbol
 _atom_site_label
 _atom_site_symmetry_multiplicity
 _atom_site_fract_x
 _atom_site_fract_y
 _atom_site_fract_z
 _atom_site_occupancy
 _atom_site_charge
  Co  Co1  1  0.180990  0.697010  0.535840  1.0  1.071
  Co  Co2  1  0.993660  0.006340  0.750000  1.0  0.6807
  Co  Co3  1  0.697500  0.703560  0.208100  1.0  0.9288
  Co  Co4  1  0.302500  0.296440  0.791900  1.0  0.9318
  Co  Co5  1  0.819010  0.302990  0.464160  1.0  1.0708
  Co  Co6  1  0.703560  0.697500  0.708100  1.0  0.9296
  Co  Co7  1  0.006340  0.993660  0.250000  1.0  0.6796
  Co  Co8  1  0.307070  0.827710  0.472300  1.0  1.0189
  Co  Co9  1  0.697010  0.180990  0.035840  1.0  1.0709
  Co  Co10  1  0.302990  0.819010  0.964160  1.0  1.071
  Co  Co11  1  0.296440  0.302500  0.291900  1.0  0.9325
  Co  Co12  1  0.725460  0.712680  0.563380  1.0  1.0523
  Co  Co13  1  0.692930  0.172290  0.527700  1.0  1.0192
  Co  Co14  1  0.287320  0.274540  0.936620  1.0  1.0494
  Co  Co15  1  0.172290  0.692930  0.027700  1.0  1.0189
  Co  Co16  1  0.274540  0.287320  0.436620  1.0  1.0502
  Co  Co17  1  0.712680  0.725460  0.063380  1.0  1.052
  Co  Co18  1  0.827710  0.307070  0.972300  1.0  1.0187
  H  H19  1  0.332500  0.948500  0.360900  1.0  0.0894
  H  H20  1  0.977900  0.891900  0.700000  1.0  0.0856
  H  H21  1  0.220000  0.904200  0.108600  1.0  0.1196
  H  H22  1  0.174300  0.956900  0.860500  1.0  0.1094
  H  H23  1  0.882700  0.983500  0.700800  1.0  0.082
  H  H24  1  0.016500  0.117300  0.799200  1.0  0.0828
  H  H25  1  0.641800  0.446800  0.325200  1.0  0.1178
  H  H26  1  0.066300  0.674100  0.495600  1.0  0.0849
  H  H27  1  0.768900  0.336500  0.088500  1.0  0.0825
  H  H28  1  0.441200  0.220800  0.029500  1.0  0.1239
  H  H29  1  0.416100  0.734100  0.124500  1.0  0.1163
  H  H30  1  0.168400  0.531400  0.062800  1.0  0.0769
  H  H31  1  0.677800  0.945200  0.020000  1.0  0.1233
  H  H32  1  0.682700  0.051700  0.486800  1.0  0.0875
  H  H33  1  0.055700  0.675900  0.646400  1.0  0.0911
  H  H34  1  0.904200  0.220000  0.608600  1.0  0.1201
  H  H35  1  0.553200  0.358200  0.174800  1.0  0.1167
  H  H36  1  0.558800  0.779200  0.970500  1.0  0.1223
  H  H37  1  0.041000  0.822000  0.135300  1.0  0.1096
  H  H38  1  0.156600  0.961000  0.175900  1.0  0.0813
  H  H39  1  0.554100  0.629500  0.760100  1.0  0.0872
  H  H40  1  0.174400  0.503400  0.677900  1.0  0.1221
  H  H41  1  0.664600  0.436800  0.821400  1.0  0.1218
  H  H42  1  0.894100  0.879700  0.405900  1.0  0.1166
  H  H43  1  0.891900  0.977900  0.200000  1.0  0.0866
  H  H44  1  0.214400  0.918600  0.613100  1.0  0.1217
  H  H45  1  0.767900  0.327300  0.582400  1.0  0.0873
  H  H46  1  0.831600  0.468600  0.937200  1.0  0.0762
  H  H47  1  0.043100  0.825700  0.639500  1.0  0.1088
  H  H48  1  0.673800  0.931200  0.671400  1.0  0.1205
  H  H49  1  0.811500  0.465300  0.432100  1.0  0.0782
  H  H50  1  0.983500  0.882700  0.200800  1.0  0.0829
  H  H51  1  0.324100  0.944300  0.853600  1.0  0.0902
  H  H52  1  0.629500  0.554100  0.260100  1.0  0.0876
  H  H53  1  0.326200  0.068800  0.328600  1.0  0.1202
  H  H54  1  0.679300  0.934100  0.175200  1.0  0.1177
  H  H55  1  0.022100  0.108100  0.300000  1.0  0.086
  H  H56  1  0.220800  0.441200  0.529500  1.0  0.1233
  H  H57  1  0.335400  0.563200  0.178600  1.0  0.1221
  H  H58  1  0.317300  0.948300  0.513200  1.0  0.0876
  H  H59  1  0.572000  0.270800  0.371800  1.0  0.1188
  H  H60  1  0.692800  0.930000  0.514100  1.0  0.1178
  H  H61  1  0.231100  0.663500  0.911500  1.0  0.0824
  H  H62  1  0.605700  0.805300  0.760300  1.0  0.087
  H  H63  1  0.307200  0.070000  0.485900  1.0  0.1171
  H  H64  1  0.934100  0.679300  0.675200  1.0  0.1177
  H  H65  1  0.502900  0.834700  0.328400  1.0  0.1189
  H  H66  1  0.325900  0.933700  0.004400  1.0  0.0847
  H  H67  1  0.051500  0.667500  0.139100  1.0  0.0899
  H  H68  1  0.205000  0.436400  0.027300  1.0  0.118
  H  H69  1  0.930000  0.692800  0.014100  1.0  0.1174
  H  H70  1  0.187100  0.391300  0.235400  1.0  0.0908
  H  H71  1  0.394300  0.194700  0.239700  1.0  0.0879
  H  H72  1  0.834400  0.818000  0.496800  1.0  0.0879
  H  H73  1  0.457000  0.351800  0.742700  1.0  0.0828
  H  H74  1  0.436400  0.205000  0.527300  1.0  0.1188
  H  H75  1  0.165300  0.497100  0.171600  1.0  0.12
  H  H76  1  0.327300  0.767900  0.082400  1.0  0.087
  H  H77  1  0.743100  0.718100  0.440100  1.0  0.0828
  H  H78  1  0.822000  0.041000  0.635300  1.0  0.1103
  H  H79  1  0.188500  0.534700  0.567900  1.0  0.0772
  H  H80  1  0.978400  0.145600  0.177200  1.0  0.0773
  H  H81  1  0.674100  0.066300  0.995600  1.0  0.0851
  H  H82  1  0.531400  0.168400  0.562800  1.0  0.0764
  H  H83  1  0.961000  0.156600  0.675900  1.0  0.0823
  H  H84  1  0.496600  0.825600  0.822100  1.0  0.1221
  H  H85  1  0.256900  0.281900  0.559900  1.0  0.0835
  H  H86  1  0.933700  0.325900  0.504400  1.0  0.0847
  H  H87  1  0.145600  0.978400  0.677200  1.0  0.0763
  H  H88  1  0.370500  0.445900  0.739900  1.0  0.0859
  H  H89  1  0.718100  0.743100  0.940100  1.0  0.0826
  H  H90  1  0.105900  0.120300  0.594100  1.0  0.1161
  H  H91  1  0.117300  0.016500  0.299200  1.0  0.082
  H  H92  1  0.918600  0.214400  0.113100  1.0  0.1215
  H  H93  1  0.948500  0.332500  0.860900  1.0  0.0903
  H  H94  1  0.948300  0.317300  0.013200  1.0  0.0882
  H  H95  1  0.265900  0.583900  0.375500  1.0  0.1161
  H  H96  1  0.805300  0.605700  0.260300  1.0  0.0863
  H  H97  1  0.351800  0.457000  0.242700  1.0  0.0816
  H  H98  1  0.081400  0.785600  0.886900  1.0  0.1214
  H  H99  1  0.165600  0.182000  0.503200  1.0  0.0878
  H  H100  1  0.812900  0.608700  0.764600  1.0  0.091
  H  H101  1  0.777800  0.800200  0.847000  1.0  0.1219
  H  H102  1  0.583900  0.265900  0.875500  1.0  0.1162
  H  H103  1  0.563200  0.335400  0.678600  1.0  0.1228
  H  H104  1  0.785600  0.081400  0.386900  1.0  0.1226
  H  H105  1  0.039000  0.843400  0.324100  1.0  0.0816
  H  H106  1  0.843400  0.039000  0.824100  1.0  0.0821
  H  H107  1  0.232100  0.672700  0.417600  1.0  0.0864
  H  H108  1  0.199800  0.222200  0.653000  1.0  0.1219
  H  H109  1  0.675900  0.055700  0.146400  1.0  0.0902
  H  H110  1  0.663500  0.231100  0.411500  1.0  0.083
  H  H111  1  0.779200  0.558800  0.470500  1.0  0.1218
  H  H112  1  0.322200  0.054800  0.980000  1.0  0.1231
  H  H113  1  0.465300  0.811500  0.932100  1.0  0.0775
  H  H114  1  0.428000  0.729200  0.628200  1.0  0.1192
  H  H115  1  0.051700  0.682700  0.986800  1.0  0.0882
  H  H116  1  0.825700  0.043100  0.139500  1.0  0.1094
  H  H117  1  0.543000  0.648200  0.257300  1.0  0.0828
  H  H118  1  0.222200  0.199800  0.153000  1.0  0.1219
  H  H119  1  0.436800  0.664600  0.321400  1.0  0.1224
  H  H120  1  0.108100  0.022100  0.800000  1.0  0.0861
  H  H121  1  0.944300  0.324100  0.353600  1.0  0.0911
  H  H122  1  0.468600  0.831600  0.437200  1.0  0.076
  H  H123  1  0.648200  0.543000  0.757300  1.0  0.0827
  H  H124  1  0.825600  0.496600  0.322100  1.0  0.1229
  H  H125  1  0.734100  0.416100  0.624500  1.0  0.1162
  H  H126  1  0.800200  0.777800  0.347000  1.0  0.1218
  H  H127  1  0.780000  0.095800  0.891400  1.0  0.1214
  H  H128  1  0.534700  0.188500  0.067900  1.0  0.0773
  H  H129  1  0.068800  0.326200  0.828600  1.0  0.1204
  H  H130  1  0.945200  0.677800  0.520000  1.0  0.1229
  H  H131  1  0.729200  0.428000  0.128200  1.0  0.1186
  H  H132  1  0.818000  0.834400  0.996800  1.0  0.088
  H  H133  1  0.054800  0.322200  0.480000  1.0  0.123
  H  H134  1  0.194700  0.394300  0.739700  1.0  0.0877
  H  H135  1  0.931200  0.673800  0.171400  1.0  0.1204
  H  H136  1  0.095800  0.780000  0.391400  1.0  0.1201
  H  H137  1  0.270800  0.572000  0.871800  1.0  0.1186
  H  H138  1  0.497100  0.165300  0.671600  1.0  0.119
  H  H139  1  0.667500  0.051500  0.639100  1.0  0.0888
  H  H140  1  0.503400  0.174400  0.177900  1.0  0.1215
  H  H141  1  0.445900  0.370500  0.239900  1.0  0.0877
  H  H142  1  0.834700  0.502900  0.828400  1.0  0.1197
  H  H143  1  0.959000  0.178000  0.864700  1.0  0.1096
  H  H144  1  0.879700  0.894100  0.905900  1.0  0.1164
  H  H145  1  0.358200  0.553200  0.674800  1.0  0.1167
  H  H146  1  0.178000  0.959000  0.364700  1.0  0.1104
  H  H147  1  0.795000  0.563600  0.972700  1.0  0.118
  H  H148  1  0.320700  0.065900  0.824800  1.0  0.117
  H  H149  1  0.120300  0.105900  0.094100  1.0  0.1158
  H  H150  1  0.021600  0.854400  0.822800  1.0  0.0774
  H  H151  1  0.608700  0.812900  0.264600  1.0  0.0917
  H  H152  1  0.956900  0.174300  0.360500  1.0  0.1081
  H  H153  1  0.446800  0.641800  0.825200  1.0  0.1177
  H  H154  1  0.281900  0.256900  0.059900  1.0  0.0834
  H  H155  1  0.070000  0.307200  0.985900  1.0  0.1172
  H  H156  1  0.854400  0.021600  0.322800  1.0  0.0776
  H  H157  1  0.182000  0.165600  0.003200  1.0  0.0884
  H  H158  1  0.672700  0.232100  0.917600  1.0  0.0852
  H  H159  1  0.391300  0.187100  0.735400  1.0  0.0918
  H  H160  1  0.065900  0.320700  0.324800  1.0  0.1171
  H  H161  1  0.563600  0.795000  0.472700  1.0  0.1174
  H  H162  1  0.336500  0.768900  0.588500  1.0  0.0823
  C  C163  1  0.136780  0.152640  0.588240  1.0  -0.1353
  C  C164  1  0.889360  0.878320  0.305210  1.0  0.6653
  C  C165  1  0.248060  0.502560  0.447720  1.0  -0.1062
  C  C166  1  0.039140  0.676120  0.531850  1.0  0.1581
  C  C167  1  0.460290  0.810430  0.476140  1.0  0.181
  C  C168  1  0.212910  0.192250  0.123160  1.0  -0.1371
  C  C169  1  0.142640  0.935000  0.854270  1.0  -0.094
  C  C170  1  0.323880  0.960860  0.968150  1.0  0.1581
  C  C171  1  0.488930  0.205030  0.684200  1.0  -0.125
  C  C172  1  0.164250  0.303530  0.886060  1.0  0.7274
  C  C173  1  0.437600  0.749660  0.589080  1.0  -0.1176
  C  C174  1  0.033330  0.322050  0.453720  1.0  -0.1369
  C  C175  1  0.682620  0.026700  0.524010  1.0  0.1628
  C  C176  1  0.788440  0.517780  0.997110  1.0  -0.1368
  C  C177  1  0.606940  0.260340  0.119100  1.0  0.7497
  C  C178  1  0.543760  0.667760  0.774800  1.0  0.1801
  C  C179  1  0.136740  0.857000  0.113380  1.0  -0.0766
  C  C180  1  0.756560  0.506500  0.054820  1.0  -0.0908
  C  C181  1  0.218440  0.425780  0.222600  1.0  0.1749
  C  C182  1  0.431500  0.270240  0.420490  1.0  0.7174
  C  C183  1  0.179120  0.824920  0.576340  1.0  0.7278
  C  C184  1  0.810430  0.460290  0.976140  1.0  0.1792
  C  C185  1  0.865280  0.135860  0.118640  1.0  -0.077
  C  C186  1  0.250340  0.562400  0.910920  1.0  -0.1192
  C  C187  1  0.875590  0.051770  0.331270  1.0  0.1822
  C  C188  1  0.065710  0.850690  0.142280  1.0  -0.1258
  C  C189  1  0.102960  0.973940  0.817400  1.0  0.17
  C  C190  1  0.540720  0.251520  0.664300  1.0  -0.0986
  C  C191  1  0.313220  0.084260  0.404130  1.0  -0.1276
  C  C192  1  0.224000  0.487800  0.505940  1.0  -0.129
  C  C193  1  0.748480  0.459280  0.835700  1.0  -0.0979
  C  C194  1  0.557390  0.729770  0.079460  1.0  0.7304
  C  C195  1  0.794970  0.511070  0.815800  1.0  -0.1281
  C  C196  1  0.535800  0.684820  0.273200  1.0  0.1848
  C  C197  1  0.667760  0.543760  0.274800  1.0  0.1791
  C  C198  1  0.100790  0.828110  0.373500  1.0  -0.1342
  C  C199  1  0.382850  0.773470  0.564860  1.0  0.1758
  C  C200  1  0.694360  0.471760  0.811600  1.0  -0.1386
  C  C201  1  0.216110  0.491690  0.688210  1.0  -0.1445
  C  C202  1  0.026060  0.897040  0.682600  1.0  0.1699
  C  C203  1  0.324480  0.521280  0.686900  1.0  -0.1361
  C  C204  1  0.617150  0.226530  0.435140  1.0  0.1773
  C  C205  1  0.773470  0.382850  0.064860  1.0  0.178
  C  C206  1  0.132950  0.933410  0.167040  1.0  0.186
  C  C207  1  0.751570  0.773290  0.933180  1.0  0.1666
  C  C208  1  0.973940  0.102960  0.317400  1.0  0.1708
  C  C209  1  0.696470  0.835750  0.613940  1.0  0.73
  C  C210  1  0.729760  0.568500  0.079510  1.0  0.706
  C  C211  1  0.677290  0.954490  0.633350  1.0  -0.1247
  C  C212  1  0.680040  0.925800  0.100350  1.0  -0.1035
  C  C213  1  0.124410  0.948230  0.668730  1.0  0.1815
  C  C214  1  0.026420  0.673260  0.113720  1.0  0.1685
  C  C215  1  0.180440  0.824560  0.431220  1.0  0.7343
  C  C216  1  0.026700  0.682620  0.024010  1.0  0.162
  C  C217  1  0.959970  0.678930  0.638340  1.0  -0.1202
  C  C218  1  0.933410  0.132950  0.667040  1.0  0.1811
  C  C219  1  0.230240  0.625700  0.440420  1.0  0.1278
  C  C220  1  0.317380  0.973300  0.475990  1.0  0.1616
  C  C221  1  0.684820  0.535800  0.773200  1.0  0.1844
  C  C222  1  0.460040  0.733020  0.833860  1.0  -0.0826
  C  C223  1  0.845260  0.685820  0.615890  1.0  0.7027
  C  C224  1  0.250480  0.572580  0.414930  1.0  -0.1087
  C  C225  1  0.960860  0.323880  0.468150  1.0  0.1576
  C  C226  1  0.493500  0.243440  0.445180  1.0  -0.0932
  C  C227  1  0.110640  0.121680  0.694790  1.0  0.6662
  C  C228  1  0.205030  0.488930  0.184200  1.0  -0.1261
  C  C229  1  0.305640  0.528240  0.188400  1.0  -0.141
  C  C230  1  0.795370  0.455350  0.471420  1.0  0.186
  C  C231  1  0.031420  0.887300  0.181760  1.0  0.1731
  C  C232  1  0.427420  0.749520  0.085070  1.0  -0.1079
  C  C233  1  0.303530  0.164250  0.386060  1.0  0.7296
  C  C234  1  0.966670  0.677950  0.546280  1.0  -0.1365
  C  C235  1  0.243980  0.607780  0.115900  1.0  0.7151
  C  C236  1  0.189570  0.539710  0.023860  1.0  0.1801
  C  C237  1  0.051770  0.875590  0.831270  1.0  0.1813
  C  C238  1  0.911900  0.166580  0.130470  1.0  -0.129
  C  C239  1  0.511070  0.794970  0.315800  1.0  -0.1266
  C  C240  1  0.676120  0.039140  0.031850  1.0  0.1587
  C  C241  1  0.512200  0.776000  0.994060  1.0  -0.1283
  C  C242  1  0.322850  0.967010  0.879400  1.0  0.1604
  C  C243  1  0.506500  0.756560  0.554820  1.0  -0.0933
  C  C244  1  0.175440  0.819560  0.068780  1.0  0.7348
  C  C245  1  0.934290  0.149310  0.857720  1.0  -0.1271
  C  C246  1  0.154740  0.314180  0.384110  1.0  0.7033
  C  C247  1  0.850690  0.065710  0.642280  1.0  -0.1268
  C  C248  1  0.502560  0.248060  0.947720  1.0  -0.108
  C  C249  1  0.887300  0.031420  0.681760  1.0  0.1747
  C  C250  1  0.189790  0.172990  0.033710  1.0  0.164
  C  C251  1  0.322710  0.045510  0.366650  1.0  -0.124
  C  C252  1  0.973580  0.326740  0.886280  1.0  0.1683
  C  C253  1  0.066590  0.867050  0.332960  1.0  0.1842
  C  C254  1  0.688150  0.953690  0.540160  1.0  -0.1374
  C  C255  1  0.827010  0.810210  0.466290  1.0  0.1616
  C  C256  1  0.863260  0.143000  0.886620  1.0  -0.0782
  C  C257  1  0.211560  0.482220  0.002890  1.0  -0.1359
  C  C258  1  0.539960  0.266980  0.166140  1.0  -0.0812
  C  C259  1  0.751940  0.497440  0.552280  1.0  -0.1061
  C  C260  1  0.166580  0.911900  0.630470  1.0  -0.1302
  C  C261  1  0.863220  0.847360  0.411760  1.0  -0.1372
  C  C262  1  0.783890  0.508310  0.311790  1.0  -0.1459
  C  C263  1  0.948230  0.124410  0.168730  1.0  0.1812
  C  C264  1  0.260340  0.606940  0.619100  1.0  0.7491
  C  C265  1  0.040030  0.321070  0.361660  1.0  -0.1197
  C  C266  1  0.562400  0.250340  0.410920  1.0  -0.1173
  C  C267  1  0.899210  0.171890  0.626500  1.0  -0.1323
  C  C268  1  0.733020  0.460040  0.333860  1.0  -0.0804
  C  C269  1  0.226530  0.617150  0.935140  1.0  0.1783
  C  C270  1  0.836120  0.853100  0.866290  1.0  -0.0992
  C  C271  1  0.442610  0.270230  0.920540  1.0  0.7328
  C  C272  1  0.322050  0.033330  0.953720  1.0  -0.137
  C  C273  1  0.607780  0.243980  0.615900  1.0  0.7139
  C  C274  1  0.756020  0.392220  0.884100  1.0  0.7151
  C  C275  1  0.828110  0.100790  0.873500  1.0  -0.135
  C  C276  1  0.482220  0.211560  0.502890  1.0  -0.1389
  C  C277  1  0.149310  0.934290  0.357720  1.0  -0.1298
  C  C278  1  0.769760  0.374300  0.559580  1.0  0.1277
  C  C279  1  0.729770  0.557390  0.579460  1.0  0.7317
  C  C280  1  0.508310  0.783890  0.811790  1.0  -0.1448
  C  C281  1  0.326740  0.973580  0.386280  1.0  0.1685
  C  C282  1  0.319960  0.074200  0.899650  1.0  -0.1024
  C  C283  1  0.226710  0.248430  0.566820  1.0  0.1652
  C  C284  1  0.134720  0.864140  0.881360  1.0  -0.0792
  C  C285  1  0.915740  0.686780  0.095870  1.0  -0.1251
  C  C286  1  0.739660  0.393060  0.380900  1.0  0.7498
  C  C287  1  0.314180  0.154740  0.884110  1.0  0.7049
  C  C288  1  0.967010  0.322850  0.379400  1.0  0.1599
  C  C289  1  0.867050  0.066590  0.832960  1.0  0.1862
  C  C290  1  0.065000  0.857360  0.645730  1.0  -0.0918
  C  C291  1  0.685820  0.845260  0.115890  1.0  0.7037
  C  C292  1  0.243440  0.493500  0.945180  1.0  -0.0902
  C  C293  1  0.464200  0.315180  0.726800  1.0  0.1845
  C  C294  1  0.112700  0.968580  0.318240  1.0  0.1732
  C  C295  1  0.266980  0.539960  0.666140  1.0  -0.0796
  C  C296  1  0.625700  0.230240  0.940420  1.0  0.1284
  C  C297  1  0.776000  0.512200  0.494060  1.0  -0.1281
  C  C298  1  0.084260  0.313220  0.904130  1.0  -0.1249
  C  C299  1  0.163880  0.146900  0.133710  1.0  -0.1011
  C  C300  1  0.677150  0.032990  0.120600  1.0  0.1597
  C  C301  1  0.574220  0.781560  0.277400  1.0  0.1761
  C  C302  1  0.491690  0.216110  0.188210  1.0  -0.142
  C  C303  1  0.810210  0.827010  0.966290  1.0  0.1625
  C  C304  1  0.497440  0.751940  0.052280  1.0  -0.1085
  C  C305  1  0.143000  0.863260  0.386620  1.0  -0.0743
  C  C306  1  0.392220  0.756020  0.384100  1.0  0.7156
  C  C307  1  0.678930  0.959970  0.138340  1.0  -0.1164
  C  C308  1  0.471760  0.694360  0.311600  1.0  -0.1398
  C  C309  1  0.833420  0.088100  0.369530  1.0  -0.1294
  C  C310  1  0.311850  0.046310  0.459840  1.0  -0.137
  C  C311  1  0.426340  0.228700  0.225590  1.0  0.1717
  C  C312  1  0.172990  0.189790  0.533710  1.0  0.1628
  C  C313  1  0.046310  0.311850  0.959840  1.0  -0.139
  C  C314  1  0.152640  0.136780  0.088240  1.0  -0.1346
  C  C315  1  0.857000  0.136740  0.613380  1.0  -0.0746
  C  C316  1  0.135860  0.865280  0.618640  1.0  -0.0781
  C  C317  1  0.393060  0.739660  0.880900  1.0  0.7515
  C  C318  1  0.121680  0.110640  0.194790  1.0  0.6658
  C  C319  1  0.787090  0.807750  0.876840  1.0  -0.1349
  C  C320  1  0.228700  0.426340  0.725590  1.0  0.171
  C  C321  1  0.673260  0.026420  0.613720  1.0  0.1678
  C  C322  1  0.544650  0.204630  0.028580  1.0  0.1853
  C  C323  1  0.251520  0.540720  0.164300  1.0  -0.0974
  C  C324  1  0.088100  0.833420  0.869530  1.0  -0.1306
  C  C325  1  0.192250  0.212910  0.623160  1.0  -0.1371
  C  C326  1  0.675520  0.478720  0.313100  1.0  -0.136
  C  C327  1  0.847360  0.863220  0.911760  1.0  -0.1374
  C  C328  1  0.824560  0.180440  0.931220  1.0  0.7357
  C  C329  1  0.455350  0.795370  0.971420  1.0  0.1857
  C  C330  1  0.749660  0.437600  0.089080  1.0  -0.1177
  C  C331  1  0.568500  0.729760  0.579510  1.0  0.7055
  C  C332  1  0.897040  0.026060  0.182600  1.0  0.1694
  C  C333  1  0.270240  0.431500  0.920490  1.0  0.7051
  C  C334  1  0.478720  0.675520  0.813100  1.0  -0.1356
  C  C335  1  0.204630  0.544650  0.528580  1.0  0.1842
  C  C336  1  0.374300  0.769760  0.059580  1.0  0.1277
  C  C337  1  0.539710  0.189570  0.523860  1.0  0.1823
  C  C338  1  0.935000  0.142640  0.354270  1.0  -0.0933
  C  C339  1  0.954490  0.677290  0.133350  1.0  -0.1259
  C  C340  1  0.487800  0.224000  0.005940  1.0  -0.1257
  C  C341  1  0.045510  0.322710  0.866650  1.0  -0.1244
  C  C342  1  0.968580  0.112700  0.818240  1.0  0.172
  C  C343  1  0.521280  0.324480  0.186900  1.0  -0.1363
  C  C344  1  0.315180  0.464200  0.226800  1.0  0.1835
  C  C345  1  0.807750  0.787090  0.376840  1.0  -0.1346
  C  C346  1  0.517780  0.788440  0.497110  1.0  -0.1374
  C  C347  1  0.820880  0.175080  0.423660  1.0  0.7293
  C  C348  1  0.857360  0.065000  0.145730  1.0  -0.0911
  C  C349  1  0.248430  0.226710  0.066820  1.0  0.1659
  C  C350  1  0.835750  0.696470  0.113940  1.0  0.7283
  C  C351  1  0.864140  0.134720  0.381360  1.0  -0.0787
  C  C352  1  0.332240  0.456240  0.725200  1.0  0.1779
  C  C353  1  0.175080  0.820880  0.923660  1.0  0.7296
  C  C354  1  0.171890  0.899210  0.126500  1.0  -0.133
  C  C355  1  0.853100  0.836120  0.366290  1.0  -0.1016
  C  C356  1  0.459280  0.748480  0.335700  1.0  -0.0992
  C  C357  1  0.878320  0.889360  0.805210  1.0  0.6649
  C  C358  1  0.824920  0.179120  0.076340  1.0  0.7291
  C  C359  1  0.425780  0.218440  0.722600  1.0  0.1759
  C  C360  1  0.781560  0.574220  0.777400  1.0  0.1755
  C  C361  1  0.074200  0.319960  0.399650  1.0  -0.1024
  C  C362  1  0.819560  0.175440  0.568780  1.0  0.735
  C  C363  1  0.572580  0.250480  0.914930  1.0  -0.1082
  C  C364  1  0.686780  0.915740  0.595870  1.0  -0.1293
  C  C365  1  0.573660  0.771300  0.774410  1.0  0.1718
  C  C366  1  0.925800  0.680040  0.600350  1.0  -0.1041
  C  C367  1  0.953690  0.688150  0.040160  1.0  -0.1368
  C  C368  1  0.528240  0.305640  0.688400  1.0  -0.1414
  C  C369  1  0.677950  0.966670  0.046280  1.0  -0.1345
  C  C370  1  0.456240  0.332240  0.225200  1.0  0.178
  C  C371  1  0.321070  0.040030  0.861660  1.0  -0.1169
  C  C372  1  0.146900  0.163880  0.633710  1.0  -0.1028
  C  C373  1  0.749520  0.427420  0.585070  1.0  -0.1092
  C  C374  1  0.032990  0.677150  0.620600  1.0  0.1593
  C  C375  1  0.773290  0.751570  0.433180  1.0  0.1661
  C  C376  1  0.973300  0.317380  0.975990  1.0  0.1605
  C  C377  1  0.270230  0.442610  0.420540  1.0  0.7323
  C  C378  1  0.771300  0.573660  0.274410  1.0  0.1724
  N  N379  1  0.589300  0.725200  0.256930  1.0  -0.3392
  N  N380  1  0.781500  0.763300  0.477030  1.0  -0.3185
  N  N381  1  0.944700  0.057800  0.306070  1.0  -0.3336
  N  N382  1  0.763300  0.781500  0.977030  1.0  -0.3175
  N  N383  1  0.063390  0.677150  0.059470  1.0  -0.3166
  N  N384  1  0.218500  0.236700  0.522970  1.0  -0.3183
  N  N385  1  0.406600  0.287340  0.242680  1.0  -0.3299
  N  N386  1  0.792110  0.387950  0.502710  1.0  -0.3241
  N  N387  1  0.057800  0.944700  0.806070  1.0  -0.3321
  N  N388  1  0.677140  0.072440  0.067950  1.0  -0.3192
  N  N389  1  0.612050  0.207890  0.997290  1.0  -0.3188
  N  N390  1  0.072440  0.677140  0.567950  1.0  -0.3146
  N  N391  1  0.606400  0.197080  0.491330  1.0  -0.3231
  N  N392  1  0.929160  0.064400  0.693750  1.0  -0.3234
  N  N393  1  0.207890  0.612050  0.497290  1.0  -0.3226
  N  N394  1  0.936610  0.322850  0.940530  1.0  -0.3153
  N  N395  1  0.712660  0.593400  0.257320  1.0  -0.3331
  N  N396  1  0.410700  0.274800  0.743070  1.0  -0.3381
  N  N397  1  0.387950  0.792110  0.002710  1.0  -0.3217
  N  N398  1  0.064400  0.929160  0.193750  1.0  -0.3243
  N  N399  1  0.197080  0.606400  0.991330  1.0  -0.3281
  N  N400  1  0.287340  0.406600  0.742680  1.0  -0.3319
  N  N401  1  0.055300  0.942200  0.693930  1.0  -0.3321
  N  N402  1  0.274800  0.410700  0.243070  1.0  -0.3396
  N  N403  1  0.935600  0.070840  0.806250  1.0  -0.3252
  N  N404  1  0.725200  0.589300  0.756930  1.0  -0.3393
  N  N405  1  0.322850  0.936610  0.440530  1.0  -0.3179
  N  N406  1  0.927560  0.322860  0.432050  1.0  -0.3147
  N  N407  1  0.942200  0.055300  0.193930  1.0  -0.3315
  N  N408  1  0.593400  0.712660  0.757320  1.0  -0.3326
  N  N409  1  0.677150  0.063390  0.559470  1.0  -0.3186
  N  N410  1  0.070840  0.935600  0.306250  1.0  -0.325
  N  N411  1  0.393600  0.802920  0.508670  1.0  -0.3245
  N  N412  1  0.236700  0.218500  0.022970  1.0  -0.3183
  N  N413  1  0.322860  0.927560  0.932050  1.0  -0.3182
  N  N414  1  0.802920  0.393600  0.008670  1.0  -0.3279
  O  O415  1  0.706420  0.541500  0.632370  1.0  -0.5439
  O  O416  1  0.374620  0.798620  0.890700  1.0  -0.6058
  O  O417  1  0.081470  0.066510  0.200720  1.0  -0.6122
  O  O418  1  0.315500  0.637900  0.591700  1.0  -0.5504
  O  O419  1  0.700430  0.553210  0.132690  1.0  -0.5339
  O  O420  1  0.618580  0.737320  0.045320  1.0  -0.5963
  O  O421  1  0.683860  0.821860  0.078550  1.0  -0.609
  O  O422  1  0.637900  0.315500  0.091700  1.0  -0.5494
  O  O423  1  0.379110  0.811010  0.397430  1.0  -0.5799
  O  O424  1  0.850880  0.221600  0.426270  1.0  -0.6125
  O  O425  1  0.287390  0.191490  0.424860  1.0  -0.6027
  O  O426  1  0.294850  0.642850  0.094500  1.0  -0.5207
  O  O427  1  0.239990  0.842890  0.548400  1.0  -0.6103
  O  O428  1  0.871860  0.870400  0.267120  1.0  -0.535
  O  O429  1  0.625380  0.201380  0.109300  1.0  -0.6058
  O  O430  1  0.689050  0.804510  0.664820  1.0  -0.5898
  O  O431  1  0.338230  0.327750  0.845960  1.0  -0.5336
  O  O432  1  0.308840  0.189140  0.835690  1.0  -0.6022
  O  O433  1  0.804510  0.689050  0.164820  1.0  -0.5915
  O  O434  1  0.262680  0.381420  0.454680  1.0  -0.5969
  O  O435  1  0.310950  0.195490  0.335180  1.0  -0.5893
  O  O436  1  0.838070  0.236090  0.538610  1.0  -0.5966
  O  O437  1  0.221600  0.850880  0.926270  1.0  -0.6123
  O  O438  1  0.161930  0.763910  0.461390  1.0  -0.5975
  O  O439  1  0.918530  0.933490  0.799280  1.0  -0.6117
  O  O440  1  0.553210  0.700430  0.632690  1.0  -0.5373
  O  O441  1  0.763910  0.161930  0.961390  1.0  -0.597
  O  O442  1  0.178140  0.316140  0.421450  1.0  -0.611
  O  O443  1  0.705150  0.357150  0.905500  1.0  -0.523
  O  O444  1  0.446790  0.299570  0.367310  1.0  -0.5379
  O  O445  1  0.262410  0.370750  0.954650  1.0  -0.5893
  O  O446  1  0.672250  0.661770  0.654040  1.0  -0.5345
  O  O447  1  0.642850  0.294850  0.594500  1.0  -0.5234
  O  O448  1  0.541500  0.706420  0.132370  1.0  -0.5479
  O  O449  1  0.381420  0.262680  0.954680  1.0  -0.595
  O  O450  1  0.128140  0.129600  0.732880  1.0  -0.5351
  O  O451  1  0.774640  0.143300  0.565590  1.0  -0.6012
  O  O452  1  0.362100  0.684500  0.908300  1.0  -0.5478
  O  O453  1  0.357150  0.705150  0.405500  1.0  -0.5233
  O  O454  1  0.293580  0.458500  0.367630  1.0  -0.5456
  O  O455  1  0.798620  0.374620  0.390700  1.0  -0.6053
  O  O456  1  0.458500  0.293580  0.867630  1.0  -0.5481
  O  O457  1  0.821860  0.683860  0.578550  1.0  -0.6112
  O  O458  1  0.712610  0.808510  0.575140  1.0  -0.6041
  O  O459  1  0.299570  0.446790  0.867310  1.0  -0.5349
  O  O460  1  0.620890  0.188990  0.602570  1.0  -0.5807
  O  O461  1  0.280780  0.711240  0.997110  1.0  -0.4684
  O  O462  1  0.711240  0.280780  0.497110  1.0  -0.468
  O  O463  1  0.629250  0.737590  0.545350  1.0  -0.5889
  O  O464  1  0.719220  0.288760  0.002890  1.0  -0.4685
  O  O465  1  0.370750  0.262410  0.454650  1.0  -0.5888
  O  O466  1  0.811010  0.379110  0.897430  1.0  -0.5801
  O  O467  1  0.737320  0.618580  0.545320  1.0  -0.5953
  O  O468  1  0.933490  0.918530  0.299280  1.0  -0.6127
  O  O469  1  0.760010  0.157110  0.451600  1.0  -0.6088
  O  O470  1  0.778400  0.149120  0.073730  1.0  -0.613
  O  O471  1  0.288760  0.719220  0.502890  1.0  -0.4683
  O  O472  1  0.737590  0.629250  0.045350  1.0  -0.5875
  O  O473  1  0.661770  0.672250  0.154040  1.0  -0.5344
  O  O474  1  0.810860  0.691160  0.664310  1.0  -0.6034
  O  O475  1  0.195490  0.310950  0.835180  1.0  -0.592
  O  O476  1  0.129600  0.128140  0.232880  1.0  -0.5348
  O  O477  1  0.327750  0.338230  0.345960  1.0  -0.5343
  O  O478  1  0.149120  0.778400  0.573730  1.0  -0.6137
  O  O479  1  0.188990  0.620890  0.102570  1.0  -0.5788
  O  O480  1  0.201380  0.625380  0.609300  1.0  -0.6056
  O  O481  1  0.316140  0.178140  0.921450  1.0  -0.6092
  O  O482  1  0.191490  0.287390  0.924860  1.0  -0.6045
  O  O483  1  0.684500  0.362100  0.408300  1.0  -0.5494
  O  O484  1  0.157110  0.760010  0.951600  1.0  -0.6095
  O  O485  1  0.225360  0.856700  0.434410  1.0  -0.602
  O  O486  1  0.870400  0.871860  0.767120  1.0  -0.5345
  O  O487  1  0.143300  0.774640  0.065590  1.0  -0.6013
  O  O488  1  0.856700  0.225360  0.934410  1.0  -0.6001
  O  O489  1  0.236090  0.838070  0.038610  1.0  -0.5973
  O  O490  1  0.808510  0.712610  0.075140  1.0  -0.6041
  O  O491  1  0.066510  0.081470  0.700720  1.0  -0.612
  O  O492  1  0.691160  0.810860  0.164310  1.0  -0.6026
  O  O493  1  0.189140  0.308840  0.335690  1.0  -0.6025
  O  O494  1  0.842890  0.239990  0.048400  1.0  -0.6096
