# generated using pymatgen
data_CoCu4B2H45C51(N9O8)2
_symmetry_space_group_name_H-M   'P 1'
_cell_length_a   16.13110000
_cell_length_b   16.13110000
_cell_length_c   18.95400000
_cell_angle_alpha   66.73100000
_cell_angle_beta   66.73100000
_cell_angle_gamma   68.44700000
_symmetry_Int_Tables_number   1
_chemical_formula_structural   CoCu4B2H45C51(N9O8)2
_chemical_formula_sum   'Co2 Cu8 B4 H90 C102 N36 O32'
_cell_volume   4029.77855249
_cell_formula_units_Z   2
loop_
 _symmetry_equiv_pos_site_id
 _symmetry_equiv_pos_as_xyz
  1  'x, y, z'
loop_
 _atom_site_type_symbol
 _atom_site_label
 _atom_site_symmetry_multiplicity
 _atom_site_fract_x
 _atom_site_fract_y
 _atom_site_fract_z
 _atom_site_occupancy
 _atom_site_charge
  Co  Co1  1  0.122490  0.870550  0.222180  1.0  0.7755
  Co  Co2  1  0.129450  0.877510  0.777820  1.0  0.7749
  Cu  Cu3  1  0.159820  0.446400  0.975200  1.0  0.8357
  Cu  Cu4  1  0.697330  0.918210  0.450140  1.0  0.8719
  Cu  Cu5  1  0.553600  0.840180  0.024800  1.0  0.8322
  Cu  Cu6  1  0.141940  0.453780  0.460880  1.0  0.9012
  Cu  Cu7  1  0.546220  0.858060  0.539120  1.0  0.8995
  Cu  Cu8  1  0.697350  0.914510  0.966210  1.0  0.8623
  Cu  Cu9  1  0.081790  0.302670  0.549860  1.0  0.8712
  Cu  Cu10  1  0.085490  0.302650  0.033790  1.0  0.8615
  B  B11  1  0.283000  0.772600  0.311300  1.0  0.4596
  B  B12  1  0.227400  0.717000  0.688700  1.0  0.4554
  B  B13  1  0.955400  0.965600  0.143400  1.0  0.4597
  B  B14  1  0.034400  0.044600  0.856600  1.0  0.4623
  H  H15  1  0.836800  0.046800  0.947600  1.0  0.0896
  H  H16  1  0.925800  0.578000  0.979200  1.0  0.1018
  H  H17  1  0.541500  0.267100  0.435300  1.0  0.0897
  H  H18  1  0.277200  0.142200  0.893300  1.0  0.0842
  H  H19  1  0.287100  0.812700  0.879600  1.0  0.1091
  H  H20  1  0.638000  0.605600  0.206900  1.0  0.0896
  H  H21  1  0.378200  0.077000  0.635700  1.0  0.0773
  H  H22  1  0.271900  0.590700  0.415000  1.0  0.0774
  H  H23  1  0.422000  0.074200  0.020800  1.0  0.1024
  H  H24  1  0.727100  0.491100  0.149300  1.0  0.095
  H  H25  1  0.342300  0.932100  0.668300  1.0  0.0797
  H  H26  1  0.795700  0.709700  0.337800  1.0  0.0666
  H  H27  1  0.139200  0.033400  0.956800  1.0  0.097
  H  H28  1  0.682800  0.608400  0.459400  1.0  0.0986
  H  H29  1  0.725300  0.547300  0.241300  1.0  0.093
  H  H30  1  0.438100  0.088900  0.680400  1.0  0.1018
  H  H31  1  0.901600  0.392000  0.745100  1.0  0.108
  H  H32  1  0.508900  0.272900  0.850700  1.0  0.0942
  H  H33  1  0.425600  0.132400  0.431100  1.0  0.1155
  H  H34  1  0.375100  0.234700  0.661000  1.0  0.0679
  H  H35  1  0.923000  0.621800  0.364300  1.0  0.0782
  H  H36  1  0.833400  0.384200  0.484600  1.0  0.0772
  H  H37  1  0.400700  0.027100  0.873200  1.0  0.1018
  H  H38  1  0.615800  0.166600  0.515400  1.0  0.0752
  H  H39  1  0.857800  0.722800  0.106700  1.0  0.0906
  H  H40  1  0.717700  0.554900  0.062000  1.0  0.1054
  H  H41  1  0.452700  0.274700  0.758700  1.0  0.089
  H  H42  1  0.141400  0.058800  0.598100  1.0  0.0805
  H  H43  1  0.529100  0.140700  0.812200  1.0  0.0781
  H  H44  1  0.119400  0.748600  0.580200  1.0  0.0986
  H  H45  1  0.664500  0.556500  0.575900  1.0  0.1086
  H  H46  1  0.977200  0.952800  0.669000  1.0  0.0743
  H  H47  1  0.972900  0.599300  0.126800  1.0  0.1034
  H  H48  1  0.409300  0.728100  0.585000  1.0  0.0771
  H  H49  1  0.608000  0.098400  0.254900  1.0  0.1088
  H  H50  1  0.582700  0.114100  0.609300  1.0  0.1011
  H  H51  1  0.914500  0.559700  0.218600  1.0  0.118
  H  H52  1  0.911100  0.561900  0.319600  1.0  0.1015
  H  H53  1  0.909500  0.832100  0.875000  1.0  0.0641
  H  H54  1  0.328000  0.200800  0.463000  1.0  0.0967
  H  H55  1  0.365800  0.104200  0.523500  1.0  0.0964
  H  H56  1  0.391600  0.317200  0.540600  1.0  0.0954
  H  H57  1  0.466000  0.754000  0.194900  1.0  0.0974
  H  H58  1  0.859300  0.470900  0.187800  1.0  0.0798
  H  H59  1  0.988100  0.540900  0.683500  1.0  0.1042
  H  H60  1  0.047200  0.022800  0.331000  1.0  0.0753
  H  H61  1  0.765300  0.624900  0.339000  1.0  0.0667
  H  H62  1  0.325600  0.107200  0.000100  1.0  0.0951
  H  H63  1  0.867600  0.574400  0.568900  1.0  0.1168
  H  H64  1  0.445100  0.282300  0.938000  1.0  0.1046
  H  H65  1  0.953200  0.163200  0.052400  1.0  0.0896
  H  H66  1  0.311900  0.881300  0.049500  1.0  0.0736
  H  H67  1  0.118700  0.688100  0.950500  1.0  0.0742
  H  H68  1  0.067900  0.657700  0.331700  1.0  0.0776
  H  H69  1  0.332900  0.744700  0.338700  1.0  0.1008
  H  H70  1  0.802900  0.464500  0.071100  1.0  0.1022
  H  H71  1  0.673200  0.650800  0.248000  1.0  0.0891
  H  H72  1  0.852700  0.501900  0.735200  1.0  0.2073
  H  H73  1  0.246000  0.534000  0.805100  1.0  0.0961
  H  H74  1  0.440300  0.085500  0.781400  1.0  0.12
  H  H75  1  0.459100  0.011900  0.316500  1.0  0.1078
  H  H76  1  0.187300  0.712900  0.120400  1.0  0.1078
  H  H77  1  0.498100  0.147300  0.264800  1.0  0.2056
  H  H78  1  0.892800  0.674400  0.999900  1.0  0.0968
  H  H79  1  0.779200  0.996000  0.259700  1.0  0.1013
  H  H80  1  0.290300  0.204300  0.662200  1.0  0.0673
  H  H81  1  0.167900  0.090500  0.125000  1.0  0.0646
  H  H82  1  0.004000  0.220800  0.740300  1.0  0.0994
  H  H83  1  0.533500  0.221500  0.574900  1.0  0.0935
  H  H84  1  0.394400  0.362000  0.793100  1.0  0.0911
  H  H85  1  0.443500  0.335500  0.424100  1.0  0.1048
  H  H86  1  0.966600  0.860800  0.043200  1.0  0.0939
  H  H87  1  0.808600  0.692400  0.202000  1.0  0.0711
  H  H88  1  0.255300  0.667100  0.661300  1.0  0.1019
  H  H89  1  0.497000  0.258200  0.377400  1.0  0.1085
  H  H90  1  0.941200  0.858600  0.401900  1.0  0.0801
  H  H91  1  0.799200  0.672000  0.537000  1.0  0.0956
  H  H92  1  0.307600  0.191400  0.798000  1.0  0.0706
  H  H93  1  0.885900  0.417300  0.390700  1.0  0.1007
  H  H94  1  0.349200  0.326800  0.752000  1.0  0.0907
  H  H95  1  0.828900  0.649700  0.968100  1.0  0.1148
  H  H96  1  0.535500  0.197100  0.928900  1.0  0.1036
  H  H97  1  0.778500  0.466500  0.425100  1.0  0.0966
  H  H98  1  0.350300  0.171100  0.031900  1.0  0.1156
  H  H99  1  0.251400  0.880600  0.419800  1.0  0.0988
  H  H100  1  0.732900  0.458500  0.564700  1.0  0.0903
  H  H101  1  0.902800  0.994400  0.119000  1.0  0.11
  H  H102  1  0.895800  0.634200  0.476500  1.0  0.1019
  H  H103  1  0.005600  0.097200  0.881000  1.0  0.11
  H  H104  1  0.741800  0.503000  0.622600  1.0  0.1068
  C  C105  1  0.751200  0.915800  0.697500  1.0  -0.07
  C  C106  1  0.700600  0.836200  0.736000  1.0  0.1391
  C  C107  1  0.610500  0.895900  0.746700  1.0  -0.086
  C  C108  1  0.690500  0.818900  0.610900  1.0  0.6925
  C  C109  1  0.565900  0.089900  0.154500  1.0  -0.0873
  C  C110  1  0.834700  0.671900  0.153000  1.0  -0.1833
  C  C111  1  0.390400  0.307200  0.785400  1.0  -0.373
  C  C112  1  0.115900  0.345300  0.766800  1.0  -0.1097
  C  C113  1  0.754500  0.646300  0.138100  1.0  0.0419
  C  C114  1  0.905200  0.449600  0.749700  1.0  -0.2511
  C  C115  1  0.161200  0.987200  0.929900  1.0  0.1719
  C  C116  1  0.976800  0.459400  0.089500  1.0  0.6672
  C  C117  1  0.217700  0.585700  0.826300  1.0  0.156
  C  C118  1  0.485000  0.109800  0.861900  1.0  -0.1932
  C  C119  1  0.550400  0.094800  0.250300  1.0  -0.252
  C  C120  1  0.363100  0.266700  0.550000  1.0  -0.1144
  C  C121  1  0.495000  0.134200  0.550900  1.0  0.0643
  C  C122  1  0.560400  0.956800  0.374200  1.0  0.6481
  C  C123  1  0.132300  0.759300  0.112000  1.0  0.2451
  C  C124  1  0.328100  0.165300  0.847000  1.0  -0.1833
  C  C125  1  0.433600  0.204200  0.496500  1.0  0.1424
  C  C126  1  0.104100  0.389500  0.253300  1.0  -0.0905
  C  C127  1  0.687100  0.728700  0.468000  1.0  0.6792
  C  C128  1  0.267700  0.298500  0.912800  1.0  0.6374
  C  C129  1  0.483200  0.272000  0.427400  1.0  -0.3419
  C  C130  1  0.316300  0.300900  0.258000  1.0  -0.0883
  C  C131  1  0.573000  0.958600  0.101400  1.0  0.6606
  C  C132  1  0.036200  0.167600  0.721400  1.0  0.099
  C  C133  1  0.843900  0.616100  0.523200  1.0  -0.3622
  C  C134  1  0.865800  0.505000  0.449100  1.0  0.0679
  C  C135  1  0.163800  0.299400  0.264000  1.0  0.1379
  C  C136  1  0.720900  0.761900  0.814200  1.0  -0.0327
  C  C137  1  0.021200  0.896600  0.661000  1.0  0.2769
  C  C138  1  0.569200  0.940400  0.243900  1.0  -0.0218
  C  C139  1  0.998600  0.471800  0.701000  1.0  -0.1337
  C  C140  1  0.001000  0.471000  0.828400  1.0  0.1369
  C  C141  1  0.271300  0.312900  0.532000  1.0  0.6734
  C  C142  1  0.562000  0.161200  0.563600  1.0  -0.3669
  C  C143  1  0.123300  0.658700  0.337600  1.0  0.1923
  C  C144  1  0.529000  0.999000  0.171600  1.0  0.1343
  C  C145  1  0.911600  0.886600  0.881500  1.0  0.2845
  C  C146  1  0.041400  0.427000  0.898600  1.0  0.6609
  C  C147  1  0.701500  0.673500  0.830800  1.0  -0.0748
  C  C148  1  0.059600  0.430800  0.756100  1.0  -0.0257
  C  C149  1  0.871800  0.624000  0.000900  1.0  -0.3683
  C  C150  1  0.999800  0.127600  0.078900  1.0  0.1449
  C  C151  1  0.330800  0.849600  0.096900  1.0  0.2831
  C  C152  1  0.242800  0.167600  0.343300  1.0  -0.1039
  C  C153  1  0.730600  0.773600  0.682000  1.0  0.0074
  C  C154  1  0.238100  0.279100  0.185800  1.0  -0.0346
  C  C155  1  0.654700  0.884100  0.233200  1.0  -0.1085
  C  C156  1  0.733300  0.636900  0.450000  1.0  -0.1157
  C  C157  1  0.761600  0.516200  0.093300  1.0  -0.3687
  C  C158  1  0.229800  0.621800  0.383600  1.0  0.1488
  C  C159  1  0.912300  0.585700  0.162400  1.0  -0.1205
  C  C160  1  0.890200  0.515000  0.138100  1.0  -0.1858
  C  C161  1  0.692800  0.609600  0.214600  1.0  -0.3716
  C  C162  1  0.872400  0.000200  0.921100  1.0  0.1427
  C  C163  1  0.103400  0.978800  0.339000  1.0  0.2779
  C  C164  1  0.956300  0.451900  0.474500  1.0  0.5721
  C  C165  1  0.326500  0.298500  0.169200  1.0  -0.0726
  C  C166  1  0.882400  0.587000  0.366200  1.0  -0.1397
  C  C167  1  0.181100  0.309500  0.389100  1.0  0.692
  C  C168  1  0.832400  0.757200  0.656700  1.0  -0.099
  C  C169  1  0.341300  0.876700  0.662400  1.0  0.1926
  C  C170  1  0.226400  0.269400  0.318000  1.0  0.0071
  C  C171  1  0.684600  0.803400  0.884400  1.0  0.6431
  C  C172  1  0.043200  0.439600  0.625800  1.0  0.6471
  C  C173  1  0.113400  0.088400  0.118500  1.0  0.2855
  C  C174  1  0.378200  0.770200  0.616400  1.0  0.1493
  C  C175  1  0.196600  0.315400  0.115600  1.0  0.6474
  C  C176  1  0.988500  0.576100  0.793400  1.0  -0.0559
  C  C177  1  0.423900  0.011500  0.206600  1.0  -0.0511
  C  C178  1  0.383900  0.156100  0.476800  1.0  -0.3637
  C  C179  1  0.414300  0.782300  0.173700  1.0  0.1553
  C  C180  1  0.701500  0.732300  0.087200  1.0  0.6389
  C  C181  1  0.012800  0.838800  0.070100  1.0  0.1735
  C  C182  1  0.084200  0.248800  0.302500  1.0  -0.071
  C  C183  1  0.838800  0.438000  0.436400  1.0  -0.3653
  C  C184  1  0.353700  0.245500  0.861900  1.0  0.0436
  C  C185  1  0.832400  0.963800  0.278600  1.0  0.0986
  C  C186  1  0.376000  0.128200  0.999100  1.0  -0.367
  C  C187  1  0.414300  0.087700  0.837600  1.0  -0.1225
  C  C188  1  0.483800  0.238400  0.906700  1.0  -0.3661
  C  C189  1  0.728000  0.516800  0.572600  1.0  -0.3414
  C  C190  1  0.548100  0.043700  0.525500  1.0  0.5755
  C  C191  1  0.792500  0.644100  0.366800  1.0  -0.1499
  C  C192  1  0.109700  0.079700  0.644600  1.0  0.2501
  C  C193  1  0.424100  0.179500  0.910700  1.0  0.0813
  C  C194  1  0.795800  0.566400  0.503500  1.0  0.1444
  C  C195  1  0.910100  0.434100  0.845500  1.0  -0.0939
  C  C196  1  0.699100  0.683700  0.742000  1.0  -0.0851
  C  C197  1  0.150400  0.669200  0.903100  1.0  0.2839
  C  C198  1  0.820500  0.575900  0.089300  1.0  0.0801
  C  C199  1  0.920300  0.890300  0.355400  1.0  0.2506
  C  C200  1  0.240700  0.867700  0.888000  1.0  0.2438
  C  C201  1  0.211300  0.904100  0.386900  1.0  0.0946
  C  C202  1  0.413000  0.117600  0.633800  1.0  -0.1405
  C  C203  1  0.540600  0.023200  0.910500  1.0  0.6731
  C  C204  1  0.528200  0.001400  0.299000  1.0  -0.1347
  C  C205  1  0.355900  0.207500  0.633200  1.0  -0.1546
  C  C206  1  0.095900  0.788700  0.613100  1.0  0.0957
  N  N207  1  0.271800  0.846000  0.697500  1.0  -0.2848
  N  N208  1  0.089700  0.011100  0.144200  1.0  -0.2998
  N  N209  1  0.154000  0.728200  0.302500  1.0  -0.2864
  N  N210  1  0.416700  0.830500  0.615000  1.0  -0.4237
  N  N211  1  0.136300  0.781900  0.668000  1.0  -0.0455
  N  N212  1  0.060500  0.163100  0.083500  1.0  -0.4159
  N  N213  1  0.189300  0.578300  0.906600  1.0  -0.48
  N  N214  1  0.917700  0.941100  0.234000  1.0  0.0929
  N  N215  1  0.120400  0.983200  0.881700  1.0  0.0681
  N  N216  1  0.146710  0.913310  0.301000  1.0  -0.3412
  N  N217  1  0.226200  0.706200  0.335600  1.0  0.0331
  N  N218  1  0.058900  0.082300  0.766000  1.0  0.0938
  N  N219  1  0.013300  0.035300  0.116700  1.0  -0.046
  N  N220  1  0.083200  0.763000  0.065800  1.0  -0.3287
  N  N221  1  0.326300  0.799100  0.217900  1.0  -0.0444
  N  N222  1  0.988900  0.910300  0.855800  1.0  -0.3005
  N  N223  1  0.270800  0.842200  0.166800  1.0  -0.3201
  N  N224  1  0.104300  0.022100  0.718700  1.0  -0.3229
  N  N225  1  0.237000  0.916800  0.934200  1.0  -0.333
  N  N226  1  0.831900  0.932500  0.359400  1.0  -0.3947
  N  N227  1  0.964700  0.986700  0.883300  1.0  -0.0463
  N  N228  1  0.157800  0.729200  0.833200  1.0  -0.3203
  N  N229  1  0.067500  0.168100  0.640600  1.0  -0.3989
  N  N230  1  0.169500  0.583300  0.385000  1.0  -0.4238
  N  N231  1  0.421700  0.810700  0.093400  1.0  -0.4764
  N  N232  1  0.168750  0.908750  0.856200  1.0  -0.2192
  N  N233  1  0.293800  0.773800  0.664400  1.0  0.0336
  N  N234  1  0.086690  0.853290  0.699000  1.0  -0.342
  N  N235  1  0.091250  0.831250  0.143800  1.0  -0.2215
  N  N236  1  0.016800  0.879600  0.118300  1.0  0.0681
  N  N237  1  0.218100  0.863700  0.332000  1.0  -0.045
  N  N238  1  0.020300  0.858300  0.612800  1.0  -0.3507
  N  N239  1  0.977900  0.895700  0.281300  1.0  -0.3251
  N  N240  1  0.141700  0.979700  0.387200  1.0  -0.352
  N  N241  1  0.200900  0.673700  0.782100  1.0  -0.0452
  N  N242  1  0.836900  0.939500  0.916500  1.0  -0.4173
  O  O243  1  0.602300  0.740900  0.511500  1.0  -0.6039
  O  O244  1  0.032200  0.358200  0.637200  1.0  -0.583
  O  O245  1  0.641800  0.967800  0.362800  1.0  -0.5814
  O  O246  1  0.212200  0.269200  0.558600  1.0  -0.5882
  O  O247  1  0.980800  0.377600  0.099400  1.0  -0.586
  O  O248  1  0.211500  0.394700  0.065400  1.0  -0.6009
  O  O249  1  0.259100  0.397700  0.488500  1.0  -0.6033
  O  O250  1  0.739500  0.799500  0.046900  1.0  -0.5938
  O  O251  1  0.506300  0.975100  0.560400  1.0  -0.5997
  O  O252  1  0.622400  0.019200  0.900600  1.0  -0.5888
  O  O253  1  0.196400  0.384800  0.380100  1.0  -0.5763
  O  O254  1  0.020000  0.362200  0.950800  1.0  -0.5414
  O  O255  1  0.637800  0.980000  0.049200  1.0  -0.5424
  O  O256  1  0.626660  0.728460  0.086100  1.0  -0.5777
  O  O257  1  0.734000  0.868600  0.547500  1.0  -0.5712
  O  O258  1  0.098200  0.469000  0.893200  1.0  -0.6046
  O  O259  1  0.730800  0.787800  0.441400  1.0  -0.5898
  O  O260  1  0.531000  0.901800  0.106800  1.0  -0.6051
  O  O261  1  0.962600  0.372600  0.524800  1.0  -0.5751
  O  O262  1  0.510900  0.919500  0.436800  1.0  -0.5484
  O  O263  1  0.080500  0.489100  0.563200  1.0  -0.5467
  O  O264  1  0.502000  0.960600  0.954300  1.0  -0.5859
  O  O265  1  0.039400  0.498000  0.045700  1.0  -0.5833
  O  O266  1  0.615200  0.803600  0.619900  1.0  -0.579
  O  O267  1  0.131400  0.266000  0.452500  1.0  -0.5741
  O  O268  1  0.271540  0.373340  0.913900  1.0  -0.5765
  O  O269  1  0.627400  0.037400  0.475200  1.0  -0.5734
  O  O270  1  0.153100  0.267700  0.111300  1.0  -0.5829
  O  O271  1  0.024900  0.493700  0.439600  1.0  -0.5953
  O  O272  1  0.605300  0.788500  0.934600  1.0  -0.5999
  O  O273  1  0.200500  0.260500  0.953100  1.0  -0.5914
  O  O274  1  0.732300  0.846900  0.888700  1.0  -0.5815
