# generated using pymatgen
data_CuH18C22(NO)4
_symmetry_space_group_name_H-M   'P 1'
_cell_length_a   13.48550000
_cell_length_b   14.56630000
_cell_length_c   15.35230000
_cell_angle_alpha   114.08700000
_cell_angle_beta   116.05300000
_cell_angle_gamma   90.00000000
_symmetry_Int_Tables_number   1
_chemical_formula_structural   CuH18C22(NO)4
_chemical_formula_sum   'Cu4 H72 C88 N16 O16'
_cell_volume   2413.58020804
_cell_formula_units_Z   4
loop_
 _symmetry_equiv_pos_site_id
 _symmetry_equiv_pos_as_xyz
  1  'x, y, z'
loop_
 _atom_site_type_symbol
 _atom_site_label
 _atom_site_symmetry_multiplicity
 _atom_site_fract_x
 _atom_site_fract_y
 _atom_site_fract_z
 _atom_site_occupancy
 _atom_site_charge
  Cu  Cu1  1  0.454290  0.848600  0.388600  1.0  0.8273
  Cu  Cu2  1  0.545710  0.151400  0.611400  1.0  0.8278
  Cu  Cu3  1  0.934310  0.348600  0.388600  1.0  0.8285
  Cu  Cu4  1  0.065690  0.651400  0.611400  1.0  0.8291
  H  H5  1  0.216300  0.123000  0.533600  1.0  0.0941
  H  H6  1  0.225300  0.608600  0.951600  1.0  0.1264
  H  H7  1  0.938200  0.652100  0.256000  1.0  0.1399
  H  H8  1  0.743900  0.654200  0.126400  1.0  0.1036
  H  H9  1  0.166900  0.344000  0.271400  1.0  0.1119
  H  H10  1  0.682200  0.847900  0.744000  1.0  0.1397
  H  H11  1  0.682700  0.377000  0.466400  1.0  0.0944
  H  H12  1  0.579100  0.390800  0.934800  1.0  0.0845
  H  H13  1  0.564300  0.555900  0.397600  1.0  0.1079
  H  H14  1  0.104500  0.844000  0.271400  1.0  0.1125
  H  H15  1  0.517600  0.437800  0.307400  1.0  0.1058
  H  H16  1  0.650600  0.168200  0.342200  1.0  0.1124
  H  H17  1  0.349400  0.831800  0.657800  1.0  0.1132
  H  H18  1  0.699900  0.040300  0.224200  1.0  0.0892
  H  H19  1  0.598400  0.865400  0.148800  1.0  0.1179
  H  H20  1  0.256100  0.345800  0.873600  1.0  0.1038
  H  H21  1  0.783700  0.877000  0.466400  1.0  0.0948
  H  H22  1  0.312300  0.356500  0.230600  1.0  0.1181
  H  H23  1  0.833300  0.055900  0.397600  1.0  0.1052
  H  H24  1  0.937500  0.345300  0.579800  1.0  0.0845
  H  H25  1  0.691600  0.668200  0.342200  1.0  0.1131
  H  H26  1  0.605100  0.511400  0.824800  1.0  0.1089
  H  H27  1  0.694200  0.355400  0.296200  1.0  0.0849
  H  H28  1  0.317300  0.623000  0.533600  1.0  0.0945
  H  H29  1  0.210200  0.062200  0.692600  1.0  0.1063
  H  H30  1  0.357700  0.154700  0.420200  1.0  0.0838
  H  H31  1  0.318600  0.829700  0.495600  1.0  0.0893
  H  H32  1  0.085400  0.621800  0.801400  1.0  0.1067
  H  H33  1  0.774700  0.391400  0.048400  1.0  0.1269
  H  H34  1  0.449600  0.634600  0.851200  1.0  0.1182
  H  H35  1  0.789800  0.937800  0.307400  1.0  0.1054
  H  H36  1  0.833100  0.656000  0.728600  1.0  0.1128
  H  H37  1  0.475700  0.459700  0.775800  1.0  0.0898
  H  H38  1  0.687700  0.643500  0.769400  1.0  0.118
  H  H39  1  0.308400  0.331800  0.657800  1.0  0.113
  H  H40  1  0.780300  0.988600  0.175200  1.0  0.1114
  H  H41  1  0.550400  0.365400  0.148800  1.0  0.1181
  H  H42  1  0.166700  0.944100  0.602400  1.0  0.107
  H  H43  1  0.617500  0.845800  0.873600  1.0  0.1054
  H  H44  1  0.420900  0.609200  0.065200  1.0  0.084
  H  H45  1  0.968400  0.865600  0.504800  1.0  0.1032
  H  H46  1  0.398000  0.144600  0.703800  1.0  0.0844
  H  H47  1  0.061800  0.347900  0.744000  1.0  0.1397
  H  H48  1  0.355700  0.890800  0.934800  1.0  0.0835
  H  H49  1  0.524300  0.540300  0.224200  1.0  0.0905
  H  H50  1  0.273700  0.891400  0.048400  1.0  0.1248
  H  H51  1  0.317800  0.152100  0.256000  1.0  0.1391
  H  H52  1  0.642300  0.845300  0.579800  1.0  0.0847
  H  H53  1  0.482400  0.562200  0.692600  1.0  0.1079
  H  H54  1  0.394900  0.488600  0.175200  1.0  0.1102
  H  H55  1  0.726300  0.108600  0.951600  1.0  0.1252
  H  H56  1  0.536400  0.365600  0.504800  1.0  0.103
  H  H57  1  0.463600  0.634400  0.495200  1.0  0.1035
  H  H58  1  0.918300  0.856500  0.230600  1.0  0.1188
  H  H59  1  0.219700  0.011400  0.824800  1.0  0.1109
  H  H60  1  0.914600  0.378200  0.198600  1.0  0.1069
  H  H61  1  0.177000  0.329700  0.495600  1.0  0.0896
  H  H62  1  0.895500  0.156000  0.728600  1.0  0.1129
  H  H63  1  0.382500  0.154200  0.126400  1.0  0.1025
  H  H64  1  0.284000  0.878200  0.198600  1.0  0.1048
  H  H65  1  0.716000  0.121800  0.801400  1.0  0.1048
  H  H66  1  0.062500  0.654700  0.420200  1.0  0.0843
  H  H67  1  0.300100  0.959700  0.775800  1.0  0.0921
  H  H68  1  0.644300  0.109200  0.065200  1.0  0.083
  H  H69  1  0.031600  0.134400  0.495200  1.0  0.1032
  H  H70  1  0.681400  0.170300  0.504400  1.0  0.09
  H  H71  1  0.602000  0.855400  0.296200  1.0  0.0844
  H  H72  1  0.081700  0.143500  0.769400  1.0  0.1189
  H  H73  1  0.305800  0.644600  0.703800  1.0  0.0848
  H  H74  1  0.401600  0.134600  0.851200  1.0  0.1178
  H  H75  1  0.823000  0.670300  0.504400  1.0  0.0895
  H  H76  1  0.435700  0.444100  0.602400  1.0  0.1083
  C  C77  1  0.866510  0.523410  0.566220  1.0  0.6503
  C  C78  1  0.045790  0.075290  0.448980  1.0  -0.1065
  C  C79  1  0.165430  0.994630  0.668660  1.0  -0.1917
  C  C80  1  0.403190  0.575290  0.448980  1.0  -0.1101
  C  C81  1  0.683980  0.431680  0.528160  1.0  -0.0678
  C  C82  1  0.558450  0.380350  0.982300  1.0  0.1432
  C  C83  1  0.316020  0.568320  0.471840  1.0  -0.0698
  C  C84  1  0.289380  0.637880  0.755360  1.0  0.1577
  C  C85  1  0.375340  0.631540  0.842680  1.0  -0.1892
  C  C86  1  0.624660  0.368460  0.157320  1.0  -0.1888
  C  C87  1  0.912360  0.654160  0.305120  1.0  -0.1986
  C  C88  1  0.454780  0.148880  0.173160  1.0  0.1571
  C  C89  1  0.348680  0.875680  0.188360  1.0  0.1557
  C  C90  1  0.718380  0.648880  0.173160  1.0  0.1571
  C  C91  1  0.657810  0.116510  0.901820  1.0  -0.1589
  C  C92  1  0.160320  0.624320  0.811640  1.0  0.1564
  C  C93  1  0.845700  0.665000  0.452400  1.0  0.1674
  C  C94  1  0.520890  0.844490  0.720780  1.0  -0.0332
  C  C95  1  0.465980  0.137880  0.755360  1.0  0.1612
  C  C96  1  0.755990  0.383490  0.098180  1.0  -0.1461
  C  C97  1  0.503230  0.494630  0.668660  1.0  -0.1884
  C  C98  1  0.014140  0.344140  0.596880  1.0  0.1738
  C  C99  1  0.087640  0.345840  0.694880  1.0  -0.1921
  C  C100  1  0.834570  0.005370  0.331340  1.0  -0.1921
  C  C101  1  0.954210  0.924710  0.551020  1.0  -0.1043
  C  C102  1  0.417260  0.155860  0.403120  1.0  0.1771
  C  C103  1  0.564920  0.356320  0.724840  1.0  0.7436
  C  C104  1  0.565730  0.120430  0.918860  1.0  0.066
  C  C105  1  0.766880  0.663680  0.355960  1.0  -0.2003
  C  C106  1  0.089850  0.903550  0.316700  1.0  -0.0414
  C  C107  1  0.576150  0.119650  0.017700  1.0  0.1431
  C  C108  1  0.410920  0.836320  0.644040  1.0  -0.1985
  C  C109  1  0.800110  0.655510  0.279220  1.0  -0.0328
  C  C110  1  0.281620  0.351120  0.826840  1.0  0.1587
  C  C111  1  0.651320  0.124320  0.811640  1.0  0.1553
  C  C112  1  0.582740  0.844140  0.596880  1.0  0.1763
  C  C113  1  0.021120  0.089220  0.707240  1.0  -0.1181
  C  C114  1  0.403380  0.496780  0.358960  1.0  0.1452
  C  C115  1  0.839680  0.375680  0.188360  1.0  0.1558
  C  C116  1  0.342190  0.883490  0.098180  1.0  -0.1492
  C  C117  1  0.462030  0.539230  0.241660  1.0  -0.2981
  C  C118  1  0.840080  0.143680  0.275160  1.0  0.7491
  C  C119  1  0.393300  0.835000  0.547600  1.0  0.1667
  C  C120  1  0.434270  0.879570  0.081140  1.0  0.0666
  C  C121  1  0.300290  0.976590  0.433780  1.0  0.6483
  C  C122  1  0.589080  0.163680  0.355960  1.0  -0.1984
  C  C123  1  0.699710  0.023410  0.566220  1.0  0.6484
  C  C124  1  0.220370  0.960770  0.758340  1.0  -0.3024
  C  C125  1  0.441550  0.619650  0.017700  1.0  0.1431
  C  C126  1  0.537970  0.460770  0.758340  1.0  -0.3
  C  C127  1  0.985860  0.655860  0.403120  1.0  0.174
  C  C128  1  0.226790  0.482890  0.406380  1.0  -0.1679
  C  C129  1  0.534020  0.862120  0.244640  1.0  0.1599
  C  C130  1  0.773150  0.596450  0.683300  1.0  -0.0387
  C  C131  1  0.392760  0.154160  0.305120  1.0  -0.2034
  C  C132  1  0.710620  0.362120  0.244640  1.0  0.1584
  C  C133  1  0.545220  0.851120  0.826840  1.0  0.1563
  C  C134  1  0.044420  0.003220  0.641040  1.0  0.1435
  C  C135  1  0.646870  0.379570  0.081140  1.0  0.0665
  C  C136  1  0.496770  0.505370  0.331340  1.0  -0.1904
  C  C137  1  0.607240  0.845840  0.694880  1.0  -0.203
  C  C138  1  0.978880  0.910780  0.292760  1.0  -0.1198
  C  C139  1  0.179590  0.982890  0.406380  1.0  -0.1662
  C  C140  1  0.244010  0.616510  0.901820  1.0  -0.1572
  C  C141  1  0.844180  0.931680  0.528160  1.0  -0.0689
  C  C142  1  0.820410  0.017110  0.593620  1.0  -0.1677
  C  C143  1  0.353130  0.620430  0.918860  1.0  0.0668
  C  C144  1  0.779630  0.039230  0.241660  1.0  -0.3003
  C  C145  1  0.155820  0.068320  0.471840  1.0  -0.067
  C  C146  1  0.233120  0.336320  0.644040  1.0  -0.2004
  C  C147  1  0.467340  0.131540  0.842680  1.0  -0.1871
  C  C148  1  0.606700  0.165000  0.452400  1.0  0.1658
  C  C149  1  0.423850  0.880350  0.982300  1.0  0.1432
  C  C150  1  0.596620  0.503220  0.641040  1.0  0.1449
  C  C151  1  0.686120  0.589220  0.707240  1.0  -0.1182
  C  C152  1  0.479110  0.155510  0.279220  1.0  -0.031
  C  C153  1  0.226850  0.403550  0.316700  1.0  -0.0378
  C  C154  1  0.199890  0.344490  0.720780  1.0  -0.0319
  C  C155  1  0.154300  0.335000  0.547600  1.0  0.1684
  C  C156  1  0.159920  0.856320  0.724840  1.0  0.7523
  C  C157  1  0.313880  0.410780  0.292760  1.0  -0.1215
  C  C158  1  0.133490  0.476590  0.433780  1.0  0.6489
  C  C159  1  0.435080  0.643680  0.275160  1.0  0.7405
  C  C160  1  0.773210  0.517110  0.593620  1.0  -0.1681
  C  C161  1  0.532660  0.868460  0.157320  1.0  -0.1889
  C  C162  1  0.955580  0.996780  0.358960  1.0  0.1434
  C  C163  1  0.596810  0.424710  0.551020  1.0  -0.1064
  C  C164  1  0.910150  0.096450  0.683300  1.0  -0.0341
  N  N165  1  0.386760  0.364260  0.855520  1.0  -0.2471
  N  N166  1  0.531240  0.135740  0.144480  1.0  -0.2481
  N  N167  1  0.454610  0.367310  0.958420  1.0  -0.2371
  N  N168  1  0.545390  0.632690  0.041580  1.0  -0.2373
  N  N169  1  0.468760  0.864260  0.855520  1.0  -0.2462
  N  N170  1  0.046460  0.340980  0.524720  1.0  -0.3131
  N  N171  1  0.953540  0.659020  0.475280  1.0  -0.3111
  N  N172  1  0.496190  0.132690  0.041580  1.0  -0.2382
  N  N173  1  0.613240  0.635740  0.144480  1.0  -0.2462
  N  N174  1  0.478260  0.840980  0.524720  1.0  -0.3132
  N  N175  1  0.556700  0.135100  0.739800  1.0  -0.32
  N  N176  1  0.443300  0.864900  0.260200  1.0  -0.3169
  N  N177  1  0.183100  0.635100  0.739800  1.0  -0.3198
  N  N178  1  0.816900  0.364900  0.260200  1.0  -0.3205
  N  N179  1  0.503810  0.867310  0.958420  1.0  -0.2376
  N  N180  1  0.521740  0.159020  0.475280  1.0  -0.3114
  O  O181  1  0.376990  0.047590  0.519420  1.0  -0.6505
  O  O182  1  0.623010  0.952410  0.480580  1.0  -0.6495
  O  O183  1  0.165890  0.779820  0.649800  1.0  -0.5587
  O  O184  1  0.834110  0.220180  0.350200  1.0  -0.559
  O  O185  1  0.945730  0.601960  0.631420  1.0  -0.5849
  O  O186  1  0.335930  0.653830  0.230460  1.0  -0.6067
  O  O187  1  0.142430  0.547590  0.519420  1.0  -0.6501
  O  O188  1  0.894530  0.153830  0.230460  1.0  -0.6167
  O  O189  1  0.054270  0.398040  0.368580  1.0  -0.5824
  O  O190  1  0.685690  0.101960  0.631420  1.0  -0.5852
  O  O191  1  0.105470  0.846170  0.769540  1.0  -0.6182
  O  O192  1  0.664070  0.346170  0.769540  1.0  -0.6025
  O  O193  1  0.857570  0.452410  0.480580  1.0  -0.6511
  O  O194  1  0.516090  0.720180  0.350200  1.0  -0.5583
  O  O195  1  0.483910  0.279820  0.649800  1.0  -0.5588
  O  O196  1  0.314310  0.898040  0.368580  1.0  -0.5841
