# generated using pymatgen
data_FeSi2H8(C2N)8
_symmetry_space_group_name_H-M   'P 1'
_cell_length_a   9.57780000
_cell_length_b   15.60620000
_cell_length_c   15.60620000
_cell_angle_alpha   64.07300000
_cell_angle_beta   78.19560000
_cell_angle_gamma   101.80400000
_symmetry_Int_Tables_number   1
_chemical_formula_structural   FeSi2H8(C2N)8
_chemical_formula_sum   'Fe3 Si6 H24 C48 N24'
_cell_volume   1935.64569266
_cell_formula_units_Z   3
loop_
 _symmetry_equiv_pos_site_id
 _symmetry_equiv_pos_as_xyz
  1  'x, y, z'
loop_
 _atom_site_type_symbol
 _atom_site_label
 _atom_site_symmetry_multiplicity
 _atom_site_fract_x
 _atom_site_fract_y
 _atom_site_fract_z
 _atom_site_occupancy
 _atom_site_charge
  Fe  Fe1  1  0.000000  0.000000  0.500000  1.0  0.9025
  Fe  Fe2  1  0.500000  0.500000  0.500000  1.0  0.9025
  Fe  Fe3  1  0.000000  0.500000  0.000000  1.0  0.9025
  Si  Si4  1  0.793000  0.293000  0.414000  1.0  0.9967
  Si  Si5  1  0.793000  0.586000  0.707000  1.0  0.9971
  Si  Si6  1  0.207000  0.707000  0.586000  1.0  0.997
  Si  Si7  1  0.500000  0.293000  0.293000  1.0  0.9975
  Si  Si8  1  0.207000  0.414000  0.293000  1.0  0.997
  Si  Si9  1  0.500000  0.707000  0.707000  1.0  0.997
  H  H10  1  0.121900  0.148100  0.275200  1.0  0.0524
  H  H11  1  0.828200  0.848600  0.875700  1.0  0.0776
  H  H12  1  0.973800  0.576700  0.148100  1.0  0.0514
  H  H13  1  0.026200  0.148100  0.576700  1.0  0.0519
  H  H14  1  0.979600  0.151400  0.724300  1.0  0.0797
  H  H15  1  0.296100  0.275700  0.875700  1.0  0.0797
  H  H16  1  0.703900  0.724300  0.124300  1.0  0.0797
  H  H17  1  0.171800  0.875700  0.848600  1.0  0.0788
  H  H18  1  0.397100  0.275200  0.576700  1.0  0.0524
  H  H19  1  0.828200  0.124300  0.151400  1.0  0.0785
  H  H20  1  0.602900  0.576700  0.275200  1.0  0.0518
  H  H21  1  0.171800  0.151400  0.124300  1.0  0.0782
  H  H22  1  0.878100  0.275200  0.148100  1.0  0.0518
  H  H23  1  0.296100  0.124300  0.724300  1.0  0.0806
  H  H24  1  0.397100  0.423300  0.724800  1.0  0.0516
  H  H25  1  0.026200  0.423300  0.851900  1.0  0.0521
  H  H26  1  0.703900  0.875700  0.275700  1.0  0.0806
  H  H27  1  0.878100  0.851900  0.724800  1.0  0.0514
  H  H28  1  0.020400  0.848600  0.275700  1.0  0.0797
  H  H29  1  0.602900  0.724800  0.423300  1.0  0.0511
  H  H30  1  0.121900  0.724800  0.851900  1.0  0.0522
  H  H31  1  0.973800  0.851900  0.423300  1.0  0.0519
  H  H32  1  0.979600  0.275700  0.848600  1.0  0.0774
  H  H33  1  0.020400  0.724300  0.151400  1.0  0.0773
  C  C34  1  0.311300  0.605900  0.820000  1.0  -0.062
  C  C35  1  0.294600  0.605900  0.574100  1.0  -0.0436
  C  C36  1  0.042500  0.910300  0.274100  1.0  -0.1466
  C  C37  1  0.131300  0.425900  0.180000  1.0  -0.0433
  C  C38  1  0.376600  0.362600  0.724700  1.0  0.1318
  C  C39  1  0.867800  0.184400  0.089700  1.0  -0.1567
  C  C40  1  0.713800  0.818000  0.182000  1.0  -0.1075
  C  C41  1  0.705400  0.394100  0.425900  1.0  -0.0436
  C  C42  1  0.898700  0.275300  0.087300  1.0  0.1298
  C  C43  1  0.775800  0.914300  0.085700  1.0  0.3415
  C  C44  1  0.683400  0.815600  0.274100  1.0  -0.1515
  C  C45  1  0.132200  0.815600  0.910300  1.0  -0.1557
  C  C46  1  0.986000  0.087300  0.637400  1.0  0.1297
  C  C47  1  0.311300  0.180000  0.394100  1.0  -0.0579
  C  C48  1  0.861500  0.085700  0.000000  1.0  0.3394
  C  C49  1  0.014000  0.912700  0.362600  1.0  0.1292
  C  C50  1  0.104200  0.818000  0.000000  1.0  -0.1154
  C  C51  1  0.868700  0.180000  0.425900  1.0  -0.044
  C  C52  1  0.316600  0.184400  0.725900  1.0  -0.1519
  C  C53  1  0.014000  0.637400  0.087300  1.0  0.1325
  C  C54  1  0.895800  0.000000  0.818000  1.0  -0.117
  C  C55  1  0.132200  0.089700  0.184400  1.0  -0.1547
  C  C56  1  0.294600  0.425900  0.394100  1.0  -0.061
  C  C57  1  0.101300  0.087300  0.275300  1.0  0.1309
  C  C58  1  0.705400  0.574100  0.605900  1.0  -0.0578
  C  C59  1  0.623400  0.724700  0.362600  1.0  0.1296
  C  C60  1  0.101300  0.724700  0.912700  1.0  0.1277
  C  C61  1  0.688700  0.394100  0.180000  1.0  -0.0632
  C  C62  1  0.867800  0.910300  0.815600  1.0  -0.1528
  C  C63  1  0.286200  0.182000  0.818000  1.0  -0.1096
  C  C64  1  0.316600  0.274100  0.815600  1.0  -0.1515
  C  C65  1  0.138500  0.000000  0.085700  1.0  0.3353
  C  C66  1  0.623400  0.637400  0.275300  1.0  0.1318
  C  C67  1  0.957500  0.274100  0.910300  1.0  -0.1453
  C  C68  1  0.868700  0.574100  0.820000  1.0  -0.0454
  C  C69  1  0.376600  0.275300  0.637400  1.0  0.1295
  C  C70  1  0.131300  0.820000  0.574100  1.0  -0.0417
  C  C71  1  0.138500  0.914300  0.000000  1.0  0.3379
  C  C72  1  0.104200  0.000000  0.182000  1.0  -0.1188
  C  C73  1  0.042500  0.725900  0.089700  1.0  -0.1447
  C  C74  1  0.683400  0.725900  0.184400  1.0  -0.1512
  C  C75  1  0.895800  0.182000  0.000000  1.0  -0.1137
  C  C76  1  0.957500  0.089700  0.725900  1.0  -0.1472
  C  C77  1  0.861500  0.000000  0.914300  1.0  0.3356
  C  C78  1  0.986000  0.362600  0.912700  1.0  0.1311
  C  C79  1  0.898700  0.912700  0.724700  1.0  0.1286
  C  C80  1  0.224200  0.085700  0.914300  1.0  0.3389
  C  C81  1  0.688700  0.820000  0.605900  1.0  -0.0595
  N  N82  1  0.894800  0.088600  0.911400  1.0  -0.5542
  N  N83  1  0.193800  0.000000  0.911400  1.0  -0.5482
  N  N84  1  0.593100  0.635600  0.364400  1.0  -0.355
  N  N85  1  0.908700  0.554000  0.888700  1.0  -0.4369
  N  N86  1  0.645300  0.442700  0.446000  1.0  -0.4495
  N  N87  1  0.797400  0.888700  0.557300  1.0  -0.441
  N  N88  1  0.354700  0.446000  0.442700  1.0  -0.4376
  N  N89  1  0.091300  0.888700  0.554000  1.0  -0.4492
  N  N90  1  0.042500  0.635600  0.000000  1.0  -0.3483
  N  N91  1  0.957500  0.000000  0.635600  1.0  -0.3521
  N  N92  1  0.908700  0.111300  0.446000  1.0  -0.4506
  N  N93  1  0.193800  0.088600  0.000000  1.0  -0.5531
  N  N94  1  0.806200  0.911400  0.000000  1.0  -0.5495
  N  N95  1  0.797400  0.442700  0.111300  1.0  -0.4429
  N  N96  1  0.957500  0.364400  0.000000  1.0  -0.3477
  N  N97  1  0.806200  0.000000  0.088600  1.0  -0.5548
  N  N98  1  0.091300  0.446000  0.111300  1.0  -0.4372
  N  N99  1  0.645300  0.554000  0.557300  1.0  -0.4376
  N  N100  1  0.354700  0.557300  0.554000  1.0  -0.4488
  N  N101  1  0.202600  0.111300  0.442700  1.0  -0.4396
  N  N102  1  0.042500  0.000000  0.364400  1.0  -0.3531
  N  N103  1  0.105200  0.911400  0.088600  1.0  -0.5523
  N  N104  1  0.406900  0.364400  0.635600  1.0  -0.3546
  N  N105  1  0.202600  0.557300  0.888700  1.0  -0.442
