# generated using pymatgen
data_CoH7C9(N2O)2
_symmetry_space_group_name_H-M   'P 1'
_cell_length_a   9.55500000
_cell_length_b   15.66440000
_cell_length_c   10.02490000
_cell_angle_alpha   100.69600000
_cell_angle_beta   90.00000000
_cell_angle_gamma   90.00000000
_symmetry_Int_Tables_number   1
_chemical_formula_structural   CoH7C9(N2O)2
_chemical_formula_sum   'Co4 H28 C36 N16 O8'
_cell_volume   1474.39092328
_cell_formula_units_Z   4
loop_
 _symmetry_equiv_pos_site_id
 _symmetry_equiv_pos_as_xyz
  1  'x, y, z'
loop_
 _atom_site_type_symbol
 _atom_site_label
 _atom_site_symmetry_multiplicity
 _atom_site_fract_x
 _atom_site_fract_y
 _atom_site_fract_z
 _atom_site_occupancy
 _atom_site_charge
  Co  Co1  1  0.581170  0.085510  0.642980  1.0  0.8545
  Co  Co2  1  0.918830  0.085510  0.142980  1.0  0.8544
  Co  Co3  1  0.081170  0.914490  0.857020  1.0  0.8557
  Co  Co4  1  0.418830  0.914490  0.357020  1.0  0.8558
  H  H5  1  0.126100  0.419200  0.617600  1.0  0.12
  H  H6  1  0.873900  0.580800  0.382400  1.0  0.1207
  H  H7  1  0.233100  0.077500  0.442000  1.0  0.358
  H  H8  1  0.698000  0.124100  0.943900  1.0  0.0742
  H  H9  1  0.278400  0.641700  0.370200  1.0  0.1124
  H  H10  1  0.386600  0.121400  0.887700  1.0  0.3563
  H  H11  1  0.778400  0.358300  0.129800  1.0  0.1121
  H  H12  1  0.198000  0.875900  0.556100  1.0  0.0745
  H  H13  1  0.613400  0.878600  0.112300  1.0  0.3559
  H  H14  1  0.221600  0.641700  0.870200  1.0  0.1125
  H  H15  1  0.520500  0.644800  0.046500  1.0  0.1074
  H  H16  1  0.113400  0.121400  0.387700  1.0  0.3561
  H  H17  1  0.479500  0.355200  0.953500  1.0  0.1075
  H  H18  1  0.979500  0.644800  0.546500  1.0  0.1068
  H  H19  1  0.373900  0.419200  0.117600  1.0  0.1198
  H  H20  1  0.733100  0.922500  0.058000  1.0  0.3584
  H  H21  1  0.266900  0.077500  0.942000  1.0  0.3578
  H  H22  1  0.302000  0.875900  0.056100  1.0  0.0751
  H  H23  1  0.721600  0.358300  0.629800  1.0  0.1123
  H  H24  1  0.246800  0.492300  0.804700  1.0  0.105
  H  H25  1  0.753200  0.507700  0.195300  1.0  0.105
  H  H26  1  0.746800  0.507700  0.695300  1.0  0.1051
  H  H27  1  0.766900  0.922500  0.558000  1.0  0.358
  H  H28  1  0.802000  0.124100  0.443900  1.0  0.0743
  H  H29  1  0.886600  0.878600  0.612300  1.0  0.3569
  H  H30  1  0.253200  0.492300  0.304700  1.0  0.1048
  H  H31  1  0.020500  0.355200  0.453500  1.0  0.106
  H  H32  1  0.626100  0.580800  0.882400  1.0  0.1206
  C  C33  1  0.039400  0.523800  0.558900  1.0  0.0123
  C  C34  1  0.586400  0.246100  0.749200  1.0  0.6864
  C  C35  1  0.186900  0.026000  0.257800  1.0  0.6522
  C  C36  1  0.086400  0.753900  0.750800  1.0  0.686
  C  C37  1  0.619700  0.520600  0.860000  1.0  -0.1419
  C  C38  1  0.177800  0.612500  0.792100  1.0  -0.0378
  C  C39  1  0.813100  0.974000  0.742200  1.0  0.6517
  C  C40  1  0.531900  0.386800  0.901400  1.0  -0.0841
  C  C41  1  0.413600  0.753900  0.250800  1.0  0.686
  C  C42  1  0.031900  0.613200  0.598600  1.0  -0.084
  C  C43  1  0.468100  0.613200  0.098600  1.0  -0.0812
  C  C44  1  0.968100  0.386800  0.401400  1.0  -0.0848
  C  C45  1  0.119700  0.479400  0.640000  1.0  -0.1416
  C  C46  1  0.380300  0.479400  0.140000  1.0  -0.1414
  C  C47  1  0.809200  0.476900  0.245800  1.0  -0.1189
  C  C48  1  0.247000  0.923400  0.603200  1.0  0.2796
  C  C49  1  0.322200  0.612500  0.292100  1.0  -0.0384
  C  C50  1  0.686900  0.974000  0.242200  1.0  0.6524
  C  C51  1  0.677800  0.387500  0.707900  1.0  -0.039
  C  C52  1  0.880300  0.520600  0.360000  1.0  -0.1415
  C  C53  1  0.822200  0.387500  0.207900  1.0  -0.04
  C  C54  1  0.960600  0.476200  0.441100  1.0  0.0116
  C  C55  1  0.099500  0.657300  0.713200  1.0  -0.1351
  C  C56  1  0.400500  0.657300  0.213200  1.0  -0.1338
  C  C57  1  0.460600  0.523800  0.058900  1.0  0.012
  C  C58  1  0.753000  0.076600  0.396800  1.0  0.2796
  C  C59  1  0.309200  0.523100  0.254200  1.0  -0.1192
  C  C60  1  0.747000  0.076600  0.896800  1.0  0.2796
  C  C61  1  0.539400  0.476200  0.941100  1.0  0.012
  C  C62  1  0.313100  0.026000  0.757800  1.0  0.6515
  C  C63  1  0.913600  0.246100  0.249200  1.0  0.6858
  C  C64  1  0.190800  0.523100  0.754200  1.0  -0.1195
  C  C65  1  0.599500  0.342700  0.786800  1.0  -0.1342
  C  C66  1  0.253000  0.923400  0.103200  1.0  0.2795
  C  C67  1  0.690800  0.476900  0.745800  1.0  -0.1185
  C  C68  1  0.900500  0.342700  0.286800  1.0  -0.1359
  N  N69  1  0.103900  0.027600  0.151400  1.0  -0.3646
  N  N70  1  0.350300  0.959600  0.550500  1.0  -0.2865
  N  N71  1  0.282900  0.961000  0.232900  1.0  -0.5555
  N  N72  1  0.603900  0.972400  0.348600  1.0  -0.3649
  N  N73  1  0.717100  0.039000  0.767100  1.0  -0.5569
  N  N74  1  0.176600  0.081700  0.376800  1.0  -0.7558
  N  N75  1  0.782900  0.039000  0.267100  1.0  -0.5558
  N  N76  1  0.850300  0.040400  0.949500  1.0  -0.285
  N  N77  1  0.396100  0.027600  0.651400  1.0  -0.3637
  N  N78  1  0.823400  0.918300  0.623200  1.0  -0.7545
  N  N79  1  0.896100  0.972400  0.848600  1.0  -0.364
  N  N80  1  0.323400  0.081700  0.876800  1.0  -0.7559
  N  N81  1  0.217100  0.961000  0.732900  1.0  -0.5575
  N  N82  1  0.676600  0.918300  0.123200  1.0  -0.7546
  N  N83  1  0.649700  0.040400  0.449500  1.0  -0.2863
  N  N84  1  0.149700  0.959600  0.050500  1.0  -0.287
  O  O85  1  0.029100  0.795650  0.672300  1.0  -0.6431
  O  O86  1  0.364800  0.792100  0.364600  1.0  -0.5946
  O  O87  1  0.970900  0.204350  0.327700  1.0  -0.6439
  O  O88  1  0.635200  0.207900  0.635400  1.0  -0.5953
  O  O89  1  0.135200  0.792100  0.864600  1.0  -0.5941
  O  O90  1  0.864800  0.207900  0.135400  1.0  -0.5951
  O  O91  1  0.470900  0.795650  0.172300  1.0  -0.6428
  O  O92  1  0.529100  0.204350  0.827700  1.0  -0.6439
