# generated using pymatgen
data_MnCr(CO2)6
_symmetry_space_group_name_H-M   'P 1'
_cell_length_a   14.23150000
_cell_length_b   16.89070000
_cell_length_c   32.99680000
_cell_angle_alpha   91.34080000
_cell_angle_beta   90.00000000
_cell_angle_gamma   90.00000000
_symmetry_Int_Tables_number   1
_chemical_formula_structural   MnCr(CO2)6
_chemical_formula_sum   'Mn8 Cr8 C48 O96'
_cell_volume   7929.59897045
_cell_formula_units_Z   8
loop_
 _symmetry_equiv_pos_site_id
 _symmetry_equiv_pos_as_xyz
  1  'x, y, z'
loop_
 _atom_site_type_symbol
 _atom_site_label
 _atom_site_symmetry_multiplicity
 _atom_site_fract_x
 _atom_site_fract_y
 _atom_site_fract_z
 _atom_site_occupancy
 _atom_site_charge
  Mn  Mn1  1  0.034930  0.620190  0.311210  1.0  1.0134
  Mn  Mn2  1  0.707040  0.128090  0.921740  1.0  1.0613
  Mn  Mn3  1  0.207040  0.871910  0.578260  1.0  1.0609
  Mn  Mn4  1  0.792960  0.128090  0.421740  1.0  1.0612
  Mn  Mn5  1  0.292960  0.871910  0.078260  1.0  1.061
  Mn  Mn6  1  0.965070  0.379810  0.688790  1.0  1.0138
  Mn  Mn7  1  0.465070  0.620190  0.811210  1.0  1.0141
  Mn  Mn8  1  0.534930  0.379810  0.188790  1.0  1.013
  Cr  Cr9  1  0.781050  0.377820  0.317100  1.0  1.3263
  Cr  Cr10  1  0.533880  0.127710  0.080950  1.0  1.426
  Cr  Cr11  1  0.466120  0.872290  0.919050  1.0  1.4219
  Cr  Cr12  1  0.966120  0.127710  0.580950  1.0  1.4206
  Cr  Cr13  1  0.718950  0.377820  0.817100  1.0  1.3256
  Cr  Cr14  1  0.281050  0.622180  0.182900  1.0  1.3263
  Cr  Cr15  1  0.218950  0.622180  0.682900  1.0  1.3253
  Cr  Cr16  1  0.033880  0.872290  0.419050  1.0  1.427
  C  C17  1  0.862800  0.525600  0.318790  1.0  0.5485
  C  C18  1  0.797400  0.382600  0.740570  1.0  0.5789
  C  C19  1  0.208000  0.770300  0.649820  1.0  0.5647
  C  C20  1  0.874800  0.965800  0.423370  1.0  0.5667
  C  C21  1  0.217500  0.711300  0.613600  1.0  0.5724
  C  C22  1  0.702600  0.382600  0.240570  1.0  0.5786
  C  C23  1  0.055600  0.534200  0.679180  1.0  0.563
  C  C24  1  0.137200  0.474400  0.681210  1.0  0.5491
  C  C25  1  0.457800  0.977000  0.082770  1.0  0.5462
  C  C26  1  0.374800  0.034200  0.076630  1.0  0.5681
  C  C27  1  0.282500  0.711300  0.113600  1.0  0.5719
  C  C28  1  0.521100  0.221300  0.150230  1.0  0.5563
  C  C29  1  0.282200  0.869800  0.943150  1.0  0.5894
  C  C30  1  0.478900  0.778700  0.849770  1.0  0.5637
  C  C31  1  0.782500  0.288700  0.386400  1.0  0.5716
  C  C32  1  0.529600  0.278800  0.114800  1.0  0.5556
  C  C33  1  0.792000  0.229700  0.350180  1.0  0.5651
  C  C34  1  0.717800  0.130200  0.056850  1.0  0.5886
  C  C35  1  0.555600  0.465800  0.820820  1.0  0.5627
  C  C36  1  0.021100  0.778700  0.349770  1.0  0.5623
  C  C37  1  0.944400  0.465800  0.320820  1.0  0.5642
  C  C38  1  0.978900  0.221300  0.650230  1.0  0.5581
  C  C39  1  0.880300  0.375880  0.770140  1.0  0.5517
  C  C40  1  0.362800  0.474400  0.181210  1.0  0.5485
  C  C41  1  0.470400  0.721200  0.885200  1.0  0.5513
  C  C42  1  0.217800  0.869800  0.443150  1.0  0.5878
  C  C43  1  0.158400  0.871400  0.482280  1.0  0.6273
  C  C44  1  0.619700  0.375880  0.270140  1.0  0.5511
  C  C45  1  0.708000  0.229700  0.850180  1.0  0.565
  C  C46  1  0.297400  0.617400  0.759430  1.0  0.5785
  C  C47  1  0.658400  0.128600  0.017720  1.0  0.6258
  C  C48  1  0.957800  0.023000  0.417230  1.0  0.5443
  C  C49  1  0.970400  0.278800  0.614800  1.0  0.5497
  C  C50  1  0.625200  0.965800  0.923370  1.0  0.5684
  C  C51  1  0.042200  0.977000  0.582770  1.0  0.5454
  C  C52  1  0.717500  0.288700  0.886400  1.0  0.5732
  C  C53  1  0.202600  0.617400  0.259430  1.0  0.5803
  C  C54  1  0.841600  0.128600  0.517720  1.0  0.6263
  C  C55  1  0.782200  0.130200  0.556850  1.0  0.5896
  C  C56  1  0.542200  0.023000  0.917230  1.0  0.5433
  C  C57  1  0.029600  0.721200  0.385200  1.0  0.556
  C  C58  1  0.119700  0.624120  0.229860  1.0  0.5519
  C  C59  1  0.380300  0.624120  0.729860  1.0  0.5518
  C  C60  1  0.125200  0.034200  0.576630  1.0  0.571
  C  C61  1  0.292000  0.770300  0.149820  1.0  0.5646
  C  C62  1  0.341600  0.871400  0.982280  1.0  0.6308
  C  C63  1  0.444400  0.534200  0.179180  1.0  0.5677
  C  C64  1  0.637200  0.525600  0.818790  1.0  0.5494
  O  O65  1  0.218980  0.505150  0.677690  1.0  -0.4677
  O  O66  1  0.684880  0.385490  0.203630  1.0  -0.4869
  O  O67  1  0.202630  0.841950  0.642790  1.0  -0.5209
  O  O68  1  0.419610  0.606700  0.178010  1.0  -0.4537
  O  O69  1  0.696650  0.127560  0.555470  1.0  -0.4214
  O  O70  1  0.069550  0.878090  0.477230  1.0  -0.5152
  O  O71  1  0.397050  0.106550  0.072740  1.0  -0.5027
  O  O72  1  0.025210  0.754440  0.420380  1.0  -0.4634
  O  O73  1  0.293740  0.739400  0.184710  1.0  -0.466
  O  O74  1  0.803350  0.127560  0.055470  1.0  -0.4234
  O  O75  1  0.168790  0.865720  0.410530  1.0  -0.4864
  O  O76  1  0.018800  0.749670  0.314830  1.0  -0.4975
  O  O77  1  0.815120  0.385490  0.703630  1.0  -0.4871
  O  O78  1  0.058400  0.905450  0.585230  1.0  -0.48
  O  O79  1  0.315120  0.614510  0.796370  1.0  -0.4879
  O  O80  1  0.118190  0.403430  0.685270  1.0  -0.4789
  O  O81  1  0.430450  0.878090  0.977230  1.0  -0.5122
  O  O82  1  0.642840  0.372540  0.307570  1.0  -0.4524
  O  O83  1  0.199700  0.866580  0.514960  1.0  -0.6173
  O  O84  1  0.272200  0.639280  0.123510  1.0  -0.473
  O  O85  1  0.705960  0.994430  0.923630  1.0  -0.5078
  O  O86  1  0.283600  0.615890  0.242670  1.0  -0.4624
  O  O87  1  0.205960  0.005570  0.576370  1.0  -0.5053
  O  O88  1  0.357160  0.627460  0.692430  1.0  -0.4522
  O  O89  1  0.702630  0.158050  0.857210  1.0  -0.5186
  O  O90  1  0.857160  0.372540  0.807570  1.0  -0.4571
  O  O91  1  0.206260  0.739400  0.684710  1.0  -0.4656
  O  O92  1  0.474090  0.492220  0.821550  1.0  -0.4899
  O  O93  1  0.831210  0.134280  0.589470  1.0  -0.4887
  O  O94  1  0.474790  0.754440  0.920380  1.0  -0.4623
  O  O95  1  0.515710  0.148340  0.140080  1.0  -0.4823
  O  O96  1  0.484290  0.851660  0.859920  1.0  -0.4821
  O  O97  1  0.618190  0.596570  0.814730  1.0  -0.4767
  O  O98  1  0.794040  0.994430  0.423630  1.0  -0.505
  O  O99  1  0.716400  0.384110  0.757330  1.0  -0.4618
  O  O100  1  0.461070  0.624850  0.743740  1.0  -0.4763
  O  O101  1  0.038010  0.649810  0.377120  1.0  -0.4603
  O  O102  1  0.381810  0.403430  0.185270  1.0  -0.4779
  O  O103  1  0.800300  0.133420  0.485040  1.0  -0.6198
  O  O104  1  0.781020  0.494850  0.322310  1.0  -0.4705
  O  O105  1  0.962020  0.010730  0.585940  1.0  -0.4854
  O  O106  1  0.797370  0.158050  0.357210  1.0  -0.5163
  O  O107  1  0.881810  0.596570  0.314730  1.0  -0.4743
  O  O108  1  0.718980  0.494850  0.822310  1.0  -0.4692
  O  O109  1  0.699700  0.133420  0.985040  1.0  -0.6176
  O  O110  1  0.783600  0.384110  0.257330  1.0  -0.4611
  O  O111  1  0.287200  0.737960  0.079110  1.0  -0.515
  O  O112  1  0.216400  0.615890  0.742670  1.0  -0.4623
  O  O113  1  0.303350  0.872440  0.444530  1.0  -0.4167
  O  O114  1  0.294040  0.005570  0.076370  1.0  -0.5068
  O  O115  1  0.461990  0.649810  0.877120  1.0  -0.4606
  O  O116  1  0.772200  0.360720  0.376490  1.0  -0.4671
  O  O117  1  0.331210  0.865720  0.910530  1.0  -0.487
  O  O118  1  0.793740  0.260600  0.315290  1.0  -0.4611
  O  O119  1  0.602950  0.893450  0.927260  1.0  -0.5033
  O  O120  1  0.184880  0.614510  0.296370  1.0  -0.4873
  O  O121  1  0.038930  0.624850  0.243740  1.0  -0.4806
  O  O122  1  0.712800  0.262040  0.920890  1.0  -0.5124
  O  O123  1  0.525210  0.245560  0.079620  1.0  -0.4625
  O  O124  1  0.102950  0.106550  0.572740  1.0  -0.4946
  O  O125  1  0.297370  0.841950  0.142790  1.0  -0.5221
  O  O126  1  0.981200  0.250330  0.685170  1.0  -0.4908
  O  O127  1  0.930450  0.121910  0.522770  1.0  -0.5124
  O  O128  1  0.142840  0.627460  0.192430  1.0  -0.4552
  O  O129  1  0.227800  0.639280  0.623510  1.0  -0.4674
  O  O130  1  0.558400  0.094550  0.914770  1.0  -0.4777
  O  O131  1  0.984290  0.148340  0.640080  1.0  -0.4827
  O  O132  1  0.300300  0.866580  0.014960  1.0  -0.6182
  O  O133  1  0.961990  0.350190  0.622880  1.0  -0.4609
  O  O134  1  0.961070  0.375150  0.756260  1.0  -0.4789
  O  O135  1  0.525910  0.507780  0.178450  1.0  -0.4881
  O  O136  1  0.538930  0.375150  0.256260  1.0  -0.4784
  O  O137  1  0.537980  0.010730  0.085940  1.0  -0.4878
  O  O138  1  0.727800  0.360720  0.876490  1.0  -0.4728
  O  O139  1  0.897050  0.893450  0.427260  1.0  -0.4961
  O  O140  1  0.580390  0.393300  0.821990  1.0  -0.4557
  O  O141  1  0.569550  0.121910  0.022770  1.0  -0.5152
  O  O142  1  0.518800  0.250330  0.185170  1.0  -0.4901
  O  O143  1  0.974090  0.507780  0.678450  1.0  -0.4907
  O  O144  1  0.196650  0.872440  0.944530  1.0  -0.4199
  O  O145  1  0.025910  0.492220  0.321550  1.0  -0.489
  O  O146  1  0.481200  0.749670  0.814830  1.0  -0.4964
  O  O147  1  0.668790  0.134280  0.089470  1.0  -0.4888
  O  O148  1  0.941600  0.094550  0.414770  1.0  -0.4746
  O  O149  1  0.787200  0.262040  0.420890  1.0  -0.5072
  O  O150  1  0.212800  0.737960  0.579110  1.0  -0.5115
  O  O151  1  0.462020  0.989270  0.914060  1.0  -0.4893
  O  O152  1  0.919610  0.393300  0.321990  1.0  -0.4583
  O  O153  1  0.538010  0.350190  0.122880  1.0  -0.4605
  O  O154  1  0.706260  0.260600  0.815290  1.0  -0.4617
  O  O155  1  0.015710  0.851660  0.359920  1.0  -0.481
  O  O156  1  0.080390  0.606700  0.678010  1.0  -0.4569
  O  O157  1  0.037980  0.989270  0.414060  1.0  -0.4894
  O  O158  1  0.974790  0.245560  0.579620  1.0  -0.4629
  O  O159  1  0.281020  0.505150  0.177690  1.0  -0.4694
  O  O160  1  0.441600  0.905450  0.085230  1.0  -0.4782
