# generated using pymatgen
data_Cu2H14C22I(NO)4
_symmetry_space_group_name_H-M   'P 1'
_cell_length_a   16.06330000
_cell_length_b   24.25760000
_cell_length_c   24.25760000
_cell_angle_alpha   64.72800000
_cell_angle_beta   77.24800000
_cell_angle_gamma   102.75200000
_symmetry_Int_Tables_number   1
_chemical_formula_structural   Cu2H14C22I(NO)4
_chemical_formula_sum   'Cu12 H84 C132 I6 N24 O24'
_cell_volume   7786.96941647
_cell_formula_units_Z   6
loop_
 _symmetry_equiv_pos_site_id
 _symmetry_equiv_pos_as_xyz
  1  'x, y, z'
loop_
 _atom_site_type_symbol
 _atom_site_label
 _atom_site_symmetry_multiplicity
 _atom_site_fract_x
 _atom_site_fract_y
 _atom_site_fract_z
 _atom_site_occupancy
 _atom_site_charge
  Cu  Cu1  1  0.535650  0.460450  0.033510  1.0  0.271
  Cu  Cu2  1  0.921890  0.506540  0.020760  1.0  0.8177
  Cu  Cu3  1  0.415350  0.472700  0.506540  1.0  0.8173
  Cu  Cu4  1  0.584650  0.527300  0.493460  1.0  0.817
  Cu  Cu5  1  0.464350  0.539550  0.966490  1.0  0.2718
  Cu  Cu6  1  0.430840  0.966490  0.493960  1.0  0.2705
  Cu  Cu7  1  0.057350  0.979240  0.527300  1.0  0.8174
  Cu  Cu8  1  0.942650  0.020760  0.472700  1.0  0.8176
  Cu  Cu9  1  0.078110  0.493460  0.979240  1.0  0.8169
  Cu  Cu10  1  0.924800  0.493960  0.539550  1.0  0.2725
  Cu  Cu11  1  0.569160  0.033510  0.506040  1.0  0.2703
  Cu  Cu12  1  0.075200  0.506040  0.460450  1.0  0.2727
  H  H13  1  0.771600  0.409000  0.933600  1.0  0.0949
  H  H14  1  0.011800  0.557600  0.248100  1.0  0.1055
  H  H15  1  0.815000  0.766100  0.424000  1.0  0.1037
  H  H16  1  0.404700  0.629000  0.008300  1.0  0.041
  H  H17  1  0.224300  0.637300  0.371000  1.0  0.0388
  H  H18  1  0.927600  0.626800  0.519900  1.0  0.0756
  H  H19  1  0.587000  0.991700  0.637300  1.0  0.0403
  H  H20  1  0.076500  0.524000  0.329100  1.0  0.0872
  H  H21  1  0.755700  0.497700  0.504800  1.0  0.0231
  H  H22  1  0.545800  0.805700  0.442400  1.0  0.1056
  H  H23  1  0.213700  0.741500  0.686300  1.0  0.1148
  H  H24  1  0.362600  0.657400  0.409000  1.0  0.096
  H  H25  1  0.454200  0.194300  0.557600  1.0  0.1055
  H  H26  1  0.966400  0.539100  0.171400  1.0  0.1007
  H  H27  1  0.761000  0.576000  0.190100  1.0  0.1051
  H  H28  1  0.595300  0.371000  0.991700  1.0  0.0409
  H  H29  1  0.447500  0.519900  0.853300  1.0  0.0757
  H  H30  1  0.049500  0.214400  0.433500  1.0  0.0971
  H  H31  1  0.258000  0.997500  0.497700  1.0  0.0228
  H  H32  1  0.654700  0.243500  0.618500  1.0  0.1078
  H  H33  1  0.228400  0.591000  0.066400  1.0  0.0956
  H  H34  1  0.726800  0.381500  0.862000  1.0  0.1081
  H  H35  1  0.300800  0.853300  0.626800  1.0  0.0764
  H  H36  1  0.923500  0.476000  0.670900  1.0  0.0866
  H  H37  1  0.259900  0.248100  0.194300  1.0  0.1063
  H  H38  1  0.786300  0.258500  0.313700  1.0  0.1154
  H  H39  1  0.742000  0.002500  0.502300  1.0  0.0238
  H  H40  1  0.413000  0.008300  0.362700  1.0  0.0392
  H  H41  1  0.473200  0.191500  0.123900  1.0  0.0855
  H  H42  1  0.053100  0.862600  0.652900  1.0  0.0744
  H  H43  1  0.739500  0.495200  0.002500  1.0  0.0247
  H  H44  1  0.190500  0.484500  0.862600  1.0  0.0743
  H  H45  1  0.294800  0.066400  0.342600  1.0  0.0949
  H  H46  1  0.281700  0.684600  0.191500  1.0  0.0846
  H  H47  1  0.775700  0.362700  0.629000  1.0  0.0389
  H  H48  1  0.072400  0.373200  0.480100  1.0  0.0753
  H  H49  1  0.003000  0.285200  0.134900  1.0  0.1011
  H  H50  1  0.527800  0.427800  0.258500  1.0  0.1132
  H  H51  1  0.137900  0.134900  0.579900  1.0  0.1008
  H  H52  1  0.997000  0.714800  0.865100  1.0  0.1011
  H  H53  1  0.946900  0.137400  0.347100  1.0  0.0739
  H  H54  1  0.594400  0.670900  0.853100  1.0  0.0873
  H  H55  1  0.033600  0.460900  0.828600  1.0  0.1001
  H  H56  1  0.294000  0.347100  0.515500  1.0  0.0736
  H  H57  1  0.427300  0.289500  0.539100  1.0  0.099
  H  H58  1  0.517000  0.566500  0.647900  1.0  0.0988
  H  H59  1  0.552500  0.480100  0.146700  1.0  0.0761
  H  H60  1  0.862200  0.828600  0.710500  1.0  0.101
  H  H61  1  0.472200  0.572200  0.741500  1.0  0.1136
  H  H62  1  0.239000  0.424000  0.809900  1.0  0.1041
  H  H63  1  0.699200  0.146700  0.373200  1.0  0.0766
  H  H64  1  0.950500  0.785600  0.566500  1.0  0.0975
  H  H65  1  0.862100  0.865100  0.420100  1.0  0.1012
  H  H66  1  0.282200  0.420100  0.714800  1.0  0.1003
  H  H67  1  0.718300  0.315400  0.808500  1.0  0.0824
  H  H68  1  0.411200  0.138000  0.243500  1.0  0.1074
  H  H69  1  0.572700  0.710500  0.460900  1.0  0.0994
  H  H70  1  0.345300  0.756500  0.381500  1.0  0.1077
  H  H71  1  0.260500  0.504800  0.997500  1.0  0.0237
  H  H72  1  0.185000  0.233900  0.576000  1.0  0.1039
  H  H73  1  0.526800  0.808500  0.876100  1.0  0.0858
  H  H74  1  0.951100  0.190100  0.233900  1.0  0.104
  H  H75  1  0.402900  0.876100  0.315400  1.0  0.0856
  H  H76  1  0.447500  0.853100  0.476000  1.0  0.0882
  H  H77  1  0.597100  0.123900  0.684600  1.0  0.087
  H  H78  1  0.637400  0.342600  0.591000  1.0  0.0951
  H  H79  1  0.588800  0.862000  0.756500  1.0  0.1084
  H  H80  1  0.552500  0.146900  0.524000  1.0  0.0884
  H  H81  1  0.900000  0.686300  0.572200  1.0  0.114
  H  H82  1  0.706000  0.652900  0.484500  1.0  0.0729
  H  H83  1  0.835100  0.352100  0.214400  1.0  0.0983
  H  H84  1  0.988200  0.442400  0.751900  1.0  0.1057
  H  H85  1  0.100000  0.313700  0.427800  1.0  0.114
  H  H86  1  0.244300  0.502300  0.495200  1.0  0.0223
  H  H87  1  0.483000  0.433500  0.352100  1.0  0.0981
  H  H88  1  0.137800  0.171400  0.289500  1.0  0.1014
  H  H89  1  0.405600  0.329100  0.146900  1.0  0.0872
  H  H90  1  0.717800  0.579900  0.285200  1.0  0.1005
  H  H91  1  0.809500  0.515500  0.137400  1.0  0.0746
  H  H92  1  0.164900  0.647900  0.785600  1.0  0.0988
  H  H93  1  0.048900  0.809900  0.766100  1.0  0.1046
  H  H94  1  0.705200  0.933600  0.657400  1.0  0.095
  H  H95  1  0.740100  0.751900  0.805700  1.0  0.1061
  H  H96  1  0.273200  0.618500  0.138000  1.0  0.1083
  C  C97  1  0.146330  0.283580  0.502890  1.0  0.0213
  C  C98  1  0.525600  0.718910  0.446210  1.0  -0.0682
  C  C99  1  0.562320  0.122090  0.561830  1.0  0.1612
  C  C100  1  0.052250  0.100000  0.510050  1.0  0.6756
  C  C101  1  0.858590  0.319460  0.218090  1.0  -0.0461
  C  C102  1  0.517900  0.390400  0.545500  1.0  0.6686
  C  C103  1  0.551820  0.339740  0.032680  1.0  0.3235
  C  C104  1  0.704760  0.547220  0.222640  1.0  -0.1172
  C  C105  1  0.227240  0.462920  0.495600  1.0  0.3625
  C  C106  1  0.787920  0.372420  0.660260  1.0  0.3219
  C  C107  1  0.460870  0.537550  0.680540  1.0  -0.0457
  C  C108  1  0.176940  0.347280  0.499660  1.0  0.0782
  C  C109  1  0.357300  0.145900  0.253200  1.0  -0.1488
  C  C110  1  0.722840  0.495600  0.041480  1.0  0.3605
  C  C111  1  0.642700  0.854100  0.746800  1.0  -0.1501
  C  C112  1  0.235680  0.958520  0.537080  1.0  0.363
  C  C113  1  0.286560  0.102220  0.311940  1.0  -0.0707
  C  C114  1  0.489900  0.223410  0.566010  1.0  -0.141
  C  C115  1  0.828940  0.263290  0.277570  1.0  -0.1625
  C  C116  1  0.952250  0.389950  0.100000  1.0  0.6747
  C  C117  1  0.482100  0.609600  0.454500  1.0  0.6705
  C  C118  1  0.588400  0.108270  0.656670  1.0  0.1215
  C  C119  1  0.944090  0.433990  0.789420  1.0  -0.1382
  C  C120  1  0.261500  0.874440  0.612840  1.0  0.1682
  C  C121  1  0.936600  0.454500  0.935900  1.0  0.6697
  C  C122  1  0.295240  0.452780  0.777360  1.0  -0.1175
  C  C123  1  0.922110  0.328340  0.163910  1.0  -0.1456
  C  C124  1  0.923320  0.781910  0.537550  1.0  -0.0495
  C  C125  1  0.612940  0.487280  0.125560  1.0  0.1667
  C  C126  1  0.443550  0.791500  0.410050  1.0  0.0275
  C  C127  1  0.871220  0.829480  0.450120  1.0  -0.0678
  C  C128  1  0.055910  0.566010  0.210580  1.0  -0.138
  C  C129  1  0.874340  0.612840  0.512720  1.0  0.1652
  C  C130  1  0.321340  0.450120  0.720400  1.0  -0.0696
  C  C131  1  0.127500  0.064100  0.390400  1.0  0.6695
  C  C132  1  0.041740  0.720400  0.829480  1.0  -0.0675
  C  C133  1  0.431900  0.854000  0.396800  1.0  0.0353
  C  C134  1  0.519870  0.764940  0.891730  1.0  0.1194
  C  C135  1  0.415500  0.967320  0.372420  1.0  0.3264
  C  C136  1  0.678660  0.549880  0.279600  1.0  -0.0697
  C  C137  1  0.788600  0.399100  0.854100  1.0  -0.1524
  C  C138  1  0.610500  0.253200  0.600900  1.0  -0.1514
  C  C139  1  0.157540  0.230140  0.547220  1.0  -0.1152
  C  C140  1  0.598500  0.311940  0.585840  1.0  -0.0714
  C  C141  1  0.562300  0.510050  0.389950  1.0  0.6728
  C  C142  1  0.124150  0.561830  0.316080  1.0  0.1578
  C  C143  1  0.842460  0.769860  0.452780  1.0  -0.1171
  C  C144  1  0.211400  0.600900  0.145900  1.0  -0.1513
  C  C145  1  0.389500  0.746800  0.399100  1.0  -0.152
  C  C146  1  0.470300  0.674350  0.436450  1.0  -0.1471
  C  C147  1  0.713440  0.897780  0.688060  1.0  -0.0709
  C  C148  1  0.076680  0.218090  0.462450  1.0  -0.0492
  C  C149  1  0.245070  0.656670  0.235060  1.0  0.1212
  C  C150  1  0.434350  0.540860  0.736710  1.0  -0.1632
  C  C151  1  0.743710  0.628480  0.491850  1.0  0.1875
  C  C152  1  0.559770  0.683920  0.877910  1.0  0.1568
  C  C153  1  0.193310  0.165120  0.281090  1.0  -0.0687
  C  C154  1  0.556450  0.208500  0.589950  1.0  0.0271
  C  C155  1  0.884770  0.120330  0.371520  1.0  0.1872
  C  C156  1  0.437680  0.877910  0.438170  1.0  0.1612
  C  C157  1  0.323400  0.500340  0.846940  1.0  0.0776
  C  C158  1  0.106510  0.277570  0.459140  1.0  -0.1584
  C  C159  1  0.406230  0.492250  0.671660  1.0  -0.1449
  C  C160  1  0.906750  0.436450  0.889200  1.0  -0.1465
  C  C161  1  0.872500  0.935900  0.609600  1.0  0.6687
  C  C162  1  0.733510  0.789420  0.776590  1.0  -0.1372
  C  C163  1  0.137250  0.786470  0.716420  1.0  0.022
  C  C164  1  0.125660  0.387160  0.487280  1.0  0.1663
  C  C165  1  0.593770  0.507750  0.328340  1.0  -0.1449
  C  C166  1  0.738500  0.125560  0.387160  1.0  0.1665
  C  C167  1  0.795950  0.889200  0.674350  1.0  -0.148
  C  C168  1  0.971810  0.446210  0.834880  1.0  -0.0671
  C  C169  1  0.072600  0.777360  0.769860  1.0  -0.1182
  C  C170  1  0.204050  0.110800  0.325650  1.0  -0.1486
  C  C171  1  0.411600  0.891730  0.343330  1.0  0.12
  C  C172  1  0.958260  0.279600  0.170520  1.0  -0.0688
  C  C173  1  0.893490  0.722430  0.540860  1.0  -0.1625
  C  C174  1  0.448180  0.660260  0.967320  1.0  0.323
  C  C175  1  0.256290  0.371520  0.508150  1.0  0.1876
  C  C176  1  0.235560  0.491850  0.879670  1.0  0.1859
  C  C177  1  0.115230  0.879670  0.628480  1.0  0.1865
  C  C178  1  0.764320  0.041480  0.462920  1.0  0.3634
  C  C179  1  0.510100  0.776590  0.433990  1.0  -0.1391
  C  C180  1  0.529700  0.325650  0.563550  1.0  -0.1478
  C  C181  1  0.862750  0.213530  0.283580  1.0  0.0219
  C  C182  1  0.539130  0.462450  0.319460  1.0  -0.0444
  C  C183  1  0.829660  0.153060  0.347280  1.0  0.0773
  C  C184  1  0.093250  0.563550  0.110800  1.0  -0.1462
  C  C185  1  0.146400  0.589950  0.201550  1.0  0.0271
  C  C186  1  0.652050  0.798450  0.791500  1.0  0.0265
  C  C187  1  0.440230  0.316080  0.122090  1.0  0.1584
  C  C188  1  0.754930  0.343330  0.764940  1.0  0.1243
  C  C189  1  0.277160  0.504400  0.958520  1.0  0.3615
  C  C190  1  0.171300  0.603200  0.250800  1.0  0.0336
  C  C191  1  0.212080  0.627580  0.339740  1.0  0.3218
  C  C192  1  0.266490  0.210580  0.223410  1.0  -0.1401
  C  C193  1  0.853670  0.716420  0.497110  1.0  0.0229
  C  C194  1  0.584500  0.032680  0.627580  1.0  0.3229
  C  C195  1  0.077890  0.671660  0.836090  1.0  -0.1454
  C  C196  1  0.141410  0.680540  0.781910  1.0  -0.0462
  C  C197  1  0.853600  0.410050  0.798450  1.0  0.0271
  C  C198  1  0.387060  0.512720  0.874440  1.0  0.1648
  C  C199  1  0.347950  0.201550  0.208500  1.0  0.0272
  C  C200  1  0.806690  0.834880  0.718910  1.0  -0.0676
  C  C201  1  0.086020  0.163910  0.507750  1.0  -0.1435
  C  C202  1  0.828700  0.396800  0.749200  1.0  0.0338
  C  C203  1  0.437700  0.489950  0.610050  1.0  0.6725
  C  C204  1  0.815660  0.414160  0.897780  1.0  -0.0683
  C  C205  1  0.565650  0.459140  0.263290  1.0  -0.1628
  C  C206  1  0.875850  0.438170  0.683920  1.0  0.1574
  C  C207  1  0.676600  0.499660  0.153060  1.0  0.0775
  C  C208  1  0.063400  0.545500  0.064100  1.0  0.6697
  C  C209  1  0.764440  0.508150  0.120330  1.0  0.1863
  C  C210  1  0.350780  0.497110  0.786470  1.0  0.0219
  C  C211  1  0.474400  0.281090  0.553790  1.0  -0.0684
  C  C212  1  0.772760  0.537080  0.504400  1.0  0.3624
  C  C213  1  0.128780  0.170520  0.549880  1.0  -0.0663
  C  C214  1  0.047750  0.610050  0.900000  1.0  0.6754
  C  C215  1  0.568100  0.146000  0.603200  1.0  0.034
  C  C216  1  0.927400  0.222640  0.230140  1.0  -0.118
  C  C217  1  0.401500  0.688060  0.414160  1.0  -0.0719
  C  C218  1  0.480130  0.235060  0.108270  1.0  0.121
  C  C219  1  0.947750  0.900000  0.489950  1.0  0.6754
  C  C220  1  0.577900  0.749200  0.854000  1.0  0.0338
  C  C221  1  0.184340  0.585840  0.102220  1.0  -0.0704
  C  C222  1  0.823060  0.652720  0.500340  1.0  0.0773
  C  C223  1  0.649220  0.502890  0.213530  1.0  0.0218
  C  C224  1  0.422100  0.250800  0.146000  1.0  0.0343
  C  C225  1  0.171060  0.736710  0.722430  1.0  -0.1623
  C  C226  1  0.913980  0.836090  0.492250  1.0  -0.1433
  C  C227  1  0.170340  0.846940  0.652720  1.0  0.0764
  C  C228  1  0.028190  0.553790  0.165120  1.0  -0.0673
  I  I229  1  0.481460  0.093920  0.433530  1.0  -0.3672
  I  I230  1  0.914990  0.433530  0.472550  1.0  -0.3667
  I  I231  1  0.612460  0.527450  0.906080  1.0  -0.3676
  I  I232  1  0.387540  0.472550  0.093920  1.0  -0.3673
  I  I233  1  0.518540  0.906080  0.566470  1.0  -0.3684
  I  I234  1  0.085010  0.566470  0.527450  1.0  -0.3684
  N  N235  1  0.595930  0.050920  0.669730  1.0  -0.3412
  N  N236  1  0.429990  0.935800  0.426730  1.0  -0.317
  N  N237  1  0.404070  0.949080  0.330270  1.0  -0.3449
  N  N238  1  0.856720  0.426730  0.637470  1.0  -0.3089
  N  N239  1  0.734340  0.330270  0.720650  1.0  -0.343
  N  N240  1  0.570010  0.064200  0.573270  1.0  -0.3122
  N  N241  1  0.265660  0.669730  0.279350  1.0  -0.3465
  N  N242  1  0.295940  0.930200  0.555080  1.0  -0.336
  N  N243  1  0.147670  0.935040  0.571230  1.0  -0.3169
  N  N244  1  0.852330  0.064960  0.428770  1.0  -0.3174
  N  N245  1  0.281100  0.428770  0.506270  1.0  -0.3161
  N  N246  1  0.704060  0.069800  0.444920  1.0  -0.3347
  N  N247  1  0.454990  0.720650  0.949080  1.0  -0.3443
  N  N248  1  0.545010  0.279350  0.050920  1.0  -0.3466
  N  N249  1  0.634260  0.485280  0.069800  1.0  -0.3327
  N  N250  1  0.851020  0.555080  0.514720  1.0  -0.3345
  N  N251  1  0.787370  0.506270  0.064960  1.0  -0.314
  N  N252  1  0.365740  0.514720  0.930200  1.0  -0.3379
  N  N253  1  0.718900  0.571230  0.493730  1.0  -0.3183
  N  N254  1  0.143280  0.573270  0.362530  1.0  -0.3118
  N  N255  1  0.505810  0.362530  0.064200  1.0  -0.308
  N  N256  1  0.148980  0.444920  0.485280  1.0  -0.3331
  N  N257  1  0.212630  0.493730  0.935040  1.0  -0.316
  N  N258  1  0.494190  0.637470  0.935800  1.0  -0.3099
  O  O259  1  0.008220  0.906510  0.513650  1.0  -0.593
  O  O260  1  0.585120  0.437480  0.532820  1.0  -0.5657
  O  O261  1  0.951430  0.935120  0.608130  1.0  -0.5951
  O  O262  1  0.377530  0.466380  0.592390  1.0  -0.5799
  O  O263  1  0.622470  0.533620  0.407610  1.0  -0.5807
  O  O264  1  0.440440  0.391870  0.543250  1.0  -0.5962
  O  O265  1  0.117940  0.532820  0.029700  1.0  -0.5664
  O  O266  1  0.101710  0.579840  0.906510  1.0  -0.5948
  O  O267  1  0.147640  0.029700  0.437480  1.0  -0.5663
  O  O268  1  0.852360  0.970300  0.562520  1.0  -0.566
  O  O269  1  0.048570  0.064880  0.391870  1.0  -0.5952
  O  O270  1  0.983690  0.543250  0.064880  1.0  -0.5966
  O  O271  1  0.559560  0.608130  0.456750  1.0  -0.596
  O  O272  1  0.478130  0.486350  0.420160  1.0  -0.592
  O  O273  1  0.898290  0.420160  0.093490  1.0  -0.5946
  O  O274  1  0.088850  0.058770  0.533620  1.0  -0.5783
  O  O275  1  0.969920  0.592390  0.941230  1.0  -0.5821
  O  O276  1  0.991780  0.093490  0.486350  1.0  -0.5938
  O  O277  1  0.882060  0.467180  0.970300  1.0  -0.5656
  O  O278  1  0.414880  0.562520  0.467180  1.0  -0.5661
  O  O279  1  0.911150  0.941230  0.466380  1.0  -0.5778
  O  O280  1  0.521870  0.513650  0.579840  1.0  -0.5919
  O  O281  1  0.016310  0.456750  0.935120  1.0  -0.5953
  O  O282  1  0.030080  0.407610  0.058770  1.0  -0.5804
