# generated using pymatgen
data_MnH30C26(N2O)4
_symmetry_space_group_name_H-M   'P 1'
_cell_length_a   19.93560000
_cell_length_b   19.93560000
_cell_length_c   20.35830000
_cell_angle_alpha   60.68450000
_cell_angle_beta   60.68450000
_cell_angle_gamma   60.00000000
_symmetry_Int_Tables_number   1
_chemical_formula_structural   MnH30C26(N2O)4
_chemical_formula_sum   'Mn6 H180 C156 N48 O24'
_cell_volume   5779.65342577
_cell_formula_units_Z   6
loop_
 _symmetry_equiv_pos_site_id
 _symmetry_equiv_pos_as_xyz
  1  'x, y, z'
loop_
 _atom_site_type_symbol
 _atom_site_label
 _atom_site_symmetry_multiplicity
 _atom_site_fract_x
 _atom_site_fract_y
 _atom_site_fract_z
 _atom_site_occupancy
 _atom_site_charge
  Mn  Mn1  1  0.269490  0.230510  0.750000  1.0  0.7579
  Mn  Mn2  1  0.230510  0.750000  0.750000  1.0  0.7578
  Mn  Mn3  1  0.730510  0.769490  0.250000  1.0  0.758
  Mn  Mn4  1  0.769490  0.250000  0.250000  1.0  0.7581
  Mn  Mn5  1  0.750000  0.269490  0.750000  1.0  0.7582
  Mn  Mn6  1  0.250000  0.730510  0.250000  1.0  0.7583
  H  H7  1  0.055600  0.542200  0.953500  1.0  0.1199
  H  H8  1  0.403400  0.115800  0.832900  1.0  0.319
  H  H9  1  0.189500  0.041800  0.883600  1.0  0.1316
  H  H10  1  0.555600  0.948700  0.453500  1.0  0.1168
  H  H11  1  0.960400  0.163500  0.027600  1.0  0.1246
  H  H12  1  0.016300  0.922300  0.276600  1.0  0.1044
  H  H13  1  0.983700  0.077700  0.723400  1.0  0.1044
  H  H14  1  0.663500  0.460400  0.527600  1.0  0.125
  H  H15  1  0.247400  0.351800  0.493400  1.0  0.1312
  H  H16  1  0.747400  0.407400  0.993400  1.0  0.132
  H  H17  1  0.384200  0.096600  0.667100  1.0  0.3158
  H  H18  1  0.330000  0.623800  0.403400  1.0  0.1235
  H  H19  1  0.839600  0.080500  0.775900  1.0  0.2835
  H  H20  1  0.922300  0.784800  0.276600  1.0  0.1057
  H  H21  1  0.348500  0.663500  0.527600  1.0  0.1247
  H  H22  1  0.124700  0.705700  0.447800  1.0  0.1217
  H  H23  1  0.670000  0.376200  0.596600  1.0  0.1241
  H  H24  1  0.187900  0.563400  0.660800  1.0  0.1279
  H  H25  1  0.199800  0.301500  0.575600  1.0  0.1433
  H  H26  1  0.875100  0.899100  0.931600  1.0  0.1233
  H  H27  1  0.339600  0.804000  0.275900  1.0  0.2826
  H  H28  1  0.196000  0.419500  0.724100  1.0  0.2827
  H  H29  1  0.912100  0.936600  0.839200  1.0  0.127
  H  H30  1  0.221800  0.205700  0.947800  1.0  0.1211
  H  H31  1  0.699800  0.423100  0.075600  1.0  0.1436
  H  H32  1  0.070400  0.490800  0.527600  1.0  0.1189
  H  H33  1  0.092600  0.752600  0.506600  1.0  0.1318
  H  H34  1  0.592600  0.148200  0.006600  1.0  0.1316
  H  H35  1  0.160400  0.919500  0.224100  1.0  0.2831
  H  H36  1  0.042200  0.555600  0.453500  1.0  0.1197
  H  H37  1  0.032400  0.396300  0.048900  1.0  0.1237
  H  H38  1  0.460400  0.348500  0.527600  1.0  0.1241
  H  H39  1  0.412100  0.812100  0.339200  1.0  0.1243
  H  H40  1  0.088800  0.929600  0.472400  1.0  0.1217
  H  H41  1  0.687900  0.087900  0.160800  1.0  0.1279
  H  H42  1  0.901600  0.381900  0.874600  1.0  0.1186
  H  H43  1  0.948700  0.042200  0.453500  1.0  0.1196
  H  H44  1  0.551300  0.944400  0.046500  1.0  0.1206
  H  H45  1  0.715200  0.577700  0.223400  1.0  0.1053
  H  H46  1  0.615800  0.903400  0.332900  1.0  0.3161
  H  H47  1  0.794200  0.399100  0.431600  1.0  0.122
  H  H48  1  0.848500  0.960400  0.027600  1.0  0.1247
  H  H49  1  0.310500  0.614900  0.616400  1.0  0.1339
  H  H50  1  0.642800  0.330000  0.403400  1.0  0.1236
  H  H51  1  0.778200  0.794300  0.052200  1.0  0.1232
  H  H52  1  0.648200  0.092600  0.506600  1.0  0.1328
  H  H53  1  0.658100  0.118100  0.625400  1.0  0.1184
  H  H54  1  0.436600  0.412100  0.339200  1.0  0.1276
  H  H55  1  0.458200  0.310500  0.616400  1.0  0.1316
  H  H56  1  0.810500  0.958200  0.116400  1.0  0.1322
  H  H57  1  0.357200  0.670000  0.596600  1.0  0.1222
  H  H58  1  0.114900  0.810500  0.116400  1.0  0.134
  H  H59  1  0.100900  0.705800  0.068400  1.0  0.1217
  H  H60  1  0.563400  0.587900  0.660800  1.0  0.1278
  H  H61  1  0.341900  0.881900  0.374600  1.0  0.119
  H  H62  1  0.647900  0.403400  0.832900  1.0  0.316
  H  H63  1  0.448700  0.055600  0.953500  1.0  0.1169
  H  H64  1  0.063400  0.687900  0.160800  1.0  0.1247
  H  H65  1  0.142800  0.123800  0.903400  1.0  0.1262
  H  H66  1  0.794300  0.375300  0.052200  1.0  0.1185
  H  H67  1  0.304000  0.839600  0.775900  1.0  0.282
  H  H68  1  0.907400  0.247400  0.493400  1.0  0.1316
  H  H69  1  0.022400  0.896300  0.548900  1.0  0.1252
  H  H70  1  0.123800  0.830000  0.903400  1.0  0.1241
  H  H71  1  0.721800  0.124700  0.447800  1.0  0.118
  H  H72  1  0.624900  0.205800  0.568400  1.0  0.1213
  H  H73  1  0.588800  0.009200  0.972400  1.0  0.122
  H  H74  1  0.541800  0.689500  0.383600  1.0  0.1311
  H  H75  1  0.087900  0.063400  0.160800  1.0  0.1273
  H  H76  1  0.881900  0.401600  0.374600  1.0  0.1219
  H  H77  1  0.990800  0.570400  0.027600  1.0  0.1194
  H  H78  1  0.600900  0.624900  0.568400  1.0  0.1215
  H  H79  1  0.115800  0.647900  0.832900  1.0  0.3179
  H  H80  1  0.689500  0.385100  0.383600  1.0  0.1325
  H  H81  1  0.385100  0.541800  0.383600  1.0  0.1312
  H  H82  1  0.804000  0.580500  0.275900  1.0  0.2843
  H  H83  1  0.376200  0.357200  0.596600  1.0  0.1237
  H  H84  1  0.899100  0.294200  0.931600  1.0  0.1215
  H  H85  1  0.614900  0.458200  0.616400  1.0  0.1316
  H  H86  1  0.603700  0.477600  0.951100  1.0  0.1234
  H  H87  1  0.903400  0.147900  0.332900  1.0  0.3181
  H  H88  1  0.444400  0.051300  0.546500  1.0  0.1201
  H  H89  1  0.852100  0.384200  0.667100  1.0  0.3176
  H  H90  1  0.077700  0.215200  0.723400  1.0  0.1054
  H  H91  1  0.752600  0.648200  0.506600  1.0  0.1313
  H  H92  1  0.570400  0.411200  0.027600  1.0  0.122
  H  H93  1  0.876200  0.170000  0.096600  1.0  0.1226
  H  H94  1  0.457800  0.551300  0.046500  1.0  0.1175
  H  H95  1  0.923100  0.199800  0.575600  1.0  0.1438
  H  H96  1  0.300200  0.576900  0.924400  1.0  0.1428
  H  H97  1  0.076900  0.800200  0.424400  1.0  0.1444
  H  H98  1  0.041800  0.885100  0.883600  1.0  0.1323
  H  H99  1  0.967600  0.603700  0.951100  1.0  0.1234
  H  H100  1  0.698500  0.076900  0.424400  1.0  0.1422
  H  H101  1  0.857200  0.876200  0.096600  1.0  0.1246
  H  H102  1  0.205800  0.600900  0.568400  1.0  0.1205
  H  H103  1  0.812100  0.436600  0.339200  1.0  0.1276
  H  H104  1  0.929600  0.509200  0.472400  1.0  0.1211
  H  H105  1  0.651500  0.336500  0.472400  1.0  0.1245
  H  H106  1  0.896300  0.532400  0.548900  1.0  0.1226
  H  H107  1  0.851800  0.747400  0.993400  1.0  0.1303
  H  H108  1  0.885100  0.189500  0.883600  1.0  0.1356
  H  H109  1  0.301500  0.923100  0.575600  1.0  0.1427
  H  H110  1  0.158100  0.098400  0.125400  1.0  0.1214
  H  H111  1  0.423100  0.801500  0.075600  1.0  0.1444
  H  H112  1  0.252600  0.592600  0.006600  1.0  0.1325
  H  H113  1  0.098400  0.618100  0.125400  1.0  0.1184
  H  H114  1  0.884200  0.352100  0.167100  1.0  0.3167
  H  H115  1  0.336500  0.539600  0.472400  1.0  0.1254
  H  H116  1  0.284800  0.422300  0.776600  1.0  0.1053
  H  H117  1  0.118100  0.598400  0.625400  1.0  0.1217
  H  H118  1  0.919500  0.696000  0.224100  1.0  0.2832
  H  H119  1  0.696000  0.160400  0.224100  1.0  0.2832
  H  H120  1  0.419500  0.660400  0.724100  1.0  0.2837
  H  H121  1  0.352100  0.596600  0.167100  1.0  0.3161
  H  H122  1  0.422300  0.516300  0.776600  1.0  0.1049
  H  H123  1  0.381900  0.841900  0.874600  1.0  0.123
  H  H124  1  0.958200  0.114900  0.116400  1.0  0.1312
  H  H125  1  0.051300  0.957800  0.546500  1.0  0.1186
  H  H126  1  0.660400  0.196000  0.724100  1.0  0.2841
  H  H127  1  0.483700  0.715200  0.223400  1.0  0.1061
  H  H128  1  0.294200  0.875100  0.931600  1.0  0.1213
  H  H129  1  0.801500  0.699800  0.075600  1.0  0.1434
  H  H130  1  0.375300  0.778200  0.052200  1.0  0.1202
  H  H131  1  0.516300  0.284800  0.776600  1.0  0.1052
  H  H132  1  0.148200  0.252600  0.006600  1.0  0.1321
  H  H133  1  0.841900  0.901600  0.874600  1.0  0.1198
  H  H134  1  0.830000  0.142800  0.903400  1.0  0.1236
  H  H135  1  0.705800  0.124900  0.068400  1.0  0.1209
  H  H136  1  0.539600  0.651500  0.472400  1.0  0.123
  H  H137  1  0.587900  0.187900  0.660800  1.0  0.1231
  H  H138  1  0.957800  0.444400  0.546500  1.0  0.1196
  H  H139  1  0.532400  0.022400  0.548900  1.0  0.1248
  H  H140  1  0.215200  0.983700  0.723400  1.0  0.1056
  H  H141  1  0.039600  0.836500  0.972400  1.0  0.1242
  H  H142  1  0.205700  0.624700  0.947800  1.0  0.1176
  H  H143  1  0.800200  0.698500  0.424400  1.0  0.1427
  H  H144  1  0.198500  0.300200  0.924400  1.0  0.1436
  H  H145  1  0.124900  0.100900  0.068400  1.0  0.1221
  H  H146  1  0.312100  0.912100  0.839200  1.0  0.1277
  H  H147  1  0.477600  0.967600  0.951100  1.0  0.1242
  H  H148  1  0.542200  0.448700  0.953500  1.0  0.1197
  H  H149  1  0.009200  0.429600  0.972400  1.0  0.1208
  H  H150  1  0.170000  0.857200  0.096600  1.0  0.1234
  H  H151  1  0.351800  0.907400  0.493400  1.0  0.1327
  H  H152  1  0.096600  0.852100  0.667100  1.0  0.3176
  H  H153  1  0.407400  0.851800  0.993400  1.0  0.1315
  H  H154  1  0.490800  0.911200  0.527600  1.0  0.122
  H  H155  1  0.151500  0.039600  0.972400  1.0  0.1227
  H  H156  1  0.147900  0.615800  0.332900  1.0  0.32
  H  H157  1  0.580500  0.339600  0.275900  1.0  0.2837
  H  H158  1  0.911200  0.070400  0.527600  1.0  0.1222
  H  H159  1  0.875300  0.294300  0.552200  1.0  0.122
  H  H160  1  0.784800  0.016300  0.276600  1.0  0.1049
  H  H161  1  0.623800  0.642800  0.403400  1.0  0.1233
  H  H162  1  0.399100  0.375100  0.431600  1.0  0.1229
  H  H163  1  0.103700  0.467600  0.451100  1.0  0.1225
  H  H164  1  0.375100  0.794200  0.431600  1.0  0.122
  H  H165  1  0.294300  0.278200  0.552200  1.0  0.1215
  H  H166  1  0.411200  0.990800  0.027600  1.0  0.1222
  H  H167  1  0.577700  0.483700  0.223400  1.0  0.1052
  H  H168  1  0.401600  0.341900  0.374600  1.0  0.1201
  H  H169  1  0.836500  0.151500  0.972400  1.0  0.1258
  H  H170  1  0.396300  0.522400  0.048900  1.0  0.1243
  H  H171  1  0.278200  0.875300  0.552200  1.0  0.1193
  H  H172  1  0.944400  0.457800  0.046500  1.0  0.1202
  H  H173  1  0.598400  0.658100  0.625400  1.0  0.121
  H  H174  1  0.576900  0.198500  0.924400  1.0  0.1443
  H  H175  1  0.467600  0.977600  0.451100  1.0  0.1239
  H  H176  1  0.509200  0.088800  0.472400  1.0  0.1226
  H  H177  1  0.596600  0.884200  0.167100  1.0  0.3186
  H  H178  1  0.977600  0.103700  0.451100  1.0  0.1239
  H  H179  1  0.624700  0.221800  0.947800  1.0  0.1215
  H  H180  1  0.936600  0.312100  0.839200  1.0  0.1241
  H  H181  1  0.429600  0.588800  0.972400  1.0  0.1217
  H  H182  1  0.163500  0.848500  0.027600  1.0  0.1252
  H  H183  1  0.522400  0.032400  0.048900  1.0  0.1229
  H  H184  1  0.080500  0.304000  0.775900  1.0  0.285
  H  H185  1  0.705700  0.721800  0.447800  1.0  0.1209
  H  H186  1  0.618100  0.158100  0.125400  1.0  0.1232
  C  C187  1  0.972780  0.916480  0.276660  1.0  0.0133
  C  C188  1  0.933990  0.235890  0.086430  1.0  0.2173
  C  C189  1  0.203350  0.785850  0.528950  1.0  -0.1993
  C  C190  1  0.177260  0.256260  0.951520  1.0  -0.4237
  C  C191  1  0.334080  0.416480  0.776660  1.0  0.0102
  C  C192  1  0.665920  0.583520  0.223340  1.0  0.0126
  C  C193  1  0.271790  0.693880  0.913960  1.0  0.2198
  C  C194  1  0.536200  0.232100  0.447500  1.0  -0.2073
  C  C195  1  0.987440  0.699140  0.113880  1.0  0.1674
  C  C196  1  0.199140  0.487440  0.613880  1.0  0.1668
  C  C197  1  0.017630  0.158080  0.723310  1.0  -0.1398
  C  C198  1  0.568000  0.678000  0.418700  1.0  -0.3852
  C  C199  1  0.175570  0.570070  0.617390  1.0  -0.3796
  C  C200  1  0.664700  0.432000  0.581300  1.0  -0.386
  C  C201  1  0.764110  0.256310  0.913570  1.0  0.2198
  C  C202  1  0.570070  0.636970  0.617390  1.0  -0.3799
  C  C203  1  0.899020  0.982370  0.276690  1.0  -0.1394
  C  C204  1  0.322740  0.885040  0.548480  1.0  -0.4228
  C  C205  1  0.114960  0.756260  0.451520  1.0  -0.4281
  C  C206  1  0.038990  0.657490  0.937930  1.0  0.1578
  C  C207  1  0.399020  0.341920  0.776690  1.0  -0.1372
  C  C208  1  0.756260  0.677260  0.451520  1.0  -0.4234
  C  C209  1  0.703350  0.981850  0.028950  1.0  -0.1998
  C  C210  1  0.100980  0.017630  0.723310  1.0  -0.1407
  C  C211  1  0.243690  0.735890  0.586430  1.0  0.2204
  C  C212  1  0.784200  0.536200  0.447500  1.0  -0.2085
  C  C213  1  0.120370  0.271790  0.913960  1.0  0.2241
  C  C214  1  0.636970  0.175570  0.617390  1.0  -0.3781
  C  C215  1  0.306120  0.879630  0.086040  1.0  0.22
  C  C216  1  0.938770  0.228870  0.720490  1.0  0.67
  C  C217  1  0.215800  0.463800  0.552500  1.0  -0.2079
  C  C218  1  0.715800  0.267900  0.052500  1.0  -0.2081
  C  C219  1  0.806120  0.228210  0.586040  1.0  0.2205
  C  C220  1  0.324430  0.863030  0.882610  1.0  -0.3811
  C  C221  1  0.068340  0.912840  0.529580  1.0  -0.3692
  C  C222  1  0.158080  0.100980  0.723310  1.0  -0.1383
  C  C223  1  0.285850  0.703350  0.028950  1.0  -0.199
  C  C224  1  0.036200  0.284200  0.947500  1.0  -0.2079
  C  C225  1  0.517630  0.600980  0.223310  1.0  -0.1391
  C  C226  1  0.561230  0.388130  0.779510  1.0  0.6683
  C  C227  1  0.412840  0.568340  0.029580  1.0  -0.3705
  C  C228  1  0.929930  0.324430  0.882610  1.0  -0.379
  C  C229  1  0.771130  0.888130  0.279510  1.0  0.6673
  C  C230  1  0.300860  0.800460  0.886120  1.0  0.1646
  C  C231  1  0.136970  0.070070  0.117390  1.0  -0.3824
  C  C232  1  0.027220  0.083520  0.723340  1.0  0.0129
  C  C233  1  0.583520  0.527220  0.223340  1.0  0.014
  C  C234  1  0.018150  0.714150  0.971050  1.0  -0.2007
  C  C235  1  0.756310  0.264110  0.413570  1.0  0.2201
  C  C236  1  0.743740  0.385040  0.048480  1.0  -0.4213
  C  C237  1  0.658080  0.517630  0.223310  1.0  -0.1409
  C  C238  1  0.070070  0.675570  0.117390  1.0  -0.378
  C  C239  1  0.834080  0.972780  0.276660  1.0  0.0099
  C  C240  1  0.728210  0.306120  0.086040  1.0  0.2205
  C  C241  1  0.228210  0.379630  0.586040  1.0  0.2185
  C  C242  1  0.879630  0.728210  0.086040  1.0  0.2185
  C  C243  1  0.981850  0.285850  0.028950  1.0  -0.1983
  C  C244  1  0.538990  0.865590  0.437930  1.0  0.1556
  C  C245  1  0.657490  0.365590  0.937930  1.0  0.1564
  C  C246  1  0.912840  0.489240  0.529580  1.0  -0.3687
  C  C247  1  0.527220  0.665920  0.223340  1.0  0.0101
  C  C248  1  0.800860  0.512560  0.386120  1.0  0.1697
  C  C249  1  0.885040  0.243740  0.548480  1.0  -0.4283
  C  C250  1  0.699540  0.199140  0.613880  1.0  0.1657
  C  C251  1  0.300460  0.800860  0.386120  1.0  0.1663
  C  C252  1  0.228870  0.111870  0.720490  1.0  0.6675
  C  C253  1  0.614960  0.177260  0.951520  1.0  -0.4287
  C  C254  1  0.235890  0.743690  0.086430  1.0  0.2207
  C  C255  1  0.931660  0.087160  0.470420  1.0  -0.3696
  C  C256  1  0.193880  0.771790  0.413960  1.0  0.2193
  C  C257  1  0.611870  0.728870  0.220490  1.0  0.6672
  C  C258  1  0.587160  0.431660  0.970420  1.0  -0.3673
  C  C259  1  0.256260  0.614960  0.951520  1.0  -0.4227
  C  C260  1  0.824430  0.429930  0.382610  1.0  -0.3822
  C  C261  1  0.916480  0.834080  0.276660  1.0  0.0105
  C  C262  1  0.822740  0.743740  0.048480  1.0  -0.4249
  C  C263  1  0.416480  0.472780  0.776660  1.0  0.0134
  C  C264  1  0.566010  0.756310  0.413570  1.0  0.2208
  C  C265  1  0.863030  0.929930  0.882610  1.0  -0.3835
  C  C266  1  0.735890  0.433990  0.586430  1.0  0.2192
  C  C267  1  0.487440  0.699540  0.613880  1.0  0.1674
  C  C268  1  0.512560  0.300460  0.386120  1.0  0.1668
  C  C269  1  0.388130  0.271130  0.779510  1.0  0.6693
  C  C270  1  0.365590  0.038990  0.937930  1.0  0.1592
  C  C271  1  0.714150  0.296650  0.971050  1.0  -0.2007
  C  C272  1  0.271130  0.561230  0.779510  1.0  0.6692
  C  C273  1  0.087160  0.510760  0.470420  1.0  -0.3675
  C  C274  1  0.342510  0.634410  0.062070  1.0  0.1588
  C  C275  1  0.743690  0.933990  0.086430  1.0  0.2189
  C  C276  1  0.963800  0.715800  0.052500  1.0  -0.2074
  C  C277  1  0.083520  0.165920  0.723340  1.0  0.0113
  C  C278  1  0.335300  0.568000  0.418700  1.0  -0.3872
  C  C279  1  0.431660  0.010760  0.970420  1.0  -0.3693
  C  C280  1  0.264110  0.566010  0.413570  1.0  0.2218
  C  C281  1  0.463800  0.767900  0.552500  1.0  -0.2059
  C  C282  1  0.693880  0.120370  0.913960  1.0  0.2231
  C  C283  1  0.267900  0.963800  0.052500  1.0  -0.2057
  C  C284  1  0.432000  0.322000  0.581300  1.0  -0.3849
  C  C285  1  0.822000  0.932000  0.081300  1.0  -0.3868
  C  C286  1  0.243740  0.322740  0.548480  1.0  -0.4241
  C  C287  1  0.841920  0.899020  0.276690  1.0  -0.1363
  C  C288  1  0.675570  0.136970  0.117390  1.0  -0.3825
  C  C289  1  0.771790  0.620370  0.413960  1.0  0.2206
  C  C290  1  0.157490  0.538990  0.437930  1.0  0.159
  C  C291  1  0.785850  0.481850  0.528950  1.0  -0.1988
  C  C292  1  0.796650  0.214150  0.471050  1.0  -0.2013
  C  C293  1  0.178000  0.068000  0.918700  1.0  -0.3859
  C  C294  1  0.341920  0.482370  0.776690  1.0  -0.1398
  C  C295  1  0.620370  0.193880  0.413960  1.0  0.2237
  C  C296  1  0.284200  0.732100  0.947500  1.0  -0.2089
  C  C297  1  0.961010  0.342510  0.062070  1.0  0.1575
  C  C298  1  0.164700  0.822000  0.081300  1.0  -0.3848
  C  C299  1  0.429930  0.363030  0.382610  1.0  -0.3804
  C  C300  1  0.296650  0.018150  0.971050  1.0  -0.1998
  C  C301  1  0.767900  0.215800  0.552500  1.0  -0.207
  C  C302  1  0.982370  0.841920  0.276690  1.0  -0.1394
  C  C303  1  0.214150  0.518150  0.471050  1.0  -0.1997
  C  C304  1  0.489240  0.068340  0.529580  1.0  -0.3688
  C  C305  1  0.012560  0.300860  0.886120  1.0  0.1672
  C  C306  1  0.010760  0.587160  0.970420  1.0  -0.3682
  C  C307  1  0.068000  0.835300  0.918700  1.0  -0.3833
  C  C308  1  0.256310  0.066010  0.913570  1.0  0.2199
  C  C309  1  0.835300  0.178000  0.918700  1.0  -0.387
  C  C310  1  0.518150  0.796650  0.471050  1.0  -0.1988
  C  C311  1  0.568340  0.989240  0.029580  1.0  -0.3682
  C  C312  1  0.066010  0.764110  0.913570  1.0  0.2205
  C  C313  1  0.165920  0.027220  0.723340  1.0  0.011
  C  C314  1  0.385040  0.822740  0.048480  1.0  -0.4286
  C  C315  1  0.728870  0.438770  0.220490  1.0  0.6704
  C  C316  1  0.322000  0.664700  0.581300  1.0  -0.3871
  C  C317  1  0.461010  0.134410  0.562070  1.0  0.1572
  C  C318  1  0.510760  0.931660  0.470420  1.0  -0.3676
  C  C319  1  0.482370  0.399020  0.776690  1.0  -0.1389
  C  C320  1  0.989240  0.412840  0.029580  1.0  -0.3694
  C  C321  1  0.379630  0.806120  0.586040  1.0  0.2163
  C  C322  1  0.732100  0.036200  0.947500  1.0  -0.2072
  C  C323  1  0.438770  0.611870  0.220490  1.0  0.6682
  C  C324  1  0.433990  0.243690  0.586430  1.0  0.2218
  C  C325  1  0.677260  0.114960  0.451520  1.0  -0.4238
  C  C326  1  0.678000  0.335300  0.418700  1.0  -0.3842
  C  C327  1  0.199540  0.987440  0.113880  1.0  0.1684
  C  C328  1  0.600980  0.658080  0.223310  1.0  -0.1378
  C  C329  1  0.865590  0.157490  0.437930  1.0  0.1581
  C  C330  1  0.800460  0.012560  0.886120  1.0  0.1671
  C  C331  1  0.061230  0.771130  0.279510  1.0  0.6685
  C  C332  1  0.134410  0.842510  0.562070  1.0  0.1573
  C  C333  1  0.842510  0.461010  0.562070  1.0  0.1602
  C  C334  1  0.699140  0.199540  0.113880  1.0  0.1668
  C  C335  1  0.932000  0.164700  0.081300  1.0  -0.3853
  C  C336  1  0.481850  0.203350  0.528950  1.0  -0.1993
  C  C337  1  0.634410  0.961010  0.062070  1.0  0.155
  C  C338  1  0.472780  0.334080  0.776660  1.0  0.0099
  C  C339  1  0.111870  0.938770  0.720490  1.0  0.6725
  C  C340  1  0.363030  0.824430  0.382610  1.0  -0.377
  C  C341  1  0.888130  0.061230  0.279510  1.0  0.6705
  C  C342  1  0.232100  0.784200  0.447500  1.0  -0.208
  N  N343  1  0.203720  0.419940  0.678560  1.0  -0.0919
  N  N344  1  0.080060  0.296280  0.821440  1.0  -0.092
  N  N345  1  0.762510  0.222070  0.663020  1.0  -0.2817
  N  N346  1  0.594600  0.865590  0.365090  1.0  -0.0825
  N  N347  1  0.634410  0.905400  0.134910  1.0  -0.0839
  N  N348  1  0.580060  0.302220  0.321440  1.0  -0.0924
  N  N349  1  0.277930  0.737490  0.836980  1.0  -0.2807
  N  N350  1  0.905400  0.325280  0.134910  1.0  -0.0819
  N  N351  1  0.296280  0.802220  0.821440  1.0  -0.0908
  N  N352  1  0.352400  0.762510  0.663020  1.0  -0.2799
  N  N353  1  0.365590  0.094600  0.865090  1.0  -0.0835
  N  N354  1  0.298520  0.113170  0.848680  1.0  -0.291
  N  N355  1  0.919940  0.703720  0.178560  1.0  -0.0923
  N  N356  1  0.802220  0.080060  0.821440  1.0  -0.0925
  N  N357  1  0.113170  0.739630  0.848680  1.0  -0.2896
  N  N358  1  0.796280  0.580060  0.321440  1.0  -0.0915
  N  N359  1  0.703720  0.197780  0.178560  1.0  -0.0916
  N  N360  1  0.739630  0.298520  0.848680  1.0  -0.2932
  N  N361  1  0.174720  0.594600  0.365090  1.0  -0.0825
  N  N362  1  0.852400  0.722070  0.163020  1.0  -0.2799
  N  N363  1  0.737490  0.147600  0.836980  1.0  -0.2792
  N  N364  1  0.777930  0.647600  0.336980  1.0  -0.2789
  N  N365  1  0.825280  0.405400  0.634910  1.0  -0.0818
  N  N366  1  0.647600  0.237490  0.336980  1.0  -0.279
  N  N367  1  0.134410  0.825280  0.634910  1.0  -0.0831
  N  N368  1  0.386830  0.201480  0.651320  1.0  -0.2934
  N  N369  1  0.262510  0.852400  0.163020  1.0  -0.2807
  N  N370  1  0.197780  0.919940  0.178560  1.0  -0.0906
  N  N371  1  0.147600  0.277930  0.836980  1.0  -0.2787
  N  N372  1  0.419940  0.697780  0.678560  1.0  -0.0924
  N  N373  1  0.405400  0.134410  0.634910  1.0  -0.0821
  N  N374  1  0.325280  0.634410  0.134910  1.0  -0.0816
  N  N375  1  0.260370  0.701480  0.151320  1.0  -0.2929
  N  N376  1  0.222070  0.352400  0.663020  1.0  -0.2813
  N  N377  1  0.239630  0.613170  0.348680  1.0  -0.2891
  N  N378  1  0.201480  0.760370  0.651320  1.0  -0.294
  N  N379  1  0.674720  0.365590  0.865090  1.0  -0.0824
  N  N380  1  0.302220  0.796280  0.321440  1.0  -0.0922
  N  N381  1  0.886830  0.260370  0.151320  1.0  -0.2905
  N  N382  1  0.613170  0.798520  0.348680  1.0  -0.2926
  N  N383  1  0.865590  0.174720  0.365090  1.0  -0.0828
  N  N384  1  0.722070  0.262510  0.163020  1.0  -0.2823
  N  N385  1  0.798520  0.239630  0.348680  1.0  -0.2925
  N  N386  1  0.760370  0.386830  0.651320  1.0  -0.291
  N  N387  1  0.094600  0.674720  0.865090  1.0  -0.0832
  N  N388  1  0.237490  0.777930  0.336980  1.0  -0.2805
  N  N389  1  0.701480  0.886830  0.151320  1.0  -0.2941
  N  N390  1  0.697780  0.203720  0.678560  1.0  -0.0912
  O  O391  1  0.215340  0.179800  0.722890  1.0  -0.5941
  O  O392  1  0.820200  0.118030  0.277110  1.0  -0.5926
  O  O393  1  0.554090  0.796740  0.215210  1.0  -0.5942
  O  O394  1  0.618030  0.320200  0.777110  1.0  -0.5951
  O  O395  1  0.203260  0.566040  0.784790  1.0  -0.596
  O  O396  1  0.784660  0.820200  0.277110  1.0  -0.5931
  O  O397  1  0.445910  0.203260  0.784790  1.0  -0.5932
  O  O398  1  0.715340  0.381970  0.222890  1.0  -0.5934
  O  O399  1  0.933960  0.296740  0.715210  1.0  -0.5928
  O  O400  1  0.566040  0.445910  0.784790  1.0  -0.5958
  O  O401  1  0.320200  0.284660  0.777110  1.0  -0.5931
  O  O402  1  0.703260  0.945910  0.284790  1.0  -0.5923
  O  O403  1  0.433960  0.554090  0.215210  1.0  -0.5936
  O  O404  1  0.796740  0.433960  0.215210  1.0  -0.5926
  O  O405  1  0.381970  0.679800  0.222890  1.0  -0.5948
  O  O406  1  0.179800  0.881970  0.722890  1.0  -0.5936
  O  O407  1  0.118030  0.784660  0.277110  1.0  -0.5936
  O  O408  1  0.054090  0.933960  0.715210  1.0  -0.5949
  O  O409  1  0.679800  0.715340  0.222890  1.0  -0.5942
  O  O410  1  0.284660  0.618030  0.777110  1.0  -0.5936
  O  O411  1  0.296740  0.054090  0.715210  1.0  -0.5942
  O  O412  1  0.881970  0.215340  0.722890  1.0  -0.5945
  O  O413  1  0.945910  0.066040  0.284790  1.0  -0.5943
  O  O414  1  0.066040  0.703260  0.284790  1.0  -0.595
