# generated using pymatgen
data_Cd3H32(C2N3)18
_symmetry_space_group_name_H-M   'P 1'
_cell_length_a   12.69090000
_cell_length_b   12.69090000
_cell_length_c   14.67230000
_cell_angle_alpha   115.62500000
_cell_angle_beta   115.62500000
_cell_angle_gamma   90.00070000
_symmetry_Int_Tables_number   1
_chemical_formula_structural   Cd3H32(C2N3)18
_chemical_formula_sum   'Cd3 H32 C36 N54'
_cell_volume   1869.57148611
_cell_formula_units_Z   1
loop_
 _symmetry_equiv_pos_site_id
 _symmetry_equiv_pos_as_xyz
  1  'x, y, z'
loop_
 _atom_site_type_symbol
 _atom_site_label
 _atom_site_symmetry_multiplicity
 _atom_site_fract_x
 _atom_site_fract_y
 _atom_site_fract_z
 _atom_site_occupancy
 _atom_site_charge
  Cd  Cd1  1  0.000000  0.000000  0.000000  1.0  0.9013
  Cd  Cd2  1  0.338150  0.338150  0.676300  1.0  0.8209
  Cd  Cd3  1  0.661850  0.661850  0.323700  1.0  0.822
  H  H4  1  0.898100  0.080900  0.681800  1.0  0.0658
  H  H5  1  0.825000  0.713400  0.198800  1.0  0.0688
  H  H6  1  0.783700  0.600900  0.681800  1.0  0.0656
  H  H7  1  0.841500  0.497900  0.441800  1.0  0.0691
  H  H8  1  0.399100  0.101900  0.318200  1.0  0.0664
  H  H9  1  0.530000  0.736400  0.972000  1.0  0.0745
  H  H10  1  0.961300  0.824700  0.446400  1.0  0.0869
  H  H11  1  0.286600  0.626200  0.801200  1.0  0.0708
  H  H12  1  0.919100  0.216300  0.318200  1.0  0.0672
  H  H13  1  0.263600  0.558000  0.028000  1.0  0.0747
  H  H14  1  0.502100  0.399700  0.558200  1.0  0.0674
  H  H15  1  0.757200  0.598300  0.897000  1.0  0.0729
  H  H16  1  0.701300  0.242800  0.103000  1.0  0.0751
  H  H17  1  0.175300  0.514900  0.553600  1.0  0.0894
  H  H18  1  0.200900  0.996000  0.737800  1.0  0.062
  H  H19  1  0.764400  0.470000  0.028000  1.0  0.0765
  H  H20  1  0.401700  0.860200  0.103000  1.0  0.0755
  H  H21  1  0.819400  0.942700  0.107400  1.0  0.0789
  H  H22  1  0.373800  0.485400  0.198800  1.0  0.0707
  H  H23  1  0.139800  0.298700  0.897000  1.0  0.0741
  H  H24  1  0.442000  0.235600  0.972000  1.0  0.0739
  H  H25  1  0.057300  0.712000  0.892600  1.0  0.0776
  H  H26  1  0.288000  0.164700  0.107400  1.0  0.0762
  H  H27  1  0.600300  0.943900  0.441800  1.0  0.0672
  H  H28  1  0.536900  0.741800  0.737800  1.0  0.0629
  H  H29  1  0.004000  0.463100  0.262200  1.0  0.0622
  H  H30  1  0.378300  0.038700  0.553600  1.0  0.0875
  H  H31  1  0.258200  0.799100  0.262200  1.0  0.0626
  H  H32  1  0.056100  0.158500  0.558200  1.0  0.0657
  H  H33  1  0.485100  0.621700  0.446400  1.0  0.0884
  H  H34  1  0.835300  0.180600  0.892600  1.0  0.0766
  H  H35  1  0.514600  0.175000  0.801200  1.0  0.0721
  C  C36  1  0.149700  0.253900  0.935000  1.0  0.1291
  C  C37  1  0.745400  0.715000  0.158400  1.0  0.1338
  C  C38  1  0.413000  0.443400  0.158400  1.0  0.1334
  C  C39  1  0.285000  0.587000  0.841600  1.0  0.1343
  C  C40  1  0.380500  0.075600  0.511600  1.0  0.163
  C  C41  1  0.564000  0.619500  0.488400  1.0  0.1625
  C  C42  1  0.888300  0.009800  0.618800  1.0  0.0754
  C  C43  1  0.818700  0.870600  0.050800  1.0  0.1385
  C  C44  1  0.864100  0.503600  0.391400  1.0  0.122
  C  C45  1  0.131100  0.436000  0.511600  1.0  0.1599
  C  C46  1  0.318900  0.850300  0.065000  1.0  0.1305
  C  C47  1  0.129400  0.767900  0.949200  1.0  0.1394
  C  C48  1  0.964500  0.867900  0.755800  1.0  0.0697
  C  C49  1  0.693300  0.416000  0.965000  1.0  0.1313
  C  C50  1  0.730500  0.609000  0.618800  1.0  0.0757
  C  C51  1  0.819800  0.181300  0.949200  1.0  0.1393
  C  C52  1  0.112200  0.135900  0.608600  1.0  0.123
  C  C53  1  0.584000  0.728300  0.035000  1.0  0.1328
  C  C54  1  0.271700  0.549000  0.965000  1.0  0.1333
  C  C55  1  0.990200  0.269500  0.381200  1.0  0.0753
  C  C56  1  0.191400  0.047400  0.706400  1.0  0.1211
  C  C57  1  0.515000  0.659000  0.706400  1.0  0.1243
  C  C58  1  0.791300  0.887900  0.755800  1.0  0.0698
  C  C59  1  0.952600  0.485000  0.293600  1.0  0.1237
  C  C60  1  0.527300  0.887800  0.391400  1.0  0.1214
  C  C61  1  0.232100  0.180200  0.050800  1.0  0.1401
  C  C62  1  0.132100  0.208700  0.244200  1.0  0.0671
  C  C63  1  0.341000  0.808600  0.293600  1.0  0.1216
  C  C64  1  0.112100  0.035500  0.244200  1.0  0.0695
  C  C65  1  0.451000  0.306700  0.035000  1.0  0.132
  C  C66  1  0.391000  0.111700  0.381200  1.0  0.0764
  C  C67  1  0.556600  0.254600  0.841600  1.0  0.1288
  C  C68  1  0.746100  0.214700  0.065000  1.0  0.1308
  C  C69  1  0.924400  0.868900  0.488400  1.0  0.1617
  C  C70  1  0.496400  0.472700  0.608600  1.0  0.1209
  C  C71  1  0.785300  0.681100  0.935000  1.0  0.129
  N  N72  1  0.117100  0.961600  0.290400  1.0  -0.4117
  N  N73  1  0.276300  0.124800  0.731200  1.0  -0.2898
  N  N74  1  0.118700  0.129500  0.988600  1.0  -0.1994
  N  N75  1  0.302900  0.480300  0.819000  1.0  -0.2709
  N  N76  1  0.608200  0.601700  0.581600  1.0  0.0384
  N  N77  1  0.794800  0.924200  0.552600  1.0  -0.2473
  N  N78  1  0.815200  0.835100  0.468000  1.0  -0.2423
  N  N79  1  0.065100  0.177700  0.915400  1.0  -0.268
  N  N80  1  0.098500  0.098500  0.197000  1.0  -0.0119
  N  N81  1  0.661300  0.697100  0.181000  1.0  -0.2691
  N  N82  1  0.671200  0.882900  0.709600  1.0  -0.4126
  N  N83  1  0.741400  0.235500  0.980400  1.0  0.0315
  N  N84  1  0.950700  0.458000  0.370200  1.0  0.0342
  N  N85  1  0.262300  0.934900  0.084600  1.0  -0.2693
  N  N86  1  0.020100  0.391800  0.418400  1.0  0.0379
  N  N87  1  0.225100  0.183300  0.669000  1.0  -0.2411
  N  N88  1  0.367200  0.333700  0.069400  1.0  0.0363
  N  N89  1  0.556700  0.708300  0.101000  1.0  -0.2629
  N  N90  1  0.901500  0.901500  0.803000  1.0  -0.0119
  N  N91  1  0.652800  0.632900  0.468000  1.0  -0.2402
  N  N92  1  0.239000  0.744900  0.980400  1.0  0.0302
  N  N93  1  0.607300  0.443300  0.899000  1.0  -0.2622
  N  N94  1  0.393600  0.723700  0.268800  1.0  -0.2895
  N  N95  1  0.140900  0.881300  0.011400  1.0  -0.2009
  N  N96  1  0.702200  0.735700  0.069400  1.0  0.035
  N  N97  1  0.542000  0.580500  0.629800  1.0  0.0328
  N  N98  1  0.666300  0.297800  0.930600  1.0  0.0368
  N  N99  1  0.516100  0.338700  0.819000  1.0  -0.2673
  N  N100  1  0.764500  0.761000  0.019600  1.0  0.0305
  N  N101  1  0.875200  0.545100  0.268800  1.0  -0.2891
  N  N102  1  0.164900  0.347200  0.532000  1.0  -0.2428
  N  N103  1  0.973400  0.979900  0.581600  1.0  0.038
  N  N104  1  0.255100  0.258600  0.019600  1.0  0.0315
  N  N105  1  0.087800  0.049300  0.629800  1.0  0.0345
  N  N106  1  0.822300  0.149700  0.084600  1.0  -0.2675
  N  N107  1  0.869900  0.859100  0.988600  1.0  -0.1997
  N  N108  1  0.291700  0.455700  0.899000  1.0  -0.263
  N  N109  1  0.757800  0.628400  0.552600  1.0  -0.2487
  N  N110  1  0.454900  0.606400  0.731200  1.0  -0.2874
  N  N111  1  0.870500  0.130100  0.011400  1.0  -0.2007
  N  N112  1  0.419500  0.912200  0.370200  1.0  0.0337
  N  N113  1  0.850300  0.737700  0.915400  1.0  -0.2704
  N  N114  1  0.173300  0.328800  0.290400  1.0  -0.4175
  N  N115  1  0.816700  0.556100  0.331000  1.0  -0.2412
  N  N116  1  0.514300  0.774900  0.331000  1.0  -0.2403
  N  N117  1  0.398300  0.026600  0.418400  1.0  0.0379
  N  N118  1  0.371600  0.205200  0.447400  1.0  -0.2466
  N  N119  1  0.075800  0.242200  0.447400  1.0  -0.2484
  N  N120  1  0.264300  0.632800  0.930600  1.0  0.0355
  N  N121  1  0.367100  0.184800  0.532000  1.0  -0.2434
  N  N122  1  0.519700  0.483900  0.181000  1.0  -0.2703
  N  N123  1  0.443900  0.485700  0.669000  1.0  -0.2403
  N  N124  1  0.544300  0.392700  0.101000  1.0  -0.2666
  N  N125  1  0.038400  0.826700  0.709600  1.0  -0.4121
