# generated using pymatgen
data_Co3H13C24O13
_symmetry_space_group_name_H-M   'P 1'
_cell_length_a   10.59000000
_cell_length_b   22.78700000
_cell_length_c   27.67500000
_cell_angle_alpha   107.79000000
_cell_angle_beta   90.00000000
_cell_angle_gamma   90.00000000
_symmetry_Int_Tables_number   1
_chemical_formula_structural   Co3H13C24O13
_chemical_formula_sum   'Co24 H104 C192 O104'
_cell_volume   6359.03248034
_cell_formula_units_Z   8
loop_
 _symmetry_equiv_pos_site_id
 _symmetry_equiv_pos_as_xyz
  1  'x, y, z'
loop_
 _atom_site_type_symbol
 _atom_site_label
 _atom_site_symmetry_multiplicity
 _atom_site_fract_x
 _atom_site_fract_y
 _atom_site_fract_z
 _atom_site_occupancy
 _atom_site_charge
  Co  Co1  1  0.803350  0.852060  0.148800  1.0  1.1035
  Co  Co2  1  0.196650  0.147940  0.851200  1.0  1.1063
  Co  Co3  1  0.408890  0.222560  0.934380  1.0  1.1275
  Co  Co4  1  0.660760  0.647470  0.268550  1.0  1.0728
  Co  Co5  1  0.584750  0.711250  0.832880  1.0  1.1397
  Co  Co6  1  0.591110  0.777440  0.065620  1.0  1.1366
  Co  Co7  1  0.696650  0.852060  0.648800  1.0  1.1046
  Co  Co8  1  0.690440  0.698860  0.141750  1.0  1.1043
  Co  Co9  1  0.291640  0.219480  0.243430  1.0  1.0717
  Co  Co10  1  0.208360  0.219480  0.743430  1.0  1.0722
  Co  Co11  1  0.791640  0.780520  0.256570  1.0  1.0726
  Co  Co12  1  0.915250  0.711250  0.332880  1.0  1.1372
  Co  Co13  1  0.839240  0.647470  0.768550  1.0  1.0715
  Co  Co14  1  0.190440  0.301140  0.358250  1.0  1.1045
  Co  Co15  1  0.339240  0.352530  0.731450  1.0  1.0726
  Co  Co16  1  0.908890  0.777440  0.565620  1.0  1.1328
  Co  Co17  1  0.809560  0.698860  0.641750  1.0  1.1047
  Co  Co18  1  0.091110  0.222560  0.434380  1.0  1.1281
  Co  Co19  1  0.309560  0.301140  0.858250  1.0  1.1051
  Co  Co20  1  0.415250  0.288750  0.167120  1.0  1.1368
  Co  Co21  1  0.303350  0.147940  0.351200  1.0  1.1035
  Co  Co22  1  0.708360  0.780520  0.756570  1.0  1.0732
  Co  Co23  1  0.084750  0.288750  0.667120  1.0  1.1397
  Co  Co24  1  0.160760  0.352530  0.231450  1.0  1.0731
  H  H25  1  0.830800  0.410400  0.392400  1.0  0.1254
  H  H26  1  0.619600  0.058700  0.927300  1.0  0.1218
  H  H27  1  0.578000  0.470000  0.172400  1.0  0.1156
  H  H28  1  0.934700  0.467300  0.040400  1.0  0.1244
  H  H29  1  0.534700  0.887900  0.380900  1.0  0.1342
  H  H30  1  0.508000  0.068600  0.468200  1.0  0.1214
  H  H31  1  0.235000  0.018000  0.089600  1.0  0.1387
  H  H32  1  0.931100  0.057100  0.045100  1.0  0.1251
  H  H33  1  0.708100  0.265300  0.720500  1.0  0.1208
  H  H34  1  0.922000  0.470000  0.672400  1.0  0.1159
  H  H35  1  0.465300  0.112100  0.619100  1.0  0.1337
  H  H36  1  0.008000  0.931400  0.031800  1.0  0.1219
  H  H37  1  0.782000  0.915900  0.830300  1.0  0.113
  H  H38  1  0.886000  0.802000  0.655300  1.0  0.4634
  H  H39  1  0.880400  0.058700  0.427300  1.0  0.1215
  H  H40  1  0.330800  0.589600  0.107600  1.0  0.125
  H  H41  1  0.386000  0.198000  0.844700  1.0  0.4634
  H  H42  1  0.957200  0.372700  0.527100  1.0  0.1212
  H  H43  1  0.431100  0.942900  0.454900  1.0  0.1256
  H  H44  1  0.078000  0.530000  0.327600  1.0  0.1157
  H  H45  1  0.265000  0.018000  0.589600  1.0  0.1388
  H  H46  1  0.434700  0.532700  0.459600  1.0  0.1247
  H  H47  1  0.542800  0.372700  0.027100  1.0  0.121
  H  H48  1  0.563400  0.585000  0.526700  1.0  0.1133
  H  H49  1  0.989700  0.153500  0.278900  1.0  0.1286
  H  H50  1  0.004600  0.000200  0.283700  1.0  0.1379
  H  H51  1  0.865000  0.677000  0.241300  1.0  0.4595
  H  H52  1  0.495400  0.000200  0.783700  1.0  0.1379
  H  H53  1  0.034700  0.112100  0.119100  1.0  0.134
  H  H54  1  0.965300  0.887900  0.880900  1.0  0.1339
  H  H55  1  0.743200  0.804200  0.461600  1.0  0.1265
  H  H56  1  0.791900  0.265300  0.220500  1.0  0.1209
  H  H57  1  0.492000  0.931400  0.531800  1.0  0.1217
  H  H58  1  0.208100  0.734700  0.779500  1.0  0.1209
  H  H59  1  0.380400  0.941300  0.072700  1.0  0.1215
  H  H60  1  0.635000  0.677000  0.741300  1.0  0.4606
  H  H61  1  0.669200  0.410400  0.892400  1.0  0.1253
  H  H62  1  0.135000  0.323000  0.758700  1.0  0.4597
  H  H63  1  0.936600  0.585000  0.026700  1.0  0.1132
  H  H64  1  0.737900  0.669500  0.437700  1.0  0.1273
  H  H65  1  0.010300  0.846500  0.721100  1.0  0.1286
  H  H66  1  0.995400  0.999800  0.716300  1.0  0.1396
  H  H67  1  0.565300  0.467300  0.540400  1.0  0.1244
  H  H68  1  0.543500  0.449400  0.617800  1.0  0.1226
  H  H69  1  0.169200  0.589600  0.607600  1.0  0.1246
  H  H70  1  0.368400  0.556400  0.621100  1.0  0.1149
  H  H71  1  0.868400  0.443600  0.878900  1.0  0.1149
  H  H72  1  0.626000  0.122800  0.248000  1.0  0.114
  H  H73  1  0.532500  0.624700  0.644500  1.0  0.1288
  H  H74  1  0.303900  0.760400  0.633200  1.0  0.1244
  H  H75  1  0.436600  0.415000  0.473300  1.0  0.1136
  H  H76  1  0.822500  0.545800  0.564600  1.0  0.1391
  H  H77  1  0.614000  0.802000  0.155300  1.0  0.4644
  H  H78  1  0.762100  0.669500  0.937700  1.0  0.1288
  H  H79  1  0.615100  0.455600  0.003500  1.0  0.1192
  H  H80  1  0.131600  0.556400  0.121100  1.0  0.1154
  H  H81  1  0.312000  0.902200  0.220600  1.0  0.1271
  H  H82  1  0.677500  0.545800  0.064600  1.0  0.1388
  H  H83  1  0.177500  0.454200  0.435400  1.0  0.1395
  H  H84  1  0.631600  0.443600  0.378900  1.0  0.1152
  H  H85  1  0.884900  0.455600  0.503500  1.0  0.1191
  H  H86  1  0.422000  0.530000  0.827600  1.0  0.1155
  H  H87  1  0.322500  0.454200  0.935400  1.0  0.1396
  H  H88  1  0.510300  0.153500  0.778900  1.0  0.1282
  H  H89  1  0.688000  0.097800  0.779400  1.0  0.1267
  H  H90  1  0.456500  0.550600  0.382200  1.0  0.1228
  H  H91  1  0.467500  0.375300  0.355500  1.0  0.1288
  H  H92  1  0.218000  0.084100  0.169700  1.0  0.1127
  H  H93  1  0.384900  0.544400  0.996500  1.0  0.1196
  H  H94  1  0.365000  0.323000  0.258700  1.0  0.4589
  H  H95  1  0.114000  0.198000  0.344700  1.0  0.4644
  H  H96  1  0.196100  0.760400  0.133200  1.0  0.1241
  H  H97  1  0.735000  0.982000  0.410400  1.0  0.1398
  H  H98  1  0.765000  0.982000  0.910400  1.0  0.1398
  H  H99  1  0.874000  0.122800  0.748000  1.0  0.1137
  H  H100  1  0.812000  0.097800  0.279400  1.0  0.127
  H  H101  1  0.065300  0.532700  0.959600  1.0  0.125
  H  H102  1  0.992000  0.068600  0.968200  1.0  0.1214
  H  H103  1  0.956500  0.449400  0.117800  1.0  0.1225
  H  H104  1  0.489700  0.846500  0.221100  1.0  0.1285
  H  H105  1  0.126000  0.877200  0.252000  1.0  0.1142
  H  H106  1  0.119600  0.941300  0.572700  1.0  0.1216
  H  H107  1  0.568900  0.057100  0.545100  1.0  0.1249
  H  H108  1  0.291900  0.734700  0.279500  1.0  0.1208
  H  H109  1  0.457200  0.627300  0.972900  1.0  0.1211
  H  H110  1  0.237900  0.330500  0.062300  1.0  0.1272
  H  H111  1  0.032500  0.375300  0.855500  1.0  0.1283
  H  H112  1  0.756800  0.804200  0.961600  1.0  0.1251
  H  H113  1  0.374000  0.877200  0.752000  1.0  0.1137
  H  H114  1  0.504600  0.999800  0.216300  1.0  0.139
  H  H115  1  0.043500  0.550600  0.882200  1.0  0.1228
  H  H116  1  0.696100  0.239600  0.366800  1.0  0.1252
  H  H117  1  0.967500  0.624700  0.144500  1.0  0.1288
  H  H118  1  0.803900  0.239600  0.866800  1.0  0.1252
  H  H119  1  0.068900  0.942900  0.954900  1.0  0.1251
  H  H120  1  0.188000  0.902200  0.720600  1.0  0.1274
  H  H121  1  0.282000  0.084100  0.669700  1.0  0.1127
  H  H122  1  0.115100  0.544400  0.496500  1.0  0.1197
  H  H123  1  0.256800  0.195800  0.538400  1.0  0.1255
  H  H124  1  0.718000  0.915900  0.330300  1.0  0.113
  H  H125  1  0.063400  0.415000  0.973300  1.0  0.1137
  H  H126  1  0.262100  0.330500  0.562300  1.0  0.1267
  H  H127  1  0.042800  0.627300  0.472900  1.0  0.1209
  H  H128  1  0.243200  0.195800  0.038400  1.0  0.1261
  C  C129  1  0.204500  0.768600  0.767500  1.0  -0.0351
  C  C130  1  0.167000  0.369400  0.011800  1.0  -0.1492
  C  C131  1  0.785200  0.321700  0.382200  1.0  -0.0713
  C  C132  1  0.426500  0.409100  0.504900  1.0  -0.0213
  C  C133  1  0.446500  0.588900  0.897600  1.0  -0.1047
  C  C134  1  0.678100  0.641600  0.442000  1.0  -0.025
  C  C135  1  0.355000  0.487300  0.926300  1.0  -0.0782
  C  C136  1  0.158100  0.144400  0.947100  1.0  0.7218
  C  C137  1  0.057500  0.117100  0.088200  1.0  -0.0086
  C  C138  1  0.566100  0.300700  0.358200  1.0  -0.1053
  C  C139  1  0.926500  0.590900  0.995100  1.0  -0.0231
  C  C140  1  0.543100  0.744500  0.656500  1.0  0.7117
  C  C141  1  0.933900  0.300700  0.858200  1.0  -0.1081
  C  C142  1  0.355300  0.597800  0.624400  1.0  -0.0879
  C  C143  1  0.442500  0.117100  0.588200  1.0  -0.0137
  C  C144  1  0.160800  0.424500  0.334000  1.0  0.699
  C  C145  1  0.653400  0.842700  0.414300  1.0  -0.1434
  C  C146  1  0.846600  0.842700  0.914300  1.0  -0.1439
  C  C147  1  0.586400  0.466600  0.138200  1.0  0.0177
  C  C148  1  0.127000  0.372000  0.146800  1.0  0.3738
  C  C149  1  0.302400  0.853300  0.751400  1.0  -0.021
  C  C150  1  0.009000  0.429300  0.090900  1.0  -0.0311
  C  C151  1  0.566900  0.215700  0.212400  1.0  0.6857
  C  C152  1  0.875100  0.031100  0.394700  1.0  -0.0354
  C  C153  1  0.697600  0.146700  0.248600  1.0  -0.0233
  C  C154  1  0.855000  0.512700  0.573700  1.0  -0.0779
  C  C155  1  0.406900  0.782400  0.248800  1.0  -0.1573
  C  C156  1  0.518000  0.742900  0.245200  1.0  0.6942
  C  C157  1  0.546600  0.361800  0.362100  1.0  0.0016
  C  C158  1  0.339200  0.424500  0.834000  1.0  0.6979
  C  C159  1  0.664100  0.909100  0.745800  1.0  0.6603
  C  C160  1  0.178100  0.358400  0.058000  1.0  -0.0253
  C  C161  1  0.770700  0.808000  0.867300  1.0  0.6973
  C  C162  1  0.746100  0.665900  0.533300  1.0  0.6916
  C  C163  1  0.491000  0.429300  0.590900  1.0  -0.0314
  C  C164  1  0.933100  0.215700  0.712400  1.0  0.6859
  C  C165  1  0.956900  0.744500  0.156500  1.0  0.7107
  C  C166  1  0.817200  0.833400  0.960400  1.0  0.0211
  C  C167  1  0.667000  0.630600  0.488200  1.0  -0.149
  C  C168  1  0.942500  0.882900  0.911800  1.0  -0.0108
  C  C169  1  0.753900  0.665900  0.033300  1.0  0.6922
  C  C170  1  0.129600  0.484300  0.374200  1.0  -0.147
  C  C171  1  0.495900  0.915800  0.456100  1.0  -0.101
  C  C172  1  0.504600  0.439900  0.544700  1.0  -0.0942
  C  C173  1  0.446900  0.090900  0.869800  1.0  0.6891
  C  C174  1  0.046600  0.638200  0.137900  1.0  0.0011
  C  C175  1  0.221400  0.053100  0.663000  1.0  -0.0274
  C  C176  1  0.456900  0.255500  0.343500  1.0  0.7108
  C  C177  1  0.482000  0.257100  0.754800  1.0  0.6962
  C  C178  1  0.164100  0.090900  0.754200  1.0  0.6602
  C  C179  1  0.735700  0.382500  0.884700  1.0  -0.049
  C  C180  1  0.018000  0.257100  0.254800  1.0  0.6954
  C  C181  1  0.995400  0.439900  0.044700  1.0  -0.0918
  C  C182  1  0.802400  0.146700  0.748600  1.0  -0.0236
  C  C183  1  0.050800  0.002900  0.691100  1.0  -0.0112
  C  C184  1  0.729300  0.808000  0.367300  1.0  0.6964
  C  C185  1  0.007100  0.639900  0.378500  1.0  0.7036
  C  C186  1  0.714800  0.321700  0.882200  1.0  -0.0699
  C  C187  1  0.182800  0.166600  0.039600  1.0  0.0209
  C  C188  1  0.553500  0.411100  0.102400  1.0  -0.1063
  C  C189  1  0.109500  0.541100  0.462200  1.0  -0.0624
  C  C190  1  0.531200  0.908200  0.502000  1.0  -0.0307
  C  C191  1  0.870400  0.515700  0.625800  1.0  -0.1458
  C  C192  1  0.873000  0.628000  0.853200  1.0  0.3755
  C  C193  1  0.839200  0.575500  0.666000  1.0  0.6984
  C  C194  1  0.684400  0.280700  0.368700  1.0  -0.0182
  C  C195  1  0.764300  0.382500  0.384700  1.0  -0.0494
  C  C196  1  0.053100  0.090900  0.369800  1.0  0.6909
  C  C197  1  0.346600  0.157300  0.585700  1.0  -0.1438
  C  C198  1  0.835900  0.909100  0.245800  1.0  0.6607
  C  C199  1  0.246100  0.334100  0.966700  1.0  0.6916
  C  C200  1  0.946500  0.411100  0.602400  1.0  -0.1063
  C  C201  1  0.550800  0.997100  0.808900  1.0  -0.012
  C  C202  1  0.809000  0.131500  0.267200  1.0  -0.0827
  C  C203  1  0.992900  0.360100  0.621500  1.0  0.7056
  C  C204  1  0.658100  0.855600  0.552900  1.0  0.7222
  C  C205  1  0.433100  0.784300  0.787600  1.0  0.6856
  C  C206  1  0.235700  0.617500  0.615300  1.0  -0.0488
  C  C207  1  0.004600  0.560100  0.955300  1.0  -0.0956
  C  C208  1  0.449200  0.002900  0.191100  1.0  -0.0101
  C  C209  1  0.376400  0.133300  0.496200  1.0  -0.1303
  C  C210  1  0.413500  0.835100  0.232300  1.0  -0.0563
  C  C211  1  0.144700  0.597800  0.124400  1.0  -0.0906
  C  C212  1  0.995900  0.084200  0.043900  1.0  -0.104
  C  C213  1  0.043100  0.255500  0.843500  1.0  0.7114
  C  C214  1  0.434800  0.591300  0.947800  1.0  -0.0425
  C  C215  1  0.573500  0.590900  0.495100  1.0  -0.023
  C  C216  1  0.004100  0.915800  0.956100  1.0  -0.1003
  C  C217  1  0.691000  0.131500  0.767200  1.0  -0.0826
  C  C218  1  0.053500  0.588900  0.397600  1.0  -0.1051
  C  C219  1  0.086400  0.533400  0.361800  1.0  0.0169
  C  C220  1  0.624900  0.031100  0.894700  1.0  -0.0355
  C  C221  1  0.645400  0.951100  0.798400  1.0  -0.1206
  C  C222  1  0.609500  0.458900  0.037800  1.0  -0.0674
  C  C223  1  0.073500  0.409100  0.004900  1.0  -0.0214
  C  C224  1  0.855300  0.402200  0.875600  1.0  -0.0908
  C  C225  1  0.682800  0.833400  0.460400  1.0  0.0202
  C  C226  1  0.468800  0.091800  0.498000  1.0  -0.0337
  C  C227  1  0.270700  0.192000  0.632700  1.0  0.698
  C  C228  1  0.264300  0.617500  0.115300  1.0  -0.0493
  C  C229  1  0.288000  0.013900  0.115200  1.0  -0.1223
  C  C230  1  0.295500  0.768600  0.267500  1.0  -0.0344
  C  C231  1  0.190200  0.802700  0.269300  1.0  -0.1265
  C  C232  1  0.145000  0.487300  0.426300  1.0  -0.0772
  C  C233  1  0.398900  0.388500  0.597500  1.0  -0.1232
  C  C234  1  0.278600  0.053100  0.163000  1.0  -0.0295
  C  C235  1  0.509000  0.570700  0.409100  1.0  -0.032
  C  C236  1  0.991000  0.570700  0.909100  1.0  -0.0321
  C  C237  1  0.704500  0.231400  0.732500  1.0  -0.0326
  C  C238  1  0.876400  0.866700  0.003800  1.0  -0.1306
  C  C239  1  0.913500  0.164900  0.267700  1.0  -0.0556
  C  C240  1  0.066900  0.784300  0.287600  1.0  0.6865
  C  C241  1  0.413600  0.533400  0.861800  1.0  0.0168
  C  C242  1  0.123600  0.133300  0.996200  1.0  -0.131
  C  C243  1  0.031200  0.091800  0.998000  1.0  -0.0313
  C  C244  1  0.375100  0.968900  0.105300  1.0  -0.0373
  C  C245  1  0.093100  0.782400  0.748800  1.0  -0.1564
  C  C246  1  0.495400  0.560100  0.455300  1.0  -0.0914
  C  C247  1  0.373000  0.372000  0.646800  1.0  0.3732
  C  C248  1  0.593100  0.217600  0.751200  1.0  -0.1542
  C  C249  1  0.906900  0.217600  0.251200  1.0  -0.1546
  C  C250  1  0.065200  0.591300  0.447800  1.0  -0.0439
  C  C251  1  0.309800  0.802700  0.769300  1.0  -0.1263
  C  C252  1  0.934800  0.408700  0.552200  1.0  -0.0411
  C  C253  1  0.644700  0.402200  0.375600  1.0  -0.0913
  C  C254  1  0.957300  0.037500  0.357600  1.0  -0.126
  C  C255  1  0.101100  0.388500  0.097500  1.0  -0.1231
  C  C256  1  0.586500  0.164900  0.767700  1.0  -0.0543
  C  C257  1  0.557500  0.882900  0.411800  1.0  -0.0098
  C  C258  1  0.333000  0.369400  0.511800  1.0  -0.1502
  C  C259  1  0.949200  0.997100  0.308900  1.0  -0.0097
  C  C260  1  0.354600  0.048900  0.201600  1.0  -0.1213
  C  C261  1  0.229300  0.192000  0.132700  1.0  0.6972
  C  C262  1  0.066100  0.699300  0.141800  1.0  -0.1077
  C  C263  1  0.042700  0.962500  0.642400  1.0  -0.1267
  C  C264  1  0.370400  0.484300  0.874200  1.0  -0.1471
  C  C265  1  0.721400  0.946900  0.837000  1.0  -0.027
  C  C266  1  0.821900  0.641600  0.942000  1.0  -0.0253
  C  C267  1  0.809800  0.197300  0.730700  1.0  -0.1273
  C  C268  1  0.453400  0.638200  0.637900  1.0  0.0002
  C  C269  1  0.184400  0.719300  0.131300  1.0  -0.0193
  C  C270  1  0.253900  0.334100  0.466700  1.0  0.6922
  C  C271  1  0.946900  0.909100  0.630200  1.0  0.6911
  C  C272  1  0.214800  0.678300  0.617800  1.0  -0.0709
  C  C273  1  0.457300  0.962500  0.142400  1.0  -0.1259
  C  C274  1  0.212000  0.013900  0.615200  1.0  -0.1236
  C  C275  1  0.627000  0.628000  0.353200  1.0  0.3736
  C  C276  1  0.335900  0.090900  0.254200  1.0  0.6605
  C  C277  1  0.841900  0.855600  0.052900  1.0  0.7218
  C  C278  1  0.788000  0.986100  0.384800  1.0  -0.1247
  C  C279  1  0.982000  0.742900  0.745200  1.0  0.6957
  C  C280  1  0.309000  0.868500  0.232800  1.0  -0.0828
  C  C281  1  0.542700  0.037500  0.857600  1.0  -0.1261
  C  C282  1  0.390500  0.541100  0.962200  1.0  -0.067
  C  C283  1  0.553100  0.909100  0.130200  1.0  0.6897
  C  C284  1  0.913600  0.466600  0.638200  1.0  0.018
  C  C285  1  0.321900  0.358400  0.558000  1.0  -0.0255
  C  C286  1  0.815600  0.280700  0.868700  1.0  -0.0185
  C  C287  1  0.124900  0.968900  0.605300  1.0  -0.037
  C  C288  1  0.915500  0.300200  0.390900  1.0  0.731
  C  C289  1  0.623600  0.866700  0.503800  1.0  -0.1312
  C  C290  1  0.086500  0.835100  0.732300  1.0  -0.0565
  C  C291  1  0.507100  0.360100  0.121500  1.0  0.7052
  C  C292  1  0.145400  0.048900  0.701600  1.0  -0.1209
  C  C293  1  0.601100  0.611500  0.402500  1.0  -0.1226
  C  C294  1  0.504100  0.084200  0.543900  1.0  -0.1012
  C  C295  1  0.890500  0.458900  0.537800  1.0  -0.0663
  C  C296  1  0.898900  0.611500  0.902500  1.0  -0.1223
  C  C297  1  0.285200  0.678300  0.117800  1.0  -0.0715
  C  C298  1  0.153400  0.157300  0.085700  1.0  -0.1433
  C  C299  1  0.660800  0.575500  0.166000  1.0  0.6997
  C  C300  1  0.854600  0.951100  0.298400  1.0  -0.1209
  C  C301  1  0.341900  0.144400  0.447100  1.0  0.723
  C  C302  1  0.197600  0.853300  0.251400  1.0  -0.0255
  C  C303  1  0.584500  0.300200  0.890900  1.0  0.7292
  C  C304  1  0.565200  0.408700  0.052200  1.0  -0.0401
  C  C305  1  0.415500  0.699800  0.109100  1.0  0.7315
  C  C306  1  0.795500  0.231400  0.232500  1.0  -0.0324
  C  C307  1  0.317200  0.166600  0.539600  1.0  0.0213
  C  C308  1  0.690200  0.197300  0.230700  1.0  -0.1286
  C  C309  1  0.084500  0.699800  0.609100  1.0  0.7299
  C  C310  1  0.968800  0.908200  0.002000  1.0  -0.0323
  C  C311  1  0.833000  0.630600  0.988200  1.0  -0.15
  C  C312  1  0.778600  0.946900  0.337000  1.0  -0.0256
  C  C313  1  0.953400  0.361800  0.862100  1.0  0.0012
  C  C314  1  0.191000  0.868500  0.732800  1.0  -0.084
  C  C315  1  0.629600  0.515700  0.125800  1.0  -0.146
  C  C316  1  0.645000  0.512700  0.073700  1.0  -0.0773
  C  C317  1  0.712000  0.986100  0.884800  1.0  -0.127
  C  C318  1  0.433900  0.699300  0.641800  1.0  -0.1086
  C  C319  1  0.315600  0.719300  0.631300  1.0  -0.0185
  C  C320  1  0.492900  0.639900  0.878500  1.0  0.7038
  O  O321  1  0.692700  0.809600  0.325300  1.0  -0.5475
  O  O322  1  0.110500  0.078800  0.791300  1.0  -0.5861
  O  O323  1  0.134600  0.425400  0.288800  1.0  -0.6035
  O  O324  1  0.960100  0.792600  0.143100  1.0  -0.5706
  O  O325  1  0.192700  0.190400  0.174700  1.0  -0.5469
  O  O326  1  0.231400  0.139400  0.763100  1.0  -0.6164
  O  O327  1  0.506600  0.306800  0.092100  1.0  -0.568
  O  O328  1  0.925400  0.255100  0.689200  1.0  -0.5692
  O  O329  1  0.768600  0.860600  0.236900  1.0  -0.6161
  O  O330  1  0.268600  0.139400  0.263100  1.0  -0.6163
  O  O331  1  0.854600  0.915000  0.658600  1.0  -0.5593
  O  O332  1  0.977400  0.864300  0.592300  1.0  -0.5936
  O  O333  1  0.493600  0.325300  0.877100  1.0  -0.576
  O  O334  1  0.645400  0.915000  0.158600  1.0  -0.5594
  O  O335  1  0.039900  0.207400  0.856900  1.0  -0.5712
  O  O336  1  0.617600  0.751000  0.221600  1.0  -0.6957
  O  O337  1  0.117200  0.112200  0.905800  1.0  -0.5652
  O  O338  1  0.993400  0.306800  0.592100  1.0  -0.5659
  O  O339  1  0.473500  0.372100  0.166100  1.0  -0.5483
  O  O340  1  0.882800  0.887800  0.094200  1.0  -0.5646
  O  O341  1  0.389500  0.078800  0.291300  1.0  -0.5857
  O  O342  1  0.772100  0.810900  0.050600  1.0  -0.6469
  O  O343  1  0.889500  0.921200  0.208700  1.0  -0.589
  O  O344  1  0.180400  0.306600  0.732600  1.0  -0.9881
  O  O345  1  0.660600  0.694000  0.023400  1.0  -0.5859
  O  O346  1  0.526500  0.627900  0.833900  1.0  -0.5482
  O  O347  1  0.731400  0.860600  0.736900  1.0  -0.6163
  O  O348  1  0.839400  0.694000  0.523400  1.0  -0.5855
  O  O349  1  0.967600  0.810500  0.279900  1.0  -0.59
  O  O350  1  0.882400  0.751000  0.721600  1.0  -0.6953
  O  O351  1  0.973500  0.627900  0.333900  1.0  -0.5492
  O  O352  1  0.634600  0.574600  0.211200  1.0  -0.6033
  O  O353  1  0.671300  0.782000  0.876900  1.0  -0.5803
  O  O354  1  0.493400  0.693200  0.907900  1.0  -0.5651
  O  O355  1  0.921800  0.259600  0.413400  1.0  -0.587
  O  O356  1  0.328700  0.216200  0.865600  1.0  -0.8999
  O  O357  1  0.006400  0.325300  0.377100  1.0  -0.5769
  O  O358  1  0.026500  0.372100  0.666100  1.0  -0.5478
  O  O359  1  0.117600  0.249000  0.278400  1.0  -0.6957
  O  O360  1  0.993600  0.674700  0.622900  1.0  -0.5763
  O  O361  1  0.718300  0.618000  0.157100  1.0  -0.5878
  O  O362  1  0.043100  0.406500  0.183200  1.0  -0.6289
  O  O363  1  0.727900  0.810900  0.550600  1.0  -0.647
  O  O364  1  0.456900  0.406500  0.683200  1.0  -0.6287
  O  O365  1  0.506400  0.674700  0.122900  1.0  -0.5768
  O  O366  1  0.986700  0.701700  0.767100  1.0  -0.5803
  O  O367  1  0.460100  0.207400  0.356900  1.0  -0.5703
  O  O368  1  0.680400  0.693400  0.767400  1.0  -0.9876
  O  O369  1  0.539900  0.792600  0.643100  1.0  -0.5713
  O  O370  1  0.074600  0.744900  0.310800  1.0  -0.57
  O  O371  1  0.285800  0.336700  0.424400  1.0  -0.5558
  O  O372  1  0.956900  0.593500  0.816800  1.0  -0.6303
  O  O373  1  0.828700  0.782000  0.376900  1.0  -0.5811
  O  O374  1  0.467600  0.189500  0.220100  1.0  -0.5909
  O  O375  1  0.214200  0.336700  0.924400  1.0  -0.5542
  O  O376  1  0.339400  0.306000  0.976600  1.0  -0.5854
  O  O377  1  0.574600  0.255100  0.189200  1.0  -0.569
  O  O378  1  0.272100  0.189100  0.449400  1.0  -0.6469
  O  O379  1  0.486700  0.298300  0.732900  1.0  -0.5803
  O  O380  1  0.828700  0.783800  0.634400  1.0  -0.9011
  O  O381  1  0.171300  0.218000  0.623100  1.0  -0.5799
  O  O382  1  0.133500  0.270200  0.818800  1.0  -0.6579
  O  O383  1  0.354600  0.085000  0.841400  1.0  -0.5614
  O  O384  1  0.425400  0.744900  0.810800  1.0  -0.5705
  O  O385  1  0.227900  0.189100  0.949400  1.0  -0.6472
  O  O386  1  0.522600  0.864300  0.092300  1.0  -0.5937
  O  O387  1  0.421800  0.740400  0.086600  1.0  -0.587
  O  O388  1  0.785800  0.663300  0.075600  1.0  -0.5538
  O  O389  1  0.610500  0.921200  0.708700  1.0  -0.5887
  O  O390  1  0.319600  0.306600  0.232600  1.0  -0.9876
  O  O391  1  0.633500  0.729800  0.681200  1.0  -0.6578
  O  O392  1  0.365400  0.425400  0.788800  1.0  -0.6047
  O  O393  1  0.477400  0.135700  0.907700  1.0  -0.5904
  O  O394  1  0.807300  0.809600  0.825300  1.0  -0.5476
  O  O395  1  0.078200  0.740400  0.586600  1.0  -0.5857
  O  O396  1  0.307300  0.190400  0.674700  1.0  -0.5464
  O  O397  1  0.366500  0.270200  0.318800  1.0  -0.6585
  O  O398  1  0.281700  0.382000  0.842900  1.0  -0.5879
  O  O399  1  0.006600  0.693200  0.407900  1.0  -0.5628
  O  O400  1  0.532400  0.810500  0.779900  1.0  -0.5907
  O  O401  1  0.543100  0.593500  0.316800  1.0  -0.6308
  O  O402  1  0.513300  0.701700  0.267100  1.0  -0.5801
  O  O403  1  0.328700  0.218000  0.123100  1.0  -0.5799
  O  O404  1  0.809900  0.659900  0.844900  1.0  -0.5866
  O  O405  1  0.866500  0.729800  0.181200  1.0  -0.6582
  O  O406  1  0.145400  0.085000  0.341400  1.0  -0.5609
  O  O407  1  0.781700  0.618000  0.657100  1.0  -0.588
  O  O408  1  0.218300  0.382000  0.342900  1.0  -0.5878
  O  O409  1  0.160600  0.306000  0.476600  1.0  -0.5859
  O  O410  1  0.690100  0.659900  0.344900  1.0  -0.5865
  O  O411  1  0.819600  0.693400  0.267400  1.0  -0.987
  O  O412  1  0.714200  0.663300  0.575600  1.0  -0.5531
  O  O413  1  0.671300  0.783800  0.134400  1.0  -0.9015
  O  O414  1  0.578200  0.259600  0.913400  1.0  -0.5868
  O  O415  1  0.309900  0.340100  0.655100  1.0  -0.586
  O  O416  1  0.382400  0.249000  0.778400  1.0  -0.695
  O  O417  1  0.022600  0.135700  0.407700  1.0  -0.5916
  O  O418  1  0.171300  0.216200  0.365600  1.0  -0.9001
  O  O419  1  0.032400  0.189500  0.720100  1.0  -0.5916
  O  O420  1  0.190100  0.340100  0.155100  1.0  -0.587
  O  O421  1  0.865400  0.574600  0.711200  1.0  -0.6023
  O  O422  1  0.617200  0.887800  0.594200  1.0  -0.5648
  O  O423  1  0.382800  0.112200  0.405800  1.0  -0.5655
  O  O424  1  0.013300  0.298300  0.232900  1.0  -0.5794
