# generated using pymatgen
data_CuH12(C2N3)6
_symmetry_space_group_name_H-M   'P 1'
_cell_length_a   10.97090000
_cell_length_b   10.97090000
_cell_length_c   35.31400000
_cell_angle_alpha   90.00000000
_cell_angle_beta   90.00000000
_cell_angle_gamma   120.00000000
_symmetry_Int_Tables_number   1
_chemical_formula_structural   CuH12(C2N3)6
_chemical_formula_sum   'Cu6 H72 C72 N108'
_cell_volume   3680.96812998
_cell_formula_units_Z   6
loop_
 _symmetry_equiv_pos_site_id
 _symmetry_equiv_pos_as_xyz
  1  'x, y, z'
loop_
 _atom_site_type_symbol
 _atom_site_label
 _atom_site_symmetry_multiplicity
 _atom_site_fract_x
 _atom_site_fract_y
 _atom_site_fract_z
 _atom_site_occupancy
 _atom_site_charge
  Cu  Cu1  1  0.000000  0.000000  0.000000  1.0  0.4096
  Cu  Cu2  1  0.666667  0.333333  0.333333  1.0  0.4132
  Cu  Cu3  1  0.333333  0.666667  0.666667  1.0  0.412
  Cu  Cu4  1  0.000000  0.000000  0.500000  1.0  0.4096
  Cu  Cu5  1  0.666667  0.333333  0.833330  1.0  0.4128
  Cu  Cu6  1  0.333333  0.666667  0.166670  1.0  0.4125
  H  H7  1  0.090700  0.783100  0.029700  1.0  0.0743
  H  H8  1  0.783300  0.646100  0.103300  1.0  0.0643
  H  H9  1  0.757370  0.116430  0.363030  1.0  0.0741
  H  H10  1  0.449970  0.979430  0.436630  1.0  0.0643
  H  H11  1  0.424030  0.449770  0.696370  1.0  0.072
  H  H12  1  0.116630  0.312770  0.769970  1.0  0.0612
  H  H13  1  0.216900  0.307600  0.029700  1.0  0.0774
  H  H14  1  0.353900  0.137200  0.103300  1.0  0.0644
  H  H15  1  0.883570  0.640930  0.363030  1.0  0.0746
  H  H16  1  0.020570  0.470530  0.436630  1.0  0.0644
  H  H17  1  0.550230  0.974270  0.696370  1.0  0.077
  H  H18  1  0.687230  0.803870  0.769970  1.0  0.0602
  H  H19  1  0.692400  0.909300  0.029700  1.0  0.0749
  H  H20  1  0.862800  0.216700  0.103300  1.0  0.0611
  H  H21  1  0.359070  0.242630  0.363030  1.0  0.073
  H  H22  1  0.529470  0.550030  0.436630  1.0  0.0611
  H  H23  1  0.025730  0.575970  0.696370  1.0  0.0748
  H  H24  1  0.196130  0.883370  0.769970  1.0  0.0649
  H  H25  1  0.783100  0.090700  0.470300  1.0  0.0729
  H  H26  1  0.646100  0.783300  0.396700  1.0  0.0632
  H  H27  1  0.449770  0.424030  0.803630  1.0  0.0709
  H  H28  1  0.312770  0.116630  0.730030  1.0  0.0601
  H  H29  1  0.116430  0.757370  0.136970  1.0  0.0732
  H  H30  1  0.979430  0.449970  0.063370  1.0  0.0632
  H  H31  1  0.307600  0.216900  0.470300  1.0  0.0741
  H  H32  1  0.137200  0.353900  0.396700  1.0  0.0646
  H  H33  1  0.974270  0.550230  0.803630  1.0  0.0736
  H  H34  1  0.803870  0.687230  0.730030  1.0  0.061
  H  H35  1  0.640930  0.883570  0.136970  1.0  0.0708
  H  H36  1  0.470530  0.020570  0.063370  1.0  0.0646
  H  H37  1  0.909300  0.692400  0.470300  1.0  0.0746
  H  H38  1  0.216700  0.862800  0.396700  1.0  0.06
  H  H39  1  0.575970  0.025730  0.803630  1.0  0.0745
  H  H40  1  0.883370  0.196130  0.730030  1.0  0.0646
  H  H41  1  0.242630  0.359070  0.136970  1.0  0.0725
  H  H42  1  0.550030  0.529470  0.063370  1.0  0.06
  H  H43  1  0.909300  0.216900  0.970300  1.0  0.0739
  H  H44  1  0.216700  0.353900  0.896700  1.0  0.0643
  H  H45  1  0.575970  0.550230  0.303630  1.0  0.0721
  H  H46  1  0.883370  0.687230  0.230030  1.0  0.0606
  H  H47  1  0.242630  0.883570  0.636970  1.0  0.0739
  H  H48  1  0.550030  0.020570  0.563370  1.0  0.0643
  H  H49  1  0.783100  0.692400  0.970300  1.0  0.0772
  H  H50  1  0.646100  0.862800  0.896700  1.0  0.0641
  H  H51  1  0.449770  0.025730  0.303630  1.0  0.0768
  H  H52  1  0.312770  0.196130  0.230030  1.0  0.0603
  H  H53  1  0.116430  0.359070  0.636970  1.0  0.0742
  H  H54  1  0.979430  0.529470  0.563370  1.0  0.0641
  H  H55  1  0.307600  0.090700  0.970300  1.0  0.0732
  H  H56  1  0.137200  0.783300  0.896700  1.0  0.0601
  H  H57  1  0.974270  0.424030  0.303630  1.0  0.0731
  H  H58  1  0.803870  0.116630  0.230030  1.0  0.0644
  H  H59  1  0.640930  0.757370  0.636970  1.0  0.0712
  H  H60  1  0.470530  0.449970  0.563370  1.0  0.0601
  H  H61  1  0.216900  0.909300  0.529700  1.0  0.0723
  H  H62  1  0.353900  0.216700  0.603300  1.0  0.0641
  H  H63  1  0.883570  0.242630  0.863030  1.0  0.0723
  H  H64  1  0.020570  0.550030  0.936630  1.0  0.0641
  H  H65  1  0.550230  0.575970  0.196370  1.0  0.0698
  H  H66  1  0.687230  0.883370  0.269970  1.0  0.0609
  H  H67  1  0.692400  0.783100  0.529700  1.0  0.0736
  H  H68  1  0.862800  0.646100  0.603300  1.0  0.0647
  H  H69  1  0.359070  0.116430  0.863030  1.0  0.0705
  H  H70  1  0.529470  0.979430  0.936630  1.0  0.0647
  H  H71  1  0.025730  0.449770  0.196370  1.0  0.073
  H  H72  1  0.196130  0.312770  0.269970  1.0  0.0607
  H  H73  1  0.090700  0.307600  0.529700  1.0  0.0745
  H  H74  1  0.783300  0.137200  0.603300  1.0  0.0609
  H  H75  1  0.757370  0.640930  0.863030  1.0  0.0726
  H  H76  1  0.449970  0.470530  0.936630  1.0  0.0609
  H  H77  1  0.424030  0.974270  0.196370  1.0  0.0743
  H  H78  1  0.116630  0.803870  0.269970  1.0  0.0648
  C  C79  1  0.010100  0.767000  0.042640  1.0  0.0899
  C  C80  1  0.841300  0.692100  0.082770  1.0  0.1358
  C  C81  1  0.676770  0.100330  0.375970  1.0  0.0899
  C  C82  1  0.507970  0.025430  0.416100  1.0  0.1358
  C  C83  1  0.343430  0.433670  0.709310  1.0  0.0899
  C  C84  1  0.174630  0.358770  0.749440  1.0  0.1372
  C  C85  1  0.233000  0.243100  0.042640  1.0  0.0904
  C  C86  1  0.307900  0.149200  0.082770  1.0  0.1383
  C  C87  1  0.899670  0.576430  0.375970  1.0  0.0904
  C  C88  1  0.974570  0.482530  0.416100  1.0  0.1383
  C  C89  1  0.566330  0.909770  0.709310  1.0  0.0905
  C  C90  1  0.641230  0.815870  0.749440  1.0  0.1428
  C  C91  1  0.756900  0.989900  0.042640  1.0  0.0901
  C  C92  1  0.850800  0.158700  0.082770  1.0  0.1425
  C  C93  1  0.423570  0.323230  0.375970  1.0  0.0901
  C  C94  1  0.517470  0.492030  0.416100  1.0  0.1425
  C  C95  1  0.090230  0.656570  0.709310  1.0  0.09
  C  C96  1  0.184130  0.825370  0.749440  1.0  0.1352
  C  C97  1  0.767000  0.010100  0.457360  1.0  0.0901
  C  C98  1  0.692100  0.841300  0.417230  1.0  0.1314
  C  C99  1  0.433670  0.343430  0.790690  1.0  0.0902
  C  C100  1  0.358770  0.174630  0.750560  1.0  0.1323
  C  C101  1  0.100330  0.676770  0.124030  1.0  0.0901
  C  C102  1  0.025430  0.507970  0.083900  1.0  0.1314
  C  C103  1  0.243100  0.233000  0.457360  1.0  0.0905
  C  C104  1  0.149200  0.307900  0.417230  1.0  0.1321
  C  C105  1  0.909770  0.566330  0.790690  1.0  0.0905
  C  C106  1  0.815870  0.641230  0.750560  1.0  0.1372
  C  C107  1  0.576430  0.899670  0.124030  1.0  0.0905
  C  C108  1  0.482530  0.974570  0.083900  1.0  0.1321
  C  C109  1  0.989900  0.756900  0.457360  1.0  0.0904
  C  C110  1  0.158700  0.850800  0.417230  1.0  0.1388
  C  C111  1  0.656570  0.090230  0.790690  1.0  0.0903
  C  C112  1  0.825370  0.184130  0.750560  1.0  0.1326
  C  C113  1  0.323230  0.423570  0.124030  1.0  0.0904
  C  C114  1  0.492030  0.517470  0.083900  1.0  0.1388
  C  C115  1  0.989900  0.233000  0.957360  1.0  0.0908
  C  C116  1  0.158700  0.307900  0.917230  1.0  0.1364
  C  C117  1  0.656570  0.566330  0.290690  1.0  0.0909
  C  C118  1  0.825370  0.641230  0.250560  1.0  0.1381
  C  C119  1  0.323230  0.899670  0.624030  1.0  0.0908
  C  C120  1  0.492030  0.974570  0.583900  1.0  0.1364
  C  C121  1  0.767000  0.756900  0.957360  1.0  0.091
  C  C122  1  0.692100  0.850800  0.917230  1.0  0.1372
  C  C123  1  0.433670  0.090230  0.290690  1.0  0.091
  C  C124  1  0.358770  0.184130  0.250560  1.0  0.1421
  C  C125  1  0.100330  0.423570  0.624030  1.0  0.091
  C  C126  1  0.025430  0.517470  0.583900  1.0  0.1372
  C  C127  1  0.243100  0.010100  0.957360  1.0  0.0901
  C  C128  1  0.149200  0.841300  0.917230  1.0  0.1423
  C  C129  1  0.909770  0.343430  0.290690  1.0  0.0901
  C  C130  1  0.815870  0.174630  0.250560  1.0  0.1357
  C  C131  1  0.576430  0.676770  0.624030  1.0  0.0902
  C  C132  1  0.482530  0.507970  0.583900  1.0  0.1423
  C  C133  1  0.233000  0.989900  0.542640  1.0  0.0901
  C  C134  1  0.307900  0.158700  0.582770  1.0  0.1307
  C  C135  1  0.899670  0.323230  0.875970  1.0  0.0901
  C  C136  1  0.974570  0.492030  0.916100  1.0  0.1307
  C  C137  1  0.566330  0.656570  0.209310  1.0  0.0901
  C  C138  1  0.641230  0.825370  0.249440  1.0  0.1318
  C  C139  1  0.756900  0.767000  0.542640  1.0  0.0904
  C  C140  1  0.850800  0.692100  0.582770  1.0  0.1342
  C  C141  1  0.423570  0.100330  0.875970  1.0  0.0904
  C  C142  1  0.517470  0.025430  0.916100  1.0  0.1342
  C  C143  1  0.090230  0.433670  0.209310  1.0  0.0904
  C  C144  1  0.184130  0.358770  0.249440  1.0  0.1396
  C  C145  1  0.010100  0.243100  0.542640  1.0  0.0913
  C  C146  1  0.841300  0.149200  0.582770  1.0  0.138
  C  C147  1  0.676770  0.576430  0.875970  1.0  0.0914
  C  C148  1  0.507970  0.482530  0.916100  1.0  0.138
  C  C149  1  0.343430  0.909770  0.209310  1.0  0.0913
  C  C150  1  0.174630  0.815870  0.249440  1.0  0.1317
  N  N151  1  0.956200  0.685200  0.073540  1.0  0.0576
  N  N152  1  0.931700  0.819300  0.033900  1.0  -0.21
  N  N153  1  0.822100  0.770800  0.059400  1.0  -0.2806
  N  N154  1  0.622870  0.018530  0.406870  1.0  0.0576
  N  N155  1  0.598370  0.152630  0.367230  1.0  -0.21
  N  N156  1  0.488770  0.104130  0.392730  1.0  -0.2806
  N  N157  1  0.289530  0.351870  0.740210  1.0  0.0576
  N  N158  1  0.265030  0.485970  0.700570  1.0  -0.21
  N  N159  1  0.155430  0.437470  0.726070  1.0  -0.2806
  N  N160  1  0.314800  0.271000  0.073540  1.0  0.0571
  N  N161  1  0.180700  0.112400  0.033900  1.0  -0.2082
  N  N162  1  0.229200  0.051300  0.059400  1.0  -0.2793
  N  N163  1  0.981470  0.604330  0.406870  1.0  0.0571
  N  N164  1  0.847370  0.445730  0.367230  1.0  -0.2082
  N  N165  1  0.895870  0.384630  0.392730  1.0  -0.2793
  N  N166  1  0.648130  0.937670  0.740210  1.0  0.057
  N  N167  1  0.514030  0.779070  0.700570  1.0  -0.2082
  N  N168  1  0.562530  0.717970  0.726070  1.0  -0.2793
  N  N169  1  0.729000  0.043800  0.073540  1.0  0.0592
  N  N170  1  0.887600  0.068300  0.033900  1.0  -0.2092
  N  N171  1  0.948700  0.177900  0.059400  1.0  -0.2808
  N  N172  1  0.395670  0.377130  0.406870  1.0  0.0592
  N  N173  1  0.554270  0.401630  0.367230  1.0  -0.2092
  N  N174  1  0.615370  0.511230  0.392730  1.0  -0.2808
  N  N175  1  0.062330  0.710470  0.740210  1.0  0.0591
  N  N176  1  0.220930  0.734970  0.700570  1.0  -0.2092
  N  N177  1  0.282030  0.844570  0.726070  1.0  -0.2808
  N  N178  1  0.685200  0.956200  0.426460  1.0  0.0594
  N  N179  1  0.819300  0.931700  0.466100  1.0  -0.2087
  N  N180  1  0.770800  0.822100  0.440600  1.0  -0.2806
  N  N181  1  0.351870  0.289530  0.759790  1.0  0.0593
  N  N182  1  0.485970  0.265030  0.799430  1.0  -0.2087
  N  N183  1  0.437470  0.155430  0.773930  1.0  -0.2806
  N  N184  1  0.018530  0.622870  0.093130  1.0  0.0594
  N  N185  1  0.152630  0.598370  0.132770  1.0  -0.2087
  N  N186  1  0.104130  0.488770  0.107270  1.0  -0.2806
  N  N187  1  0.271000  0.314800  0.426460  1.0  0.0584
  N  N188  1  0.112400  0.180700  0.466100  1.0  -0.2111
  N  N189  1  0.051300  0.229200  0.440600  1.0  -0.2804
  N  N190  1  0.937670  0.648130  0.759790  1.0  0.0583
  N  N191  1  0.779070  0.514030  0.799430  1.0  -0.2111
  N  N192  1  0.717970  0.562530  0.773930  1.0  -0.2804
  N  N193  1  0.604330  0.981470  0.093130  1.0  0.0584
  N  N194  1  0.445730  0.847370  0.132770  1.0  -0.2111
  N  N195  1  0.384630  0.895870  0.107270  1.0  -0.2804
  N  N196  1  0.043800  0.729000  0.426460  1.0  0.0583
  N  N197  1  0.068300  0.887600  0.466100  1.0  -0.2089
  N  N198  1  0.177900  0.948700  0.440600  1.0  -0.2805
  N  N199  1  0.710470  0.062330  0.759790  1.0  0.0582
  N  N200  1  0.734970  0.220930  0.799430  1.0  -0.2088
  N  N201  1  0.844570  0.282030  0.773930  1.0  -0.2804
  N  N202  1  0.377130  0.395670  0.093130  1.0  0.0583
  N  N203  1  0.401630  0.554270  0.132770  1.0  -0.2089
  N  N204  1  0.511230  0.615370  0.107270  1.0  -0.2805
  N  N205  1  0.043800  0.314800  0.926460  1.0  0.059
  N  N206  1  0.068300  0.180700  0.966100  1.0  -0.21
  N  N207  1  0.177900  0.229200  0.940600  1.0  -0.2817
  N  N208  1  0.710470  0.648130  0.259790  1.0  0.0589
  N  N209  1  0.734970  0.514030  0.299430  1.0  -0.21
  N  N210  1  0.844570  0.562530  0.273930  1.0  -0.2817
  N  N211  1  0.377130  0.981470  0.593130  1.0  0.059
  N  N212  1  0.401630  0.847370  0.632770  1.0  -0.21
  N  N213  1  0.511230  0.895870  0.607270  1.0  -0.2817
  N  N214  1  0.685200  0.729000  0.926460  1.0  0.0583
  N  N215  1  0.819300  0.887600  0.966100  1.0  -0.2097
  N  N216  1  0.770800  0.948700  0.940600  1.0  -0.2808
  N  N217  1  0.351870  0.062330  0.259790  1.0  0.0583
  N  N218  1  0.485970  0.220930  0.299430  1.0  -0.2097
  N  N219  1  0.437470  0.282030  0.273930  1.0  -0.2808
  N  N220  1  0.018530  0.395670  0.593130  1.0  0.0583
  N  N221  1  0.152630  0.554270  0.632770  1.0  -0.2097
  N  N222  1  0.104130  0.615370  0.607270  1.0  -0.2808
  N  N223  1  0.271000  0.956200  0.926460  1.0  0.059
  N  N224  1  0.112400  0.931700  0.966100  1.0  -0.2095
  N  N225  1  0.051300  0.822100  0.940600  1.0  -0.2819
  N  N226  1  0.937670  0.289530  0.259790  1.0  0.059
  N  N227  1  0.779070  0.265030  0.299430  1.0  -0.2095
  N  N228  1  0.717970  0.155430  0.273930  1.0  -0.2818
  N  N229  1  0.604330  0.622870  0.593130  1.0  0.059
  N  N230  1  0.445730  0.598370  0.632770  1.0  -0.2095
  N  N231  1  0.384630  0.488770  0.607270  1.0  -0.2819
  N  N232  1  0.314800  0.043800  0.573540  1.0  0.0582
  N  N233  1  0.180700  0.068300  0.533900  1.0  -0.209
  N  N234  1  0.229200  0.177900  0.559400  1.0  -0.2806
  N  N235  1  0.981470  0.377130  0.906870  1.0  0.0582
  N  N236  1  0.847370  0.401630  0.867230  1.0  -0.209
  N  N237  1  0.895870  0.511230  0.892730  1.0  -0.2806
  N  N238  1  0.648130  0.710470  0.240210  1.0  0.0581
  N  N239  1  0.514030  0.734970  0.200570  1.0  -0.209
  N  N240  1  0.562530  0.844570  0.226070  1.0  -0.2806
  N  N241  1  0.729000  0.685200  0.573540  1.0  0.0583
  N  N242  1  0.887600  0.819300  0.533900  1.0  -0.2091
  N  N243  1  0.948700  0.770800  0.559400  1.0  -0.2817
  N  N244  1  0.395670  0.018530  0.906870  1.0  0.0583
  N  N245  1  0.554270  0.152630  0.867230  1.0  -0.2091
  N  N246  1  0.615370  0.104130  0.892730  1.0  -0.2817
  N  N247  1  0.062330  0.351870  0.240210  1.0  0.0583
  N  N248  1  0.220930  0.485970  0.200570  1.0  -0.2091
  N  N249  1  0.282030  0.437470  0.226070  1.0  -0.2817
  N  N250  1  0.956200  0.271000  0.573540  1.0  0.0575
  N  N251  1  0.931700  0.112400  0.533900  1.0  -0.2087
  N  N252  1  0.822100  0.051300  0.559400  1.0  -0.2792
  N  N253  1  0.622870  0.604330  0.906870  1.0  0.0575
  N  N254  1  0.598370  0.445730  0.867230  1.0  -0.2087
  N  N255  1  0.488770  0.384630  0.892730  1.0  -0.2792
  N  N256  1  0.289530  0.937670  0.240210  1.0  0.0575
  N  N257  1  0.265030  0.779070  0.200570  1.0  -0.2087
  N  N258  1  0.155430  0.717970  0.226070  1.0  -0.2792
