# generated using pymatgen
data_CoH36(C11N2)4
_symmetry_space_group_name_H-M   'P 1'
_cell_length_a   13.51790000
_cell_length_b   14.61140000
_cell_length_c   16.61260000
_cell_angle_alpha   79.15220000
_cell_angle_beta   65.99240000
_cell_angle_gamma   62.44670000
_symmetry_Int_Tables_number   1
_chemical_formula_structural   CoH36(C11N2)4
_chemical_formula_sum   'Co2 H72 C88 N16'
_cell_volume   2657.42826340
_cell_formula_units_Z   2
loop_
 _symmetry_equiv_pos_site_id
 _symmetry_equiv_pos_as_xyz
  1  'x, y, z'
loop_
 _atom_site_type_symbol
 _atom_site_label
 _atom_site_symmetry_multiplicity
 _atom_site_fract_x
 _atom_site_fract_y
 _atom_site_fract_z
 _atom_site_occupancy
 _atom_site_charge
  Co  Co1  1  0.875000  0.750000  0.750000  1.0  0.6494
  Co  Co2  1  0.125000  0.250000  0.250000  1.0  0.6493
  H  H3  1  0.829800  0.275200  0.071000  1.0  0.0735
  H  H4  1  0.016800  0.140400  0.916600  1.0  0.0895
  H  H5  1  0.460200  0.400600  0.367400  1.0  0.0583
  H  H6  1  0.327600  0.900600  0.632600  1.0  0.0618
  H  H7  1  0.447000  0.130400  0.670800  1.0  0.093
  H  H8  1  0.128700  0.468400  0.165200  1.0  0.065
  H  H9  1  0.158200  0.010000  0.741800  1.0  0.1018
  H  H10  1  0.849800  0.245600  0.387800  1.0  0.1049
  H  H11  1  0.600000  0.490000  0.741800  1.0  0.1021
  H  H12  1  0.206100  0.031600  0.165200  1.0  0.0658
  H  H13  1  0.657200  0.859600  0.416600  1.0  0.0894
  H  H14  1  0.871300  0.531600  0.834800  1.0  0.0646
  H  H15  1  0.672400  0.099400  0.367400  1.0  0.061
  H  H16  1  0.605000  0.724800  0.571000  1.0  0.0734
  H  H17  1  0.380500  0.418800  0.024800  1.0  0.083
  H  H18  1  0.170200  0.724800  0.929000  1.0  0.0716
  H  H19  1  0.566600  0.359600  0.916600  1.0  0.0896
  H  H20  1  0.539800  0.599400  0.632600  1.0  0.0591
  H  H21  1  0.700700  0.418800  0.475200  1.0  0.0836
  H  H22  1  0.262300  0.031600  0.334800  1.0  0.0657
  H  H23  1  0.983200  0.859600  0.083400  1.0  0.0899
  H  H24  1  0.639200  0.400600  0.132600  1.0  0.0597
  H  H25  1  0.675900  0.918800  0.524800  1.0  0.0833
  H  H26  1  0.599200  0.224800  0.071000  1.0  0.0735
  H  H27  1  0.331800  0.010000  0.758200  1.0  0.1017
  H  H28  1  0.902900  0.468400  0.334800  1.0  0.0648
  H  H29  1  0.187400  0.893000  0.110600  1.0  0.0938
  H  H30  1  0.553000  0.869600  0.329200  1.0  0.0928
  H  H31  1  0.262400  0.254400  0.387800  1.0  0.1035
  H  H32  1  0.419600  0.893000  0.389400  1.0  0.0944
  H  H33  1  0.433400  0.640400  0.083400  1.0  0.0892
  H  H34  1  0.400000  0.510000  0.258200  1.0  0.1026
  H  H35  1  0.798000  0.393000  0.889400  1.0  0.0932
  H  H36  1  0.299300  0.581200  0.524800  1.0  0.0826
  H  H37  1  0.676000  0.224800  0.429000  1.0  0.0696
  H  H38  1  0.324100  0.081200  0.475200  1.0  0.0821
  H  H39  1  0.077400  0.869600  0.170800  1.0  0.093
  H  H40  1  0.395000  0.275200  0.429000  1.0  0.0718
  H  H41  1  0.841800  0.990000  0.258200  1.0  0.102
  H  H42  1  0.410000  0.490000  0.758200  1.0  0.1029
  H  H43  1  0.668200  0.990000  0.241800  1.0  0.1019
  H  H44  1  0.404600  0.245600  0.112200  1.0  0.1049
  H  H45  1  0.619500  0.581200  0.975200  1.0  0.0838
  H  H46  1  0.342800  0.140400  0.583400  1.0  0.0898
  H  H47  1  0.580400  0.107000  0.610600  1.0  0.0925
  H  H48  1  0.202000  0.607000  0.110600  1.0  0.0934
  H  H49  1  0.016800  0.745600  0.887800  1.0  0.1036
  H  H50  1  0.573800  0.359600  0.583400  1.0  0.0898
  H  H51  1  0.271800  0.900600  0.867400  1.0  0.0615
  H  H52  1  0.590000  0.510000  0.241800  1.0  0.1022
  H  H53  1  0.737700  0.968400  0.665200  1.0  0.0662
  H  H54  1  0.595400  0.754400  0.887800  1.0  0.105
  H  H55  1  0.922600  0.130400  0.829200  1.0  0.0926
  H  H56  1  0.812600  0.107000  0.889400  1.0  0.0931
  H  H57  1  0.097100  0.531600  0.665200  1.0  0.0648
  H  H58  1  0.150200  0.754400  0.612200  1.0  0.1052
  H  H59  1  0.748200  0.369600  0.829200  1.0  0.0924
  H  H60  1  0.691000  0.607000  0.389400  1.0  0.0915
  H  H61  1  0.426200  0.640400  0.416600  1.0  0.0899
  H  H62  1  0.905300  0.918800  0.975200  1.0  0.0823
  H  H63  1  0.309000  0.393000  0.610600  1.0  0.0939
  H  H64  1  0.382200  0.369600  0.670800  1.0  0.0937
  H  H65  1  0.360800  0.599400  0.867400  1.0  0.0583
  H  H66  1  0.324000  0.775200  0.571000  1.0  0.0713
  H  H67  1  0.617800  0.630400  0.329200  1.0  0.0925
  H  H68  1  0.251800  0.630400  0.170800  1.0  0.0927
  H  H69  1  0.737600  0.745600  0.612200  1.0  0.1036
  H  H70  1  0.400800  0.775200  0.929000  1.0  0.0714
  H  H71  1  0.728200  0.099400  0.132600  1.0  0.0617
  H  H72  1  0.793900  0.968400  0.834800  1.0  0.0657
  H  H73  1  0.094700  0.081200  0.024800  1.0  0.0832
  H  H74  1  0.983200  0.254400  0.112200  1.0  0.104
  C  C75  1  0.946850  0.054420  0.259800  1.0  0.048
  C  C76  1  0.301790  0.606160  0.848460  1.0  -0.1006
  C  C77  1  0.826390  0.551660  0.799240  1.0  0.1554
  C  C78  1  0.592050  0.606160  0.651540  1.0  -0.0961
  C  C79  1  0.047220  0.964180  0.066580  1.0  0.0617
  C  C80  1  0.372600  0.459680  0.283880  1.0  -0.1646
  C  C81  1  0.661840  0.576600  0.362160  1.0  -0.108
  C  C82  1  0.848730  0.195080  0.361860  1.0  -0.1477
  C  C83  1  0.950560  0.130140  0.297380  1.0  0.1226
  C  C84  1  0.386200  0.535820  0.066580  1.0  0.0603
  C  C85  1  0.252060  0.369860  0.297380  1.0  0.1193
  C  C86  1  0.125630  0.051660  0.200760  1.0  0.154
  C  C87  1  0.498730  0.054420  0.240200  1.0  0.048
  C  C88  1  0.173610  0.448340  0.200760  1.0  0.152
  C  C89  1  0.422020  0.464180  0.566580  1.0  0.0605
  C  C90  1  0.761070  0.445580  0.240200  1.0  0.0462
  C  C91  1  0.706650  0.554420  0.740200  1.0  0.0467
  C  C92  1  0.543810  0.804920  0.861860  1.0  -0.1482
  C  C93  1  0.151270  0.804920  0.638140  1.0  -0.1471
  C  C94  1  0.476000  0.923400  0.362160  1.0  -0.1077
  C  C95  1  0.488600  0.964180  0.433420  1.0  0.0619
  C  C96  1  0.383840  0.959680  0.783880  1.0  -0.1642
  C  C97  1  0.899400  0.076600  0.862160  1.0  -0.1061
  C  C98  1  0.743590  0.106160  0.348460  1.0  -0.1004
  C  C99  1  0.616160  0.040320  0.216120  1.0  -0.165
  C  C100  1  0.619220  0.451920  0.485020  1.0  -0.1284
  C  C101  1  0.293350  0.445580  0.259800  1.0  0.0455
  C  C102  1  0.631940  0.681860  0.613860  1.0  -0.1051
  C  C103  1  0.543270  0.416600  0.549940  1.0  -0.1692
  C  C104  1  0.427660  0.818140  0.886140  1.0  -0.1064
  C  C105  1  0.990190  0.916600  0.049940  1.0  -0.1722
  C  C106  1  0.338160  0.423400  0.637840  1.0  -0.1053
  C  C107  1  0.745800  0.181860  0.386140  1.0  -0.1056
  C  C108  1  0.156480  0.959680  0.716120  1.0  -0.1651
  C  C109  1  0.878080  0.369860  0.202620  1.0  0.1183
  C  C110  1  0.395760  0.048080  0.485020  1.0  -0.128
  C  C111  1  0.428860  0.451920  0.014980  1.0  -0.1346
  C  C112  1  0.349750  0.893840  0.848460  1.0  -0.1038
  C  C113  1  0.256410  0.893840  0.651540  1.0  -0.099
  C  C114  1  0.878050  0.448340  0.299240  1.0  0.155
  C  C115  1  0.511400  0.035820  0.566580  1.0  0.0617
  C  C116  1  0.094330  0.695080  0.861860  1.0  -0.1486
  C  C117  1  0.571140  0.548080  0.985020  1.0  -0.1294
  C  C118  1  0.254200  0.818140  0.613860  1.0  -0.1067
  C  C119  1  0.572340  0.181860  0.113860  1.0  -0.1067
  C  C120  1  0.580700  0.869860  0.797380  1.0  0.1227
  C  C121  1  0.677290  0.948340  0.700760  1.0  0.1539
  C  C122  1  0.407950  0.393840  0.348460  1.0  -0.0966
  C  C123  1  0.593210  0.916600  0.450060  1.0  -0.1732
  C  C124  1  0.459870  0.583400  0.049940  1.0  -0.1699
  C  C125  1  0.710590  0.695080  0.638140  1.0  -0.1469
  C  C126  1  0.747940  0.630140  0.702620  1.0  0.1185
  C  C127  1  0.380780  0.548080  0.514980  1.0  -0.1345
  C  C128  1  0.501270  0.945580  0.759800  1.0  0.0459
  C  C129  1  0.540130  0.416600  0.950060  1.0  -0.1705
  C  C130  1  0.577980  0.535820  0.433420  1.0  0.0608
  C  C131  1  0.322710  0.051660  0.299240  1.0  0.1521
  C  C132  1  0.874370  0.948340  0.799240  1.0  0.1517
  C  C133  1  0.943840  0.951920  0.985020  1.0  -0.1282
  C  C134  1  0.049440  0.869860  0.702620  1.0  0.1221
  C  C135  1  0.456730  0.583400  0.450060  1.0  -0.1693
  C  C136  1  0.952780  0.035820  0.933420  1.0  0.0613
  C  C137  1  0.261560  0.576600  0.137840  1.0  -0.1047
  C  C138  1  0.813800  0.318140  0.113860  1.0  -0.1058
  C  C139  1  0.419300  0.130140  0.202620  1.0  0.1226
  C  C140  1  0.056160  0.048080  0.014980  1.0  -0.1356
  C  C141  1  0.524000  0.076600  0.637840  1.0  -0.109
  C  C142  1  0.289410  0.304920  0.361860  1.0  -0.1504
  C  C143  1  0.905670  0.304920  0.138140  1.0  -0.1455
  C  C144  1  0.332280  0.540320  0.783880  1.0  -0.1657
  C  C145  1  0.053150  0.945580  0.740200  1.0  0.0475
  C  C146  1  0.186200  0.681860  0.886140  1.0  -0.1046
  C  C147  1  0.238930  0.554420  0.759800  1.0  0.0469
  C  C148  1  0.843520  0.040320  0.283880  1.0  -0.1616
  C  C149  1  0.613800  0.464180  0.933420  1.0  0.061
  C  C150  1  0.604240  0.951920  0.514980  1.0  -0.1277
  C  C151  1  0.627400  0.540320  0.716120  1.0  -0.1637
  C  C152  1  0.698210  0.393840  0.151540  1.0  -0.0964
  C  C153  1  0.738440  0.423400  0.862160  1.0  -0.1062
  C  C154  1  0.121950  0.551660  0.700760  1.0  0.1521
  C  C155  1  0.456190  0.195080  0.138140  1.0  -0.1474
  C  C156  1  0.100600  0.923400  0.137840  1.0  -0.1075
  C  C157  1  0.406790  0.083400  0.549940  1.0  -0.1714
  C  C158  1  0.650250  0.106160  0.151540  1.0  -0.0952
  C  C159  1  0.667720  0.459680  0.216120  1.0  -0.1655
  C  C160  1  0.009810  0.083400  0.950060  1.0  -0.1738
  C  C161  1  0.368060  0.318140  0.386140  1.0  -0.106
  C  C162  1  0.121920  0.630140  0.797380  1.0  0.12
  N  N163  1  0.950060  0.372900  0.242980  1.0  -0.3656
  N  N164  1  0.939120  0.995460  0.801880  1.0  -0.0181
  N  N165  1  0.822960  0.627100  0.742980  1.0  -0.3662
  N  N166  1  0.434580  0.004540  0.301880  1.0  -0.0187
  N  N167  1  0.759000  0.504540  0.801880  1.0  -0.0152
  N  N168  1  0.934060  0.872900  0.742980  1.0  -0.3648
  N  N169  1  0.060880  0.004540  0.198120  1.0  -0.0172
  N  N170  1  0.241000  0.495460  0.198120  1.0  -0.0134
  N  N171  1  0.236460  0.504540  0.698120  1.0  -0.0132
  N  N172  1  0.177040  0.372900  0.257020  1.0  -0.3681
  N  N173  1  0.693040  0.872900  0.757020  1.0  -0.3652
  N  N174  1  0.065940  0.127100  0.257020  1.0  -0.3656
  N  N175  1  0.763540  0.495460  0.301880  1.0  -0.0133
  N  N176  1  0.049940  0.627100  0.757020  1.0  -0.3681
  N  N177  1  0.565420  0.995460  0.698120  1.0  -0.0157
  N  N178  1  0.306960  0.127100  0.242980  1.0  -0.365
