# generated using pymatgen
data_CdH18C26SN4
_symmetry_space_group_name_H-M   'P 1'
_cell_length_a   13.32950000
_cell_length_b   16.21600000
_cell_length_c   16.21600000
_cell_angle_alpha   67.20800000
_cell_angle_beta   74.09760000
_cell_angle_gamma   105.90200000
_symmetry_Int_Tables_number   1
_chemical_formula_structural   CdH18C26SN4
_chemical_formula_sum   'Cd3 H54 C78 S3 N12'
_cell_volume   2807.62901912
_cell_formula_units_Z   3
loop_
 _symmetry_equiv_pos_site_id
 _symmetry_equiv_pos_as_xyz
  1  'x, y, z'
loop_
 _atom_site_type_symbol
 _atom_site_label
 _atom_site_symmetry_multiplicity
 _atom_site_fract_x
 _atom_site_fract_y
 _atom_site_fract_z
 _atom_site_occupancy
 _atom_site_charge
  Cd  Cd1  1  0.000000  0.500000  0.500000  1.0  0.7639
  Cd  Cd2  1  0.500000  0.500000  0.000000  1.0  0.7643
  Cd  Cd3  1  0.500000  0.000000  0.500000  1.0  0.764
  H  H4  1  0.633900  0.454600  0.291100  1.0  0.0868
  H  H5  1  0.128900  0.000000  0.373400  1.0  0.0923
  H  H6  1  0.439000  0.833400  0.720500  1.0  0.063
  H  H7  1  0.646800  0.475600  0.139600  1.0  0.0581
  H  H8  1  0.633900  0.708900  0.545400  1.0  0.0873
  H  H9  1  0.497700  0.626600  0.373400  1.0  0.0896
  H  H10  1  0.439000  0.279500  0.166600  1.0  0.0604
  H  H11  1  0.837500  0.458200  0.857400  1.0  0.1079
  H  H12  1  0.871100  0.000000  0.626600  1.0  0.0904
  H  H13  1  0.820700  0.745700  0.545400  1.0  0.0907
  H  H14  1  0.620700  0.458200  0.684400  1.0  0.1021
  H  H15  1  0.620700  0.315600  0.541800  1.0  0.1035
  H  H16  1  0.128900  0.626600  0.000000  1.0  0.0928
  H  H17  1  0.353200  0.524400  0.860400  1.0  0.0591
  H  H18  1  0.379300  0.684400  0.458200  1.0  0.1078
  H  H19  1  0.162500  0.541800  0.142600  1.0  0.102
  H  H20  1  0.213600  0.384800  0.139600  1.0  0.06
  H  H21  1  0.561000  0.720500  0.833400  1.0  0.0607
  H  H22  1  0.820700  0.454600  0.254300  1.0  0.0869
  H  H23  1  0.305100  0.142600  0.315600  1.0  0.1026
  H  H24  1  0.840500  0.446100  0.720500  1.0  0.0584
  H  H25  1  0.605600  0.166600  0.553900  1.0  0.0623
  H  H26  1  0.213600  0.860400  0.615200  1.0  0.0584
  H  H27  1  0.837500  0.142600  0.541800  1.0  0.1058
  H  H28  1  0.171200  0.524400  0.615200  1.0  0.0594
  H  H29  1  0.925000  0.745700  0.708900  1.0  0.0897
  H  H30  1  0.786400  0.139600  0.384800  1.0  0.0612
  H  H31  1  0.075000  0.708900  0.745700  1.0  0.0881
  H  H32  1  0.925000  0.291100  0.254300  1.0  0.0879
  H  H33  1  0.075000  0.254300  0.291100  1.0  0.0903
  H  H34  1  0.179300  0.545400  0.745700  1.0  0.087
  H  H35  1  0.502300  0.373400  0.626600  1.0  0.0901
  H  H36  1  0.366100  0.291100  0.454600  1.0  0.088
  H  H37  1  0.366100  0.545400  0.708900  1.0  0.0868
  H  H38  1  0.305100  0.684400  0.857400  1.0  0.1007
  H  H39  1  0.394400  0.833400  0.446100  1.0  0.0614
  H  H40  1  0.561000  0.166600  0.279500  1.0  0.0603
  H  H41  1  0.694900  0.315600  0.142600  1.0  0.1076
  H  H42  1  0.353200  0.139600  0.475600  1.0  0.059
  H  H43  1  0.646800  0.860400  0.524400  1.0  0.059
  H  H44  1  0.179300  0.254300  0.454600  1.0  0.0899
  H  H45  1  0.840500  0.279500  0.553900  1.0  0.0611
  H  H46  1  0.605600  0.446100  0.833400  1.0  0.0614
  H  H47  1  0.159500  0.720500  0.446100  1.0  0.0599
  H  H48  1  0.171200  0.384800  0.475600  1.0  0.059
  H  H49  1  0.871100  0.373400  0.000000  1.0  0.0903
  H  H50  1  0.694900  0.857400  0.684400  1.0  0.1102
  H  H51  1  0.394400  0.553900  0.166600  1.0  0.0595
  H  H52  1  0.786400  0.615200  0.860400  1.0  0.0606
  H  H53  1  0.828800  0.615200  0.524400  1.0  0.0586
  H  H54  1  0.159500  0.553900  0.279500  1.0  0.061
  H  H55  1  0.828800  0.475600  0.384800  1.0  0.0579
  H  H56  1  0.379300  0.541800  0.315600  1.0  0.1085
  H  H57  1  0.162500  0.857400  0.458200  1.0  0.1029
  C  C58  1  0.103510  0.336310  0.487680  1.0  0.1544
  C  C59  1  0.443950  0.808330  0.465580  1.0  0.1686
  C  C60  1  0.500840  0.424610  0.575390  1.0  -0.1637
  C  C61  1  0.493630  0.321330  0.497040  1.0  0.0676
  C  C62  1  0.851740  0.266810  0.256890  1.0  -0.1736
  C  C63  1  0.909530  0.465580  0.726090  1.0  0.1691
  C  C64  1  0.556050  0.465580  0.808330  1.0  0.1613
  C  C65  1  0.827700  0.818370  0.678670  1.0  0.0674
  C  C66  1  0.408810  0.176010  0.487680  1.0  0.1618
  C  C67  1  0.009330  0.502960  0.818370  1.0  0.0689
  C  C68  1  0.851740  0.743110  0.733190  1.0  -0.1731
  C  C69  1  0.993200  0.493330  0.090530  1.0  -0.0205
  C  C70  1  0.284300  0.718070  0.808870  1.0  -0.2189
  C  C71  1  0.990670  0.818370  0.502960  1.0  0.0693
  C  C72  1  0.506370  0.497040  0.321330  1.0  0.0693
  C  C73  1  0.891370  0.743110  0.523700  1.0  -0.1726
  C  C74  1  0.591190  0.823990  0.512320  1.0  0.1532
  C  C75  1  0.093170  0.526940  0.191130  1.0  -0.2217
  C  C76  1  0.923770  0.424610  0.000000  1.0  -0.1666
  C  C77  1  0.493630  0.502960  0.678670  1.0  0.0673
  C  C78  1  0.566230  0.473060  0.718070  1.0  -0.2207
  C  C79  1  0.076230  0.000000  0.424610  1.0  -0.1597
  C  C80  1  0.499160  0.575390  0.424610  1.0  -0.1646
  C  C81  1  0.500130  0.583860  0.506670  1.0  -0.0182
  C  C82  1  0.500130  0.493330  0.416140  1.0  -0.0198
  C  C83  1  0.827700  0.321330  0.181630  1.0  0.0703
  C  C84  1  0.916270  0.909470  0.583860  1.0  -0.0189
  C  C85  1  0.148260  0.733190  0.743110  1.0  -0.1746
  C  C86  1  0.076230  0.575390  0.000000  1.0  -0.1625
  C  C87  1  0.993200  0.909470  0.506670  1.0  -0.0183
  C  C88  1  0.715700  0.281930  0.191130  1.0  -0.2249
  C  C89  1  0.990670  0.497040  0.181630  1.0  0.0673
  C  C90  1  0.433770  0.526940  0.281930  1.0  -0.2276
  C  C91  1  0.415070  0.523700  0.733190  1.0  -0.1739
  C  C92  1  0.415070  0.266810  0.476300  1.0  -0.1739
  C  C93  1  0.172300  0.678670  0.818370  1.0  0.0678
  C  C94  1  0.584930  0.733190  0.523700  1.0  -0.1736
  C  C95  1  0.090470  0.726090  0.465580  1.0  0.1692
  C  C96  1  0.556050  0.191670  0.534420  1.0  0.1651
  C  C97  1  0.108630  0.256890  0.476300  1.0  -0.1727
  C  C98  1  0.083730  0.583860  0.909470  1.0  -0.0198
  C  C99  1  0.584930  0.476300  0.266810  1.0  -0.1753
  C  C100  1  0.103510  0.512320  0.663690  1.0  0.1523
  C  C101  1  0.232800  0.823990  0.663690  1.0  0.1604
  C  C102  1  0.767200  0.176010  0.336310  1.0  0.1521
  C  C103  1  0.083730  0.090530  0.416140  1.0  -0.018
  C  C104  1  0.891370  0.476300  0.256890  1.0  -0.1754
  C  C105  1  0.364380  0.808330  0.726090  1.0  0.1688
  C  C106  1  0.232800  0.336310  0.176010  1.0  0.165
  C  C107  1  0.009330  0.181630  0.497040  1.0  0.0683
  C  C108  1  0.896490  0.487680  0.336310  1.0  0.1613
  C  C109  1  0.896490  0.663690  0.512320  1.0  0.1628
  C  C110  1  0.499870  0.506670  0.583860  1.0  -0.0206
  C  C111  1  0.909530  0.273910  0.534420  1.0  0.1722
  C  C112  1  0.108630  0.523700  0.743110  1.0  -0.1748
  C  C113  1  0.433770  0.718070  0.473060  1.0  -0.2253
  C  C114  1  0.443950  0.534420  0.191670  1.0  0.1671
  C  C115  1  0.006800  0.090530  0.493330  1.0  -0.0186
  C  C116  1  0.767200  0.663690  0.823990  1.0  0.1559
  C  C117  1  0.916270  0.416140  0.090530  1.0  -0.0181
  C  C118  1  0.566230  0.281930  0.526940  1.0  -0.2184
  C  C119  1  0.364380  0.273910  0.191670  1.0  0.1673
  C  C120  1  0.906830  0.473060  0.808870  1.0  -0.227
  C  C121  1  0.506370  0.678670  0.502960  1.0  0.0702
  C  C122  1  0.499870  0.416140  0.493330  1.0  -0.0199
  C  C123  1  0.906830  0.191130  0.526940  1.0  -0.2283
  C  C124  1  0.635620  0.726090  0.808330  1.0  0.168
  C  C125  1  0.006800  0.506670  0.909470  1.0  -0.0199
  C  C126  1  0.923770  0.000000  0.575390  1.0  -0.1649
  C  C127  1  0.284300  0.191130  0.281930  1.0  -0.2211
  C  C128  1  0.172300  0.181630  0.321330  1.0  0.0684
  C  C129  1  0.715700  0.808870  0.718070  1.0  -0.2285
  C  C130  1  0.090470  0.534420  0.273910  1.0  0.1656
  C  C131  1  0.591190  0.487680  0.176010  1.0  0.15
  C  C132  1  0.635620  0.191670  0.273910  1.0  0.1714
  C  C133  1  0.093170  0.808870  0.473060  1.0  -0.2215
  C  C134  1  0.408810  0.512320  0.823990  1.0  0.1603
  C  C135  1  0.148260  0.256890  0.266810  1.0  -0.1725
  S  S136  1  0.779300  0.415800  0.584200  1.0  -0.2776
  S  S137  1  0.363500  0.584200  0.000000  1.0  -0.277
  S  S138  1  0.363500  0.000000  0.415800  1.0  -0.2786
  N  N139  1  0.659310  0.138680  0.346050  1.0  -0.3793
  N  N140  1  0.005360  0.484730  0.653950  1.0  -0.3746
  N  N141  1  0.659310  0.653950  0.861320  1.0  -0.3738
  N  N142  1  0.479370  0.484730  0.861320  1.0  -0.3715
  N  N143  1  0.005360  0.346050  0.515270  1.0  -0.3822
  N  N144  1  0.520630  0.515270  0.138680  1.0  -0.3717
  N  N145  1  0.994640  0.515270  0.346050  1.0  -0.3744
  N  N146  1  0.340690  0.346050  0.138680  1.0  -0.3787
  N  N147  1  0.994640  0.653950  0.484730  1.0  -0.3817
  N  N148  1  0.340690  0.861320  0.653950  1.0  -0.377
  N  N149  1  0.479370  0.138680  0.515270  1.0  -0.3719
  N  N150  1  0.520630  0.861320  0.484730  1.0  -0.3715
