# generated using pymatgen
data_Zn3H9C6SN12
_symmetry_space_group_name_H-M   'P 1'
_cell_length_a   14.10080000
_cell_length_b   14.10060000
_cell_length_c   14.10060000
_cell_angle_alpha   109.47100000
_cell_angle_beta   109.47100000
_cell_angle_gamma   109.47100000
_symmetry_Int_Tables_number   1
_chemical_formula_structural   Zn3H9C6SN12
_chemical_formula_sum   'Zn12 H36 C24 S4 N48'
_cell_volume   2158.24426417
_cell_formula_units_Z   4
loop_
 _symmetry_equiv_pos_site_id
 _symmetry_equiv_pos_as_xyz
  1  'x, y, z'
loop_
 _atom_site_type_symbol
 _atom_site_label
 _atom_site_symmetry_multiplicity
 _atom_site_fract_x
 _atom_site_fract_y
 _atom_site_fract_z
 _atom_site_occupancy
 _atom_site_charge
  Zn  Zn1  1  0.991420  0.853790  0.395310  1.0  0.7075
  Zn  Zn2  1  0.137630  0.541520  0.146210  1.0  0.696
  Zn  Zn3  1  0.458480  0.596110  0.604690  1.0  0.6932
  Zn  Zn4  1  0.853790  0.395310  0.991420  1.0  0.6824
  Zn  Zn5  1  0.403890  0.862370  0.008580  1.0  0.7057
  Zn  Zn6  1  0.596110  0.604690  0.458480  1.0  0.7084
  Zn  Zn7  1  0.146210  0.137630  0.541520  1.0  0.6834
  Zn  Zn8  1  0.862370  0.008580  0.403890  1.0  0.6936
  Zn  Zn9  1  0.541520  0.146210  0.137630  1.0  0.694
  Zn  Zn10  1  0.604690  0.458480  0.596110  1.0  0.6842
  Zn  Zn11  1  0.395310  0.991420  0.853790  1.0  0.6842
  Zn  Zn12  1  0.008580  0.403890  0.862370  1.0  0.7088
  H  H13  1  0.201700  0.564400  0.475300  1.0  0.3108
  H  H14  1  0.089100  0.726400  0.524700  1.0  0.3111
  H  H15  1  0.798300  0.273600  0.362700  1.0  0.3125
  H  H16  1  0.655600  0.419900  0.808900  1.0  0.0248
  H  H17  1  0.637300  0.910900  0.435600  1.0  0.3124
  H  H18  1  0.524700  0.089100  0.726400  1.0  0.3133
  H  H19  1  0.153300  0.764300  0.344400  1.0  0.0282
  H  H20  1  0.423700  0.872600  0.235100  1.0  0.2977
  H  H21  1  0.435600  0.637300  0.910900  1.0  0.3091
  H  H22  1  0.344400  0.153300  0.764300  1.0  0.0289
  H  H23  1  0.637500  0.188600  0.764900  1.0  0.297
  H  H24  1  0.726400  0.524700  0.089100  1.0  0.3097
  H  H25  1  0.188600  0.764900  0.637500  1.0  0.2986
  H  H26  1  0.362500  0.127400  0.551100  1.0  0.2967
  H  H27  1  0.191100  0.611000  0.846700  1.0  0.0274
  H  H28  1  0.811400  0.448900  0.576300  1.0  0.298
  H  H29  1  0.235700  0.389000  0.580100  1.0  0.0263
  H  H30  1  0.764900  0.637500  0.188600  1.0  0.2979
  H  H31  1  0.808900  0.655600  0.419900  1.0  0.0272
  H  H32  1  0.362700  0.798300  0.273600  1.0  0.3104
  H  H33  1  0.580100  0.235700  0.389000  1.0  0.0262
  H  H34  1  0.910900  0.435600  0.637300  1.0  0.3111
  H  H35  1  0.846700  0.191100  0.611000  1.0  0.0254
  H  H36  1  0.872600  0.235100  0.423700  1.0  0.2982
  H  H37  1  0.273600  0.362700  0.798300  1.0  0.3078
  H  H38  1  0.564400  0.475300  0.201700  1.0  0.3106
  H  H39  1  0.419900  0.808900  0.655600  1.0  0.0268
  H  H40  1  0.764300  0.344400  0.153300  1.0  0.0242
  H  H41  1  0.611000  0.846700  0.191100  1.0  0.0288
  H  H42  1  0.551100  0.362500  0.127400  1.0  0.2952
  H  H43  1  0.448900  0.576300  0.811400  1.0  0.2978
  H  H44  1  0.475300  0.201700  0.564400  1.0  0.3098
  H  H45  1  0.389000  0.580100  0.235700  1.0  0.0266
  H  H46  1  0.576300  0.811400  0.448900  1.0  0.2972
  H  H47  1  0.127400  0.551100  0.362500  1.0  0.2955
  H  H48  1  0.235100  0.423700  0.872600  1.0  0.2987
  C  C49  1  0.077000  0.708200  0.287000  1.0  0.2193
  C  C50  1  0.790000  0.713000  0.421200  1.0  0.2248
  C  C51  1  0.705600  0.813900  0.430900  1.0  0.5613
  C  C52  1  0.186100  0.891700  0.617000  1.0  0.5601
  C  C53  1  0.578800  0.291800  0.368800  1.0  0.2252
  C  C54  1  0.430900  0.705600  0.813900  1.0  0.5591
  C  C55  1  0.294400  0.725300  0.108300  1.0  0.5605
  C  C56  1  0.725300  0.108300  0.294400  1.0  0.5624
  C  C57  1  0.368800  0.578800  0.291800  1.0  0.2223
  C  C58  1  0.210000  0.631200  0.923000  1.0  0.2258
  C  C59  1  0.383000  0.274700  0.569100  1.0  0.5609
  C  C60  1  0.617000  0.186100  0.891700  1.0  0.5609
  C  C61  1  0.421200  0.790000  0.713000  1.0  0.2236
  C  C62  1  0.108300  0.294400  0.725300  1.0  0.5589
  C  C63  1  0.287000  0.077000  0.708200  1.0  0.2226
  C  C64  1  0.708200  0.287000  0.077000  1.0  0.2249
  C  C65  1  0.813900  0.430900  0.705600  1.0  0.5596
  C  C66  1  0.274700  0.569100  0.383000  1.0  0.5611
  C  C67  1  0.923000  0.210000  0.631200  1.0  0.2238
  C  C68  1  0.891700  0.617000  0.186100  1.0  0.5587
  C  C69  1  0.631200  0.923000  0.210000  1.0  0.2222
  C  C70  1  0.291800  0.368800  0.578800  1.0  0.2225
  C  C71  1  0.569100  0.383000  0.274700  1.0  0.5603
  C  C72  1  0.713000  0.421200  0.790000  1.0  0.2235
  S  S73  1  0.000000  0.353080  0.000000  1.0  -0.2866
  S  S74  1  0.353080  0.000000  0.000000  1.0  -0.2863
  S  S75  1  0.646920  0.646920  0.646920  1.0  -0.2839
  S  S76  1  0.000000  0.000000  0.353080  1.0  -0.2908
  N  N77  1  0.716100  0.434900  0.700600  1.0  -0.5353
  N  N78  1  0.265700  0.565100  0.281200  1.0  -0.5353
  N  N79  1  0.590200  0.388900  0.437300  1.0  -0.3014
  N  N80  1  0.847100  0.798700  0.409800  1.0  -0.3047
  N  N81  1  0.201300  0.048400  0.611100  1.0  -0.3057
  N  N82  1  0.565100  0.281200  0.265700  1.0  -0.5316
  N  N83  1  0.048400  0.611100  0.201300  1.0  -0.3034
  N  N84  1  0.951600  0.152900  0.562700  1.0  -0.3026
  N  N85  1  0.410100  0.191400  0.560500  1.0  -0.8014
  N  N86  1  0.623000  0.072100  0.206700  1.0  -0.3776
  N  N87  1  0.734300  0.015500  0.299400  1.0  -0.5326
  N  N88  1  0.865400  0.416300  0.793300  1.0  -0.3836
  N  N89  1  0.583700  0.449100  0.377000  1.0  -0.3862
  N  N90  1  0.984500  0.718800  0.283900  1.0  -0.5315
  N  N91  1  0.449100  0.377000  0.583700  1.0  -0.3832
  N  N92  1  0.134600  0.927900  0.550900  1.0  -0.3894
  N  N93  1  0.808600  0.218700  0.369100  1.0  -0.7988
  N  N94  1  0.388900  0.437300  0.590200  1.0  -0.3034
  N  N95  1  0.281200  0.265700  0.565100  1.0  -0.5313
  N  N96  1  0.299400  0.734300  0.015500  1.0  -0.5335
  N  N97  1  0.781300  0.589900  0.150400  1.0  -0.7971
  N  N98  1  0.439500  0.630900  0.849600  1.0  -0.7991
  N  N99  1  0.377000  0.583700  0.449100  1.0  -0.3735
  N  N100  1  0.072100  0.206700  0.623000  1.0  -0.3838
  N  N101  1  0.849600  0.439500  0.630900  1.0  -0.8007
  N  N102  1  0.560500  0.410100  0.191400  1.0  -0.7979
  N  N103  1  0.700600  0.716100  0.434900  1.0  -0.5333
  N  N104  1  0.589900  0.150400  0.781300  1.0  -0.7971
  N  N105  1  0.416300  0.793300  0.865400  1.0  -0.3824
  N  N106  1  0.283900  0.984500  0.718800  1.0  -0.5337
  N  N107  1  0.611100  0.201300  0.048400  1.0  -0.3013
  N  N108  1  0.150400  0.781300  0.589900  1.0  -0.8007
  N  N109  1  0.206700  0.623000  0.072100  1.0  -0.3782
  N  N110  1  0.798700  0.409800  0.847100  1.0  -0.3013
  N  N111  1  0.218700  0.369100  0.808600  1.0  -0.8
  N  N112  1  0.015500  0.299400  0.734300  1.0  -0.5319
  N  N113  1  0.562700  0.951600  0.152900  1.0  -0.3058
  N  N114  1  0.434900  0.700600  0.716100  1.0  -0.5322
  N  N115  1  0.191400  0.560500  0.410100  1.0  -0.8006
  N  N116  1  0.718800  0.283900  0.984500  1.0  -0.5299
  N  N117  1  0.437300  0.590200  0.388900  1.0  -0.3035
  N  N118  1  0.630900  0.849600  0.439500  1.0  -0.8032
  N  N119  1  0.152900  0.562700  0.951600  1.0  -0.3033
  N  N120  1  0.369100  0.808600  0.218700  1.0  -0.8006
  N  N121  1  0.793300  0.865400  0.416300  1.0  -0.3816
  N  N122  1  0.550900  0.134600  0.927900  1.0  -0.3826
  N  N123  1  0.927900  0.550900  0.134600  1.0  -0.3831
  N  N124  1  0.409800  0.847100  0.798700  1.0  -0.3051
