# generated using pymatgen
data_CdH6(CN3)3
_symmetry_space_group_name_H-M   'P 1'
_cell_length_a   13.01400000
_cell_length_b   13.01400000
_cell_length_c   13.45700000
_cell_angle_alpha   90.00000000
_cell_angle_beta   90.00000000
_cell_angle_gamma   120.00000000
_symmetry_Int_Tables_number   1
_chemical_formula_structural   CdH6(CN3)3
_chemical_formula_sum   'Cd10 H60 C30 N90'
_cell_volume   1973.78793013
_cell_formula_units_Z   10
loop_
 _symmetry_equiv_pos_site_id
 _symmetry_equiv_pos_as_xyz
  1  'x, y, z'
loop_
 _atom_site_type_symbol
 _atom_site_label
 _atom_site_symmetry_multiplicity
 _atom_site_fract_x
 _atom_site_fract_y
 _atom_site_fract_z
 _atom_site_occupancy
 _atom_site_charge
  Cd  Cd1  1  0.666667  0.333333  0.399300  1.0  0.6736
  Cd  Cd2  1  0.333333  0.666667  0.899300  1.0  0.6736
  Cd  Cd3  1  0.500000  0.000000  0.000000  1.0  0.6641
  Cd  Cd4  1  0.000000  0.500000  0.500000  1.0  0.6641
  Cd  Cd5  1  0.666667  0.333333  0.100700  1.0  0.6737
  Cd  Cd6  1  0.333333  0.666667  0.600700  1.0  0.6737
  Cd  Cd7  1  0.000000  0.500000  0.000000  1.0  0.6641
  Cd  Cd8  1  0.500000  0.500000  0.000000  1.0  0.6641
  Cd  Cd9  1  0.500000  0.000000  0.500000  1.0  0.6641
  Cd  Cd10  1  0.500000  0.500000  0.500000  1.0  0.6641
  H  H11  1  0.958200  0.167600  0.836200  1.0  0.1602
  H  H12  1  0.958200  0.790600  0.836200  1.0  0.16
  H  H13  1  0.167600  0.958200  0.163800  1.0  0.1591
  H  H14  1  0.832400  0.041800  0.663800  1.0  0.162
  H  H15  1  0.832400  0.041800  0.836200  1.0  0.1615
  H  H16  1  0.962700  0.254500  0.129700  1.0  0.2837
  H  H17  1  0.041800  0.209400  0.163800  1.0  0.1595
  H  H18  1  0.962700  0.708200  0.129700  1.0  0.2797
  H  H19  1  0.958200  0.167600  0.663800  1.0  0.1606
  H  H20  1  0.041800  0.832400  0.336200  1.0  0.162
  H  H21  1  0.177400  0.588700  0.305300  1.0  0.2609
  H  H22  1  0.411300  0.588700  0.305300  1.0  0.261
  H  H23  1  0.041800  0.832400  0.163800  1.0  0.1614
  H  H24  1  0.588700  0.177400  0.805300  1.0  0.2619
  H  H25  1  0.745500  0.037300  0.370300  1.0  0.2823
  H  H26  1  0.411300  0.588700  0.194700  1.0  0.2613
  H  H27  1  0.209400  0.041800  0.836200  1.0  0.1586
  H  H28  1  0.037300  0.745500  0.629700  1.0  0.2875
  H  H29  1  0.209400  0.041800  0.663800  1.0  0.1583
  H  H30  1  0.745500  0.037300  0.129700  1.0  0.2824
  H  H31  1  0.822600  0.411300  0.805300  1.0  0.261
  H  H32  1  0.822600  0.411300  0.694700  1.0  0.2611
  H  H33  1  0.708200  0.745500  0.629700  1.0  0.2839
  H  H34  1  0.177400  0.588700  0.194700  1.0  0.2609
  H  H35  1  0.962700  0.708200  0.370300  1.0  0.2797
  H  H36  1  0.041800  0.209400  0.336200  1.0  0.1591
  H  H37  1  0.962700  0.254500  0.370300  1.0  0.2836
  H  H38  1  0.588700  0.411300  0.805300  1.0  0.2611
  H  H39  1  0.708200  0.745500  0.870300  1.0  0.2837
  H  H40  1  0.167600  0.958200  0.336200  1.0  0.1593
  H  H41  1  0.588700  0.411300  0.694700  1.0  0.2609
  H  H42  1  0.254500  0.962700  0.870300  1.0  0.2808
  H  H43  1  0.167600  0.209400  0.163800  1.0  0.1591
  H  H44  1  0.411300  0.822600  0.194700  1.0  0.2626
  H  H45  1  0.291800  0.037300  0.129700  1.0  0.2829
  H  H46  1  0.832400  0.790600  0.836200  1.0  0.1599
  H  H47  1  0.037300  0.291800  0.629700  1.0  0.2819
  H  H48  1  0.790600  0.832400  0.163800  1.0  0.1614
  H  H49  1  0.790600  0.958200  0.163800  1.0  0.1622
  H  H50  1  0.291800  0.254500  0.129700  1.0  0.2878
  H  H51  1  0.745500  0.708200  0.370300  1.0  0.2803
  H  H52  1  0.745500  0.708200  0.129700  1.0  0.2804
  H  H53  1  0.209400  0.167600  0.836200  1.0  0.1609
  H  H54  1  0.254500  0.291800  0.629700  1.0  0.2815
  H  H55  1  0.832400  0.790600  0.663800  1.0  0.1597
  H  H56  1  0.291800  0.254500  0.370300  1.0  0.2876
  H  H57  1  0.790600  0.958200  0.336200  1.0  0.1618
  H  H58  1  0.254500  0.962700  0.629700  1.0  0.2809
  H  H59  1  0.708200  0.962700  0.870300  1.0  0.2804
  H  H60  1  0.790600  0.832400  0.336200  1.0  0.1615
  H  H61  1  0.037300  0.745500  0.870300  1.0  0.2873
  H  H62  1  0.958200  0.790600  0.663800  1.0  0.1597
  H  H63  1  0.291800  0.037300  0.370300  1.0  0.2828
  H  H64  1  0.708200  0.962700  0.629700  1.0  0.2805
  H  H65  1  0.411300  0.822600  0.305300  1.0  0.2626
  H  H66  1  0.254500  0.291800  0.870300  1.0  0.2815
  H  H67  1  0.209400  0.167600  0.663800  1.0  0.1605
  H  H68  1  0.037300  0.291800  0.870300  1.0  0.2819
  H  H69  1  0.167600  0.209400  0.336200  1.0  0.1589
  H  H70  1  0.588700  0.177400  0.694700  1.0  0.2626
  C  C71  1  0.772300  0.122300  0.586000  1.0  0.4158
  C  C72  1  0.509500  0.490500  0.750000  1.0  0.4589
  C  C73  1  0.350000  0.122300  0.914000  1.0  0.4181
  C  C74  1  0.350000  0.227700  0.914000  1.0  0.4179
  C  C75  1  0.122300  0.772300  0.086000  1.0  0.4162
  C  C76  1  0.490500  0.509500  0.250000  1.0  0.4592
  C  C77  1  0.877700  0.227700  0.586000  1.0  0.4178
  C  C78  1  0.122300  0.772300  0.414000  1.0  0.4169
  C  C79  1  0.227700  0.877700  0.414000  1.0  0.418
  C  C80  1  0.019000  0.509500  0.250000  1.0  0.4588
  C  C81  1  0.650000  0.772300  0.414000  1.0  0.4167
  C  C82  1  0.772300  0.650000  0.586000  1.0  0.4149
  C  C83  1  0.877700  0.650000  0.914000  1.0  0.4165
  C  C84  1  0.772300  0.650000  0.914000  1.0  0.4158
  C  C85  1  0.122300  0.350000  0.414000  1.0  0.4168
  C  C86  1  0.650000  0.772300  0.086000  1.0  0.4161
  C  C87  1  0.350000  0.122300  0.586000  1.0  0.4171
  C  C88  1  0.350000  0.227700  0.586000  1.0  0.4178
  C  C89  1  0.650000  0.877700  0.086000  1.0  0.4157
  C  C90  1  0.772300  0.122300  0.914000  1.0  0.4166
  C  C91  1  0.509500  0.019000  0.750000  1.0  0.4593
  C  C92  1  0.227700  0.350000  0.414000  1.0  0.4175
  C  C93  1  0.877700  0.650000  0.586000  1.0  0.416
  C  C94  1  0.490500  0.981000  0.250000  1.0  0.4592
  C  C95  1  0.877700  0.227700  0.914000  1.0  0.4177
  C  C96  1  0.227700  0.350000  0.086000  1.0  0.4175
  C  C97  1  0.227700  0.877700  0.086000  1.0  0.4169
  C  C98  1  0.650000  0.877700  0.414000  1.0  0.4161
  C  C99  1  0.981000  0.490500  0.750000  1.0  0.4591
  C  C100  1  0.122300  0.350000  0.086000  1.0  0.4162
  N  N101  1  0.138100  0.440300  0.032900  1.0  -0.2214
  N  N102  1  0.751900  0.248100  0.502300  1.0  -0.2029
  N  N103  1  0.418050  0.581950  0.702100  1.0  -0.0885
  N  N104  1  0.581950  0.418050  0.297900  1.0  -0.0877
  N  N105  1  0.032000  0.261000  0.132000  1.0  -0.665
  N  N106  1  0.261000  0.032000  0.868000  1.0  -0.6677
  N  N107  1  0.440300  0.138100  0.967100  1.0  -0.2227
  N  N108  1  0.261000  0.229000  0.868000  1.0  -0.6686
  N  N109  1  0.525250  0.050500  0.331500  1.0  -0.3212
  N  N110  1  0.697800  0.138100  0.967100  1.0  -0.2235
  N  N111  1  0.248100  0.751900  0.497700  1.0  -0.2031
  N  N112  1  0.751900  0.248100  0.997700  1.0  -0.2039
  N  N113  1  0.474750  0.525250  0.668500  1.0  -0.3221
  N  N114  1  0.968000  0.229000  0.632000  1.0  -0.6679
  N  N115  1  0.569500  0.430500  0.750000  1.0  -0.7513
  N  N116  1  0.861900  0.559700  0.532900  1.0  -0.2218
  N  N117  1  0.559700  0.697800  0.032900  1.0  -0.2215
  N  N118  1  0.440300  0.302200  0.532900  1.0  -0.2211
  N  N119  1  0.968000  0.739000  0.868000  1.0  -0.6686
  N  N120  1  0.229000  0.261000  0.132000  1.0  -0.6677
  N  N121  1  0.739000  0.968000  0.368000  1.0  -0.665
  N  N122  1  0.418050  0.836100  0.702100  1.0  -0.0891
  N  N123  1  0.302200  0.440300  0.467100  1.0  -0.2226
  N  N124  1  0.949500  0.474750  0.168500  1.0  -0.3212
  N  N125  1  0.302200  0.861900  0.467100  1.0  -0.223
  N  N126  1  0.163900  0.581950  0.702100  1.0  -0.0876
  N  N127  1  0.496200  0.248100  0.997700  1.0  -0.2041
  N  N128  1  0.430500  0.861000  0.250000  1.0  -0.7511
  N  N129  1  0.525250  0.474750  0.168500  1.0  -0.3207
  N  N130  1  0.771000  0.032000  0.868000  1.0  -0.6656
  N  N131  1  0.836100  0.418050  0.297900  1.0  -0.089
  N  N132  1  0.739000  0.968000  0.132000  1.0  -0.6633
  N  N133  1  0.229000  0.261000  0.368000  1.0  -0.6622
  N  N134  1  0.697800  0.138100  0.532900  1.0  -0.2231
  N  N135  1  0.559700  0.697800  0.467100  1.0  -0.2225
  N  N136  1  0.261000  0.032000  0.632000  1.0  -0.6684
  N  N137  1  0.474750  0.949500  0.668500  1.0  -0.3206
  N  N138  1  0.525250  0.050500  0.168500  1.0  -0.3204
  N  N139  1  0.248100  0.751900  0.002300  1.0  -0.2033
  N  N140  1  0.525250  0.474750  0.331500  1.0  -0.3214
  N  N141  1  0.771000  0.032000  0.632000  1.0  -0.6668
  N  N142  1  0.032000  0.261000  0.368000  1.0  -0.668
  N  N143  1  0.581950  0.418050  0.202100  1.0  -0.0882
  N  N144  1  0.697800  0.559700  0.967100  1.0  -0.2226
  N  N145  1  0.440300  0.138100  0.532900  1.0  -0.2225
  N  N146  1  0.771000  0.739000  0.632000  1.0  -0.6652
  N  N147  1  0.138100  0.440300  0.467100  1.0  -0.2223
  N  N148  1  0.229000  0.968000  0.132000  1.0  -0.6683
  N  N149  1  0.968000  0.739000  0.632000  1.0  -0.6618
  N  N150  1  0.139000  0.569500  0.250000  1.0  -0.7512
  N  N151  1  0.861900  0.559700  0.967100  1.0  -0.222
  N  N152  1  0.248100  0.496200  0.002300  1.0  -0.2037
  N  N153  1  0.751900  0.503800  0.502300  1.0  -0.2038
  N  N154  1  0.496200  0.248100  0.502300  1.0  -0.2036
  N  N155  1  0.474750  0.525250  0.831500  1.0  -0.3227
  N  N156  1  0.138100  0.697800  0.467100  1.0  -0.2224
  N  N157  1  0.559700  0.861900  0.467100  1.0  -0.2233
  N  N158  1  0.581950  0.163900  0.297900  1.0  -0.0894
  N  N159  1  0.751900  0.503800  0.997700  1.0  -0.2036
  N  N160  1  0.569500  0.139000  0.750000  1.0  -0.7512
  N  N161  1  0.261000  0.229000  0.632000  1.0  -0.6646
  N  N162  1  0.949500  0.474750  0.331500  1.0  -0.322
  N  N163  1  0.739000  0.771000  0.132000  1.0  -0.671
  N  N164  1  0.440300  0.302200  0.967100  1.0  -0.2223
  N  N165  1  0.032000  0.771000  0.368000  1.0  -0.6698
  N  N166  1  0.861900  0.302200  0.967100  1.0  -0.2224
  N  N167  1  0.861900  0.302200  0.532900  1.0  -0.2211
  N  N168  1  0.163900  0.581950  0.797900  1.0  -0.0881
  N  N169  1  0.050500  0.525250  0.668500  1.0  -0.3214
  N  N170  1  0.302200  0.440300  0.032900  1.0  -0.2222
  N  N171  1  0.474750  0.949500  0.831500  1.0  -0.3206
  N  N172  1  0.503800  0.751900  0.497700  1.0  -0.2033
  N  N173  1  0.836100  0.418050  0.202100  1.0  -0.0891
  N  N174  1  0.302200  0.861900  0.032900  1.0  -0.2223
  N  N175  1  0.697800  0.559700  0.532900  1.0  -0.2222
  N  N176  1  0.581950  0.163900  0.202100  1.0  -0.0886
  N  N177  1  0.418050  0.581950  0.797900  1.0  -0.0894
  N  N178  1  0.430500  0.569500  0.250000  1.0  -0.7513
  N  N179  1  0.032000  0.771000  0.132000  1.0  -0.6669
  N  N180  1  0.771000  0.739000  0.868000  1.0  -0.6627
  N  N181  1  0.739000  0.771000  0.368000  1.0  -0.6686
  N  N182  1  0.050500  0.525250  0.831500  1.0  -0.3217
  N  N183  1  0.503800  0.751900  0.002300  1.0  -0.2031
  N  N184  1  0.559700  0.861900  0.032900  1.0  -0.2225
  N  N185  1  0.138100  0.697800  0.032900  1.0  -0.2216
  N  N186  1  0.861000  0.430500  0.750000  1.0  -0.7513
  N  N187  1  0.248100  0.496200  0.497700  1.0  -0.2046
  N  N188  1  0.418050  0.836100  0.797900  1.0  -0.0889
  N  N189  1  0.968000  0.229000  0.868000  1.0  -0.6708
  N  N190  1  0.229000  0.968000  0.368000  1.0  -0.6669
