# generated using pymatgen
data_Zn7H48(C12O5)6
_symmetry_space_group_name_H-M   'P 1'
_cell_length_a   30.84540000
_cell_length_b   30.84540000
_cell_length_c   30.84540000
_cell_angle_alpha   60.00000000
_cell_angle_beta   60.00000000
_cell_angle_gamma   60.00000000
_symmetry_Int_Tables_number   1
_chemical_formula_structural   Zn7H48(C12O5)6
_chemical_formula_sum   'Zn28 H192 C288 O120'
_cell_volume   20751.82143177
_cell_formula_units_Z   4
loop_
 _symmetry_equiv_pos_site_id
 _symmetry_equiv_pos_as_xyz
  1  'x, y, z'
loop_
 _atom_site_type_symbol
 _atom_site_label
 _atom_site_symmetry_multiplicity
 _atom_site_fract_x
 _atom_site_fract_y
 _atom_site_fract_z
 _atom_site_occupancy
 _atom_site_charge
  Zn  Zn1  1  0.700590  0.299410  0.700590  1.0  1.0944
  Zn  Zn2  1  0.660100  0.019700  0.660100  1.0  0.7382
  Zn  Zn3  1  0.660100  0.660100  0.660100  1.0  0.7338
  Zn  Zn4  1  0.768720  0.231280  0.768720  1.0  1.1059
  Zn  Zn5  1  0.339900  0.980300  0.339900  1.0  0.7381
  Zn  Zn6  1  0.613360  0.613360  0.159920  1.0  0.7469
  Zn  Zn7  1  0.231280  0.768720  0.231280  1.0  1.1086
  Zn  Zn8  1  0.613360  0.613360  0.613360  1.0  0.7479
  Zn  Zn9  1  0.386640  0.386640  0.386640  1.0  0.7507
  Zn  Zn10  1  0.231280  0.231280  0.768720  1.0  1.1121
  Zn  Zn11  1  0.700590  0.299410  0.299410  1.0  1.0949
  Zn  Zn12  1  0.299410  0.299410  0.700590  1.0  1.0994
  Zn  Zn13  1  0.700590  0.700590  0.299410  1.0  1.0982
  Zn  Zn14  1  0.660100  0.660100  0.019700  1.0  0.7408
  Zn  Zn15  1  0.339900  0.339900  0.980300  1.0  0.7379
  Zn  Zn16  1  0.840080  0.386640  0.386640  1.0  0.743
  Zn  Zn17  1  0.613360  0.159920  0.613360  1.0  0.754
  Zn  Zn18  1  0.299410  0.700590  0.299410  1.0  1.0928
  Zn  Zn19  1  0.386640  0.386640  0.840080  1.0  0.7501
  Zn  Zn20  1  0.159920  0.613360  0.613360  1.0  0.7452
  Zn  Zn21  1  0.339900  0.339900  0.339900  1.0  0.7359
  Zn  Zn22  1  0.299410  0.700590  0.700590  1.0  1.0935
  Zn  Zn23  1  0.231280  0.768720  0.768720  1.0  1.1079
  Zn  Zn24  1  0.768720  0.231280  0.231280  1.0  1.1065
  Zn  Zn25  1  0.768720  0.768720  0.231280  1.0  1.1135
  Zn  Zn26  1  0.386640  0.840080  0.386640  1.0  0.7516
  Zn  Zn27  1  0.019700  0.660100  0.660100  1.0  0.7279
  Zn  Zn28  1  0.980300  0.339900  0.339900  1.0  0.7305
  H  H29  1  0.156000  0.634400  0.208400  1.0  0.0864
  H  H30  1  0.730600  0.917300  0.917300  1.0  0.1284
  H  H31  1  0.960000  0.907800  0.380200  1.0  0.1015
  H  H32  1  0.791600  0.365600  0.844000  1.0  0.0854
  H  H33  1  0.688800  0.688800  0.172200  1.0  0.1201
  H  H34  1  0.081700  0.354900  0.781700  1.0  0.1161
  H  H35  1  0.549800  0.827800  0.311200  1.0  0.1207
  H  H36  1  0.917300  0.434800  0.730600  1.0  0.1308
  H  H37  1  0.634400  0.208400  0.156000  1.0  0.0877
  H  H38  1  0.311200  0.827800  0.311200  1.0  0.1211
  H  H39  1  0.010100  0.738500  0.512900  1.0  0.1259
  H  H40  1  0.040000  0.248000  0.619800  1.0  0.1002
  H  H41  1  0.907800  0.752000  0.380200  1.0  0.0993
  H  H42  1  0.688800  0.688800  0.450200  1.0  0.1195
  H  H43  1  0.248000  0.619800  0.040000  1.0  0.1007
  H  H44  1  0.781700  0.081700  0.354900  1.0  0.1152
  H  H45  1  0.688800  0.172200  0.688800  1.0  0.1206
  H  H46  1  0.082700  0.082700  0.565200  1.0  0.1299
  H  H47  1  0.218300  0.918300  0.218300  1.0  0.1158
  H  H48  1  0.738500  0.010100  0.512900  1.0  0.1254
  H  H49  1  0.082700  0.269400  0.082700  1.0  0.1289
  H  H50  1  0.261500  0.487100  0.261500  1.0  0.1257
  H  H51  1  0.917300  0.917300  0.434800  1.0  0.1292
  H  H52  1  0.354900  0.781700  0.081700  1.0  0.116
  H  H53  1  0.791600  0.844000  0.365600  1.0  0.0869
  H  H54  1  0.434800  0.917300  0.917300  1.0  0.125
  H  H55  1  0.960000  0.752000  0.907800  1.0  0.0988
  H  H56  1  0.918300  0.645100  0.218300  1.0  0.1158
  H  H57  1  0.311200  0.311200  0.549800  1.0  0.1192
  H  H58  1  0.791600  0.365600  0.998800  1.0  0.0848
  H  H59  1  0.998800  0.791600  0.844000  1.0  0.088
  H  H60  1  0.082700  0.565200  0.082700  1.0  0.1279
  H  H61  1  0.365600  0.998800  0.844000  1.0  0.0874
  H  H62  1  0.917300  0.730600  0.434800  1.0  0.1297
  H  H63  1  0.565200  0.082700  0.269400  1.0  0.1269
  H  H64  1  0.907800  0.960000  0.752000  1.0  0.1016
  H  H65  1  0.261500  0.989900  0.261500  1.0  0.1255
  H  H66  1  0.365600  0.844000  0.998800  1.0  0.0886
  H  H67  1  0.619800  0.248000  0.040000  1.0  0.1008
  H  H68  1  0.040000  0.248000  0.092200  1.0  0.0993
  H  H69  1  0.844000  0.791600  0.365600  1.0  0.0852
  H  H70  1  0.487100  0.989900  0.261500  1.0  0.1261
  H  H71  1  0.380200  0.752000  0.960000  1.0  0.0998
  H  H72  1  0.917300  0.917300  0.730600  1.0  0.1305
  H  H73  1  0.730600  0.917300  0.434800  1.0  0.1286
  H  H74  1  0.380200  0.960000  0.907800  1.0  0.1017
  H  H75  1  0.208400  0.001200  0.156000  1.0  0.0834
  H  H76  1  0.269400  0.565200  0.082700  1.0  0.1293
  H  H77  1  0.208400  0.634400  0.001200  1.0  0.0875
  H  H78  1  0.261500  0.261500  0.487100  1.0  0.1274
  H  H79  1  0.380200  0.907800  0.752000  1.0  0.0989
  H  H80  1  0.634400  0.001200  0.208400  1.0  0.0875
  H  H81  1  0.001200  0.156000  0.634400  1.0  0.0869
  H  H82  1  0.738500  0.512900  0.738500  1.0  0.1259
  H  H83  1  0.380200  0.752000  0.907800  1.0  0.1001
  H  H84  1  0.081700  0.781700  0.354900  1.0  0.1147
  H  H85  1  0.218300  0.645100  0.218300  1.0  0.1156
  H  H86  1  0.092200  0.248000  0.040000  1.0  0.0991
  H  H87  1  0.738500  0.738500  0.512900  1.0  0.1261
  H  H88  1  0.619800  0.040000  0.092200  1.0  0.1009
  H  H89  1  0.619800  0.040000  0.248000  1.0  0.1021
  H  H90  1  0.156000  0.208400  0.634400  1.0  0.0865
  H  H91  1  0.311200  0.311200  0.827800  1.0  0.1192
  H  H92  1  0.269400  0.082700  0.082700  1.0  0.1299
  H  H93  1  0.208400  0.001200  0.634400  1.0  0.0871
  H  H94  1  0.998800  0.365600  0.844000  1.0  0.0864
  H  H95  1  0.917300  0.434800  0.917300  1.0  0.1293
  H  H96  1  0.248000  0.619800  0.092200  1.0  0.0996
  H  H97  1  0.791600  0.844000  0.998800  1.0  0.0882
  H  H98  1  0.450200  0.172200  0.688800  1.0  0.1201
  H  H99  1  0.156000  0.634400  0.001200  1.0  0.086
  H  H100  1  0.512900  0.738500  0.010100  1.0  0.1255
  H  H101  1  0.218300  0.218300  0.645100  1.0  0.1163
  H  H102  1  0.752000  0.960000  0.380200  1.0  0.0993
  H  H103  1  0.082700  0.082700  0.269400  1.0  0.1298
  H  H104  1  0.844000  0.998800  0.791600  1.0  0.0876
  H  H105  1  0.248000  0.092200  0.619800  1.0  0.0988
  H  H106  1  0.907800  0.380200  0.752000  1.0  0.1003
  H  H107  1  0.040000  0.619800  0.248000  1.0  0.1026
  H  H108  1  0.688800  0.450200  0.688800  1.0  0.1207
  H  H109  1  0.261500  0.261500  0.989900  1.0  0.1258
  H  H110  1  0.791600  0.998800  0.844000  1.0  0.0871
  H  H111  1  0.380200  0.960000  0.752000  1.0  0.101
  H  H112  1  0.960000  0.380200  0.752000  1.0  0.0997
  H  H113  1  0.172200  0.688800  0.688800  1.0  0.1192
  H  H114  1  0.781700  0.081700  0.781700  1.0  0.1164
  H  H115  1  0.218300  0.645100  0.918300  1.0  0.1158
  H  H116  1  0.248000  0.092200  0.040000  1.0  0.0976
  H  H117  1  0.549800  0.311200  0.827800  1.0  0.1208
  H  H118  1  0.918300  0.218300  0.645100  1.0  0.1167
  H  H119  1  0.172200  0.450200  0.688800  1.0  0.1209
  H  H120  1  0.010100  0.738500  0.738500  1.0  0.1261
  H  H121  1  0.998800  0.844000  0.791600  1.0  0.0883
  H  H122  1  0.092200  0.040000  0.619800  1.0  0.1009
  H  H123  1  0.752000  0.960000  0.907800  1.0  0.0996
  H  H124  1  0.208400  0.156000  0.634400  1.0  0.0874
  H  H125  1  0.208400  0.156000  0.001200  1.0  0.0847
  H  H126  1  0.844000  0.365600  0.998800  1.0  0.0857
  H  H127  1  0.365600  0.791600  0.998800  1.0  0.0869
  H  H128  1  0.989900  0.261500  0.487100  1.0  0.1253
  H  H129  1  0.781700  0.781700  0.081700  1.0  0.1148
  H  H130  1  0.565200  0.082700  0.082700  1.0  0.1257
  H  H131  1  0.001200  0.156000  0.208400  1.0  0.086
  H  H132  1  0.738500  0.512900  0.010100  1.0  0.126
  H  H133  1  0.752000  0.907800  0.380200  1.0  0.0986
  H  H134  1  0.844000  0.998800  0.365600  1.0  0.0881
  H  H135  1  0.311200  0.549800  0.827800  1.0  0.1201
  H  H136  1  0.791600  0.998800  0.365600  1.0  0.0846
  H  H137  1  0.156000  0.001200  0.634400  1.0  0.0872
  H  H138  1  0.001200  0.634400  0.208400  1.0  0.087
  H  H139  1  0.998800  0.791600  0.365600  1.0  0.0855
  H  H140  1  0.380200  0.907800  0.960000  1.0  0.1014
  H  H141  1  0.082700  0.269400  0.565200  1.0  0.1292
  H  H142  1  0.487100  0.261500  0.261500  1.0  0.1263
  H  H143  1  0.081700  0.781700  0.781700  1.0  0.1158
  H  H144  1  0.487100  0.261500  0.989900  1.0  0.126
  H  H145  1  0.907800  0.960000  0.380200  1.0  0.1003
  H  H146  1  0.434800  0.917300  0.730600  1.0  0.1266
  H  H147  1  0.365600  0.791600  0.844000  1.0  0.0876
  H  H148  1  0.827800  0.549800  0.311200  1.0  0.1195
  H  H149  1  0.354900  0.081700  0.781700  1.0  0.1168
  H  H150  1  0.645100  0.918300  0.218300  1.0  0.1166
  H  H151  1  0.512900  0.738500  0.738500  1.0  0.1254
  H  H152  1  0.082700  0.565200  0.269400  1.0  0.1292
  H  H153  1  0.998800  0.844000  0.365600  1.0  0.0891
  H  H154  1  0.752000  0.380200  0.907800  1.0  0.1006
  H  H155  1  0.208400  0.634400  0.156000  1.0  0.0868
  H  H156  1  0.450200  0.688800  0.172200  1.0  0.1205
  H  H157  1  0.354900  0.781700  0.781700  1.0  0.1157
  H  H158  1  0.261500  0.989900  0.487100  1.0  0.1257
  H  H159  1  0.989900  0.487100  0.261500  1.0  0.125
  H  H160  1  0.248000  0.040000  0.619800  1.0  0.1002
  H  H161  1  0.001200  0.208400  0.634400  1.0  0.0865
  H  H162  1  0.450200  0.688800  0.688800  1.0  0.1213
  H  H163  1  0.827800  0.311200  0.549800  1.0  0.1196
  H  H164  1  0.218300  0.218300  0.918300  1.0  0.1153
  H  H165  1  0.512900  0.010100  0.738500  1.0  0.1251
  H  H166  1  0.738500  0.738500  0.010100  1.0  0.1274
  H  H167  1  0.917300  0.730600  0.917300  1.0  0.1288
  H  H168  1  0.960000  0.380200  0.907800  1.0  0.1001
  H  H169  1  0.634400  0.001200  0.156000  1.0  0.0854
  H  H170  1  0.918300  0.218300  0.218300  1.0  0.1148
  H  H171  1  0.619800  0.092200  0.248000  1.0  0.1001
  H  H172  1  0.645100  0.218300  0.918300  1.0  0.1164
  H  H173  1  0.752000  0.380200  0.960000  1.0  0.1002
  H  H174  1  0.269400  0.082700  0.565200  1.0  0.1297
  H  H175  1  0.565200  0.269400  0.082700  1.0  0.1269
  H  H176  1  0.311200  0.827800  0.549800  1.0  0.1209
  H  H177  1  0.040000  0.619800  0.092200  1.0  0.1002
  H  H178  1  0.549800  0.311200  0.311200  1.0  0.12
  H  H179  1  0.688800  0.450200  0.172200  1.0  0.12
  H  H180  1  0.092200  0.248000  0.619800  1.0  0.1009
  H  H181  1  0.248000  0.040000  0.092200  1.0  0.1
  H  H182  1  0.844000  0.791600  0.998800  1.0  0.0876
  H  H183  1  0.365600  0.998800  0.791600  1.0  0.0854
  H  H184  1  0.156000  0.208400  0.001200  1.0  0.085
  H  H185  1  0.172200  0.688800  0.450200  1.0  0.1192
  H  H186  1  0.907800  0.380200  0.960000  1.0  0.1018
  H  H187  1  0.619800  0.092200  0.040000  1.0  0.0978
  H  H188  1  0.781700  0.781700  0.354900  1.0  0.1147
  H  H189  1  0.730600  0.434800  0.917300  1.0  0.1303
  H  H190  1  0.218300  0.918300  0.645100  1.0  0.1173
  H  H191  1  0.827800  0.311200  0.311200  1.0  0.1195
  H  H192  1  0.001200  0.208400  0.156000  1.0  0.0846
  H  H193  1  0.010100  0.512900  0.738500  1.0  0.126
  H  H194  1  0.092200  0.619800  0.040000  1.0  0.0986
  H  H195  1  0.634400  0.156000  0.208400  1.0  0.088
  H  H196  1  0.844000  0.365600  0.791600  1.0  0.0843
  H  H197  1  0.365600  0.844000  0.791600  1.0  0.0883
  H  H198  1  0.040000  0.092200  0.248000  1.0  0.101
  H  H199  1  0.434800  0.730600  0.917300  1.0  0.1269
  H  H200  1  0.781700  0.354900  0.781700  1.0  0.1155
  H  H201  1  0.738500  0.010100  0.738500  1.0  0.1251
  H  H202  1  0.688800  0.172200  0.450200  1.0  0.121
  H  H203  1  0.092200  0.040000  0.248000  1.0  0.101
  H  H204  1  0.001200  0.634400  0.156000  1.0  0.0852
  H  H205  1  0.156000  0.001200  0.208400  1.0  0.0867
  H  H206  1  0.960000  0.752000  0.380200  1.0  0.0986
  H  H207  1  0.634400  0.156000  0.001200  1.0  0.0867
  H  H208  1  0.960000  0.907800  0.752000  1.0  0.1021
  H  H209  1  0.619800  0.248000  0.092200  1.0  0.1001
  H  H210  1  0.311200  0.549800  0.311200  1.0  0.1198
  H  H211  1  0.907800  0.752000  0.960000  1.0  0.1007
  H  H212  1  0.645100  0.218300  0.218300  1.0  0.1161
  H  H213  1  0.752000  0.907800  0.960000  1.0  0.1007
  H  H214  1  0.634400  0.208400  0.001200  1.0  0.0883
  H  H215  1  0.781700  0.354900  0.081700  1.0  0.116
  H  H216  1  0.092200  0.619800  0.248000  1.0  0.1011
  H  H217  1  0.989900  0.261500  0.261500  1.0  0.1249
  H  H218  1  0.040000  0.092200  0.619800  1.0  0.1004
  H  H219  1  0.998800  0.365600  0.791600  1.0  0.0837
  H  H220  1  0.261500  0.487100  0.989900  1.0  0.1257
  C  C221  1  0.839800  0.839800  0.402800  1.0  -0.0539
  C  C222  1  0.160200  0.597200  0.082400  1.0  -0.0555
  C  C223  1  0.922100  0.922100  0.756900  1.0  -0.3713
  C  C224  1  0.597200  0.160200  0.082400  1.0  -0.0575
  C  C225  1  0.017100  0.184500  0.613900  1.0  0.03
  C  C226  1  0.264400  0.651200  0.264400  1.0  0.7175
  C  C227  1  0.292300  0.862100  0.292300  1.0  0.0103
  C  C228  1  0.601100  0.077900  0.243100  1.0  -0.3748
  C  C229  1  0.763600  0.432800  0.040000  1.0  0.3079
  C  C230  1  0.264400  0.264400  0.651200  1.0  0.7183
  C  C231  1  0.915700  0.236900  0.236900  1.0  -0.2265
  C  C232  1  0.516700  0.262700  0.262700  1.0  -0.0899
  C  C233  1  0.184500  0.017100  0.184500  1.0  0.0294
  C  C234  1  0.236900  0.610500  0.236900  1.0  -0.2267
  C  C235  1  0.398900  0.922100  0.756900  1.0  -0.3721
  C  C236  1  0.137900  0.707700  0.707700  1.0  0.0112
  C  C237  1  0.763600  0.763600  0.432800  1.0  0.302
  C  C238  1  0.133160  0.735100  0.735100  1.0  -0.0977
  C  C239  1  0.292300  0.553300  0.292300  1.0  0.0098
  C  C240  1  0.133160  0.735100  0.396640  1.0  -0.097
  C  C241  1  0.907600  0.292400  0.292400  1.0  -0.1541
  C  C242  1  0.077900  0.077900  0.601100  1.0  -0.3725
  C  C243  1  0.292400  0.907600  0.507600  1.0  -0.1561
  C  C244  1  0.707700  0.446700  0.137900  1.0  0.0088
  C  C245  1  0.077900  0.243100  0.077900  1.0  -0.3707
  C  C246  1  0.597200  0.108200  0.186400  1.0  0.0477
  C  C247  1  0.321800  0.321800  0.453000  1.0  0.711
  C  C248  1  0.446700  0.137900  0.707700  1.0  0.0102
  C  C249  1  0.982900  0.815500  0.815500  1.0  0.0316
  C  C250  1  0.092400  0.707600  0.707600  1.0  -0.1549
  C  C251  1  0.553300  0.862100  0.292300  1.0  0.0108
  C  C252  1  0.678200  0.547000  0.096600  1.0  0.7109
  C  C253  1  0.084300  0.763100  0.389500  1.0  -0.2284
  C  C254  1  0.243100  0.077900  0.601100  1.0  -0.3701
  C  C255  1  0.756900  0.922100  0.398900  1.0  -0.3705
  C  C256  1  0.737300  0.737300  0.042100  1.0  -0.0872
  C  C257  1  0.907600  0.292400  0.507600  1.0  -0.1551
  C  C258  1  0.567200  0.236400  0.960000  1.0  0.3072
  C  C259  1  0.737300  0.483300  0.042100  1.0  -0.0905
  C  C260  1  0.108200  0.597200  0.108200  1.0  0.0488
  C  C261  1  0.262700  0.957900  0.516700  1.0  -0.089
  C  C262  1  0.601100  0.243100  0.077900  1.0  -0.3705
  C  C263  1  0.735600  0.180000  0.735600  1.0  0.7172
  C  C264  1  0.597200  0.186400  0.108200  1.0  0.0428
  C  C265  1  0.678200  0.678200  0.096600  1.0  0.7125
  C  C266  1  0.402800  0.839800  0.839800  1.0  -0.0563
  C  C267  1  0.547000  0.678200  0.678200  1.0  0.7131
  C  C268  1  0.957900  0.262700  0.516700  1.0  -0.0868
  C  C269  1  0.160200  0.160200  0.082400  1.0  -0.0531
  C  C270  1  0.108200  0.186400  0.597200  1.0  0.0441
  C  C271  1  0.763100  0.763100  0.084300  1.0  -0.2235
  C  C272  1  0.492400  0.707600  0.707600  1.0  -0.1539
  C  C273  1  0.396640  0.735100  0.735100  1.0  -0.0989
  C  C274  1  0.815500  0.982900  0.815500  1.0  0.032
  C  C275  1  0.077900  0.601100  0.077900  1.0  -0.3708
  C  C276  1  0.866840  0.603360  0.264900  1.0  -0.0983
  C  C277  1  0.082400  0.160200  0.160200  1.0  -0.057
  C  C278  1  0.492400  0.707600  0.092400  1.0  -0.154
  C  C279  1  0.264400  0.820000  0.264400  1.0  0.7162
  C  C280  1  0.957900  0.516700  0.262700  1.0  -0.0895
  C  C281  1  0.763600  0.040000  0.763600  1.0  0.3074
  C  C282  1  0.820000  0.651200  0.264400  1.0  0.7171
  C  C283  1  0.292400  0.907600  0.292400  1.0  -0.1549
  C  C284  1  0.389500  0.084300  0.763100  1.0  -0.2259
  C  C285  1  0.096600  0.678200  0.678200  1.0  0.7125
  C  C286  1  0.292400  0.292400  0.907600  1.0  -0.1557
  C  C287  1  0.160200  0.597200  0.160200  1.0  -0.0553
  C  C288  1  0.402800  0.891800  0.813600  1.0  0.0471
  C  C289  1  0.160200  0.082400  0.597200  1.0  -0.0568
  C  C290  1  0.815500  0.815500  0.982900  1.0  0.0261
  C  C291  1  0.763600  0.432800  0.763600  1.0  0.3082
  C  C292  1  0.180000  0.348800  0.735600  1.0  0.7155
  C  C293  1  0.108200  0.108200  0.597200  1.0  0.0465
  C  C294  1  0.707700  0.707700  0.137900  1.0  0.0107
  C  C295  1  0.236900  0.610500  0.915700  1.0  -0.2265
  C  C296  1  0.077900  0.077900  0.243100  1.0  -0.3727
  C  C297  1  0.082400  0.597200  0.160200  1.0  -0.0583
  C  C298  1  0.386100  0.815500  0.982900  1.0  0.0314
  C  C299  1  0.707600  0.092400  0.707600  1.0  -0.1548
  C  C300  1  0.813600  0.402800  0.891800  1.0  0.0442
  C  C301  1  0.707600  0.707600  0.492400  1.0  -0.1534
  C  C302  1  0.133160  0.396640  0.735100  1.0  -0.0972
  C  C303  1  0.763100  0.084300  0.389500  1.0  -0.2263
  C  C304  1  0.402800  0.891800  0.891800  1.0  0.0456
  C  C305  1  0.613900  0.184500  0.017100  1.0  0.0306
  C  C306  1  0.839800  0.402800  0.839800  1.0  -0.0562
  C  C307  1  0.891800  0.813600  0.402800  1.0  0.0439
  C  C308  1  0.839800  0.402800  0.917600  1.0  -0.0556
  C  C309  1  0.603360  0.264900  0.866840  1.0  -0.0981
  C  C310  1  0.678200  0.678200  0.547000  1.0  0.7136
  C  C311  1  0.735600  0.348800  0.180000  1.0  0.7167
  C  C312  1  0.922100  0.922100  0.398900  1.0  -0.3709
  C  C313  1  0.236400  0.567200  0.960000  1.0  0.3073
  C  C314  1  0.096600  0.678200  0.547000  1.0  0.7116
  C  C315  1  0.516700  0.262700  0.957900  1.0  -0.0903
  C  C316  1  0.236900  0.915700  0.610500  1.0  -0.2275
  C  C317  1  0.264400  0.651200  0.820000  1.0  0.7175
  C  C318  1  0.321800  0.321800  0.903400  1.0  0.7112
  C  C319  1  0.813600  0.891800  0.402800  1.0  0.0456
  C  C320  1  0.077900  0.243100  0.601100  1.0  -0.3712
  C  C321  1  0.137900  0.707700  0.446700  1.0  0.0117
  C  C322  1  0.553300  0.292300  0.292300  1.0  0.0077
  C  C323  1  0.236400  0.567200  0.236400  1.0  0.3068
  C  C324  1  0.839800  0.917600  0.839800  1.0  -0.0582
  C  C325  1  0.960000  0.567200  0.236400  1.0  0.3068
  C  C326  1  0.184500  0.017100  0.613900  1.0  0.0331
  C  C327  1  0.903400  0.453000  0.321800  1.0  0.7124
  C  C328  1  0.262700  0.516700  0.957900  1.0  -0.0918
  C  C329  1  0.348800  0.735600  0.735600  1.0  0.7152
  C  C330  1  0.735100  0.133160  0.396640  1.0  -0.0968
  C  C331  1  0.813600  0.891800  0.891800  1.0  0.0469
  C  C332  1  0.402800  0.917600  0.839800  1.0  -0.0558
  C  C333  1  0.160200  0.160200  0.597200  1.0  -0.0534
  C  C334  1  0.735600  0.735600  0.180000  1.0  0.7195
  C  C335  1  0.891800  0.891800  0.813600  1.0  0.0465
  C  C336  1  0.613900  0.184500  0.184500  1.0  0.0323
  C  C337  1  0.180000  0.735600  0.735600  1.0  0.7163
  C  C338  1  0.432800  0.040000  0.763600  1.0  0.3071
  C  C339  1  0.292400  0.292400  0.507600  1.0  -0.1554
  C  C340  1  0.398900  0.922100  0.922100  1.0  -0.3724
  C  C341  1  0.735600  0.348800  0.735600  1.0  0.7175
  C  C342  1  0.042100  0.737300  0.483300  1.0  -0.0898
  C  C343  1  0.262700  0.262700  0.516700  1.0  -0.0876
  C  C344  1  0.735100  0.133160  0.735100  1.0  -0.0973
  C  C345  1  0.264900  0.603360  0.866840  1.0  -0.099
  C  C346  1  0.922100  0.756900  0.922100  1.0  -0.3706
  C  C347  1  0.567200  0.960000  0.236400  1.0  0.3067
  C  C348  1  0.453000  0.903400  0.321800  1.0  0.7129
  C  C349  1  0.108200  0.108200  0.186400  1.0  0.047
  C  C350  1  0.613900  0.017100  0.184500  1.0  0.0286
  C  C351  1  0.184500  0.184500  0.613900  1.0  0.026
  C  C352  1  0.763100  0.084300  0.763100  1.0  -0.2253
  C  C353  1  0.756900  0.398900  0.922100  1.0  -0.3719
  C  C354  1  0.243100  0.077900  0.077900  1.0  -0.3705
  C  C355  1  0.108200  0.186400  0.108200  1.0  0.0446
  C  C356  1  0.567200  0.236400  0.236400  1.0  0.3066
  C  C357  1  0.820000  0.264400  0.651200  1.0  0.7162
  C  C358  1  0.483300  0.737300  0.042100  1.0  -0.0873
  C  C359  1  0.707600  0.492400  0.707600  1.0  -0.1533
  C  C360  1  0.236400  0.236400  0.567200  1.0  0.3099
  C  C361  1  0.446700  0.707700  0.707700  1.0  0.0097
  C  C362  1  0.236900  0.236900  0.610500  1.0  -0.2254
  C  C363  1  0.262700  0.262700  0.957900  1.0  -0.0886
  C  C364  1  0.402800  0.813600  0.891800  1.0  0.0424
  C  C365  1  0.264900  0.866840  0.603360  1.0  -0.0967
  C  C366  1  0.186400  0.108200  0.597200  1.0  0.0455
  C  C367  1  0.264900  0.866840  0.264900  1.0  -0.0967
  C  C368  1  0.236900  0.915700  0.236900  1.0  -0.2288
  C  C369  1  0.547000  0.096600  0.678200  1.0  0.7119
  C  C370  1  0.321800  0.453000  0.903400  1.0  0.712
  C  C371  1  0.040000  0.763600  0.432800  1.0  0.3097
  C  C372  1  0.903400  0.321800  0.321800  1.0  0.7114
  C  C373  1  0.186400  0.597200  0.108200  1.0  0.0457
  C  C374  1  0.236400  0.960000  0.567200  1.0  0.3076
  C  C375  1  0.866840  0.264900  0.603360  1.0  -0.0989
  C  C376  1  0.492400  0.092400  0.707600  1.0  -0.1537
  C  C377  1  0.866840  0.264900  0.264900  1.0  -0.0981
  C  C378  1  0.597200  0.082400  0.160200  1.0  -0.0567
  C  C379  1  0.891800  0.891800  0.402800  1.0  0.0452
  C  C380  1  0.982900  0.386100  0.815500  1.0  0.0305
  C  C381  1  0.763100  0.389500  0.763100  1.0  -0.2271
  C  C382  1  0.903400  0.321800  0.453000  1.0  0.7144
  C  C383  1  0.917600  0.839800  0.839800  1.0  -0.0575
  C  C384  1  0.610500  0.236900  0.236900  1.0  -0.2277
  C  C385  1  0.017100  0.184500  0.184500  1.0  0.0305
  C  C386  1  0.264900  0.264900  0.603360  1.0  -0.1
  C  C387  1  0.262700  0.516700  0.262700  1.0  -0.092
  C  C388  1  0.922100  0.756900  0.398900  1.0  -0.3703
  C  C389  1  0.236400  0.236400  0.960000  1.0  0.309
  C  C390  1  0.891800  0.402800  0.813600  1.0  0.0481
  C  C391  1  0.483300  0.042100  0.737300  1.0  -0.0886
  C  C392  1  0.321800  0.903400  0.321800  1.0  0.7128
  C  C393  1  0.042100  0.483300  0.737300  1.0  -0.0931
  C  C394  1  0.839800  0.839800  0.917600  1.0  -0.0546
  C  C395  1  0.960000  0.236400  0.567200  1.0  0.3073
  C  C396  1  0.815500  0.982900  0.386100  1.0  0.03
  C  C397  1  0.651200  0.264400  0.264400  1.0  0.7156
  C  C398  1  0.917600  0.839800  0.402800  1.0  -0.0571
  C  C399  1  0.389500  0.763100  0.084300  1.0  -0.2266
  C  C400  1  0.707700  0.137900  0.446700  1.0  0.0079
  C  C401  1  0.735100  0.735100  0.133160  1.0  -0.0998
  C  C402  1  0.446700  0.707700  0.137900  1.0  0.0088
  C  C403  1  0.922100  0.398900  0.756900  1.0  -0.3725
  C  C404  1  0.862100  0.292300  0.292300  1.0  0.0105
  C  C405  1  0.507600  0.907600  0.292400  1.0  -0.153
  C  C406  1  0.922100  0.398900  0.922100  1.0  -0.3726
  C  C407  1  0.707600  0.492400  0.092400  1.0  -0.1534
  C  C408  1  0.982900  0.815500  0.386100  1.0  0.029
  C  C409  1  0.386100  0.982900  0.815500  1.0  0.0336
  C  C410  1  0.737300  0.042100  0.483300  1.0  -0.0916
  C  C411  1  0.756900  0.922100  0.922100  1.0  -0.3704
  C  C412  1  0.292400  0.507600  0.292400  1.0  -0.1546
  C  C413  1  0.264400  0.820000  0.651200  1.0  0.7173
  C  C414  1  0.737300  0.483300  0.737300  1.0  -0.0907
  C  C415  1  0.321800  0.903400  0.453000  1.0  0.7153
  C  C416  1  0.236400  0.960000  0.236400  1.0  0.308
  C  C417  1  0.891800  0.813600  0.891800  1.0  0.044
  C  C418  1  0.092400  0.492400  0.707600  1.0  -0.1549
  C  C419  1  0.862100  0.553300  0.292300  1.0  0.0126
  C  C420  1  0.960000  0.236400  0.236400  1.0  0.308
  C  C421  1  0.651200  0.264400  0.820000  1.0  0.7153
  C  C422  1  0.815500  0.386100  0.982900  1.0  0.0349
  C  C423  1  0.184500  0.184500  0.017100  1.0  0.0267
  C  C424  1  0.820000  0.264400  0.264400  1.0  0.7167
  C  C425  1  0.292300  0.292300  0.553300  1.0  0.0104
  C  C426  1  0.348800  0.735600  0.180000  1.0  0.7155
  C  C427  1  0.547000  0.678200  0.096600  1.0  0.7116
  C  C428  1  0.601100  0.077900  0.077900  1.0  -0.3733
  C  C429  1  0.292300  0.862100  0.553300  1.0  0.01
  C  C430  1  0.096600  0.547000  0.678200  1.0  0.7122
  C  C431  1  0.957900  0.262700  0.262700  1.0  -0.0875
  C  C432  1  0.735100  0.396640  0.735100  1.0  -0.0998
  C  C433  1  0.184500  0.613900  0.017100  1.0  0.0348
  C  C434  1  0.180000  0.735600  0.348800  1.0  0.7157
  C  C435  1  0.735100  0.735100  0.396640  1.0  -0.1004
  C  C436  1  0.763100  0.763100  0.389500  1.0  -0.2258
  C  C437  1  0.516700  0.957900  0.262700  1.0  -0.0907
  C  C438  1  0.108200  0.597200  0.186400  1.0  0.047
  C  C439  1  0.735100  0.396640  0.133160  1.0  -0.1006
  C  C440  1  0.907600  0.507600  0.292400  1.0  -0.1534
  C  C441  1  0.707700  0.707700  0.446700  1.0  0.0106
  C  C442  1  0.735600  0.735600  0.348800  1.0  0.7192
  C  C443  1  0.264900  0.264900  0.866840  1.0  -0.1001
  C  C444  1  0.017100  0.613900  0.184500  1.0  0.0317
  C  C445  1  0.610500  0.236900  0.915700  1.0  -0.2278
  C  C446  1  0.603360  0.264900  0.264900  1.0  -0.0997
  C  C447  1  0.815500  0.386100  0.815500  1.0  0.034
  C  C448  1  0.386100  0.815500  0.815500  1.0  0.0338
  C  C449  1  0.507600  0.292400  0.907600  1.0  -0.1529
  C  C450  1  0.763600  0.763600  0.040000  1.0  0.3094
  C  C451  1  0.184500  0.613900  0.184500  1.0  0.0324
  C  C452  1  0.160200  0.082400  0.160200  1.0  -0.0567
  C  C453  1  0.432800  0.763600  0.040000  1.0  0.3068
  C  C454  1  0.707700  0.137900  0.707700  1.0  0.009
  C  C455  1  0.678200  0.547000  0.678200  1.0  0.7106
  C  C456  1  0.707700  0.446700  0.707700  1.0  0.0109
  C  C457  1  0.651200  0.820000  0.264400  1.0  0.7155
  C  C458  1  0.040000  0.763600  0.763600  1.0  0.3095
  C  C459  1  0.597200  0.160200  0.160200  1.0  -0.0571
  C  C460  1  0.321800  0.453000  0.321800  1.0  0.7116
  C  C461  1  0.348800  0.180000  0.735600  1.0  0.7151
  C  C462  1  0.915700  0.236900  0.610500  1.0  -0.2258
  C  C463  1  0.396640  0.735100  0.133160  1.0  -0.0991
  C  C464  1  0.092400  0.707600  0.492400  1.0  -0.1534
  C  C465  1  0.707600  0.707600  0.092400  1.0  -0.1533
  C  C466  1  0.292300  0.292300  0.862100  1.0  0.0112
  C  C467  1  0.597200  0.108200  0.108200  1.0  0.0489
  C  C468  1  0.917600  0.402800  0.839800  1.0  -0.0549
  C  C469  1  0.264400  0.264400  0.820000  1.0  0.7181
  C  C470  1  0.678200  0.096600  0.678200  1.0  0.7135
  C  C471  1  0.610500  0.915700  0.236900  1.0  -0.225
  C  C472  1  0.236900  0.236900  0.915700  1.0  -0.2272
  C  C473  1  0.763600  0.040000  0.432800  1.0  0.3083
  C  C474  1  0.862100  0.292300  0.553300  1.0  0.0112
  C  C475  1  0.915700  0.610500  0.236900  1.0  -0.2258
  C  C476  1  0.186400  0.108200  0.108200  1.0  0.0463
  C  C477  1  0.507600  0.292400  0.292400  1.0  -0.1531
  C  C478  1  0.839800  0.917600  0.402800  1.0  -0.0583
  C  C479  1  0.398900  0.756900  0.922100  1.0  -0.3693
  C  C480  1  0.483300  0.737300  0.737300  1.0  -0.0874
  C  C481  1  0.042100  0.737300  0.737300  1.0  -0.0891
  C  C482  1  0.084300  0.389500  0.763100  1.0  -0.2273
  C  C483  1  0.264900  0.603360  0.264900  1.0  -0.0993
  C  C484  1  0.603360  0.866840  0.264900  1.0  -0.0977
  C  C485  1  0.453000  0.321800  0.321800  1.0  0.71
  C  C486  1  0.678200  0.096600  0.547000  1.0  0.7107
  C  C487  1  0.082400  0.160200  0.597200  1.0  -0.0569
  C  C488  1  0.763100  0.389500  0.084300  1.0  -0.2268
  C  C489  1  0.084300  0.763100  0.763100  1.0  -0.2272
  C  C490  1  0.077900  0.601100  0.243100  1.0  -0.3722
  C  C491  1  0.453000  0.321800  0.903400  1.0  0.7121
  C  C492  1  0.815500  0.815500  0.386100  1.0  0.0295
  C  C493  1  0.243100  0.601100  0.077900  1.0  -0.3708
  C  C494  1  0.737300  0.737300  0.483300  1.0  -0.0887
  C  C495  1  0.707600  0.092400  0.492400  1.0  -0.1536
  C  C496  1  0.137900  0.446700  0.707700  1.0  0.012
  C  C497  1  0.040000  0.432800  0.763600  1.0  0.3085
  C  C498  1  0.737300  0.042100  0.737300  1.0  -0.0919
  C  C499  1  0.432800  0.763600  0.763600  1.0  0.3072
  C  C500  1  0.735600  0.180000  0.348800  1.0  0.7176
  C  C501  1  0.891800  0.402800  0.891800  1.0  0.0465
  C  C502  1  0.292300  0.553300  0.862100  1.0  0.0099
  C  C503  1  0.553300  0.292300  0.862100  1.0  0.0091
  C  C504  1  0.292400  0.507600  0.907600  1.0  -0.1545
  C  C505  1  0.402800  0.839800  0.917600  1.0  -0.0562
  C  C506  1  0.262700  0.957900  0.262700  1.0  -0.0893
  C  C507  1  0.389500  0.763100  0.763100  1.0  -0.2269
  C  C508  1  0.396640  0.133160  0.735100  1.0  -0.0974
  O  O509  1  0.290900  0.643780  0.290900  1.0  -0.6224
  O  O510  1  0.317300  0.417700  0.947700  1.0  -0.618
  O  O511  1  0.774420  0.643780  0.290900  1.0  -0.6252
  O  O512  1  0.290900  0.290900  0.643780  1.0  -0.6234
  O  O513  1  0.052300  0.682700  0.582300  1.0  -0.6199
  O  O514  1  0.417700  0.947700  0.317300  1.0  -0.6214
  O  O515  1  0.987300  0.432100  0.790300  1.0  -0.3614
  O  O516  1  0.759700  0.305200  0.175400  1.0  -0.5818
  O  O517  1  0.655800  0.550660  0.137740  1.0  -0.5472
  O  O518  1  0.137740  0.550660  0.655800  1.0  -0.554
  O  O519  1  0.225580  0.709100  0.356220  1.0  -0.6239
  O  O520  1  0.790300  0.790300  0.987300  1.0  -0.3604
  O  O521  1  0.709100  0.709100  0.225580  1.0  -0.6241
  O  O522  1  0.305200  0.175400  0.759700  1.0  -0.5822
  O  O523  1  0.417700  0.317300  0.317300  1.0  -0.6168
  O  O524  1  0.012700  0.209700  0.567900  1.0  -0.361
  O  O525  1  0.317300  0.317300  0.947700  1.0  -0.6157
  O  O526  1  0.137740  0.655800  0.550660  1.0  -0.5567
  O  O527  1  0.582300  0.052300  0.682700  1.0  -0.6164
  O  O528  1  0.759700  0.175400  0.759700  1.0  -0.5813
  O  O529  1  0.774420  0.290900  0.290900  1.0  -0.6246
  O  O530  1  0.759700  0.175400  0.305200  1.0  -0.5825
  O  O531  1  0.305200  0.759700  0.175400  1.0  -0.5813
  O  O532  1  0.175400  0.305200  0.759700  1.0  -0.5823
  O  O533  1  0.655800  0.137740  0.550660  1.0  -0.5529
  O  O534  1  0.317300  0.947700  0.417700  1.0  -0.6204
  O  O535  1  0.947700  0.417700  0.317300  1.0  -0.6173
  O  O536  1  0.240300  0.824600  0.240300  1.0  -0.5811
  O  O537  1  0.643780  0.290900  0.774420  1.0  -0.625
  O  O538  1  0.550660  0.655800  0.137740  1.0  -0.5485
  O  O539  1  0.790300  0.790300  0.432100  1.0  -0.3589
  O  O540  1  0.682700  0.052300  0.682700  1.0  -0.6183
  O  O541  1  0.987300  0.790300  0.432100  1.0  -0.3597
  O  O542  1  0.417700  0.317300  0.947700  1.0  -0.6186
  O  O543  1  0.449340  0.862260  0.344200  1.0  -0.5529
  O  O544  1  0.209700  0.012700  0.567900  1.0  -0.3594
  O  O545  1  0.305200  0.759700  0.759700  1.0  -0.581
  O  O546  1  0.582300  0.682700  0.052300  1.0  -0.6153
  O  O547  1  0.290900  0.643780  0.774420  1.0  -0.6226
  O  O548  1  0.175400  0.759700  0.759700  1.0  -0.5818
  O  O549  1  0.317300  0.947700  0.317300  1.0  -0.6204
  O  O550  1  0.175400  0.759700  0.305200  1.0  -0.5816
  O  O551  1  0.225580  0.709100  0.709100  1.0  -0.6244
  O  O552  1  0.824600  0.240300  0.240300  1.0  -0.5817
  O  O553  1  0.344200  0.862260  0.449340  1.0  -0.5512
  O  O554  1  0.824600  0.240300  0.694800  1.0  -0.5812
  O  O555  1  0.694800  0.824600  0.240300  1.0  -0.5828
  O  O556  1  0.759700  0.759700  0.175400  1.0  -0.5829
  O  O557  1  0.209700  0.012700  0.209700  1.0  -0.358
  O  O558  1  0.290900  0.774420  0.290900  1.0  -0.6242
  O  O559  1  0.682700  0.682700  0.582300  1.0  -0.6148
  O  O560  1  0.550660  0.137740  0.655800  1.0  -0.5533
  O  O561  1  0.449340  0.344200  0.344200  1.0  -0.5481
  O  O562  1  0.052300  0.682700  0.682700  1.0  -0.6202
  O  O563  1  0.356220  0.709100  0.709100  1.0  -0.6225
  O  O564  1  0.567900  0.209700  0.012700  1.0  -0.3644
  O  O565  1  0.550660  0.655800  0.655800  1.0  -0.5541
  O  O566  1  0.137740  0.655800  0.655800  1.0  -0.5561
  O  O567  1  0.790300  0.987300  0.432100  1.0  -0.359
  O  O568  1  0.655800  0.655800  0.550660  1.0  -0.5547
  O  O569  1  0.824600  0.694800  0.240300  1.0  -0.5827
  O  O570  1  0.643780  0.774420  0.290900  1.0  -0.6238
  O  O571  1  0.209700  0.567900  0.012700  1.0  -0.3597
  O  O572  1  0.655800  0.655800  0.137740  1.0  -0.5528
  O  O573  1  0.356220  0.225580  0.709100  1.0  -0.6226
  O  O574  1  0.790300  0.432100  0.790300  1.0  -0.3634
  O  O575  1  0.317300  0.417700  0.317300  1.0  -0.6167
  O  O576  1  0.432100  0.790300  0.790300  1.0  -0.3595
  O  O577  1  0.694800  0.240300  0.240300  1.0  -0.5822
  O  O578  1  0.209700  0.209700  0.012700  1.0  -0.359
  O  O579  1  0.694800  0.240300  0.824600  1.0  -0.5816
  O  O580  1  0.682700  0.582300  0.052300  1.0  -0.6167
  O  O581  1  0.582300  0.682700  0.682700  1.0  -0.6152
  O  O582  1  0.862260  0.344200  0.344200  1.0  -0.5553
  O  O583  1  0.862260  0.449340  0.344200  1.0  -0.5556
  O  O584  1  0.344200  0.449340  0.862260  1.0  -0.5539
  O  O585  1  0.709100  0.225580  0.356220  1.0  -0.625
  O  O586  1  0.759700  0.305200  0.759700  1.0  -0.5814
  O  O587  1  0.947700  0.317300  0.417700  1.0  -0.6189
  O  O588  1  0.655800  0.550660  0.655800  1.0  -0.5534
  O  O589  1  0.344200  0.862260  0.344200  1.0  -0.5518
  O  O590  1  0.290900  0.774420  0.643780  1.0  -0.6242
  O  O591  1  0.240300  0.824600  0.694800  1.0  -0.5815
  O  O592  1  0.790300  0.987300  0.790300  1.0  -0.361
  O  O593  1  0.759700  0.759700  0.305200  1.0  -0.583
  O  O594  1  0.012700  0.567900  0.209700  1.0  -0.3596
  O  O595  1  0.790300  0.432100  0.987300  1.0  -0.3631
  O  O596  1  0.209700  0.209700  0.567900  1.0  -0.3603
  O  O597  1  0.709100  0.356220  0.225580  1.0  -0.6224
  O  O598  1  0.709100  0.709100  0.356220  1.0  -0.6243
  O  O599  1  0.012700  0.209700  0.209700  1.0  -0.3594
  O  O600  1  0.240300  0.240300  0.824600  1.0  -0.5825
  O  O601  1  0.709100  0.225580  0.709100  1.0  -0.6255
  O  O602  1  0.432100  0.790300  0.987300  1.0  -0.3599
  O  O603  1  0.567900  0.012700  0.209700  1.0  -0.3645
  O  O604  1  0.052300  0.582300  0.682700  1.0  -0.6204
  O  O605  1  0.567900  0.209700  0.209700  1.0  -0.3639
  O  O606  1  0.862260  0.344200  0.449340  1.0  -0.5553
  O  O607  1  0.774420  0.290900  0.643780  1.0  -0.6256
  O  O608  1  0.655800  0.137740  0.655800  1.0  -0.5526
  O  O609  1  0.344200  0.449340  0.344200  1.0  -0.5474
  O  O610  1  0.240300  0.694800  0.824600  1.0  -0.5808
  O  O611  1  0.682700  0.682700  0.052300  1.0  -0.6156
  O  O612  1  0.240300  0.694800  0.240300  1.0  -0.5808
  O  O613  1  0.356220  0.709100  0.225580  1.0  -0.6219
  O  O614  1  0.947700  0.317300  0.317300  1.0  -0.6186
  O  O615  1  0.344200  0.344200  0.862260  1.0  -0.5548
  O  O616  1  0.432100  0.987300  0.790300  1.0  -0.3619
  O  O617  1  0.682700  0.052300  0.582300  1.0  -0.6184
  O  O618  1  0.987300  0.790300  0.790300  1.0  -0.3609
  O  O619  1  0.209700  0.567900  0.209700  1.0  -0.3597
  O  O620  1  0.317300  0.317300  0.417700  1.0  -0.6168
  O  O621  1  0.225580  0.356220  0.709100  1.0  -0.622
  O  O622  1  0.643780  0.290900  0.290900  1.0  -0.6229
  O  O623  1  0.344200  0.344200  0.449340  1.0  -0.5528
  O  O624  1  0.709100  0.356220  0.709100  1.0  -0.6235
  O  O625  1  0.290900  0.290900  0.774420  1.0  -0.6238
  O  O626  1  0.240300  0.240300  0.694800  1.0  -0.5821
  O  O627  1  0.449340  0.344200  0.862260  1.0  -0.5547
  O  O628  1  0.682700  0.582300  0.682700  1.0  -0.6162
