# generated using pymatgen
data_CdH6(CN3)3
_symmetry_space_group_name_H-M   'P 1'
_cell_length_a   13.06280000
_cell_length_b   13.06280000
_cell_length_c   13.52200000
_cell_angle_alpha   90.00000000
_cell_angle_beta   90.00000000
_cell_angle_gamma   120.00000000
_symmetry_Int_Tables_number   1
_chemical_formula_structural   CdH6(CN3)3
_chemical_formula_sum   'Cd10 H60 C30 N90'
_cell_volume   1998.22375890
_cell_formula_units_Z   10
loop_
 _symmetry_equiv_pos_site_id
 _symmetry_equiv_pos_as_xyz
  1  'x, y, z'
loop_
 _atom_site_type_symbol
 _atom_site_label
 _atom_site_symmetry_multiplicity
 _atom_site_fract_x
 _atom_site_fract_y
 _atom_site_fract_z
 _atom_site_occupancy
 _atom_site_charge
  Cd  Cd1  1  0.666667  0.333333  0.100950  1.0  0.685
  Cd  Cd2  1  0.666667  0.333333  0.399050  1.0  0.685
  Cd  Cd3  1  0.500000  0.500000  0.500000  1.0  0.6722
  Cd  Cd4  1  0.333333  0.666667  0.899050  1.0  0.685
  Cd  Cd5  1  0.500000  0.500000  0.000000  1.0  0.6722
  Cd  Cd6  1  0.000000  0.500000  0.500000  1.0  0.6722
  Cd  Cd7  1  0.500000  0.000000  0.500000  1.0  0.6722
  Cd  Cd8  1  0.333333  0.666667  0.600950  1.0  0.685
  Cd  Cd9  1  0.000000  0.500000  0.000000  1.0  0.6722
  Cd  Cd10  1  0.500000  0.000000  0.000000  1.0  0.6722
  H  H11  1  0.967000  0.258000  0.138500  1.0  0.2906
  H  H12  1  0.208300  0.043500  0.666900  1.0  0.184
  H  H13  1  0.835200  0.043500  0.833100  1.0  0.1876
  H  H14  1  0.956500  0.164800  0.666900  1.0  0.1862
  H  H15  1  0.742000  0.709000  0.361500  1.0  0.3033
  H  H16  1  0.411900  0.823800  0.194900  1.0  0.3037
  H  H17  1  0.208300  0.164800  0.666900  1.0  0.1866
  H  H18  1  0.791700  0.956500  0.166900  1.0  0.1875
  H  H19  1  0.709000  0.967000  0.861500  1.0  0.3038
  H  H20  1  0.291000  0.258000  0.138500  1.0  0.2818
  H  H21  1  0.588100  0.176200  0.805100  1.0  0.3021
  H  H22  1  0.709000  0.967000  0.638500  1.0  0.3038
  H  H23  1  0.956500  0.791700  0.833100  1.0  0.1871
  H  H24  1  0.291000  0.258000  0.361500  1.0  0.2817
  H  H25  1  0.258000  0.967000  0.861500  1.0  0.3038
  H  H26  1  0.791700  0.956500  0.333100  1.0  0.1876
  H  H27  1  0.411900  0.823800  0.305100  1.0  0.3031
  H  H28  1  0.956500  0.164800  0.833100  1.0  0.1862
  H  H29  1  0.742000  0.709000  0.138500  1.0  0.3032
  H  H30  1  0.258000  0.967000  0.638500  1.0  0.3037
  H  H31  1  0.043500  0.208300  0.333100  1.0  0.1857
  H  H32  1  0.967000  0.258000  0.361500  1.0  0.2905
  H  H33  1  0.709000  0.742000  0.638500  1.0  0.2907
  H  H34  1  0.043500  0.208300  0.166900  1.0  0.1853
  H  H35  1  0.033000  0.291000  0.638500  1.0  0.3028
  H  H36  1  0.164800  0.208300  0.166900  1.0  0.1856
  H  H37  1  0.588100  0.411900  0.805100  1.0  0.3015
  H  H38  1  0.411900  0.588100  0.305100  1.0  0.3014
  H  H39  1  0.823800  0.411900  0.805100  1.0  0.3014
  H  H40  1  0.033000  0.742000  0.861500  1.0  0.2813
  H  H41  1  0.967000  0.709000  0.361500  1.0  0.3042
  H  H42  1  0.709000  0.742000  0.861500  1.0  0.2905
  H  H43  1  0.291000  0.033000  0.361500  1.0  0.3033
  H  H44  1  0.258000  0.291000  0.861500  1.0  0.304
  H  H45  1  0.033000  0.291000  0.861500  1.0  0.3026
  H  H46  1  0.164800  0.956500  0.333100  1.0  0.1857
  H  H47  1  0.835200  0.791700  0.666900  1.0  0.186
  H  H48  1  0.176200  0.588100  0.305100  1.0  0.3012
  H  H49  1  0.411900  0.588100  0.194900  1.0  0.3021
  H  H50  1  0.208300  0.043500  0.833100  1.0  0.1847
  H  H51  1  0.588100  0.411900  0.694900  1.0  0.3018
  H  H52  1  0.043500  0.835200  0.166900  1.0  0.1876
  H  H53  1  0.791700  0.835200  0.166900  1.0  0.187
  H  H54  1  0.033000  0.742000  0.638500  1.0  0.2815
  H  H55  1  0.742000  0.033000  0.138500  1.0  0.3031
  H  H56  1  0.258000  0.291000  0.638500  1.0  0.3041
  H  H57  1  0.742000  0.033000  0.361500  1.0  0.303
  H  H58  1  0.791700  0.835200  0.333100  1.0  0.1872
  H  H59  1  0.043500  0.835200  0.333100  1.0  0.1884
  H  H60  1  0.823800  0.411900  0.694900  1.0  0.3021
  H  H61  1  0.208300  0.164800  0.833100  1.0  0.1874
  H  H62  1  0.835200  0.043500  0.666900  1.0  0.1877
  H  H63  1  0.588100  0.176200  0.694900  1.0  0.3032
  H  H64  1  0.164800  0.956500  0.166900  1.0  0.185
  H  H65  1  0.291000  0.033000  0.138500  1.0  0.3035
  H  H66  1  0.967000  0.709000  0.138500  1.0  0.3042
  H  H67  1  0.835200  0.791700  0.833100  1.0  0.1864
  H  H68  1  0.176200  0.588100  0.194900  1.0  0.3016
  H  H69  1  0.164800  0.208300  0.333100  1.0  0.186
  H  H70  1  0.956500  0.791700  0.666900  1.0  0.1866
  C  C71  1  0.223300  0.349900  0.085900  1.0  0.335
  C  C72  1  0.650100  0.873400  0.414100  1.0  0.3394
  C  C73  1  0.508000  0.492000  0.750000  1.0  0.5661
  C  C74  1  0.492000  0.508000  0.250000  1.0  0.5663
  C  C75  1  0.776700  0.126600  0.914100  1.0  0.3397
  C  C76  1  0.126600  0.776700  0.414100  1.0  0.3383
  C  C77  1  0.650100  0.776700  0.085900  1.0  0.3393
  C  C78  1  0.650100  0.776700  0.414100  1.0  0.3391
  C  C79  1  0.349900  0.126600  0.585900  1.0  0.3411
  C  C80  1  0.984000  0.492000  0.750000  1.0  0.5664
  C  C81  1  0.873400  0.223300  0.914100  1.0  0.3401
  C  C82  1  0.016000  0.508000  0.250000  1.0  0.566
  C  C83  1  0.126600  0.776700  0.085900  1.0  0.3395
  C  C84  1  0.650100  0.873400  0.085900  1.0  0.3394
  C  C85  1  0.223300  0.349900  0.414100  1.0  0.3351
  C  C86  1  0.776700  0.650100  0.585900  1.0  0.328
  C  C87  1  0.126600  0.349900  0.414100  1.0  0.331
  C  C88  1  0.776700  0.126600  0.585900  1.0  0.3357
  C  C89  1  0.223300  0.873400  0.414100  1.0  0.3402
  C  C90  1  0.873400  0.650100  0.914100  1.0  0.3353
  C  C91  1  0.349900  0.223300  0.585900  1.0  0.3364
  C  C92  1  0.492000  0.984000  0.250000  1.0  0.5653
  C  C93  1  0.873400  0.223300  0.585900  1.0  0.3365
  C  C94  1  0.873400  0.650100  0.585900  1.0  0.3359
  C  C95  1  0.349900  0.126600  0.914100  1.0  0.341
  C  C96  1  0.349900  0.223300  0.914100  1.0  0.3404
  C  C97  1  0.126600  0.349900  0.085900  1.0  0.328
  C  C98  1  0.223300  0.873400  0.085900  1.0  0.3417
  C  C99  1  0.776700  0.650100  0.914100  1.0  0.3319
  C  C100  1  0.508000  0.016000  0.750000  1.0  0.5654
  N  N101  1  0.442900  0.140500  0.967200  1.0  -0.2638
  N  N102  1  0.837400  0.418700  0.205400  1.0  -0.0989
  N  N103  1  0.581300  0.418700  0.205400  1.0  -0.099
  N  N104  1  0.773000  0.739000  0.637000  1.0  -0.6488
  N  N105  1  0.302400  0.442900  0.467200  1.0  -0.2629
  N  N106  1  0.966000  0.739000  0.637000  1.0  -0.6449
  N  N107  1  0.430900  0.569100  0.250000  1.0  -0.7284
  N  N108  1  0.248600  0.751400  0.000800  1.0  -0.1511
  N  N109  1  0.475200  0.524800  0.668000  1.0  -0.3559
  N  N110  1  0.162600  0.581300  0.705400  1.0  -0.099
  N  N111  1  0.569100  0.138200  0.750000  1.0  -0.7302
  N  N112  1  0.442900  0.302400  0.967200  1.0  -0.2617
  N  N113  1  0.739000  0.773000  0.137000  1.0  -0.65
  N  N114  1  0.502800  0.751400  0.499200  1.0  -0.1509
  N  N115  1  0.524800  0.049600  0.168000  1.0  -0.3552
  N  N116  1  0.557100  0.697600  0.467200  1.0  -0.2614
  N  N117  1  0.497200  0.248600  0.500800  1.0  -0.1501
  N  N118  1  0.697600  0.140500  0.967200  1.0  -0.265
  N  N119  1  0.739000  0.773000  0.363000  1.0  -0.6481
  N  N120  1  0.751400  0.248600  0.500800  1.0  -0.1494
  N  N121  1  0.261000  0.034000  0.863000  1.0  -0.6474
  N  N122  1  0.859500  0.557100  0.967200  1.0  -0.2622
  N  N123  1  0.248600  0.497200  0.000800  1.0  -0.151
  N  N124  1  0.248600  0.751400  0.499200  1.0  -0.1511
  N  N125  1  0.773000  0.034000  0.637000  1.0  -0.6467
  N  N126  1  0.950400  0.475200  0.168000  1.0  -0.3554
  N  N127  1  0.442900  0.140500  0.532800  1.0  -0.2634
  N  N128  1  0.302400  0.442900  0.032800  1.0  -0.2619
  N  N129  1  0.227000  0.261000  0.363000  1.0  -0.6436
  N  N130  1  0.261000  0.227000  0.637000  1.0  -0.65
  N  N131  1  0.049600  0.524800  0.668000  1.0  -0.3557
  N  N132  1  0.248600  0.497200  0.499200  1.0  -0.1527
  N  N133  1  0.697600  0.557100  0.967200  1.0  -0.2629
  N  N134  1  0.418700  0.837400  0.794600  1.0  -0.1013
  N  N135  1  0.430900  0.861800  0.250000  1.0  -0.7284
  N  N136  1  0.837400  0.418700  0.294600  1.0  -0.1017
  N  N137  1  0.475200  0.950400  0.668000  1.0  -0.3554
  N  N138  1  0.524800  0.049600  0.332000  1.0  -0.3551
  N  N139  1  0.418700  0.581300  0.705400  1.0  -0.0989
  N  N140  1  0.966000  0.739000  0.863000  1.0  -0.649
  N  N141  1  0.140500  0.697600  0.032800  1.0  -0.2606
  N  N142  1  0.140500  0.442900  0.032800  1.0  -0.2619
  N  N143  1  0.034000  0.261000  0.137000  1.0  -0.6456
  N  N144  1  0.475200  0.524800  0.832000  1.0  -0.3556
  N  N145  1  0.034000  0.773000  0.363000  1.0  -0.6481
  N  N146  1  0.697600  0.140500  0.532800  1.0  -0.2644
  N  N147  1  0.739000  0.966000  0.137000  1.0  -0.6479
  N  N148  1  0.581300  0.162600  0.294600  1.0  -0.1006
  N  N149  1  0.773000  0.034000  0.863000  1.0  -0.6486
  N  N150  1  0.966000  0.227000  0.637000  1.0  -0.6521
  N  N151  1  0.950400  0.475200  0.332000  1.0  -0.3552
  N  N152  1  0.442900  0.302400  0.532800  1.0  -0.2601
  N  N153  1  0.569100  0.430900  0.750000  1.0  -0.7283
  N  N154  1  0.418700  0.837400  0.705400  1.0  -0.0989
  N  N155  1  0.034000  0.773000  0.137000  1.0  -0.6517
  N  N156  1  0.227000  0.966000  0.363000  1.0  -0.647
  N  N157  1  0.557100  0.859500  0.467200  1.0  -0.2651
  N  N158  1  0.302400  0.859500  0.032800  1.0  -0.2635
  N  N159  1  0.751400  0.248600  0.999200  1.0  -0.1511
  N  N160  1  0.261000  0.227000  0.863000  1.0  -0.6476
  N  N161  1  0.859500  0.302400  0.532800  1.0  -0.2599
  N  N162  1  0.861800  0.430900  0.750000  1.0  -0.7287
  N  N163  1  0.773000  0.739000  0.863000  1.0  -0.6448
  N  N164  1  0.227000  0.261000  0.137000  1.0  -0.647
  N  N165  1  0.418700  0.581300  0.794600  1.0  -0.1021
  N  N166  1  0.302400  0.859500  0.467200  1.0  -0.2644
  N  N167  1  0.557100  0.859500  0.032800  1.0  -0.2639
  N  N168  1  0.227000  0.966000  0.137000  1.0  -0.6473
  N  N169  1  0.751400  0.502800  0.500800  1.0  -0.1509
  N  N170  1  0.581300  0.418700  0.294600  1.0  -0.1017
  N  N171  1  0.859500  0.557100  0.532800  1.0  -0.2619
  N  N172  1  0.138200  0.569100  0.250000  1.0  -0.7281
  N  N173  1  0.524800  0.475200  0.168000  1.0  -0.3554
  N  N174  1  0.697600  0.557100  0.532800  1.0  -0.2624
  N  N175  1  0.524800  0.475200  0.332000  1.0  -0.3553
  N  N176  1  0.502800  0.751400  0.000800  1.0  -0.1508
  N  N177  1  0.859500  0.302400  0.967200  1.0  -0.2615
  N  N178  1  0.581300  0.162600  0.205400  1.0  -0.0982
  N  N179  1  0.739000  0.966000  0.363000  1.0  -0.6482
  N  N180  1  0.497200  0.248600  0.999200  1.0  -0.1512
  N  N181  1  0.049600  0.524800  0.832000  1.0  -0.3557
  N  N182  1  0.966000  0.227000  0.863000  1.0  -0.6499
  N  N183  1  0.557100  0.697600  0.032800  1.0  -0.2608
  N  N184  1  0.034000  0.261000  0.363000  1.0  -0.6482
  N  N185  1  0.140500  0.442900  0.467200  1.0  -0.2634
  N  N186  1  0.751400  0.502800  0.999200  1.0  -0.1515
  N  N187  1  0.162600  0.581300  0.794600  1.0  -0.1021
  N  N188  1  0.140500  0.697600  0.467200  1.0  -0.261
  N  N189  1  0.261000  0.034000  0.637000  1.0  -0.6483
  N  N190  1  0.475200  0.950400  0.832000  1.0  -0.3548
