# generated using pymatgen
data_NaCe2H16(C8O9)2
_symmetry_space_group_name_H-M   'P 1'
_cell_length_a   9.89300000
_cell_length_b   12.12940000
_cell_length_c   16.31970000
_cell_angle_alpha   68.83340000
_cell_angle_beta   72.35620000
_cell_angle_gamma   65.93270000
_symmetry_Int_Tables_number   1
_chemical_formula_structural   NaCe2H16(C8O9)2
_chemical_formula_sum   'Na2 Ce4 H32 C32 O36'
_cell_volume   1639.25973982
_cell_formula_units_Z   2
loop_
 _symmetry_equiv_pos_site_id
 _symmetry_equiv_pos_as_xyz
  1  'x, y, z'
loop_
 _atom_site_type_symbol
 _atom_site_label
 _atom_site_symmetry_multiplicity
 _atom_site_fract_x
 _atom_site_fract_y
 _atom_site_fract_z
 _atom_site_occupancy
 _atom_site_charge
  Na  Na1  1  0.894300  0.250000  0.750000  1.0  0.9717
  Na  Na2  1  0.105700  0.750000  0.250000  1.0  0.9699
  Ce  Ce3  1  0.051760  0.464820  0.206080  1.0  2.2331
  Ce  Ce4  1  0.277340  0.964820  0.706080  1.0  2.2327
  Ce  Ce5  1  0.948240  0.535180  0.793920  1.0  2.2335
  Ce  Ce6  1  0.722660  0.035180  0.293920  1.0  2.2327
  H  H7  1  0.412700  0.521100  0.880900  1.0  0.127
  H  H8  1  0.092000  0.657000  0.849000  1.0  0.425
  H  H9  1  0.943000  0.707000  0.839000  1.0  0.4048
  H  H10  1  0.818100  0.911800  0.550000  1.0  0.1252
  H  H11  1  0.937900  0.400400  0.545000  1.0  0.0966
  H  H12  1  0.752000  0.619700  0.499300  1.0  0.1385
  H  H13  1  0.720100  0.411800  0.050000  1.0  0.1246
  H  H14  1  0.279900  0.588200  0.950000  1.0  0.1257
  H  H15  1  0.057000  0.293000  0.161000  1.0  0.4036
  H  H16  1  0.129000  0.119700  0.999300  1.0  0.1329
  H  H17  1  0.451800  0.631500  0.996500  1.0  0.0933
  H  H18  1  0.598000  0.843000  0.651000  1.0  0.4242
  H  H19  1  0.172100  0.331500  0.453500  1.0  0.1352
  H  H20  1  0.181900  0.088200  0.450000  1.0  0.1205
  H  H21  1  0.908000  0.343000  0.151000  1.0  0.424
  H  H22  1  0.079800  0.868500  0.503500  1.0  0.0942
  H  H23  1  0.489000  0.793000  0.661000  1.0  0.4044
  H  H24  1  0.883300  0.099600  0.955000  1.0  0.0956
  H  H25  1  0.116700  0.900400  0.045000  1.0  0.0964
  H  H26  1  0.871000  0.880300  0.000700  1.0  0.1386
  H  H27  1  0.814700  0.978900  0.619100  1.0  0.1297
  H  H28  1  0.511000  0.207000  0.339000  1.0  0.4022
  H  H29  1  0.185300  0.021100  0.380900  1.0  0.1275
  H  H30  1  0.827900  0.668500  0.546500  1.0  0.1357
  H  H31  1  0.062100  0.599600  0.455000  1.0  0.0976
  H  H32  1  0.248000  0.380300  0.500700  1.0  0.1324
  H  H33  1  0.957100  0.168500  0.046500  1.0  0.135
  H  H34  1  0.402000  0.157000  0.349000  1.0  0.4238
  H  H35  1  0.548200  0.368500  0.003500  1.0  0.0926
  H  H36  1  0.587300  0.478900  0.119100  1.0  0.1283
  H  H37  1  0.042900  0.831500  0.953500  1.0  0.1349
  H  H38  1  0.920200  0.131500  0.496500  1.0  0.0947
  C  C39  1  0.639900  0.565400  0.906400  1.0  0.6327
  C  C40  1  0.902900  0.784300  0.663100  1.0  0.7103
  C  C41  1  0.111700  0.934600  0.593600  1.0  0.6344
  C  C42  1  0.208200  0.218100  0.577700  1.0  0.7597
  C  C43  1  0.876500  0.910300  0.590300  1.0  -0.3491
  C  C44  1  0.377100  0.589700  0.909700  1.0  -0.3489
  C  C45  1  0.622900  0.410300  0.090300  1.0  -0.3488
  C  C46  1  0.976000  0.843800  0.010800  1.0  -0.3372
  C  C47  1  0.085800  0.035700  0.876700  1.0  0.6836
  C  C48  1  0.998200  0.464300  0.623300  1.0  0.6873
  C  C49  1  0.914200  0.964300  0.123300  1.0  0.6835
  C  C50  1  0.024000  0.156200  0.989200  1.0  -0.3387
  C  C51  1  0.360100  0.434600  0.093600  1.0  0.6325
  C  C52  1  0.004000  0.281900  0.922300  1.0  0.7504
  C  C53  1  0.510200  0.435300  0.035100  1.0  -0.1047
  C  C54  1  0.001800  0.535700  0.376700  1.0  0.6873
  C  C55  1  0.019400  0.935300  0.535100  1.0  -0.1051
  C  C56  1  0.996000  0.718100  0.077700  1.0  0.7515
  C  C57  1  0.830600  0.656200  0.489200  1.0  -0.3353
  C  C58  1  0.489800  0.564700  0.964900  1.0  -0.103
  C  C59  1  0.016200  0.437300  0.537300  1.0  -0.1098
  C  C60  1  0.983800  0.562700  0.462700  1.0  -0.1098
  C  C61  1  0.888300  0.065400  0.406400  1.0  0.6337
  C  C62  1  0.097100  0.215700  0.336900  1.0  0.7087
  C  C63  1  0.980600  0.064700  0.464900  1.0  -0.1049
  C  C64  1  0.649700  0.284300  0.163100  1.0  0.7105
  C  C65  1  0.169400  0.343800  0.510800  1.0  -0.3354
  C  C66  1  0.791800  0.781900  0.422300  1.0  0.7606
  C  C67  1  0.350300  0.715700  0.836900  1.0  0.7086
  C  C68  1  0.123500  0.089700  0.409700  1.0  -0.3492
  C  C69  1  0.990800  0.062700  0.962700  1.0  -0.1082
  C  C70  1  0.009200  0.937300  0.037300  1.0  -0.1087
  O  O71  1  0.714500  0.626400  0.912200  1.0  -0.6142
  O  O72  1  0.210900  0.252600  0.297200  1.0  -0.6278
  O  O73  1  0.789100  0.747400  0.702800  1.0  -0.6258
  O  O74  1  0.007600  0.295700  0.840700  1.0  -0.7462
  O  O75  1  0.875800  0.463800  0.681600  1.0  -0.7698
  O  O76  1  0.144000  0.204300  0.659300  1.0  -0.75
  O  O77  1  0.028100  0.723200  0.682200  1.0  -0.6179
  O  O78  1  0.253100  0.873600  0.587800  1.0  -0.6128
  O  O79  1  0.224500  0.008700  0.863300  1.0  -0.6289
  O  O80  1  0.993400  0.375500  0.946700  1.0  -0.669
  O  O81  1  0.746900  0.126400  0.412200  1.0  -0.6155
  O  O82  1  0.566500  0.223200  0.182200  1.0  -0.6179
  O  O83  1  0.684400  0.875500  0.446700  1.0  -0.668
  O  O84  1  0.315600  0.124500  0.553300  1.0  -0.6696
  O  O85  1  0.433500  0.776800  0.817800  1.0  -0.6182
  O  O86  1  0.096500  0.491300  0.636700  1.0  -0.633
  O  O87  1  0.124200  0.536200  0.318400  1.0  -0.7685
  O  O88  1  0.992400  0.704300  0.159300  1.0  -0.7463
  O  O89  1  0.021200  0.036200  0.818400  1.0  -0.7726
  O  O90  1  0.903500  0.508700  0.363300  1.0  -0.6318
  O  O91  1  0.006600  0.624500  0.053300  1.0  -0.6673
  O  O92  1  0.856000  0.795700  0.340700  1.0  -0.7513
  O  O93  1  0.303500  0.503400  0.148200  1.0  -0.6561
  O  O94  1  0.044900  0.003400  0.648200  1.0  -0.6559
  O  O95  1  0.239300  0.752600  0.797200  1.0  -0.6288
  O  O96  1  0.285500  0.373600  0.087800  1.0  -0.6136
  O  O97  1  0.467200  0.156000  0.373600  1.0  -0.8081
  O  O98  1  0.696500  0.496600  0.851800  1.0  -0.6587
  O  O99  1  0.955100  0.996600  0.351800  1.0  -0.6564
  O  O100  1  0.978800  0.963800  0.181600  1.0  -0.7723
  O  O101  1  0.532800  0.844000  0.626400  1.0  -0.8086
  O  O102  1  0.775500  0.991300  0.136700  1.0  -0.6306
  O  O103  1  0.971900  0.276800  0.317800  1.0  -0.6175
  O  O104  1  0.003200  0.656000  0.873600  1.0  -0.8094
  O  O105  1  0.996800  0.344000  0.126400  1.0  -0.8103
  O  O106  1  0.760700  0.247400  0.202800  1.0  -0.6283
