# generated using pymatgen
data_CuH3(CN2)3
_symmetry_space_group_name_H-M   'P 1'
_cell_length_a   12.36340000
_cell_length_b   12.36340000
_cell_length_c   12.53900000
_cell_angle_alpha   90.00000000
_cell_angle_beta   90.00000000
_cell_angle_gamma   120.00000000
_symmetry_Int_Tables_number   1
_chemical_formula_structural   CuH3(CN2)3
_chemical_formula_sum   'Cu10 H30 C30 N60'
_cell_volume   1659.85203394
_cell_formula_units_Z   10
loop_
 _symmetry_equiv_pos_site_id
 _symmetry_equiv_pos_as_xyz
  1  'x, y, z'
loop_
 _atom_site_type_symbol
 _atom_site_label
 _atom_site_symmetry_multiplicity
 _atom_site_fract_x
 _atom_site_fract_y
 _atom_site_fract_z
 _atom_site_occupancy
 _atom_site_charge
  Cu  Cu1  1  0.333333  0.666667  0.100000  1.0  0.5697
  Cu  Cu2  1  0.333333  0.666667  0.400000  1.0  0.5702
  Cu  Cu3  1  0.000000  0.500000  0.500000  1.0  0.4401
  Cu  Cu4  1  0.500000  0.000000  0.000000  1.0  0.4401
  Cu  Cu5  1  0.666667  0.333333  0.900000  1.0  0.5702
  Cu  Cu6  1  0.500000  0.500000  0.000000  1.0  0.4401
  Cu  Cu7  1  0.500000  0.500000  0.500000  1.0  0.4401
  Cu  Cu8  1  0.000000  0.500000  0.000000  1.0  0.4401
  Cu  Cu9  1  0.500000  0.000000  0.500000  1.0  0.4401
  Cu  Cu10  1  0.666667  0.333333  0.600000  1.0  0.5697
  H  H11  1  0.106700  0.553350  0.750000  1.0  0.1323
  H  H12  1  0.446650  0.553350  0.750000  1.0  0.1322
  H  H13  1  0.553350  0.106700  0.250000  1.0  0.133
  H  H14  1  0.290200  0.240400  0.369000  1.0  0.1224
  H  H15  1  0.709800  0.759600  0.631000  1.0  0.1217
  H  H16  1  0.893300  0.446650  0.250000  1.0  0.1323
  H  H17  1  0.290200  0.240400  0.131000  1.0  0.1226
  H  H18  1  0.240400  0.290200  0.869000  1.0  0.1236
  H  H19  1  0.240400  0.950200  0.631000  1.0  0.123
  H  H20  1  0.240400  0.290200  0.631000  1.0  0.1236
  H  H21  1  0.240400  0.950200  0.869000  1.0  0.1231
  H  H22  1  0.553350  0.446650  0.250000  1.0  0.1323
  H  H23  1  0.950200  0.709800  0.369000  1.0  0.1232
  H  H24  1  0.759600  0.049800  0.131000  1.0  0.123
  H  H25  1  0.049800  0.759600  0.869000  1.0  0.1223
  H  H26  1  0.290200  0.049800  0.131000  1.0  0.1236
  H  H27  1  0.709800  0.950200  0.869000  1.0  0.1228
  H  H28  1  0.446650  0.893300  0.750000  1.0  0.134
  H  H29  1  0.759600  0.709800  0.369000  1.0  0.1231
  H  H30  1  0.709800  0.950200  0.631000  1.0  0.1223
  H  H31  1  0.950200  0.240400  0.131000  1.0  0.1222
  H  H32  1  0.950200  0.240400  0.369000  1.0  0.122
  H  H33  1  0.709800  0.759600  0.869000  1.0  0.1218
  H  H34  1  0.759600  0.709800  0.131000  1.0  0.1229
  H  H35  1  0.290200  0.049800  0.369000  1.0  0.123
  H  H36  1  0.759600  0.049800  0.369000  1.0  0.1229
  H  H37  1  0.049800  0.290200  0.869000  1.0  0.1232
  H  H38  1  0.049800  0.290200  0.631000  1.0  0.1233
  H  H39  1  0.950200  0.709800  0.131000  1.0  0.123
  H  H40  1  0.049800  0.759600  0.631000  1.0  0.1222
  C  C41  1  0.123100  0.774300  0.905600  1.0  0.06
  C  C42  1  0.123100  0.348800  0.905600  1.0  0.0581
  C  C43  1  0.651200  0.876900  0.905600  1.0  0.0595
  C  C44  1  0.774300  0.123100  0.405600  1.0  0.0597
  C  C45  1  0.225700  0.876900  0.905600  1.0  0.06
  C  C46  1  0.491000  0.982000  0.750000  1.0  0.193
  C  C47  1  0.491000  0.509000  0.750000  1.0  0.1911
  C  C48  1  0.774300  0.123100  0.094400  1.0  0.0604
  C  C49  1  0.651200  0.774300  0.594400  1.0  0.0612
  C  C50  1  0.018000  0.509000  0.750000  1.0  0.1927
  C  C51  1  0.348800  0.225700  0.094400  1.0  0.0597
  C  C52  1  0.774300  0.651200  0.094400  1.0  0.0578
  C  C53  1  0.348800  0.123100  0.094400  1.0  0.0601
  C  C54  1  0.123100  0.348800  0.594400  1.0  0.0584
  C  C55  1  0.876900  0.225700  0.094400  1.0  0.0609
  C  C56  1  0.876900  0.225700  0.405600  1.0  0.0606
  C  C57  1  0.225700  0.348800  0.594400  1.0  0.0583
  C  C58  1  0.225700  0.876900  0.594400  1.0  0.0595
  C  C59  1  0.876900  0.651200  0.405600  1.0  0.0583
  C  C60  1  0.774300  0.651200  0.405600  1.0  0.0578
  C  C61  1  0.651200  0.876900  0.594400  1.0  0.0597
  C  C62  1  0.123100  0.774300  0.594400  1.0  0.06
  C  C63  1  0.509000  0.018000  0.250000  1.0  0.192
  C  C64  1  0.509000  0.491000  0.250000  1.0  0.193
  C  C65  1  0.876900  0.651200  0.094400  1.0  0.0584
  C  C66  1  0.982000  0.491000  0.250000  1.0  0.1915
  C  C67  1  0.348800  0.225700  0.405600  1.0  0.0597
  C  C68  1  0.225700  0.348800  0.905600  1.0  0.0578
  C  C69  1  0.348800  0.123100  0.405600  1.0  0.0601
  C  C70  1  0.651200  0.774300  0.905600  1.0  0.061
  N  N71  1  0.173700  0.586850  0.303900  1.0  -0.1845
  N  N72  1  0.413150  0.826300  0.196100  1.0  -0.1852
  N  N73  1  0.133600  0.445600  0.533900  1.0  -0.2565
  N  N74  1  0.527300  0.054600  0.835000  1.0  -0.1121
  N  N75  1  0.586850  0.173700  0.803900  1.0  -0.1848
  N  N76  1  0.472700  0.527300  0.165000  1.0  -0.1104
  N  N77  1  0.251750  0.503500  0.497900  1.0  -0.1277
  N  N78  1  0.586850  0.413150  0.696100  1.0  -0.1849
  N  N79  1  0.133600  0.445600  0.966100  1.0  -0.2566
  N  N80  1  0.688000  0.133600  0.466100  1.0  -0.2564
  N  N81  1  0.866400  0.554400  0.466100  1.0  -0.2576
  N  N82  1  0.866400  0.312000  0.466100  1.0  -0.2546
  N  N83  1  0.586850  0.173700  0.696100  1.0  -0.185
  N  N84  1  0.312000  0.445600  0.966100  1.0  -0.2571
  N  N85  1  0.688000  0.554400  0.033900  1.0  -0.2567
  N  N86  1  0.554400  0.688000  0.966100  1.0  -0.2555
  N  N87  1  0.866400  0.312000  0.033900  1.0  -0.2549
  N  N88  1  0.866400  0.554400  0.033900  1.0  -0.2574
  N  N89  1  0.688000  0.133600  0.033900  1.0  -0.2563
  N  N90  1  0.133600  0.688000  0.533900  1.0  -0.2554
  N  N91  1  0.945400  0.472700  0.665000  1.0  -0.1105
  N  N92  1  0.251750  0.503500  0.002100  1.0  -0.1278
  N  N93  1  0.748250  0.251750  0.997900  1.0  -0.1274
  N  N94  1  0.527300  0.054600  0.665000  1.0  -0.1105
  N  N95  1  0.054600  0.527300  0.335000  1.0  -0.1125
  N  N96  1  0.826300  0.413150  0.696100  1.0  -0.1857
  N  N97  1  0.413150  0.826300  0.303900  1.0  -0.1848
  N  N98  1  0.133600  0.688000  0.966100  1.0  -0.2555
  N  N99  1  0.312000  0.866400  0.533900  1.0  -0.2565
  N  N100  1  0.251750  0.748250  0.497900  1.0  -0.1281
  N  N101  1  0.445600  0.133600  0.033900  1.0  -0.2569
  N  N102  1  0.312000  0.866400  0.966100  1.0  -0.2567
  N  N103  1  0.554400  0.866400  0.533900  1.0  -0.2559
  N  N104  1  0.445600  0.312000  0.466100  1.0  -0.2554
  N  N105  1  0.312000  0.445600  0.533900  1.0  -0.2571
  N  N106  1  0.945400  0.472700  0.835000  1.0  -0.1119
  N  N107  1  0.472700  0.945400  0.165000  1.0  -0.1106
  N  N108  1  0.748250  0.496500  0.997900  1.0  -0.1283
  N  N109  1  0.554400  0.866400  0.966100  1.0  -0.2562
  N  N110  1  0.413150  0.586850  0.303900  1.0  -0.1855
  N  N111  1  0.503500  0.251750  0.502100  1.0  -0.1285
  N  N112  1  0.586850  0.413150  0.803900  1.0  -0.1844
  N  N113  1  0.496500  0.748250  0.497900  1.0  -0.1277
  N  N114  1  0.688000  0.554400  0.466100  1.0  -0.2568
  N  N115  1  0.413150  0.586850  0.196100  1.0  -0.1857
  N  N116  1  0.826300  0.413150  0.803900  1.0  -0.1853
  N  N117  1  0.054600  0.527300  0.165000  1.0  -0.1108
  N  N118  1  0.496500  0.748250  0.002100  1.0  -0.128
  N  N119  1  0.748250  0.496500  0.502100  1.0  -0.1285
  N  N120  1  0.527300  0.472700  0.665000  1.0  -0.1109
  N  N121  1  0.472700  0.527300  0.335000  1.0  -0.1119
  N  N122  1  0.554400  0.688000  0.533900  1.0  -0.2556
  N  N123  1  0.472700  0.945400  0.335000  1.0  -0.1122
  N  N124  1  0.173700  0.586850  0.196100  1.0  -0.1848
  N  N125  1  0.445600  0.312000  0.033900  1.0  -0.2554
  N  N126  1  0.527300  0.472700  0.835000  1.0  -0.1126
  N  N127  1  0.748250  0.251750  0.502100  1.0  -0.1283
  N  N128  1  0.445600  0.133600  0.466100  1.0  -0.2569
  N  N129  1  0.503500  0.251750  0.997900  1.0  -0.1277
  N  N130  1  0.251750  0.748250  0.002100  1.0  -0.1283
