# generated using pymatgen
data_FeH12(C2N3)6
_symmetry_space_group_name_H-M   'P 1'
_cell_length_a   10.97100000
_cell_length_b   10.97100000
_cell_length_c   35.51700000
_cell_angle_alpha   90.00000000
_cell_angle_beta   90.00000000
_cell_angle_gamma   120.00000000
_symmetry_Int_Tables_number   1
_chemical_formula_structural   FeH12(C2N3)6
_chemical_formula_sum   'Fe6 H72 C72 N108'
_cell_volume   3702.19540193
_cell_formula_units_Z   6
loop_
 _symmetry_equiv_pos_site_id
 _symmetry_equiv_pos_as_xyz
  1  'x, y, z'
loop_
 _atom_site_type_symbol
 _atom_site_label
 _atom_site_symmetry_multiplicity
 _atom_site_fract_x
 _atom_site_fract_y
 _atom_site_fract_z
 _atom_site_occupancy
 _atom_site_charge
  Fe  Fe1  1  0.000000  0.000000  0.000000  1.0  0.3939
  Fe  Fe2  1  0.666667  0.333333  0.333333  1.0  0.4072
  Fe  Fe3  1  0.333333  0.666667  0.666667  1.0  0.4078
  Fe  Fe4  1  0.666667  0.333333  0.833330  1.0  0.5133
  Fe  Fe5  1  0.333333  0.666667  0.166670  1.0  0.5132
  Fe  Fe6  1  0.000000  0.000000  0.500000  1.0  0.5084
  H  H7  1  0.252000  0.944000  0.026000  1.0  0.0805
  H  H8  1  0.320000  0.200000  0.112000  1.0  0.0652
  H  H9  1  0.570000  0.064000  0.070000  1.0  0.076
  H  H10  1  0.221000  0.866000  0.128000  1.0  0.0957
  H  H11  1  0.918670  0.277330  0.359330  1.0  0.0805
  H  H12  1  0.986670  0.533330  0.445330  1.0  0.0675
  H  H13  1  0.236670  0.397330  0.403330  1.0  0.076
  H  H14  1  0.887670  0.199330  0.461330  1.0  0.0957
  H  H15  1  0.585330  0.610670  0.692670  1.0  0.0805
  H  H16  1  0.653330  0.866670  0.778670  1.0  0.0652
  H  H17  1  0.903330  0.730670  0.736670  1.0  0.076
  H  H18  1  0.554330  0.532670  0.794670  1.0  0.0957
  H  H19  1  0.056000  0.308000  0.026000  1.0  0.0824
  H  H20  1  0.800000  0.120000  0.112000  1.0  0.0683
  H  H21  1  0.936000  0.506000  0.070000  1.0  0.077
  H  H22  1  0.134000  0.355000  0.128000  1.0  0.094
  H  H23  1  0.722670  0.641330  0.359330  1.0  0.0824
  H  H24  1  0.466670  0.453330  0.445330  1.0  0.0684
  H  H25  1  0.602670  0.839330  0.403330  1.0  0.077
  H  H26  1  0.800670  0.688330  0.461330  1.0  0.094
  H  H27  1  0.389330  0.974670  0.692670  1.0  0.0824
  H  H28  1  0.133330  0.786670  0.778670  1.0  0.0683
  H  H29  1  0.269330  0.172670  0.736670  1.0  0.077
  H  H30  1  0.467330  0.021670  0.794670  1.0  0.094
  H  H31  1  0.692000  0.748000  0.026000  1.0  0.0794
  H  H32  1  0.880000  0.680000  0.112000  1.0  0.0681
  H  H33  1  0.494000  0.430000  0.070000  1.0  0.0762
  H  H34  1  0.645000  0.779000  0.128000  1.0  0.0939
  H  H35  1  0.358670  0.081330  0.359330  1.0  0.0794
  H  H36  1  0.546670  0.013330  0.445330  1.0  0.0652
  H  H37  1  0.160670  0.763330  0.403330  1.0  0.0762
  H  H38  1  0.311670  0.112330  0.461330  1.0  0.0939
  H  H39  1  0.025330  0.414670  0.692670  1.0  0.0794
  H  H40  1  0.213330  0.346670  0.778670  1.0  0.0681
  H  H41  1  0.827330  0.096670  0.736670  1.0  0.0762
  H  H42  1  0.978330  0.445670  0.794670  1.0  0.0939
  H  H43  1  0.748000  0.056000  0.974000  1.0  0.0807
  H  H44  1  0.680000  0.800000  0.888000  1.0  0.065
  H  H45  1  0.430000  0.936000  0.930000  1.0  0.0779
  H  H46  1  0.779000  0.134000  0.872000  1.0  0.096
  H  H47  1  0.414670  0.389330  0.307330  1.0  0.0807
  H  H48  1  0.346670  0.133330  0.221330  1.0  0.065
  H  H49  1  0.096670  0.269330  0.263330  1.0  0.0779
  H  H50  1  0.445670  0.467330  0.205330  1.0  0.096
  H  H51  1  0.081330  0.722670  0.640670  1.0  0.0807
  H  H52  1  0.013330  0.466670  0.554670  1.0  0.0674
  H  H53  1  0.763330  0.602670  0.596670  1.0  0.0779
  H  H54  1  0.112330  0.800670  0.538670  1.0  0.096
  H  H55  1  0.944000  0.692000  0.974000  1.0  0.0827
  H  H56  1  0.200000  0.880000  0.888000  1.0  0.0678
  H  H57  1  0.064000  0.494000  0.930000  1.0  0.0771
  H  H58  1  0.866000  0.645000  0.872000  1.0  0.0937
  H  H59  1  0.610670  0.025330  0.307330  1.0  0.0827
  H  H60  1  0.866670  0.213330  0.221330  1.0  0.0678
  H  H61  1  0.730670  0.827330  0.263330  1.0  0.0771
  H  H62  1  0.532670  0.978330  0.205330  1.0  0.0937
  H  H63  1  0.277330  0.358670  0.640670  1.0  0.0827
  H  H64  1  0.533330  0.546670  0.554670  1.0  0.068
  H  H65  1  0.397330  0.160670  0.596670  1.0  0.0771
  H  H66  1  0.199330  0.311670  0.538670  1.0  0.0937
  H  H67  1  0.308000  0.252000  0.974000  1.0  0.0799
  H  H68  1  0.120000  0.320000  0.888000  1.0  0.0675
  H  H69  1  0.506000  0.570000  0.930000  1.0  0.0777
  H  H70  1  0.355000  0.221000  0.872000  1.0  0.0944
  H  H71  1  0.974670  0.585330  0.307330  1.0  0.0799
  H  H72  1  0.786670  0.653330  0.221330  1.0  0.0675
  H  H73  1  0.172670  0.903330  0.263330  1.0  0.0777
  H  H74  1  0.021670  0.554330  0.205330  1.0  0.0944
  H  H75  1  0.641330  0.918670  0.640670  1.0  0.0799
  H  H76  1  0.453330  0.986670  0.554670  1.0  0.0646
  H  H77  1  0.839330  0.236670  0.596670  1.0  0.0777
  H  H78  1  0.688330  0.887670  0.538670  1.0  0.0944
  C  C79  1  0.248900  0.013200  0.041900  1.0  0.086
  C  C80  1  0.284900  0.154500  0.088700  1.0  0.0863
  C  C81  1  0.503200  0.005600  0.089100  1.0  0.1007
  C  C82  1  0.312900  0.895400  0.122000  1.0  0.1321
  C  C83  1  0.915570  0.346530  0.375230  1.0  0.086
  C  C84  1  0.951570  0.487830  0.422030  1.0  0.0863
  C  C85  1  0.169870  0.338930  0.422430  1.0  0.1007
  C  C86  1  0.979570  0.228730  0.455330  1.0  0.1321
  C  C87  1  0.582230  0.679870  0.708570  1.0  0.086
  C  C88  1  0.618230  0.821170  0.755370  1.0  0.0863
  C  C89  1  0.836530  0.672270  0.755770  1.0  0.1007
  C  C90  1  0.646230  0.562070  0.788670  1.0  0.1321
  C  C91  1  0.986800  0.235700  0.041900  1.0  0.0867
  C  C92  1  0.845500  0.130400  0.088700  1.0  0.086
  C  C93  1  0.994400  0.497600  0.089100  1.0  0.1
  C  C94  1  0.104600  0.417500  0.122000  1.0  0.1327
  C  C95  1  0.653470  0.569030  0.375230  1.0  0.0867
  C  C96  1  0.512170  0.463730  0.422030  1.0  0.086
  C  C97  1  0.661070  0.830930  0.422430  1.0  0.0999
  C  C98  1  0.771270  0.750830  0.455330  1.0  0.1327
  C  C99  1  0.320130  0.902370  0.708570  1.0  0.0867
  C  C100  1  0.178830  0.797070  0.755370  1.0  0.086
  C  C101  1  0.327730  0.164270  0.755770  1.0  0.1
  C  C102  1  0.437930  0.084170  0.788670  1.0  0.1326
  C  C103  1  0.764300  0.751100  0.041900  1.0  0.0872
  C  C104  1  0.869600  0.715100  0.088700  1.0  0.0867
  C  C105  1  0.502400  0.496800  0.089100  1.0  0.0978
  C  C106  1  0.582500  0.687100  0.122000  1.0  0.1309
  C  C107  1  0.430970  0.084430  0.375230  1.0  0.0872
  C  C108  1  0.536270  0.048430  0.422030  1.0  0.0867
  C  C109  1  0.169070  0.830130  0.422430  1.0  0.0977
  C  C110  1  0.249170  0.020430  0.455330  1.0  0.1309
  C  C111  1  0.097630  0.417770  0.708570  1.0  0.0872
  C  C112  1  0.202930  0.381770  0.755370  1.0  0.0867
  C  C113  1  0.835730  0.163470  0.755770  1.0  0.0978
  C  C114  1  0.915830  0.353770  0.788670  1.0  0.1309
  C  C115  1  0.751100  0.986800  0.958100  1.0  0.0881
  C  C116  1  0.715100  0.845500  0.911300  1.0  0.0862
  C  C117  1  0.496800  0.994400  0.910900  1.0  0.1002
  C  C118  1  0.687100  0.104600  0.878000  1.0  0.1309
  C  C119  1  0.417770  0.320130  0.291430  1.0  0.0881
  C  C120  1  0.381770  0.178830  0.244630  1.0  0.0862
  C  C121  1  0.163470  0.327730  0.244230  1.0  0.1002
  C  C122  1  0.353770  0.437930  0.211330  1.0  0.1309
  C  C123  1  0.084430  0.653470  0.624770  1.0  0.0881
  C  C124  1  0.048430  0.512170  0.577970  1.0  0.0862
  C  C125  1  0.830130  0.661070  0.577570  1.0  0.1002
  C  C126  1  0.020430  0.771270  0.544670  1.0  0.1309
  C  C127  1  0.013200  0.764300  0.958100  1.0  0.0867
  C  C128  1  0.154500  0.869600  0.911300  1.0  0.086
  C  C129  1  0.005600  0.502400  0.910900  1.0  0.1004
  C  C130  1  0.895400  0.582500  0.878000  1.0  0.1326
  C  C131  1  0.679870  0.097630  0.291430  1.0  0.0867
  C  C132  1  0.821170  0.202930  0.244630  1.0  0.086
  C  C133  1  0.672270  0.835730  0.244230  1.0  0.1004
  C  C134  1  0.562070  0.915830  0.211330  1.0  0.1326
  C  C135  1  0.346530  0.430970  0.624770  1.0  0.0867
  C  C136  1  0.487830  0.536270  0.577970  1.0  0.086
  C  C137  1  0.338930  0.169070  0.577570  1.0  0.1003
  C  C138  1  0.228730  0.249170  0.544670  1.0  0.1326
  C  C139  1  0.235700  0.248900  0.958100  1.0  0.0876
  C  C140  1  0.130400  0.284900  0.911300  1.0  0.084
  C  C141  1  0.497600  0.503200  0.910900  1.0  0.0976
  C  C142  1  0.417500  0.312900  0.878000  1.0  0.1307
  C  C143  1  0.902370  0.582230  0.291430  1.0  0.0876
  C  C144  1  0.797070  0.618230  0.244630  1.0  0.084
  C  C145  1  0.164270  0.836530  0.244230  1.0  0.0976
  C  C146  1  0.084170  0.646230  0.211330  1.0  0.1307
  C  C147  1  0.569030  0.915570  0.624770  1.0  0.0876
  C  C148  1  0.463730  0.951570  0.577970  1.0  0.084
  C  C149  1  0.830930  0.169870  0.577570  1.0  0.0975
  C  C150  1  0.750830  0.979570  0.544670  1.0  0.1307
  N  N151  1  0.186700  0.084100  0.034650  1.0  -0.2109
  N  N152  1  0.209700  0.175200  0.064530  1.0  -0.3005
  N  N153  1  0.313700  0.055300  0.075560  1.0  0.0419
  N  N154  1  0.374700  0.991800  0.094840  1.0  0.0653
  N  N155  1  0.520100  0.923400  0.111700  1.0  -0.2854
  N  N156  1  0.397600  0.852200  0.132450  1.0  -0.1872
  N  N157  1  0.853370  0.417430  0.367980  1.0  -0.2109
  N  N158  1  0.876370  0.508530  0.397860  1.0  -0.3005
  N  N159  1  0.980370  0.388630  0.408890  1.0  0.0419
  N  N160  1  0.041370  0.325130  0.428170  1.0  0.0653
  N  N161  1  0.186770  0.256730  0.445030  1.0  -0.2853
  N  N162  1  0.064270  0.185530  0.465780  1.0  -0.1872
  N  N163  1  0.520030  0.750770  0.701320  1.0  -0.2109
  N  N164  1  0.543030  0.841870  0.731200  1.0  -0.3005
  N  N165  1  0.647030  0.721970  0.742230  1.0  0.0419
  N  N166  1  0.708030  0.658470  0.761510  1.0  0.0653
  N  N167  1  0.853430  0.590070  0.778370  1.0  -0.2854
  N  N168  1  0.730930  0.518870  0.799120  1.0  -0.1872
  N  N169  1  0.915900  0.102600  0.034650  1.0  -0.2104
  N  N170  1  0.824800  0.034500  0.064530  1.0  -0.3017
  N  N171  1  0.944700  0.258400  0.075560  1.0  0.0406
  N  N172  1  0.008200  0.382900  0.094840  1.0  0.0643
  N  N173  1  0.076600  0.596700  0.111700  1.0  -0.283
  N  N174  1  0.147800  0.545400  0.132450  1.0  -0.1884
  N  N175  1  0.582570  0.435930  0.367980  1.0  -0.2104
  N  N176  1  0.491470  0.367830  0.397860  1.0  -0.3017
  N  N177  1  0.611370  0.591730  0.408890  1.0  0.0406
  N  N178  1  0.674870  0.716230  0.428170  1.0  0.0643
  N  N179  1  0.743270  0.930030  0.445030  1.0  -0.2829
  N  N180  1  0.814470  0.878730  0.465780  1.0  -0.1883
  N  N181  1  0.249230  0.769270  0.701320  1.0  -0.2104
  N  N182  1  0.158130  0.701170  0.731200  1.0  -0.3017
  N  N183  1  0.278030  0.925070  0.742230  1.0  0.0406
  N  N184  1  0.341530  0.049570  0.761510  1.0  0.0643
  N  N185  1  0.409930  0.263370  0.778370  1.0  -0.283
  N  N186  1  0.481130  0.212070  0.799120  1.0  -0.1884
  N  N187  1  0.897400  0.813300  0.034650  1.0  -0.2102
  N  N188  1  0.965500  0.790300  0.064530  1.0  -0.3024
  N  N189  1  0.741600  0.686300  0.075560  1.0  0.0416
  N  N190  1  0.617100  0.625300  0.094840  1.0  0.0662
  N  N191  1  0.403300  0.479900  0.111700  1.0  -0.2835
  N  N192  1  0.454600  0.602400  0.132450  1.0  -0.1882
  N  N193  1  0.564070  0.146630  0.367980  1.0  -0.2102
  N  N194  1  0.632170  0.123630  0.397860  1.0  -0.3024
  N  N195  1  0.408270  0.019630  0.408890  1.0  0.0416
  N  N196  1  0.283770  0.958630  0.428170  1.0  0.0662
  N  N197  1  0.069970  0.813230  0.445030  1.0  -0.2834
  N  N198  1  0.121270  0.935730  0.465780  1.0  -0.1881
  N  N199  1  0.230730  0.479970  0.701320  1.0  -0.2102
  N  N200  1  0.298830  0.456970  0.731200  1.0  -0.3024
  N  N201  1  0.074930  0.352970  0.742230  1.0  0.0416
  N  N202  1  0.950430  0.291970  0.761510  1.0  0.0662
  N  N203  1  0.736630  0.146570  0.778370  1.0  -0.2835
  N  N204  1  0.787930  0.269070  0.799120  1.0  -0.1882
  N  N205  1  0.813300  0.915900  0.965350  1.0  -0.2089
  N  N206  1  0.790300  0.824800  0.935470  1.0  -0.3026
  N  N207  1  0.686300  0.944700  0.924440  1.0  0.0419
  N  N208  1  0.625300  0.008200  0.905160  1.0  0.065
  N  N209  1  0.479900  0.076600  0.888300  1.0  -0.2831
  N  N210  1  0.602400  0.147800  0.867550  1.0  -0.1879
  N  N211  1  0.479970  0.249230  0.298680  1.0  -0.2089
  N  N212  1  0.456970  0.158130  0.268800  1.0  -0.3026
  N  N213  1  0.352970  0.278030  0.257770  1.0  0.0419
  N  N214  1  0.291970  0.341530  0.238490  1.0  0.065
  N  N215  1  0.146570  0.409930  0.221630  1.0  -0.2831
  N  N216  1  0.269070  0.481130  0.200880  1.0  -0.1879
  N  N217  1  0.146630  0.582570  0.632020  1.0  -0.2089
  N  N218  1  0.123630  0.491470  0.602140  1.0  -0.3026
  N  N219  1  0.019630  0.611370  0.591110  1.0  0.0419
  N  N220  1  0.958630  0.674870  0.571830  1.0  0.065
  N  N221  1  0.813230  0.743270  0.554970  1.0  -0.283
  N  N222  1  0.935730  0.814470  0.534220  1.0  -0.1879
  N  N223  1  0.084100  0.897400  0.965350  1.0  -0.2092
  N  N224  1  0.175200  0.965500  0.935470  1.0  -0.3008
  N  N225  1  0.055300  0.741600  0.924440  1.0  0.0416
  N  N226  1  0.991800  0.617100  0.905160  1.0  0.0653
  N  N227  1  0.923400  0.403300  0.888300  1.0  -0.2816
  N  N228  1  0.852200  0.454600  0.867550  1.0  -0.188
  N  N229  1  0.750770  0.230730  0.298680  1.0  -0.2092
  N  N230  1  0.841870  0.298830  0.268800  1.0  -0.3008
  N  N231  1  0.721970  0.074930  0.257770  1.0  0.0416
  N  N232  1  0.658470  0.950430  0.238490  1.0  0.0653
  N  N233  1  0.590070  0.736630  0.221630  1.0  -0.2816
  N  N234  1  0.518870  0.787930  0.200880  1.0  -0.188
  N  N235  1  0.417430  0.564070  0.632020  1.0  -0.2092
  N  N236  1  0.508530  0.632170  0.602140  1.0  -0.3008
  N  N237  1  0.388630  0.408270  0.591110  1.0  0.0416
  N  N238  1  0.325130  0.283770  0.571830  1.0  0.0653
  N  N239  1  0.256730  0.069970  0.554970  1.0  -0.2815
  N  N240  1  0.185530  0.121270  0.534220  1.0  -0.188
  N  N241  1  0.102600  0.186700  0.965350  1.0  -0.2113
  N  N242  1  0.034500  0.209700  0.935470  1.0  -0.3012
  N  N243  1  0.258400  0.313700  0.924440  1.0  0.0418
  N  N244  1  0.382900  0.374700  0.905160  1.0  0.0649
  N  N245  1  0.596700  0.520100  0.888300  1.0  -0.2814
  N  N246  1  0.545400  0.397600  0.867550  1.0  -0.1882
  N  N247  1  0.769270  0.520030  0.298680  1.0  -0.2113
  N  N248  1  0.701170  0.543030  0.268800  1.0  -0.3012
  N  N249  1  0.925070  0.647030  0.257770  1.0  0.0418
  N  N250  1  0.049570  0.708030  0.238490  1.0  0.0649
  N  N251  1  0.263370  0.853430  0.221630  1.0  -0.2814
  N  N252  1  0.212070  0.730930  0.200880  1.0  -0.1882
  N  N253  1  0.435930  0.853370  0.632020  1.0  -0.2113
  N  N254  1  0.367830  0.876370  0.602140  1.0  -0.3012
  N  N255  1  0.591730  0.980370  0.591110  1.0  0.0418
  N  N256  1  0.716230  0.041370  0.571830  1.0  0.0649
  N  N257  1  0.930030  0.186770  0.554970  1.0  -0.2813
  N  N258  1  0.878730  0.064270  0.534220  1.0  -0.1882
