# generated using pymatgen
data_FeH12(C2N3)6
_symmetry_space_group_name_H-M   'P 1'
_cell_length_a   10.93800000
_cell_length_b   10.93800000
_cell_length_c   34.55500000
_cell_angle_alpha   90.00000000
_cell_angle_beta   90.00000000
_cell_angle_gamma   120.00000000
_symmetry_Int_Tables_number   1
_chemical_formula_structural   FeH12(C2N3)6
_chemical_formula_sum   'Fe6 H72 C72 N108'
_cell_volume   3580.28308814
_cell_formula_units_Z   6
loop_
 _symmetry_equiv_pos_site_id
 _symmetry_equiv_pos_as_xyz
  1  'x, y, z'
loop_
 _atom_site_type_symbol
 _atom_site_label
 _atom_site_symmetry_multiplicity
 _atom_site_fract_x
 _atom_site_fract_y
 _atom_site_fract_z
 _atom_site_occupancy
 _atom_site_charge
  Fe  Fe1  1  0.000000  0.000000  0.000000  1.0  0.3802
  Fe  Fe2  1  0.666667  0.333333  0.333333  1.0  0.3933
  Fe  Fe3  1  0.333333  0.666667  0.666667  1.0  0.394
  Fe  Fe4  1  0.666667  0.333333  0.833330  1.0  0.4221
  Fe  Fe5  1  0.333333  0.666667  0.166670  1.0  0.4218
  Fe  Fe6  1  0.000000  0.000000  0.500000  1.0  0.4064
  H  H7  1  0.255000  0.943000  0.028000  1.0  0.0945
  H  H8  1  0.326000  0.202000  0.115000  1.0  0.0722
  H  H9  1  0.566000  0.067000  0.076000  1.0  0.1494
  H  H10  1  0.212000  0.859000  0.132000  1.0  0.0981
  H  H11  1  0.921670  0.276330  0.361330  1.0  0.0945
  H  H12  1  0.992670  0.535330  0.448330  1.0  0.0769
  H  H13  1  0.232670  0.400330  0.409330  1.0  0.1494
  H  H14  1  0.878670  0.192330  0.465330  1.0  0.0993
  H  H15  1  0.588330  0.609670  0.694670  1.0  0.0945
  H  H16  1  0.659330  0.868670  0.781670  1.0  0.0722
  H  H17  1  0.899330  0.733670  0.742670  1.0  0.1494
  H  H18  1  0.545330  0.525670  0.798670  1.0  0.0981
  H  H19  1  0.057000  0.312000  0.028000  1.0  0.097
  H  H20  1  0.798000  0.124000  0.115000  1.0  0.0759
  H  H21  1  0.933000  0.499000  0.076000  1.0  0.1493
  H  H22  1  0.141000  0.353000  0.132000  1.0  0.0958
  H  H23  1  0.723670  0.645330  0.361330  1.0  0.097
  H  H24  1  0.464670  0.457330  0.448330  1.0  0.0727
  H  H25  1  0.599670  0.832330  0.409330  1.0  0.1493
  H  H26  1  0.807670  0.686330  0.465330  1.0  0.0954
  H  H27  1  0.390330  0.978670  0.694670  1.0  0.097
  H  H28  1  0.131330  0.790670  0.781670  1.0  0.0759
  H  H29  1  0.266330  0.165670  0.742670  1.0  0.1493
  H  H30  1  0.474330  0.019670  0.798670  1.0  0.0958
  H  H31  1  0.688000  0.745000  0.028000  1.0  0.0951
  H  H32  1  0.876000  0.674000  0.115000  1.0  0.0728
  H  H33  1  0.501000  0.434000  0.076000  1.0  0.1491
  H  H34  1  0.647000  0.788000  0.132000  1.0  0.0971
  H  H35  1  0.354670  0.078330  0.361330  1.0  0.0951
  H  H36  1  0.542670  0.007330  0.448330  1.0  0.0738
  H  H37  1  0.167670  0.767330  0.409330  1.0  0.149
  H  H38  1  0.313670  0.121330  0.465330  1.0  0.0952
  H  H39  1  0.021330  0.411670  0.694670  1.0  0.0951
  H  H40  1  0.209330  0.340670  0.781670  1.0  0.0728
  H  H41  1  0.834330  0.100670  0.742670  1.0  0.1491
  H  H42  1  0.980330  0.454670  0.798670  1.0  0.0971
  H  H43  1  0.745000  0.057000  0.972000  1.0  0.0949
  H  H44  1  0.674000  0.798000  0.885000  1.0  0.0718
  H  H45  1  0.434000  0.933000  0.924000  1.0  0.1501
  H  H46  1  0.788000  0.141000  0.868000  1.0  0.097
  H  H47  1  0.411670  0.390330  0.305330  1.0  0.0949
  H  H48  1  0.340670  0.131330  0.218330  1.0  0.0718
  H  H49  1  0.100670  0.266330  0.257330  1.0  0.1501
  H  H50  1  0.454670  0.474330  0.201330  1.0  0.097
  H  H51  1  0.078330  0.723670  0.638670  1.0  0.0949
  H  H52  1  0.007330  0.464670  0.551670  1.0  0.0765
  H  H53  1  0.767330  0.599670  0.590670  1.0  0.1501
  H  H54  1  0.121330  0.807670  0.534670  1.0  0.0985
  H  H55  1  0.943000  0.688000  0.972000  1.0  0.0967
  H  H56  1  0.202000  0.876000  0.885000  1.0  0.0758
  H  H57  1  0.067000  0.501000  0.924000  1.0  0.1491
  H  H58  1  0.859000  0.647000  0.868000  1.0  0.0957
  H  H59  1  0.609670  0.021330  0.305330  1.0  0.0967
  H  H60  1  0.868670  0.209330  0.218330  1.0  0.0758
  H  H61  1  0.733670  0.834330  0.257330  1.0  0.1491
  H  H62  1  0.525670  0.980330  0.201330  1.0  0.0957
  H  H63  1  0.276330  0.354670  0.638670  1.0  0.0967
  H  H64  1  0.535330  0.542670  0.551670  1.0  0.0724
  H  H65  1  0.400330  0.167670  0.590670  1.0  0.1491
  H  H66  1  0.192330  0.313670  0.534670  1.0  0.0952
  H  H67  1  0.312000  0.255000  0.972000  1.0  0.0953
  H  H68  1  0.124000  0.326000  0.885000  1.0  0.0728
  H  H69  1  0.499000  0.566000  0.924000  1.0  0.1497
  H  H70  1  0.353000  0.212000  0.868000  1.0  0.0969
  H  H71  1  0.978670  0.588330  0.305330  1.0  0.0953
  H  H72  1  0.790670  0.659330  0.218330  1.0  0.0728
  H  H73  1  0.165670  0.899330  0.257330  1.0  0.1497
  H  H74  1  0.019670  0.545330  0.201330  1.0  0.0969
  H  H75  1  0.645330  0.921670  0.638670  1.0  0.0953
  H  H76  1  0.457330  0.992670  0.551670  1.0  0.0736
  H  H77  1  0.832330  0.232670  0.590670  1.0  0.1495
  H  H78  1  0.686330  0.878670  0.534670  1.0  0.0954
  C  C79  1  0.249300  0.012400  0.042600  1.0  0.1055
  C  C80  1  0.286600  0.154300  0.091100  1.0  0.0947
  C  C81  1  0.501900  0.000600  0.091400  1.0  0.102
  C  C82  1  0.306500  0.886100  0.123800  1.0  0.1034
  C  C83  1  0.915970  0.345730  0.375930  1.0  0.1055
  C  C84  1  0.953270  0.487630  0.424430  1.0  0.0947
  C  C85  1  0.168570  0.333930  0.424730  1.0  0.1019
  C  C86  1  0.973170  0.219430  0.457130  1.0  0.1033
  C  C87  1  0.582630  0.679070  0.709270  1.0  0.1055
  C  C88  1  0.619930  0.820970  0.757770  1.0  0.0947
  C  C89  1  0.835230  0.667270  0.758070  1.0  0.102
  C  C90  1  0.639830  0.552770  0.790470  1.0  0.1034
  C  C91  1  0.987600  0.236900  0.042600  1.0  0.1006
  C  C92  1  0.845700  0.132300  0.091100  1.0  0.0937
  C  C93  1  0.999400  0.501300  0.091400  1.0  0.1017
  C  C94  1  0.113900  0.420400  0.123800  1.0  0.105
  C  C95  1  0.654270  0.570230  0.375930  1.0  0.1006
  C  C96  1  0.512370  0.465630  0.424430  1.0  0.0937
  C  C97  1  0.666070  0.834630  0.424730  1.0  0.1016
  C  C98  1  0.780570  0.753730  0.457130  1.0  0.1049
  C  C99  1  0.320930  0.903570  0.709270  1.0  0.1006
  C  C100  1  0.179030  0.798970  0.757770  1.0  0.0937
  C  C101  1  0.332730  0.167970  0.758070  1.0  0.1017
  C  C102  1  0.447230  0.087070  0.790470  1.0  0.105
  C  C103  1  0.763100  0.750700  0.042600  1.0  0.0996
  C  C104  1  0.867700  0.713400  0.091100  1.0  0.095
  C  C105  1  0.498700  0.498100  0.091400  1.0  0.0979
  C  C106  1  0.579600  0.693500  0.123800  1.0  0.106
  C  C107  1  0.429770  0.084030  0.375930  1.0  0.0996
  C  C108  1  0.534370  0.046730  0.424430  1.0  0.095
  C  C109  1  0.165370  0.831430  0.424730  1.0  0.0978
  C  C110  1  0.246270  0.026830  0.457130  1.0  0.106
  C  C111  1  0.096430  0.417370  0.709270  1.0  0.0996
  C  C112  1  0.201030  0.380070  0.757770  1.0  0.095
  C  C113  1  0.832030  0.164770  0.758070  1.0  0.0979
  C  C114  1  0.912930  0.360170  0.790470  1.0  0.106
  C  C115  1  0.750700  0.987600  0.957400  1.0  0.1061
  C  C116  1  0.713400  0.845700  0.908900  1.0  0.0936
  C  C117  1  0.498100  0.999400  0.908600  1.0  0.1007
  C  C118  1  0.693500  0.113900  0.876200  1.0  0.1041
  C  C119  1  0.417370  0.320930  0.290730  1.0  0.1061
  C  C120  1  0.380070  0.179030  0.242230  1.0  0.0936
  C  C121  1  0.164770  0.332730  0.241930  1.0  0.1007
  C  C122  1  0.360170  0.447230  0.209530  1.0  0.1041
  C  C123  1  0.084030  0.654270  0.624070  1.0  0.1061
  C  C124  1  0.046730  0.512370  0.575570  1.0  0.0936
  C  C125  1  0.831430  0.666070  0.575270  1.0  0.1006
  C  C126  1  0.026830  0.780570  0.542870  1.0  0.104
  C  C127  1  0.012400  0.763100  0.957400  1.0  0.0996
  C  C128  1  0.154300  0.867700  0.908900  1.0  0.0942
  C  C129  1  0.000600  0.498700  0.908600  1.0  0.1011
  C  C130  1  0.886100  0.579600  0.876200  1.0  0.1051
  C  C131  1  0.679070  0.096430  0.290730  1.0  0.0996
  C  C132  1  0.820970  0.201030  0.242230  1.0  0.0942
  C  C133  1  0.667270  0.832030  0.241930  1.0  0.1011
  C  C134  1  0.552770  0.912930  0.209530  1.0  0.1051
  C  C135  1  0.345730  0.429770  0.624070  1.0  0.0996
  C  C136  1  0.487630  0.534370  0.575570  1.0  0.0941
  C  C137  1  0.333930  0.165370  0.575270  1.0  0.1011
  C  C138  1  0.219430  0.246270  0.542870  1.0  0.1051
  C  C139  1  0.236900  0.249300  0.957400  1.0  0.1008
  C  C140  1  0.132300  0.286600  0.908900  1.0  0.093
  C  C141  1  0.501300  0.501900  0.908600  1.0  0.0992
  C  C142  1  0.420400  0.306500  0.876200  1.0  0.1055
  C  C143  1  0.903570  0.582630  0.290730  1.0  0.1008
  C  C144  1  0.798970  0.619930  0.242230  1.0  0.093
  C  C145  1  0.167970  0.835230  0.241930  1.0  0.0992
  C  C146  1  0.087070  0.639830  0.209530  1.0  0.1055
  C  C147  1  0.570230  0.915970  0.624070  1.0  0.1008
  C  C148  1  0.465630  0.953270  0.575570  1.0  0.093
  C  C149  1  0.834630  0.168570  0.575270  1.0  0.0991
  C  C150  1  0.753730  0.973170  0.542870  1.0  0.1055
  N  N151  1  0.186200  0.083900  0.035490  1.0  -0.234
  N  N152  1  0.210200  0.175700  0.066400  1.0  -0.3232
  N  N153  1  0.314200  0.054400  0.077300  1.0  0.0538
  N  N154  1  0.373500  0.988300  0.097130  1.0  0.0503
  N  N155  1  0.514900  0.911800  0.113500  1.0  -0.3164
  N  N156  1  0.388000  0.837400  0.133680  1.0  -0.1831
  N  N157  1  0.852870  0.417230  0.368820  1.0  -0.234
  N  N158  1  0.876870  0.509030  0.399730  1.0  -0.3232
  N  N159  1  0.980870  0.387730  0.410630  1.0  0.0538
  N  N160  1  0.040170  0.321630  0.430460  1.0  0.0503
  N  N161  1  0.181570  0.245130  0.446830  1.0  -0.3164
  N  N162  1  0.054670  0.170730  0.467010  1.0  -0.1831
  N  N163  1  0.519530  0.750570  0.702160  1.0  -0.234
  N  N164  1  0.543530  0.842370  0.733070  1.0  -0.3232
  N  N165  1  0.647530  0.721070  0.743970  1.0  0.0538
  N  N166  1  0.706830  0.654970  0.763800  1.0  0.0503
  N  N167  1  0.848230  0.578470  0.780170  1.0  -0.3164
  N  N168  1  0.721330  0.504070  0.800350  1.0  -0.1824
  N  N169  1  0.916100  0.102300  0.035490  1.0  -0.2335
  N  N170  1  0.824300  0.034500  0.066400  1.0  -0.3228
  N  N171  1  0.945600  0.259800  0.077300  1.0  0.0516
  N  N172  1  0.011700  0.385200  0.097130  1.0  0.0489
  N  N173  1  0.088200  0.603100  0.113500  1.0  -0.3141
  N  N174  1  0.162600  0.550600  0.133680  1.0  -0.1824
  N  N175  1  0.582770  0.435630  0.368820  1.0  -0.2334
  N  N176  1  0.490970  0.367830  0.399730  1.0  -0.3228
  N  N177  1  0.612270  0.593130  0.410630  1.0  0.0516
  N  N178  1  0.678370  0.718530  0.430460  1.0  0.0489
  N  N179  1  0.754870  0.936430  0.446830  1.0  -0.3141
  N  N180  1  0.829270  0.883930  0.467010  1.0  -0.1824
  N  N181  1  0.249430  0.768970  0.702160  1.0  -0.2335
  N  N182  1  0.157630  0.701170  0.733070  1.0  -0.3228
  N  N183  1  0.278930  0.926470  0.743970  1.0  0.0516
  N  N184  1  0.345030  0.051870  0.763800  1.0  0.0489
  N  N185  1  0.421530  0.269770  0.780170  1.0  -0.3141
  N  N186  1  0.495930  0.217270  0.800350  1.0  -0.1824
  N  N187  1  0.897700  0.813800  0.035490  1.0  -0.2339
  N  N188  1  0.965500  0.789800  0.066400  1.0  -0.3242
  N  N189  1  0.740200  0.685800  0.077300  1.0  0.0519
  N  N190  1  0.614800  0.626500  0.097130  1.0  0.0512
  N  N191  1  0.396900  0.485100  0.113500  1.0  -0.3156
  N  N192  1  0.449400  0.612000  0.133680  1.0  -0.183
  N  N193  1  0.564370  0.147130  0.368820  1.0  -0.2339
  N  N194  1  0.632170  0.123130  0.399730  1.0  -0.3242
  N  N195  1  0.406870  0.019130  0.410630  1.0  0.052
  N  N196  1  0.281470  0.959830  0.430460  1.0  0.0512
  N  N197  1  0.063570  0.818430  0.446830  1.0  -0.3156
  N  N198  1  0.116070  0.945330  0.467010  1.0  -0.183
  N  N199  1  0.231030  0.480470  0.702160  1.0  -0.2339
  N  N200  1  0.298830  0.456470  0.733070  1.0  -0.3242
  N  N201  1  0.073530  0.352470  0.743970  1.0  0.0519
  N  N202  1  0.948130  0.293170  0.763800  1.0  0.0512
  N  N203  1  0.730230  0.151770  0.780170  1.0  -0.3156
  N  N204  1  0.782730  0.278670  0.800350  1.0  -0.183
  N  N205  1  0.813800  0.916100  0.964510  1.0  -0.2318
  N  N206  1  0.789800  0.824300  0.933600  1.0  -0.3228
  N  N207  1  0.685800  0.945600  0.922700  1.0  0.0528
  N  N208  1  0.626500  0.011700  0.902870  1.0  0.0504
  N  N209  1  0.485100  0.088200  0.886500  1.0  -0.3147
  N  N210  1  0.612000  0.162600  0.866320  1.0  -0.184
  N  N211  1  0.480470  0.249430  0.297840  1.0  -0.2318
  N  N212  1  0.456470  0.157630  0.266930  1.0  -0.3228
  N  N213  1  0.352470  0.278930  0.256030  1.0  0.0528
  N  N214  1  0.293170  0.345030  0.236200  1.0  0.0504
  N  N215  1  0.151770  0.421530  0.219830  1.0  -0.3147
  N  N216  1  0.278670  0.495930  0.199650  1.0  -0.1832
  N  N217  1  0.147130  0.582770  0.631180  1.0  -0.2318
  N  N218  1  0.123130  0.490970  0.600270  1.0  -0.3228
  N  N219  1  0.019130  0.612270  0.589370  1.0  0.0528
  N  N220  1  0.959830  0.678370  0.569540  1.0  0.0504
  N  N221  1  0.818430  0.754870  0.553170  1.0  -0.3147
  N  N222  1  0.945330  0.829270  0.532990  1.0  -0.184
  N  N223  1  0.083900  0.897700  0.964510  1.0  -0.2326
  N  N224  1  0.175700  0.965500  0.933600  1.0  -0.324
  N  N225  1  0.054400  0.740200  0.922700  1.0  0.0531
  N  N226  1  0.988300  0.614800  0.902870  1.0  0.0497
  N  N227  1  0.911800  0.396900  0.886500  1.0  -0.3133
  N  N228  1  0.837400  0.449400  0.866320  1.0  -0.1832
  N  N229  1  0.750570  0.231030  0.297840  1.0  -0.2326
  N  N230  1  0.842370  0.298830  0.266930  1.0  -0.324
  N  N231  1  0.721070  0.073530  0.256030  1.0  0.0531
  N  N232  1  0.654970  0.948130  0.236200  1.0  0.0497
  N  N233  1  0.578470  0.730230  0.219830  1.0  -0.3133
  N  N234  1  0.504070  0.782730  0.199650  1.0  -0.1832
  N  N235  1  0.417230  0.564370  0.631180  1.0  -0.2325
  N  N236  1  0.509030  0.632170  0.600270  1.0  -0.324
  N  N237  1  0.387730  0.406870  0.589370  1.0  0.0531
  N  N238  1  0.321630  0.281470  0.569540  1.0  0.0497
  N  N239  1  0.245130  0.063570  0.553170  1.0  -0.3132
  N  N240  1  0.170730  0.116070  0.532990  1.0  -0.1833
  N  N241  1  0.102300  0.186200  0.964510  1.0  -0.2344
  N  N242  1  0.034500  0.210200  0.933600  1.0  -0.3221
  N  N243  1  0.259800  0.314200  0.922700  1.0  0.0525
  N  N244  1  0.385200  0.373500  0.902870  1.0  0.0519
  N  N245  1  0.603100  0.514900  0.886500  1.0  -0.314
  N  N246  1  0.550600  0.388000  0.866320  1.0  -0.1823
  N  N247  1  0.768970  0.519530  0.297840  1.0  -0.2344
  N  N248  1  0.701170  0.543530  0.266930  1.0  -0.3221
  N  N249  1  0.926470  0.647530  0.256030  1.0  0.0525
  N  N250  1  0.051870  0.706830  0.236200  1.0  0.0519
  N  N251  1  0.269770  0.848230  0.219830  1.0  -0.314
  N  N252  1  0.217270  0.721330  0.199650  1.0  -0.1823
  N  N253  1  0.435630  0.852870  0.631180  1.0  -0.2344
  N  N254  1  0.367830  0.876870  0.600270  1.0  -0.3221
  N  N255  1  0.593130  0.980870  0.589370  1.0  0.0525
  N  N256  1  0.718530  0.040170  0.569540  1.0  0.0519
  N  N257  1  0.936430  0.181570  0.553170  1.0  -0.3139
  N  N258  1  0.883930  0.054670  0.532990  1.0  -0.1823
