# generated using pymatgen
data_FeH12(C2N3)6
_symmetry_space_group_name_H-M   'P 1'
_cell_length_a   11.03000000
_cell_length_b   11.03000000
_cell_length_c   33.00800000
_cell_angle_alpha   90.00000000
_cell_angle_beta   90.00000000
_cell_angle_gamma   120.00000000
_symmetry_Int_Tables_number   1
_chemical_formula_structural   FeH12(C2N3)6
_chemical_formula_sum   'Fe6 H72 C72 N108'
_cell_volume   3477.77008300
_cell_formula_units_Z   6
loop_
 _symmetry_equiv_pos_site_id
 _symmetry_equiv_pos_as_xyz
  1  'x, y, z'
loop_
 _atom_site_type_symbol
 _atom_site_label
 _atom_site_symmetry_multiplicity
 _atom_site_fract_x
 _atom_site_fract_y
 _atom_site_fract_z
 _atom_site_occupancy
 _atom_site_charge
  Fe  Fe1  1  0.000000  0.000000  0.000000  1.0  0.2789
  Fe  Fe2  1  0.666667  0.333333  0.333333  1.0  0.2948
  Fe  Fe3  1  0.333333  0.666667  0.666667  1.0  0.295
  Fe  Fe4  1  0.666667  0.333333  0.833330  1.0  0.274
  Fe  Fe5  1  0.333333  0.666667  0.166670  1.0  0.2742
  Fe  Fe6  1  0.000000  0.000000  0.500000  1.0  0.2555
  H  H7  1  0.192000  0.886000  0.030000  1.0  0.0688
  H  H8  1  0.398000  0.238000  0.094000  1.0  0.079
  H  H9  1  0.531000  0.995000  0.058000  1.0  0.2261
  H  H10  1  0.260000  0.902000  0.139000  1.0  0.0813
  H  H11  1  0.858670  0.219330  0.363330  1.0  0.0688
  H  H12  1  0.064670  0.571330  0.427330  1.0  0.0784
  H  H13  1  0.197670  0.328330  0.391330  1.0  0.2261
  H  H14  1  0.926670  0.235330  0.472330  1.0  0.0779
  H  H15  1  0.525330  0.552670  0.696670  1.0  0.0688
  H  H16  1  0.731330  0.904670  0.760670  1.0  0.079
  H  H17  1  0.864330  0.661670  0.724670  1.0  0.2261
  H  H18  1  0.593330  0.568670  0.805670  1.0  0.0813
  H  H19  1  0.114000  0.306000  0.030000  1.0  0.0703
  H  H20  1  0.762000  0.160000  0.094000  1.0  0.0804
  H  H21  1  0.005000  0.536000  0.058000  1.0  0.2258
  H  H22  1  0.098000  0.358000  0.139000  1.0  0.0772
  H  H23  1  0.780670  0.639330  0.363330  1.0  0.0703
  H  H24  1  0.428670  0.493330  0.427330  1.0  0.0798
  H  H25  1  0.671670  0.869330  0.391330  1.0  0.2258
  H  H26  1  0.764670  0.691330  0.472330  1.0  0.0802
  H  H27  1  0.447330  0.972670  0.696670  1.0  0.0703
  H  H28  1  0.095330  0.826670  0.760670  1.0  0.0804
  H  H29  1  0.338330  0.202670  0.724670  1.0  0.2258
  H  H30  1  0.431330  0.024670  0.805670  1.0  0.0772
  H  H31  1  0.694000  0.808000  0.030000  1.0  0.0676
  H  H32  1  0.840000  0.602000  0.094000  1.0  0.0803
  H  H33  1  0.464000  0.469000  0.058000  1.0  0.2269
  H  H34  1  0.642000  0.740000  0.139000  1.0  0.0751
  H  H35  1  0.360670  0.141330  0.363330  1.0  0.0676
  H  H36  1  0.506670  0.935330  0.427330  1.0  0.079
  H  H37  1  0.130670  0.802330  0.391330  1.0  0.2269
  H  H38  1  0.308670  0.073330  0.472330  1.0  0.0801
  H  H39  1  0.027330  0.474670  0.696670  1.0  0.0676
  H  H40  1  0.173330  0.268670  0.760670  1.0  0.0803
  H  H41  1  0.797330  0.135670  0.724670  1.0  0.2269
  H  H42  1  0.975330  0.406670  0.805670  1.0  0.0751
  H  H43  1  0.808000  0.114000  0.970000  1.0  0.0694
  H  H44  1  0.602000  0.762000  0.906000  1.0  0.0792
  H  H45  1  0.469000  0.005000  0.942000  1.0  0.2267
  H  H46  1  0.740000  0.098000  0.861000  1.0  0.0812
  H  H47  1  0.474670  0.447330  0.303330  1.0  0.0694
  H  H48  1  0.268670  0.095330  0.239330  1.0  0.0792
  H  H49  1  0.135670  0.338330  0.275330  1.0  0.2267
  H  H50  1  0.406670  0.431330  0.194330  1.0  0.0812
  H  H51  1  0.141330  0.780670  0.636670  1.0  0.0694
  H  H52  1  0.935330  0.428670  0.572670  1.0  0.0784
  H  H53  1  0.802330  0.671670  0.608670  1.0  0.2267
  H  H54  1  0.073330  0.764670  0.527670  1.0  0.0778
  H  H55  1  0.886000  0.694000  0.970000  1.0  0.0685
  H  H56  1  0.238000  0.840000  0.906000  1.0  0.0799
  H  H57  1  0.995000  0.464000  0.942000  1.0  0.228
  H  H58  1  0.902000  0.642000  0.861000  1.0  0.0771
  H  H59  1  0.552670  0.027330  0.303330  1.0  0.0685
  H  H60  1  0.904670  0.173330  0.239330  1.0  0.0799
  H  H61  1  0.661670  0.797330  0.275330  1.0  0.228
  H  H62  1  0.568670  0.975330  0.194330  1.0  0.0771
  H  H63  1  0.219330  0.360670  0.636670  1.0  0.0685
  H  H64  1  0.571330  0.506670  0.572670  1.0  0.0791
  H  H65  1  0.328330  0.130670  0.608670  1.0  0.228
  H  H66  1  0.235330  0.308670  0.527670  1.0  0.0798
  H  H67  1  0.306000  0.192000  0.970000  1.0  0.0686
  H  H68  1  0.160000  0.398000  0.906000  1.0  0.0805
  H  H69  1  0.536000  0.531000  0.942000  1.0  0.2272
  H  H70  1  0.358000  0.260000  0.861000  1.0  0.0745
  H  H71  1  0.972670  0.525330  0.303330  1.0  0.0686
  H  H72  1  0.826670  0.731330  0.239330  1.0  0.0805
  H  H73  1  0.202670  0.864330  0.275330  1.0  0.2272
  H  H74  1  0.024670  0.593330  0.194330  1.0  0.0745
  H  H75  1  0.639330  0.858670  0.636670  1.0  0.0686
  H  H76  1  0.493330  0.064670  0.572670  1.0  0.0795
  H  H77  1  0.869330  0.197670  0.608670  1.0  0.2272
  H  H78  1  0.691330  0.926670  0.527670  1.0  0.0794
  C  C79  1  0.217500  0.975500  0.043800  1.0  0.1243
  C  C80  1  0.332500  0.168400  0.077900  1.0  0.0837
  C  C81  1  0.488100  0.959500  0.078400  1.0  0.1469
  C  C82  1  0.331700  0.899900  0.125400  1.0  0.0887
  C  C83  1  0.884170  0.308830  0.377130  1.0  0.1244
  C  C84  1  0.999170  0.501730  0.411230  1.0  0.0837
  C  C85  1  0.154770  0.292830  0.411730  1.0  0.1469
  C  C86  1  0.998370  0.233230  0.458730  1.0  0.0887
  C  C87  1  0.550830  0.642170  0.710470  1.0  0.1243
  C  C88  1  0.665830  0.835070  0.744570  1.0  0.0837
  C  C89  1  0.821430  0.626170  0.745070  1.0  0.1469
  C  C90  1  0.665030  0.566570  0.792070  1.0  0.0887
  C  C91  1  0.024500  0.242000  0.043800  1.0  0.1242
  C  C92  1  0.831600  0.164100  0.077900  1.0  0.0807
  C  C93  1  0.040500  0.528600  0.078400  1.0  0.1485
  C  C94  1  0.100100  0.431800  0.125400  1.0  0.089
  C  C95  1  0.691170  0.575330  0.377130  1.0  0.1243
  C  C96  1  0.498270  0.497430  0.411230  1.0  0.0807
  C  C97  1  0.707170  0.861930  0.411730  1.0  0.1485
  C  C98  1  0.766770  0.765130  0.458730  1.0  0.089
  C  C99  1  0.357830  0.908670  0.710470  1.0  0.1244
  C  C100  1  0.164930  0.830770  0.744570  1.0  0.0807
  C  C101  1  0.373830  0.195270  0.745070  1.0  0.1485
  C  C102  1  0.433430  0.098470  0.792070  1.0  0.089
  C  C103  1  0.758000  0.782500  0.043800  1.0  0.1231
  C  C104  1  0.835900  0.667500  0.077900  1.0  0.0805
  C  C105  1  0.471400  0.511900  0.078400  1.0  0.1462
  C  C106  1  0.568200  0.668300  0.125400  1.0  0.0881
  C  C107  1  0.424670  0.115830  0.377130  1.0  0.1231
  C  C108  1  0.502570  0.000830  0.411230  1.0  0.0806
  C  C109  1  0.138070  0.845230  0.411730  1.0  0.1462
  C  C110  1  0.234870  0.001630  0.458730  1.0  0.0882
  C  C111  1  0.091330  0.449170  0.710470  1.0  0.1233
  C  C112  1  0.169230  0.334170  0.744570  1.0  0.0805
  C  C113  1  0.804730  0.178570  0.745070  1.0  0.1463
  C  C114  1  0.901530  0.334970  0.792070  1.0  0.0881
  C  C115  1  0.782500  0.024500  0.956200  1.0  0.125
  C  C116  1  0.667500  0.831600  0.922100  1.0  0.0832
  C  C117  1  0.511900  0.040500  0.921600  1.0  0.1499
  C  C118  1  0.668300  0.100100  0.874600  1.0  0.0882
  C  C119  1  0.449170  0.357830  0.289530  1.0  0.125
  C  C120  1  0.334170  0.164930  0.255430  1.0  0.0832
  C  C121  1  0.178570  0.373830  0.254930  1.0  0.15
  C  C122  1  0.334970  0.433430  0.207930  1.0  0.0882
  C  C123  1  0.115830  0.691170  0.622870  1.0  0.125
  C  C124  1  0.000830  0.498270  0.588770  1.0  0.0832
  C  C125  1  0.845230  0.707170  0.588270  1.0  0.1499
  C  C126  1  0.001630  0.766770  0.541270  1.0  0.0882
  C  C127  1  0.975500  0.758000  0.956200  1.0  0.1244
  C  C128  1  0.168400  0.835900  0.922100  1.0  0.0808
  C  C129  1  0.959500  0.471400  0.921600  1.0  0.148
  C  C130  1  0.899900  0.568200  0.874600  1.0  0.0882
  C  C131  1  0.642170  0.091330  0.289530  1.0  0.1246
  C  C132  1  0.835070  0.169230  0.255430  1.0  0.0808
  C  C133  1  0.626170  0.804730  0.254930  1.0  0.148
  C  C134  1  0.566570  0.901530  0.207930  1.0  0.0882
  C  C135  1  0.308830  0.424670  0.622870  1.0  0.1245
  C  C136  1  0.501730  0.502570  0.588770  1.0  0.0809
  C  C137  1  0.292830  0.138070  0.588270  1.0  0.148
  C  C138  1  0.233230  0.234870  0.541270  1.0  0.0882
  C  C139  1  0.242000  0.217500  0.956200  1.0  0.1228
  C  C140  1  0.164100  0.332500  0.922100  1.0  0.0799
  C  C141  1  0.528600  0.488100  0.921600  1.0  0.1477
  C  C142  1  0.431800  0.331700  0.874600  1.0  0.0893
  C  C143  1  0.908670  0.550830  0.289530  1.0  0.123
  C  C144  1  0.830770  0.665830  0.255430  1.0  0.0799
  C  C145  1  0.195270  0.821430  0.254930  1.0  0.1477
  C  C146  1  0.098470  0.665030  0.207930  1.0  0.0893
  C  C147  1  0.575330  0.884170  0.622870  1.0  0.1228
  C  C148  1  0.497430  0.999170  0.588770  1.0  0.08
  C  C149  1  0.861930  0.154770  0.588270  1.0  0.1477
  C  C150  1  0.765130  0.998370  0.541270  1.0  0.0893
  N  N151  1  0.169200  0.055400  0.034000  1.0  -0.2377
  N  N152  1  0.243400  0.180800  0.055400  1.0  -0.2982
  N  N153  1  0.320300  0.040700  0.071500  1.0  0.0134
  N  N154  1  0.384100  0.980200  0.091900  1.0  0.0479
  N  N155  1  0.503000  0.874800  0.102200  1.0  -0.3126
  N  N156  1  0.400500  0.835300  0.131800  1.0  -0.2037
  N  N157  1  0.835870  0.388730  0.367330  1.0  -0.2378
  N  N158  1  0.910070  0.514130  0.388730  1.0  -0.2982
  N  N159  1  0.986970  0.374030  0.404830  1.0  0.0134
  N  N160  1  0.050770  0.313530  0.425230  1.0  0.0479
  N  N161  1  0.169670  0.208130  0.435530  1.0  -0.3126
  N  N162  1  0.067170  0.168630  0.465130  1.0  -0.2036
  N  N163  1  0.502530  0.722070  0.700670  1.0  -0.2377
  N  N164  1  0.576730  0.847470  0.722070  1.0  -0.2982
  N  N165  1  0.653630  0.707370  0.738170  1.0  0.0134
  N  N166  1  0.717430  0.646870  0.758570  1.0  0.0478
  N  N167  1  0.836330  0.541470  0.768870  1.0  -0.3126
  N  N168  1  0.733830  0.501970  0.798470  1.0  -0.2037
  N  N169  1  0.944600  0.113800  0.034000  1.0  -0.2382
  N  N170  1  0.819200  0.062600  0.055400  1.0  -0.2969
  N  N171  1  0.959300  0.279600  0.071500  1.0  0.0113
  N  N172  1  0.019800  0.403900  0.091900  1.0  0.0471
  N  N173  1  0.125200  0.628200  0.102200  1.0  -0.308
  N  N174  1  0.164700  0.565200  0.131800  1.0  -0.202
  N  N175  1  0.611270  0.447130  0.367330  1.0  -0.2382
  N  N176  1  0.485870  0.395930  0.388730  1.0  -0.2969
  N  N177  1  0.625970  0.612930  0.404830  1.0  0.0113
  N  N178  1  0.686470  0.737230  0.425230  1.0  0.0472
  N  N179  1  0.791870  0.961530  0.435530  1.0  -0.308
  N  N180  1  0.831370  0.898530  0.465130  1.0  -0.2019
  N  N181  1  0.277930  0.780470  0.700670  1.0  -0.2382
  N  N182  1  0.152530  0.729270  0.722070  1.0  -0.2969
  N  N183  1  0.292630  0.946270  0.738170  1.0  0.0113
  N  N184  1  0.353130  0.070570  0.758570  1.0  0.0471
  N  N185  1  0.458530  0.294870  0.768870  1.0  -0.308
  N  N186  1  0.498030  0.231870  0.798470  1.0  -0.202
  N  N187  1  0.886200  0.830800  0.034000  1.0  -0.2388
  N  N188  1  0.937400  0.756600  0.055400  1.0  -0.2988
  N  N189  1  0.720400  0.679700  0.071500  1.0  0.013
  N  N190  1  0.596100  0.615900  0.091900  1.0  0.0488
  N  N191  1  0.371800  0.497000  0.102200  1.0  -0.3093
  N  N192  1  0.434800  0.599500  0.131800  1.0  -0.2027
  N  N193  1  0.552870  0.164130  0.367330  1.0  -0.2388
  N  N194  1  0.604070  0.089930  0.388730  1.0  -0.2988
  N  N195  1  0.387070  0.013030  0.404830  1.0  0.013
  N  N196  1  0.262770  0.949230  0.425230  1.0  0.0489
  N  N197  1  0.038470  0.830330  0.435530  1.0  -0.3093
  N  N198  1  0.101470  0.932830  0.465130  1.0  -0.2026
  N  N199  1  0.219530  0.497470  0.700670  1.0  -0.2388
  N  N200  1  0.270730  0.423270  0.722070  1.0  -0.2988
  N  N201  1  0.053730  0.346370  0.738170  1.0  0.013
  N  N202  1  0.929430  0.282570  0.758570  1.0  0.0488
  N  N203  1  0.705130  0.163670  0.768870  1.0  -0.3093
  N  N204  1  0.768130  0.266170  0.798470  1.0  -0.2027
  N  N205  1  0.830800  0.944600  0.966000  1.0  -0.2375
  N  N206  1  0.756600  0.819200  0.944600  1.0  -0.2978
  N  N207  1  0.679700  0.959300  0.928500  1.0  0.0129
  N  N208  1  0.615900  0.019800  0.908100  1.0  0.0477
  N  N209  1  0.497000  0.125200  0.897800  1.0  -0.3122
  N  N210  1  0.599500  0.164700  0.868200  1.0  -0.2042
  N  N211  1  0.497470  0.277930  0.299330  1.0  -0.2375
  N  N212  1  0.423270  0.152530  0.277930  1.0  -0.2978
  N  N213  1  0.346370  0.292630  0.261830  1.0  0.0129
  N  N214  1  0.282570  0.353130  0.241430  1.0  0.0476
  N  N215  1  0.163670  0.458530  0.231130  1.0  -0.3122
  N  N216  1  0.266170  0.498030  0.201530  1.0  -0.2042
  N  N217  1  0.164130  0.611270  0.632670  1.0  -0.2376
  N  N218  1  0.089930  0.485870  0.611270  1.0  -0.2977
  N  N219  1  0.013030  0.625970  0.595170  1.0  0.0129
  N  N220  1  0.949230  0.686470  0.574770  1.0  0.0477
  N  N221  1  0.830330  0.791870  0.564470  1.0  -0.3122
  N  N222  1  0.932830  0.831370  0.534870  1.0  -0.2041
  N  N223  1  0.055400  0.886200  0.966000  1.0  -0.2389
  N  N224  1  0.180800  0.937400  0.944600  1.0  -0.2961
  N  N225  1  0.040700  0.720400  0.928500  1.0  0.0121
  N  N226  1  0.980200  0.596100  0.908100  1.0  0.0478
  N  N227  1  0.874800  0.371800  0.897800  1.0  -0.3081
  N  N228  1  0.835300  0.434800  0.868200  1.0  -0.2024
  N  N229  1  0.722070  0.219530  0.299330  1.0  -0.2389
  N  N230  1  0.847470  0.270730  0.277930  1.0  -0.2961
  N  N231  1  0.707370  0.053730  0.261830  1.0  0.0121
  N  N232  1  0.646870  0.929430  0.241430  1.0  0.0478
  N  N233  1  0.541470  0.705130  0.231130  1.0  -0.3081
  N  N234  1  0.501970  0.768130  0.201530  1.0  -0.2024
  N  N235  1  0.388730  0.552870  0.632670  1.0  -0.2389
  N  N236  1  0.514130  0.604070  0.611270  1.0  -0.2959
  N  N237  1  0.374030  0.387070  0.595170  1.0  0.0121
  N  N238  1  0.313530  0.262770  0.574770  1.0  0.0479
  N  N239  1  0.208130  0.038470  0.564470  1.0  -0.3081
  N  N240  1  0.168630  0.101470  0.534870  1.0  -0.2023
  N  N241  1  0.113800  0.169200  0.966000  1.0  -0.2391
  N  N242  1  0.062600  0.243400  0.944600  1.0  -0.2973
  N  N243  1  0.279600  0.320300  0.928500  1.0  0.012
  N  N244  1  0.403900  0.384100  0.908100  1.0  0.0483
  N  N245  1  0.628200  0.503000  0.897800  1.0  -0.3089
  N  N246  1  0.565200  0.400500  0.868200  1.0  -0.2031
  N  N247  1  0.780470  0.502530  0.299330  1.0  -0.2391
  N  N248  1  0.729270  0.576730  0.277930  1.0  -0.2973
  N  N249  1  0.946270  0.653630  0.261830  1.0  0.012
  N  N250  1  0.070570  0.717430  0.241430  1.0  0.0483
  N  N251  1  0.294870  0.836330  0.231130  1.0  -0.3089
  N  N252  1  0.231870  0.733830  0.201530  1.0  -0.2031
  N  N253  1  0.447130  0.835870  0.632670  1.0  -0.2391
  N  N254  1  0.395930  0.910070  0.611270  1.0  -0.2972
  N  N255  1  0.612930  0.986970  0.595170  1.0  0.012
  N  N256  1  0.737230  0.050770  0.574770  1.0  0.0484
  N  N257  1  0.961530  0.169670  0.564470  1.0  -0.3089
  N  N258  1  0.898530  0.067170  0.534870  1.0  -0.203
