# generated using pymatgen
data_CdH2C7O6
_symmetry_space_group_name_H-M   'P 1'
_cell_length_a   5.32620000
_cell_length_b   6.28850000
_cell_length_c   8.10080000
_cell_angle_alpha   97.73300000
_cell_angle_beta   105.05500000
_cell_angle_gamma   110.43600000
_symmetry_Int_Tables_number   1
_chemical_formula_structural   CdH2C7O6
_chemical_formula_sum   'Cd1 H2 C7 O6'
_cell_volume   237.79520585
_cell_formula_units_Z   1
loop_
 _symmetry_equiv_pos_site_id
 _symmetry_equiv_pos_as_xyz
  1  'x, y, z'
loop_
 _atom_site_type_symbol
 _atom_site_label
 _atom_site_symmetry_multiplicity
 _atom_site_fract_x
 _atom_site_fract_y
 _atom_site_fract_z
 _atom_site_occupancy
 _atom_site_charge
  Cd  Cd1  1  0.000000  0.500000  0.000000  1.0  1.1049
  H  H2  1  0.337100  0.557300  0.421200  1.0  0.1214
  H  H3  1  0.985200  0.032300  0.498500  1.0  0.1202
  C  C4  1  0.498100  0.774900  0.659900  1.0  0.1743
  C  C5  1  0.705700  0.681800  0.749300  1.0  0.6153
  C  C6  1  0.324000  0.683600  0.492100  1.0  -0.0918
  C  C7  1  0.117200  0.773700  0.417400  1.0  0.3936
  C  C8  1  0.116700  0.964200  0.536900  1.0  -0.201
  C  C9  1  0.301700  0.047100  0.703300  1.0  0.1553
  C  C10  1  0.313700  0.243800  0.839200  1.0  0.6356
  O  O11  1  0.495000  0.959500  0.766900  1.0  -0.1695
  O  O12  1  0.862600  0.784800  0.907300  1.0  -0.5927
  O  O13  1  0.702500  0.500500  0.664000  1.0  -0.5521
  O  O14  1  0.950700  0.691000  0.262300  1.0  -0.5353
  O  O15  1  0.523700  0.330600  0.977300  1.0  -0.633
  O  O16  1  0.104200  0.295700  0.798400  1.0  -0.5451
