# generated using pymatgen
data_CuC14(NF)8
_symmetry_space_group_name_H-M   'P 1'
_cell_length_a   13.87210000
_cell_length_b   15.89910000
_cell_length_c   17.67430000
_cell_angle_alpha   63.27040000
_cell_angle_beta   78.89420000
_cell_angle_gamma   64.64310000
_symmetry_Int_Tables_number   1
_chemical_formula_structural   CuC14(NF)8
_chemical_formula_sum   'Cu4 C56 N32 F32'
_cell_volume   3146.15452988
_cell_formula_units_Z   4
loop_
 _symmetry_equiv_pos_site_id
 _symmetry_equiv_pos_as_xyz
  1  'x, y, z'
loop_
 _atom_site_type_symbol
 _atom_site_label
 _atom_site_symmetry_multiplicity
 _atom_site_fract_x
 _atom_site_fract_y
 _atom_site_fract_z
 _atom_site_occupancy
 _atom_site_charge
  Cu  Cu1  1  0.756700  0.484230  0.000000  1.0  0.5217
  Cu  Cu2  1  0.243300  0.515770  0.000000  1.0  0.5222
  Cu  Cu3  1  0.500000  0.500000  0.000000  1.0  0.5469
  Cu  Cu4  1  0.000000  0.500000  0.000000  1.0  0.4983
  C  C5  1  0.684600  0.261850  0.199900  1.0  0.3823
  C  C6  1  0.708000  0.174790  0.284020  1.0  -0.1608
  C  C7  1  0.672200  0.098220  0.307160  1.0  0.2073
  C  C8  1  0.695100  0.016390  0.385820  1.0  0.1544
  C  C9  1  0.752500  0.012510  0.444580  1.0  -0.0408
  C  C10  1  0.786900  0.083900  0.420800  1.0  0.1817
  C  C11  1  0.764500  0.168000  0.344200  1.0  0.1939
  C  C12  1  0.819100  0.707990  0.792820  1.0  0.3797
  C  C13  1  0.802200  0.781450  0.705100  1.0  -0.1954
  C  C14  1  0.701700  0.840670  0.667060  1.0  0.1857
  C  C15  1  0.686300  0.908210  0.584980  1.0  0.1606
  C  C16  1  0.769700  0.929260  0.532280  1.0  -0.0734
  C  C17  1  0.868700  0.871300  0.568800  1.0  0.1564
  C  C18  1  0.884700  0.800820  0.651760  1.0  0.1931
  C  C19  1  0.315400  0.538250  0.199900  1.0  0.3836
  C  C20  1  0.292000  0.541190  0.284020  1.0  -0.1633
  C  C21  1  0.327800  0.594620  0.307160  1.0  0.2022
  C  C22  1  0.304900  0.597790  0.385820  1.0  0.1565
  C  C23  1  0.247500  0.542910  0.444580  1.0  -0.0431
  C  C24  1  0.213100  0.495300  0.420800  1.0  0.1842
  C  C25  1  0.235500  0.487800  0.344200  1.0  0.1982
  C  C26  1  0.180900  0.499190  0.792820  1.0  0.3845
  C  C27  1  0.197800  0.513450  0.705100  1.0  -0.1973
  C  C28  1  0.298300  0.492270  0.667060  1.0  0.1872
  C  C29  1  0.313700  0.506810  0.584980  1.0  0.159
  C  C30  1  0.230300  0.538460  0.532280  1.0  -0.0738
  C  C31  1  0.131300  0.559900  0.568800  1.0  0.1549
  C  C32  1  0.115300  0.547420  0.651760  1.0  0.1948
  C  C33  1  0.315400  0.738150  0.800100  1.0  0.3829
  C  C34  1  0.292000  0.825210  0.715980  1.0  -0.1602
  C  C35  1  0.327800  0.901780  0.692840  1.0  0.2056
  C  C36  1  0.304900  0.983610  0.614180  1.0  0.156
  C  C37  1  0.247500  0.987490  0.555420  1.0  -0.0434
  C  C38  1  0.213100  0.916100  0.579200  1.0  0.1866
  C  C39  1  0.235500  0.832000  0.655800  1.0  0.1947
  C  C40  1  0.180900  0.292010  0.207180  1.0  0.3806
  C  C41  1  0.197800  0.218550  0.294900  1.0  -0.1966
  C  C42  1  0.298300  0.159330  0.332940  1.0  0.1847
  C  C43  1  0.313700  0.091790  0.415020  1.0  0.1582
  C  C44  1  0.230300  0.070740  0.467720  1.0  -0.074
  C  C45  1  0.131300  0.128700  0.431200  1.0  0.1575
  C  C46  1  0.115300  0.199180  0.348240  1.0  0.1935
  C  C47  1  0.684600  0.461750  0.800100  1.0  0.385
  C  C48  1  0.708000  0.458810  0.715980  1.0  -0.1622
  C  C49  1  0.672200  0.405380  0.692840  1.0  0.2028
  C  C50  1  0.695100  0.402210  0.614180  1.0  0.1576
  C  C51  1  0.752500  0.457090  0.555420  1.0  -0.0435
  C  C52  1  0.786900  0.504700  0.579200  1.0  0.1813
  C  C53  1  0.764500  0.512200  0.655800  1.0  0.1961
  C  C54  1  0.819100  0.500810  0.207180  1.0  0.3817
  C  C55  1  0.802200  0.486550  0.294900  1.0  -0.1959
  C  C56  1  0.701700  0.507730  0.332940  1.0  0.1877
  C  C57  1  0.686300  0.493190  0.415020  1.0  0.1614
  C  C58  1  0.769700  0.461540  0.467720  1.0  -0.0742
  C  C59  1  0.868700  0.440100  0.431200  1.0  0.1556
  C  C60  1  0.884700  0.452580  0.348240  1.0  0.1934
  N  N61  1  0.606500  0.386410  0.091380  1.0  -0.0081
  N  N62  1  0.705500  0.379300  0.088800  1.0  0.0107
  N  N63  1  0.757400  0.302820  0.156160  1.0  -0.3139
  N  N64  1  0.591100  0.313000  0.160400  1.0  -0.2918
  N  N65  1  0.801000  0.592570  0.908660  1.0  -0.0112
  N  N66  1  0.889900  0.602600  0.909200  1.0  -0.0126
  N  N67  1  0.904600  0.673650  0.838500  1.0  -0.3005
  N  N68  1  0.753000  0.660010  0.835180  1.0  -0.3012
  N  N69  1  0.393500  0.522210  0.091380  1.0  -0.0123
  N  N70  1  0.294500  0.531900  0.088800  1.0  0.0095
  N  N71  1  0.242600  0.541020  0.156160  1.0  -0.3157
  N  N72  1  0.408900  0.526600  0.160400  1.0  -0.29
  N  N73  1  0.199000  0.498770  0.908660  1.0  -0.0074
  N  N74  1  0.110100  0.488200  0.909200  1.0  -0.0167
  N  N75  1  0.095400  0.487850  0.838500  1.0  -0.3006
  N  N76  1  0.247000  0.504810  0.835180  1.0  -0.298
  N  N77  1  0.393500  0.613590  0.908620  1.0  -0.0086
  N  N78  1  0.294500  0.620700  0.911200  1.0  0.0103
  N  N79  1  0.242600  0.697180  0.843840  1.0  -0.315
  N  N80  1  0.408900  0.687000  0.839600  1.0  -0.2912
  N  N81  1  0.199000  0.407430  0.091340  1.0  -0.0106
  N  N82  1  0.110100  0.397400  0.090800  1.0  -0.014
  N  N83  1  0.095400  0.326350  0.161500  1.0  -0.2998
  N  N84  1  0.247000  0.339990  0.164820  1.0  -0.3017
  N  N85  1  0.606500  0.477790  0.908620  1.0  -0.0078
  N  N86  1  0.705500  0.468100  0.911200  1.0  0.0105
  N  N87  1  0.757400  0.458980  0.843840  1.0  -0.3156
  N  N88  1  0.591100  0.473400  0.839600  1.0  -0.2907
  N  N89  1  0.801000  0.501230  0.091340  1.0  -0.008
  N  N90  1  0.889900  0.511800  0.090800  1.0  -0.0159
  N  N91  1  0.904600  0.512150  0.161500  1.0  -0.2999
  N  N92  1  0.753000  0.495190  0.164820  1.0  -0.2985
  F  F93  1  0.620300  0.097050  0.252300  1.0  -0.119
  F  F94  1  0.660900  0.942120  0.403960  1.0  -0.119
  F  F95  1  0.838500  0.089710  0.478580  1.0  -0.1717
  F  F96  1  0.801200  0.240680  0.325240  1.0  -0.1159
  F  F97  1  0.615300  0.827850  0.713900  1.0  -0.1323
  F  F98  1  0.584900  0.964120  0.555760  1.0  -0.1322
  F  F99  1  0.951500  0.885640  0.521920  1.0  -0.1189
  F  F100  1  0.982500  0.754170  0.682460  1.0  -0.1062
  F  F101  1  0.379700  0.650650  0.252300  1.0  -0.1209
  F  F102  1  0.339100  0.653920  0.403960  1.0  -0.1208
  F  F103  1  0.161500  0.431710  0.478580  1.0  -0.1698
  F  F104  1  0.198800  0.434080  0.325240  1.0  -0.119
  F  F105  1  0.384700  0.458250  0.713900  1.0  -0.1329
  F  F106  1  0.415100  0.480120  0.555760  1.0  -0.1319
  F  F107  1  0.048500  0.592440  0.521920  1.0  -0.1221
  F  F108  1  0.017500  0.563370  0.682460  1.0  -0.1066
  F  F109  1  0.379700  0.902950  0.747700  1.0  -0.1176
  F  F110  1  0.339100  0.057880  0.596040  1.0  -0.1182
  F  F111  1  0.161500  0.910290  0.521420  1.0  -0.1719
  F  F112  1  0.198800  0.759320  0.674760  1.0  -0.1183
  F  F113  1  0.384700  0.172150  0.286100  1.0  -0.1318
  F  F114  1  0.415100  0.035880  0.444240  1.0  -0.1326
  F  F115  1  0.048500  0.114360  0.478080  1.0  -0.1198
  F  F116  1  0.017500  0.245830  0.317540  1.0  -0.1065
  F  F117  1  0.620300  0.349350  0.747700  1.0  -0.1211
  F  F118  1  0.660900  0.346080  0.596040  1.0  -0.1222
  F  F119  1  0.838500  0.568290  0.521420  1.0  -0.1686
  F  F120  1  0.801200  0.565920  0.674760  1.0  -0.1192
  F  F121  1  0.615300  0.541750  0.286100  1.0  -0.133
  F  F122  1  0.584900  0.519880  0.444240  1.0  -0.1321
  F  F123  1  0.951500  0.407560  0.478080  1.0  -0.1201
  F  F124  1  0.982500  0.436630  0.317540  1.0  -0.1055
