# generated using pymatgen
data_MnH6(C3O)4
_symmetry_space_group_name_H-M   'P 1'
_cell_length_a   11.87310000
_cell_length_b   13.23340000
_cell_length_c   18.47430000
_cell_angle_alpha   90.00000000
_cell_angle_beta   90.00000000
_cell_angle_gamma   109.51100000
_symmetry_Int_Tables_number   1
_chemical_formula_structural   MnH6(C3O)4
_chemical_formula_sum   'Mn6 H36 C72 O24'
_cell_volume   2736.02822984
_cell_formula_units_Z   6
loop_
 _symmetry_equiv_pos_site_id
 _symmetry_equiv_pos_as_xyz
  1  'x, y, z'
loop_
 _atom_site_type_symbol
 _atom_site_label
 _atom_site_symmetry_multiplicity
 _atom_site_fract_x
 _atom_site_fract_y
 _atom_site_fract_z
 _atom_site_occupancy
 _atom_site_charge
  Mn  Mn1  1  0.151650  0.787440  0.979680  1.0  1.1163
  Mn  Mn2  1  0.348350  0.712560  0.479680  1.0  1.1163
  Mn  Mn3  1  0.848350  0.212560  0.020320  1.0  1.116
  Mn  Mn4  1  0.651650  0.287440  0.520320  1.0  1.1164
  Mn  Mn5  1  0.000000  0.500000  0.000000  1.0  1.1924
  Mn  Mn6  1  0.500000  0.000000  0.500000  1.0  1.1938
  H  H7  1  0.069500  0.133000  0.855900  1.0  0.1081
  H  H8  1  0.247400  0.448000  0.858300  1.0  0.0957
  H  H9  1  0.380200  0.427900  0.774900  1.0  0.1101
  H  H10  1  0.445700  0.310600  0.691800  1.0  0.1038
  H  H11  1  0.276800  0.994600  0.694500  1.0  0.1062
  H  H12  1  0.146700  0.013200  0.779600  1.0  0.1074
  H  H13  1  0.593800  0.584800  0.875500  1.0  0.099
  H  H14  1  0.450400  0.664400  0.870000  1.0  0.1103
  H  H15  1  0.305300  0.523000  0.055500  1.0  0.1038
  H  H16  1  0.430500  0.367000  0.355900  1.0  0.1084
  H  H17  1  0.252600  0.052000  0.358300  1.0  0.0959
  H  H18  1  0.119800  0.072100  0.274900  1.0  0.1103
  H  H19  1  0.054300  0.189400  0.191800  1.0  0.1035
  H  H20  1  0.223200  0.505400  0.194500  1.0  0.1066
  H  H21  1  0.353300  0.486800  0.279600  1.0  0.1076
  H  H22  1  0.906200  0.915200  0.375500  1.0  0.0987
  H  H23  1  0.049600  0.835600  0.370000  1.0  0.1091
  H  H24  1  0.194700  0.977000  0.555500  1.0  0.1041
  H  H25  1  0.930500  0.867000  0.144100  1.0  0.1083
  H  H26  1  0.752600  0.552000  0.141700  1.0  0.0963
  H  H27  1  0.619800  0.572100  0.225100  1.0  0.1101
  H  H28  1  0.554300  0.689400  0.308200  1.0  0.1033
  H  H29  1  0.723200  0.005400  0.305500  1.0  0.1065
  H  H30  1  0.853300  0.986800  0.220400  1.0  0.1074
  H  H31  1  0.406200  0.415200  0.124500  1.0  0.0987
  H  H32  1  0.549600  0.335600  0.130000  1.0  0.1093
  H  H33  1  0.694700  0.477000  0.944500  1.0  0.1037
  H  H34  1  0.569500  0.633000  0.644100  1.0  0.108
  H  H35  1  0.747400  0.948000  0.641700  1.0  0.0967
  H  H36  1  0.880200  0.927900  0.725100  1.0  0.1099
  H  H37  1  0.945700  0.810600  0.808200  1.0  0.1038
  H  H38  1  0.776800  0.494600  0.805500  1.0  0.1061
  H  H39  1  0.646700  0.513200  0.720400  1.0  0.1072
  H  H40  1  0.093800  0.084800  0.624500  1.0  0.0984
  H  H41  1  0.950400  0.164400  0.630000  1.0  0.1103
  H  H42  1  0.805300  0.023000  0.444500  1.0  0.1036
  C  C43  1  0.132100  0.191700  0.839270  1.0  -0.0798
  C  C44  1  0.144200  0.291600  0.864380  1.0  -0.1501
  C  C45  1  0.238600  0.380200  0.840250  1.0  -0.0303
  C  C46  1  0.317800  0.368200  0.790560  1.0  -0.145
  C  C47  1  0.384600  0.251400  0.709330  1.0  -0.0741
  C  C48  1  0.372800  0.152700  0.683130  1.0  -0.1521
  C  C49  1  0.283200  0.062600  0.711040  1.0  -0.0505
  C  C50  1  0.205700  0.073700  0.761890  1.0  -0.1367
  C  C51  1  0.213500  0.176000  0.788210  1.0  0.0399
  C  C52  1  0.306200  0.266400  0.762640  1.0  0.0452
  C  C53  1  0.057200  0.308600  0.918440  1.0  0.7431
  C  C54  1  0.454700  0.142400  0.623080  1.0  0.7392
  C  C55  1  0.538200  0.573900  0.912680  1.0  -0.1156
  C  C56  1  0.451700  0.620100  0.908900  1.0  -0.066
  C  C57  1  0.363700  0.601700  0.963360  1.0  -0.1229
  C  C58  1  0.364900  0.536900  0.020530  1.0  -0.066
  C  C59  1  0.455900  0.490500  0.027320  1.0  0.0353
  C  C60  1  0.276500  0.661600  0.961180  1.0  0.6812
  C  C61  1  0.367900  0.308300  0.339270  1.0  -0.0799
  C  C62  1  0.355800  0.208400  0.364380  1.0  -0.1516
  C  C63  1  0.261400  0.119800  0.340250  1.0  -0.0303
  C  C64  1  0.182200  0.131800  0.290560  1.0  -0.1453
  C  C65  1  0.115400  0.248600  0.209330  1.0  -0.0747
  C  C66  1  0.127200  0.347300  0.183130  1.0  -0.1542
  C  C67  1  0.216800  0.437400  0.211040  1.0  -0.0461
  C  C68  1  0.294300  0.426300  0.261890  1.0  -0.1366
  C  C69  1  0.286500  0.324000  0.288210  1.0  0.0398
  C  C70  1  0.193800  0.233600  0.262640  1.0  0.0452
  C  C71  1  0.442800  0.191400  0.418440  1.0  0.743
  C  C72  1  0.045300  0.357600  0.123080  1.0  0.7383
  C  C73  1  0.961800  0.926100  0.412680  1.0  -0.1155
  C  C74  1  0.048300  0.879900  0.408900  1.0  -0.0656
  C  C75  1  0.136300  0.898300  0.463360  1.0  -0.1237
  C  C76  1  0.135100  0.963100  0.520530  1.0  -0.065
  C  C77  1  0.044100  0.009500  0.527320  1.0  0.0354
  C  C78  1  0.223500  0.838400  0.461180  1.0  0.6835
  C  C79  1  0.867900  0.808300  0.160730  1.0  -0.0793
  C  C80  1  0.855800  0.708400  0.135620  1.0  -0.1508
  C  C81  1  0.761400  0.619800  0.159750  1.0  -0.0307
  C  C82  1  0.682200  0.631800  0.209440  1.0  -0.145
  C  C83  1  0.615400  0.748600  0.290670  1.0  -0.0749
  C  C84  1  0.627200  0.847300  0.316870  1.0  -0.1543
  C  C85  1  0.716800  0.937400  0.288960  1.0  -0.0461
  C  C86  1  0.794300  0.926300  0.238110  1.0  -0.136
  C  C87  1  0.786500  0.824000  0.211790  1.0  0.0391
  C  C88  1  0.693800  0.733600  0.237360  1.0  0.045
  C  C89  1  0.942800  0.691400  0.081560  1.0  0.7428
  C  C90  1  0.545300  0.857600  0.376920  1.0  0.7377
  C  C91  1  0.461800  0.426100  0.087320  1.0  -0.1092
  C  C92  1  0.548300  0.379900  0.091100  1.0  -0.0672
  C  C93  1  0.636300  0.398300  0.036640  1.0  -0.1238
  C  C94  1  0.635100  0.463100  0.979470  1.0  -0.0632
  C  C95  1  0.544100  0.509500  0.972680  1.0  0.0355
  C  C96  1  0.723500  0.338400  0.038820  1.0  0.6832
  C  C97  1  0.632100  0.691700  0.660730  1.0  -0.0795
  C  C98  1  0.644200  0.791600  0.635620  1.0  -0.1507
  C  C99  1  0.738600  0.880200  0.659750  1.0  -0.0307
  C  C100  1  0.817800  0.868200  0.709440  1.0  -0.1455
  C  C101  1  0.884600  0.751400  0.790670  1.0  -0.0748
  C  C102  1  0.872800  0.652700  0.816870  1.0  -0.153
  C  C103  1  0.783200  0.562600  0.788960  1.0  -0.0506
  C  C104  1  0.705700  0.573700  0.738110  1.0  -0.1367
  C  C105  1  0.713500  0.676000  0.711790  1.0  0.0388
  C  C106  1  0.806200  0.766400  0.737360  1.0  0.0449
  C  C107  1  0.557200  0.808600  0.581560  1.0  0.7431
  C  C108  1  0.954700  0.642400  0.876920  1.0  0.7388
  C  C109  1  0.038200  0.073900  0.587320  1.0  -0.109
  C  C110  1  0.951700  0.120100  0.591100  1.0  -0.0675
  C  C111  1  0.863700  0.101700  0.536640  1.0  -0.123
  C  C112  1  0.864900  0.036900  0.479470  1.0  -0.0643
  C  C113  1  0.955900  0.990500  0.472680  1.0  0.0354
  C  C114  1  0.776500  0.161600  0.538820  1.0  0.6812
  O  O115  1  0.070170  0.402030  0.935520  1.0  -0.6109
  O  O116  1  0.977890  0.226710  0.941220  1.0  -0.6591
  O  O117  1  0.437490  0.051910  0.597720  1.0  -0.6064
  O  O118  1  0.532650  0.226750  0.604550  1.0  -0.6417
  O  O119  1  0.182330  0.628770  0.999030  1.0  -0.6555
  O  O120  1  0.302810  0.746390  0.926020  1.0  -0.5845
  O  O121  1  0.429830  0.097970  0.435520  1.0  -0.6101
  O  O122  1  0.522110  0.273290  0.441220  1.0  -0.6583
  O  O123  1  0.062510  0.448090  0.097720  1.0  -0.6079
  O  O124  1  0.967350  0.273250  0.104550  1.0  -0.6367
  O  O125  1  0.317670  0.871230  0.499030  1.0  -0.6552
  O  O126  1  0.197190  0.753610  0.426020  1.0  -0.5836
  O  O127  1  0.929830  0.597970  0.064480  1.0  -0.6108
  O  O128  1  0.022110  0.773290  0.058780  1.0  -0.6583
  O  O129  1  0.562510  0.948090  0.402280  1.0  -0.6076
  O  O130  1  0.467350  0.773250  0.395450  1.0  -0.6364
  O  O131  1  0.817670  0.371230  0.000970  1.0  -0.6559
  O  O132  1  0.697190  0.253610  0.073980  1.0  -0.5833
  O  O133  1  0.570170  0.902030  0.564480  1.0  -0.6107
  O  O134  1  0.477890  0.726710  0.558780  1.0  -0.6589
  O  O135  1  0.937490  0.551910  0.902280  1.0  -0.606
  O  O136  1  0.032650  0.726750  0.895450  1.0  -0.6413
  O  O137  1  0.682330  0.128770  0.500970  1.0  -0.6558
  O  O138  1  0.802810  0.246390  0.573980  1.0  -0.5833
