# generated using pymatgen
data_MnH6(C3O)4
_symmetry_space_group_name_H-M   'P 1'
_cell_length_a   11.66710000
_cell_length_b   11.66710000
_cell_length_c   20.98690000
_cell_angle_alpha   95.85660000
_cell_angle_beta   95.85660000
_cell_angle_gamma   104.27600000
_symmetry_Int_Tables_number   1
_chemical_formula_structural   MnH6(C3O)4
_chemical_formula_sum   'Mn6 H36 C72 O24'
_cell_volume   2730.01417642
_cell_formula_units_Z   6
loop_
 _symmetry_equiv_pos_site_id
 _symmetry_equiv_pos_as_xyz
  1  'x, y, z'
loop_
 _atom_site_type_symbol
 _atom_site_label
 _atom_site_symmetry_multiplicity
 _atom_site_fract_x
 _atom_site_fract_y
 _atom_site_fract_z
 _atom_site_occupancy
 _atom_site_charge
  Mn  Mn1  1  0.520930  0.032030  0.812890  1.0  1.0896
  Mn  Mn2  1  0.967970  0.479070  0.687110  1.0  1.0912
  Mn  Mn3  1  0.479070  0.967970  0.187110  1.0  1.0909
  Mn  Mn4  1  0.032030  0.520930  0.312890  1.0  1.0896
  Mn  Mn5  1  0.752070  0.247930  0.750000  1.0  1.009
  Mn  Mn6  1  0.247930  0.752070  0.250000  1.0  1.0092
  H  H7  1  0.647700  0.037300  0.608300  1.0  0.1034
  H  H8  1  0.303600  0.036200  0.606300  1.0  0.1143
  H  H9  1  0.275400  0.006200  0.496000  1.0  0.0947
  H  H10  1  0.736700  0.501500  0.915700  1.0  0.0854
  H  H11  1  0.720100  0.630500  0.002000  1.0  0.1052
  H  H12  1  0.403000  0.306000  0.917200  1.0  0.1081
  H  H13  1  0.999800  0.224400  0.528500  1.0  0.1101
  H  H14  1  0.888600  0.980200  0.644200  1.0  0.1106
  H  H15  1  0.929500  0.836700  0.575000  1.0  0.1134
  H  H16  1  0.962700  0.352300  0.891700  1.0  0.104
  H  H17  1  0.963800  0.696400  0.893700  1.0  0.115
  H  H18  1  0.993800  0.724600  0.004000  1.0  0.0939
  H  H19  1  0.498500  0.263300  0.584300  1.0  0.0866
  H  H20  1  0.369500  0.279900  0.498000  1.0  0.1057
  H  H21  1  0.694000  0.597000  0.582800  1.0  0.1079
  H  H22  1  0.775600  0.000200  0.971500  1.0  0.109
  H  H23  1  0.019800  0.111400  0.855800  1.0  0.1115
  H  H24  1  0.163300  0.070500  0.925000  1.0  0.1128
  H  H25  1  0.352300  0.962700  0.391700  1.0  0.103
  H  H26  1  0.696400  0.963800  0.393700  1.0  0.1145
  H  H27  1  0.724600  0.993800  0.504000  1.0  0.0945
  H  H28  1  0.263300  0.498500  0.084300  1.0  0.0858
  H  H29  1  0.279900  0.369500  0.998000  1.0  0.1053
  H  H30  1  0.597000  0.694000  0.082800  1.0  0.1081
  H  H31  1  0.000200  0.775600  0.471500  1.0  0.1101
  H  H32  1  0.111400  0.019800  0.355800  1.0  0.1108
  H  H33  1  0.070500  0.163300  0.425000  1.0  0.1129
  H  H34  1  0.037300  0.647700  0.108300  1.0  0.1037
  H  H35  1  0.036200  0.303600  0.106300  1.0  0.1147
  H  H36  1  0.006200  0.275400  0.996000  1.0  0.0939
  H  H37  1  0.501500  0.736700  0.415700  1.0  0.0864
  H  H38  1  0.630500  0.720100  0.502000  1.0  0.1055
  H  H39  1  0.306000  0.403000  0.417200  1.0  0.1078
  H  H40  1  0.224400  0.999800  0.028500  1.0  0.1091
  H  H41  1  0.980200  0.888600  0.144200  1.0  0.1111
  H  H42  1  0.836700  0.929500  0.075000  1.0  0.1129
  C  C43  1  0.495380  0.051700  0.690480  1.0  0.6868
  C  C44  1  0.480720  0.038660  0.618180  1.0  -0.1296
  C  C45  1  0.572780  0.028480  0.585490  1.0  -0.0551
  C  C46  1  0.557190  0.004750  0.517260  1.0  0.0381
  C  C47  1  0.366790  0.029210  0.583860  1.0  -0.0661
  C  C48  1  0.349800  0.009840  0.518060  1.0  -0.1102
  C  C49  1  0.585400  0.301460  0.854380  1.0  0.7302
  C  C50  1  0.570480  0.389420  0.908630  1.0  -0.1395
  C  C51  1  0.665990  0.488610  0.933990  1.0  -0.0332
  C  C52  1  0.655820  0.566180  0.985200  1.0  -0.1423
  C  C53  1  0.465980  0.371300  0.934380  1.0  -0.0805
  C  C54  1  0.451790  0.450530  0.987040  1.0  0.0452
  C  C55  1  0.910320  0.211660  0.638450  1.0  0.7152
  C  C56  1  0.940630  0.118270  0.592770  1.0  -0.1477
  C  C57  1  0.985360  0.146060  0.537410  1.0  -0.071
  C  C58  1  0.010500  0.058820  0.492920  1.0  0.0428
  C  C59  1  0.919410  0.000050  0.606450  1.0  -0.0458
  C  C60  1  0.943530  0.914350  0.565020  1.0  -0.1413
  C  C61  1  0.948300  0.504620  0.809520  1.0  0.6873
  C  C62  1  0.961340  0.519280  0.881820  1.0  -0.1299
  C  C63  1  0.971520  0.427220  0.914510  1.0  -0.0552
  C  C64  1  0.995250  0.442810  0.982740  1.0  0.0378
  C  C65  1  0.970790  0.633210  0.916140  1.0  -0.0679
  C  C66  1  0.990160  0.650200  0.981940  1.0  -0.1114
  C  C67  1  0.698540  0.414600  0.645620  1.0  0.7293
  C  C68  1  0.610580  0.429520  0.591370  1.0  -0.1379
  C  C69  1  0.511390  0.334010  0.566010  1.0  -0.0354
  C  C70  1  0.433820  0.344180  0.514800  1.0  -0.1422
  C  C71  1  0.628700  0.534020  0.565620  1.0  -0.0806
  C  C72  1  0.549470  0.548210  0.512960  1.0  0.0449
  C  C73  1  0.788340  0.089680  0.861550  1.0  0.7132
  C  C74  1  0.881730  0.059370  0.907230  1.0  -0.1498
  C  C75  1  0.853940  0.014640  0.962590  1.0  -0.0743
  C  C76  1  0.941180  0.989500  0.007080  1.0  0.0421
  C  C77  1  0.999950  0.080590  0.893550  1.0  -0.0464
  C  C78  1  0.085650  0.056470  0.934980  1.0  -0.1451
  C  C79  1  0.504620  0.948300  0.309520  1.0  0.6875
  C  C80  1  0.519280  0.961340  0.381820  1.0  -0.1295
  C  C81  1  0.427220  0.971520  0.414510  1.0  -0.0552
  C  C82  1  0.442810  0.995250  0.482740  1.0  0.0383
  C  C83  1  0.633210  0.970790  0.416140  1.0  -0.0671
  C  C84  1  0.650200  0.990160  0.481940  1.0  -0.098
  C  C85  1  0.414600  0.698540  0.145620  1.0  0.7318
  C  C86  1  0.429520  0.610580  0.091370  1.0  -0.1393
  C  C87  1  0.334010  0.511390  0.066010  1.0  -0.0343
  C  C88  1  0.344180  0.433820  0.014800  1.0  -0.136
  C  C89  1  0.534020  0.628700  0.065620  1.0  -0.0798
  C  C90  1  0.548210  0.549470  0.012960  1.0  0.0449
  C  C91  1  0.089680  0.788340  0.361550  1.0  0.7158
  C  C92  1  0.059370  0.881730  0.407230  1.0  -0.149
  C  C93  1  0.014640  0.853940  0.462590  1.0  -0.0727
  C  C94  1  0.989500  0.941180  0.507080  1.0  0.0428
  C  C95  1  0.080590  0.999950  0.393550  1.0  -0.0456
  C  C96  1  0.056470  0.085650  0.434980  1.0  -0.1333
  C  C97  1  0.051700  0.495380  0.190480  1.0  0.6864
  C  C98  1  0.038660  0.480720  0.118180  1.0  -0.13
  C  C99  1  0.028480  0.572780  0.085490  1.0  -0.0549
  C  C100  1  0.004750  0.557190  0.017260  1.0  0.0382
  C  C101  1  0.029210  0.366790  0.083860  1.0  -0.0672
  C  C102  1  0.009840  0.349800  0.018060  1.0  -0.0976
  C  C103  1  0.301460  0.585400  0.354380  1.0  0.7291
  C  C104  1  0.389420  0.570480  0.408630  1.0  -0.1382
  C  C105  1  0.488610  0.665990  0.433990  1.0  -0.0361
  C  C106  1  0.566180  0.655820  0.485200  1.0  -0.1394
  C  C107  1  0.371300  0.465980  0.434380  1.0  -0.0799
  C  C108  1  0.450530  0.451790  0.487040  1.0  0.0449
  C  C109  1  0.211660  0.910320  0.138450  1.0  0.7133
  C  C110  1  0.118270  0.940630  0.092770  1.0  -0.1492
  C  C111  1  0.146060  0.985360  0.037410  1.0  -0.0746
  C  C112  1  0.058820  0.010500  0.992920  1.0  0.0415
  C  C113  1  0.000050  0.919410  0.106450  1.0  -0.0458
  C  C114  1  0.914350  0.943530  0.065020  1.0  -0.1373
  O  O115  1  0.600350  0.086870  0.721760  1.0  -0.6311
  O  O116  1  0.406070  0.020890  0.718350  1.0  -0.5817
  O  O117  1  0.672370  0.331210  0.824390  1.0  -0.5662
  O  O118  1  0.507600  0.203400  0.844050  1.0  -0.6493
  O  O119  1  0.850930  0.176070  0.681580  1.0  -0.5566
  O  O120  1  0.947840  0.317860  0.628360  1.0  -0.6546
  O  O121  1  0.913130  0.399650  0.778240  1.0  -0.6317
  O  O122  1  0.979110  0.593930  0.781650  1.0  -0.579
  O  O123  1  0.668790  0.327630  0.675610  1.0  -0.5678
  O  O124  1  0.796600  0.492400  0.655950  1.0  -0.6476
  O  O125  1  0.823930  0.149070  0.818420  1.0  -0.5588
  O  O126  1  0.682140  0.052160  0.871640  1.0  -0.6533
  O  O127  1  0.399650  0.913130  0.278240  1.0  -0.6296
  O  O128  1  0.593930  0.979110  0.281650  1.0  -0.5814
  O  O129  1  0.327630  0.668790  0.175610  1.0  -0.5661
  O  O130  1  0.492400  0.796600  0.155950  1.0  -0.65
  O  O131  1  0.149070  0.823930  0.318420  1.0  -0.5613
  O  O132  1  0.052160  0.682140  0.371640  1.0  -0.6541
  O  O133  1  0.086870  0.600350  0.221760  1.0  -0.6329
  O  O134  1  0.020890  0.406070  0.218350  1.0  -0.5793
  O  O135  1  0.331210  0.672370  0.324390  1.0  -0.5668
  O  O136  1  0.203400  0.507600  0.344050  1.0  -0.6489
  O  O137  1  0.176070  0.850930  0.181580  1.0  -0.558
  O  O138  1  0.317860  0.947840  0.128360  1.0  -0.6542
