# generated using pymatgen
data_MnH4(C2O)4
_symmetry_space_group_name_H-M   'P 1'
_cell_length_a   10.31770000
_cell_length_b   10.31770000
_cell_length_c   12.65270000
_cell_angle_alpha   100.75400000
_cell_angle_beta   100.75400000
_cell_angle_gamma   104.73000000
_symmetry_Int_Tables_number   1
_chemical_formula_structural   MnH4(C2O)4
_chemical_formula_sum   'Mn4 H16 C32 O16'
_cell_volume   1240.36545139
_cell_formula_units_Z   4
loop_
 _symmetry_equiv_pos_site_id
 _symmetry_equiv_pos_as_xyz
  1  'x, y, z'
loop_
 _atom_site_type_symbol
 _atom_site_label
 _atom_site_symmetry_multiplicity
 _atom_site_fract_x
 _atom_site_fract_y
 _atom_site_fract_z
 _atom_site_occupancy
 _atom_site_charge
  Mn  Mn1  1  0.772860  0.378520  0.901470  1.0  1.1504
  Mn  Mn2  1  0.621480  0.227140  0.598530  1.0  1.1496
  Mn  Mn3  1  0.227140  0.621480  0.098530  1.0  1.1492
  Mn  Mn4  1  0.378520  0.772860  0.401470  1.0  1.1512
  H  H5  1  0.614900  0.672900  0.590700  1.0  0.1007
  H  H6  1  0.827700  0.038100  0.802400  1.0  0.0989
  H  H7  1  0.923500  0.925500  0.921500  1.0  0.1019
  H  H8  1  0.869800  0.688200  0.875500  1.0  0.1002
  H  H9  1  0.327100  0.385100  0.909300  1.0  0.1005
  H  H10  1  0.961900  0.172300  0.697600  1.0  0.0983
  H  H11  1  0.074500  0.076500  0.578500  1.0  0.1023
  H  H12  1  0.311800  0.130200  0.624500  1.0  0.0998
  H  H13  1  0.385100  0.327100  0.409300  1.0  0.1002
  H  H14  1  0.172300  0.961900  0.197600  1.0  0.0991
  H  H15  1  0.076500  0.074500  0.078500  1.0  0.1027
  H  H16  1  0.130200  0.311800  0.124500  1.0  0.1004
  H  H17  1  0.672900  0.614900  0.090700  1.0  0.1003
  H  H18  1  0.038100  0.827700  0.302400  1.0  0.0992
  H  H19  1  0.925500  0.923500  0.421500  1.0  0.1024
  H  H20  1  0.688200  0.869800  0.375500  1.0  0.0996
  C  C21  1  0.736910  0.656890  0.728900  1.0  -0.1578
  C  C22  1  0.678250  0.724150  0.657000  1.0  0.0188
  C  C23  1  0.712950  0.866850  0.683200  1.0  -0.1979
  C  C24  1  0.804800  0.942200  0.783300  1.0  -0.0325
  C  C25  1  0.862000  0.874600  0.854300  1.0  -0.1319
  C  C26  1  0.829300  0.732700  0.827300  1.0  -0.0109
  C  C27  1  0.701380  0.502420  0.698500  1.0  0.7156
  C  C28  1  0.650920  0.939480  0.604800  1.0  0.7681
  C  C29  1  0.343110  0.263090  0.771100  1.0  -0.1594
  C  C30  1  0.275850  0.321750  0.843000  1.0  0.0185
  C  C31  1  0.133150  0.287050  0.816800  1.0  -0.1957
  C  C32  1  0.057800  0.195200  0.716700  1.0  -0.0309
  C  C33  1  0.125400  0.138000  0.645700  1.0  -0.132
  C  C34  1  0.267300  0.170700  0.672700  1.0  -0.0112
  C  C35  1  0.497580  0.298620  0.801500  1.0  0.7136
  C  C36  1  0.060520  0.349080  0.895200  1.0  0.7678
  C  C37  1  0.263090  0.343110  0.271100  1.0  -0.1583
  C  C38  1  0.321750  0.275850  0.343000  1.0  0.0185
  C  C39  1  0.287050  0.133150  0.316800  1.0  -0.1973
  C  C40  1  0.195200  0.057800  0.216700  1.0  -0.0242
  C  C41  1  0.138000  0.125400  0.145700  1.0  -0.133
  C  C42  1  0.170700  0.267300  0.172700  1.0  -0.0099
  C  C43  1  0.298620  0.497580  0.301500  1.0  0.7125
  C  C44  1  0.349080  0.060520  0.395200  1.0  0.7678
  C  C45  1  0.656890  0.736910  0.228900  1.0  -0.1591
  C  C46  1  0.724150  0.678250  0.157000  1.0  0.019
  C  C47  1  0.866850  0.712950  0.183200  1.0  -0.196
  C  C48  1  0.942200  0.804800  0.283300  1.0  -0.0281
  C  C49  1  0.874600  0.862000  0.354300  1.0  -0.1306
  C  C50  1  0.732700  0.829300  0.327300  1.0  -0.0116
  C  C51  1  0.502420  0.701380  0.198500  1.0  0.716
  C  C52  1  0.939480  0.650920  0.104800  1.0  0.7684
  O  O53  1  0.780400  0.447280  0.750000  1.0  -0.6723
  O  O54  1  0.598320  0.434060  0.622250  1.0  -0.5742
  O  O55  1  0.556690  0.868190  0.524480  1.0  -0.6621
  O  O56  1  0.700590  0.067270  0.626000  1.0  -0.6162
  O  O57  1  0.552720  0.219600  0.750000  1.0  -0.6722
  O  O58  1  0.565940  0.401680  0.877750  1.0  -0.5755
  O  O59  1  0.131810  0.443310  0.975520  1.0  -0.662
  O  O60  1  0.932730  0.299410  0.874000  1.0  -0.6173
  O  O61  1  0.219600  0.552720  0.250000  1.0  -0.6735
  O  O62  1  0.401680  0.565940  0.377750  1.0  -0.5737
  O  O63  1  0.443310  0.131810  0.475520  1.0  -0.662
  O  O64  1  0.299410  0.932730  0.374000  1.0  -0.617
  O  O65  1  0.447280  0.780400  0.250000  1.0  -0.6729
  O  O66  1  0.434060  0.598320  0.122250  1.0  -0.5754
  O  O67  1  0.868190  0.556690  0.024480  1.0  -0.6607
  O  O68  1  0.067270  0.700590  0.126000  1.0  -0.6167
