# generated using pymatgen
data_Co3H31C55O14
_symmetry_space_group_name_H-M   'P 1'
_cell_length_a   18.49000000
_cell_length_b   27.50900000
_cell_length_c   22.86000000
_cell_angle_alpha   90.00000000
_cell_angle_beta   123.23000000
_cell_angle_gamma   90.00000000
_symmetry_Int_Tables_number   1
_chemical_formula_structural   Co3H31C55O14
_chemical_formula_sum   'Co12 H124 C220 O56'
_cell_volume   9726.17773824
_cell_formula_units_Z   4
loop_
 _symmetry_equiv_pos_site_id
 _symmetry_equiv_pos_as_xyz
  1  'x, y, z'
loop_
 _atom_site_type_symbol
 _atom_site_label
 _atom_site_symmetry_multiplicity
 _atom_site_fract_x
 _atom_site_fract_y
 _atom_site_fract_z
 _atom_site_occupancy
 _atom_site_charge
  Co  Co1  1  0.638850  0.646380  0.192760  1.0  1.0998
  Co  Co2  1  0.609810  0.644710  0.945250  1.0  1.1252
  Co  Co3  1  0.754010  0.659640  0.123830  1.0  1.071
  Co  Co4  1  0.361150  0.146380  0.307240  1.0  1.098
  Co  Co5  1  0.390190  0.144710  0.554750  1.0  1.1233
  Co  Co6  1  0.245990  0.159640  0.376170  1.0  1.0719
  Co  Co7  1  0.361150  0.353620  0.807240  1.0  1.0982
  Co  Co8  1  0.390190  0.355290  0.054750  1.0  1.1238
  Co  Co9  1  0.245990  0.340360  0.876170  1.0  1.0727
  Co  Co10  1  0.638850  0.853620  0.692760  1.0  1.1
  Co  Co11  1  0.609810  0.855290  0.445250  1.0  1.1243
  Co  Co12  1  0.754010  0.840360  0.623830  1.0  1.072
  H  H13  1  0.399800  0.631300  0.198400  1.0  0.1098
  H  H14  1  0.287100  0.593000  0.196600  1.0  0.1209
  H  H15  1  0.138700  0.558000  0.117900  1.0  0.1178
  H  H16  1  0.987600  0.550800  0.012600  1.0  0.1073
  H  H17  1  0.858500  0.590300  0.963300  1.0  0.1077
  H  H18  1  0.390900  0.634100  0.714100  1.0  0.1131
  H  H19  1  0.287400  0.594300  0.608300  1.0  0.1268
  H  H20  1  0.143800  0.556800  0.535400  1.0  0.1165
  H  H21  1  0.985400  0.549900  0.469100  1.0  0.0915
  H  H22  1  0.859200  0.585400  0.382900  1.0  0.1252
  H  H23  1  0.298800  0.440900  0.615600  1.0  0.1105
  H  H24  1  0.114800  0.371500  0.238400  1.0  0.1167
  H  H25  1  0.144700  0.291300  0.272200  1.0  0.1079
  H  H26  1  0.292000  0.283000  0.194900  1.0  0.1148
  H  H27  1  0.257400  0.362000  0.157100  1.0  0.1039
  H  H28  1  0.435300  0.511100  0.117300  1.0  0.1224
  H  H29  1  0.325900  0.473200  0.118900  1.0  0.0982
  H  H30  1  0.287100  0.440000  0.191200  1.0  0.1209
  H  H31  1  0.046100  0.435100  0.150000  1.0  0.1166
  H  H32  1  0.837500  0.548200  0.120000  1.0  0.0994
  H  H33  1  0.963100  0.504600  0.167700  1.0  0.1175
  H  H34  1  0.913500  0.540100  0.242500  1.0  0.1242
  H  H35  1  0.039100  0.505400  0.332800  1.0  0.1082
  H  H36  1  0.094400  0.436800  0.420500  1.0  0.1079
  H  H37  1  0.314300  0.475200  0.720600  1.0  0.1199
  H  H38  1  0.417800  0.513600  0.820100  1.0  0.1084
  H  H39  1  0.274900  0.358800  0.613500  1.0  0.1124
  H  H40  1  0.311900  0.281700  0.604400  1.0  0.1159
  H  H41  1  0.218700  0.303200  0.402100  1.0  0.0981
  H  H42  1  0.177700  0.380700  0.408800  1.0  0.1204
  H  H43  1  0.508600  0.668200  0.050300  1.0  0.0641
  H  H44  1  0.600200  0.131300  0.301600  1.0  0.1098
  H  H45  1  0.712900  0.093000  0.303400  1.0  0.1207
  H  H46  1  0.861300  0.058000  0.382100  1.0  0.1176
  H  H47  1  0.012400  0.050800  0.487400  1.0  0.1077
  H  H48  1  0.141500  0.090300  0.536700  1.0  0.1076
  H  H49  1  0.609100  0.134100  0.785900  1.0  0.1129
  H  H50  1  0.712600  0.094300  0.891700  1.0  0.1268
  H  H51  1  0.856200  0.056800  0.964600  1.0  0.1166
  H  H52  1  0.014600  0.049900  0.030900  1.0  0.092
  H  H53  1  0.140800  0.085400  0.117100  1.0  0.1254
  H  H54  1  0.701200  0.940900  0.884400  1.0  0.1103
  H  H55  1  0.885200  0.871500  0.261600  1.0  0.1167
  H  H56  1  0.855300  0.791300  0.227800  1.0  0.1077
  H  H57  1  0.708000  0.783000  0.305100  1.0  0.115
  H  H58  1  0.742600  0.862000  0.342900  1.0  0.1043
  H  H59  1  0.564700  0.011100  0.382700  1.0  0.1233
  H  H60  1  0.674100  0.973200  0.381100  1.0  0.098
  H  H61  1  0.712900  0.940000  0.308800  1.0  0.1205
  H  H62  1  0.953900  0.935100  0.350000  1.0  0.1154
  H  H63  1  0.162500  0.048200  0.380000  1.0  0.0993
  H  H64  1  0.036900  0.004600  0.332300  1.0  0.1165
  H  H65  1  0.086500  0.040100  0.257500  1.0  0.1237
  H  H66  1  0.960900  0.005400  0.167200  1.0  0.1089
  H  H67  1  0.905600  0.936800  0.079500  1.0  0.1076
  H  H68  1  0.685700  0.975200  0.779400  1.0  0.1196
  H  H69  1  0.582200  0.013600  0.679900  1.0  0.1089
  H  H70  1  0.725100  0.858800  0.886500  1.0  0.1119
  H  H71  1  0.688100  0.781700  0.895600  1.0  0.1157
  H  H72  1  0.781300  0.803200  0.097900  1.0  0.0977
  H  H73  1  0.822300  0.880700  0.091200  1.0  0.1207
  H  H74  1  0.491400  0.168200  0.449700  1.0  0.0645
  H  H75  1  0.600200  0.368700  0.801600  1.0  0.1103
  H  H76  1  0.712900  0.407000  0.803400  1.0  0.1203
  H  H77  1  0.861300  0.442000  0.882100  1.0  0.1182
  H  H78  1  0.012400  0.449200  0.987400  1.0  0.1074
  H  H79  1  0.141500  0.409700  0.036700  1.0  0.1077
  H  H80  1  0.609100  0.365900  0.285900  1.0  0.1131
  H  H81  1  0.712600  0.405700  0.391700  1.0  0.1269
  H  H82  1  0.856200  0.443200  0.464600  1.0  0.1179
  H  H83  1  0.014600  0.450100  0.530900  1.0  0.0911
  H  H84  1  0.140800  0.414600  0.617100  1.0  0.1255
  H  H85  1  0.701200  0.559100  0.384400  1.0  0.1102
  H  H86  1  0.885200  0.628500  0.761600  1.0  0.1164
  H  H87  1  0.855300  0.708700  0.727800  1.0  0.1078
  H  H88  1  0.708000  0.717000  0.805100  1.0  0.1145
  H  H89  1  0.742600  0.638000  0.842900  1.0  0.1042
  H  H90  1  0.564700  0.488900  0.882700  1.0  0.1232
  H  H91  1  0.674100  0.526800  0.881100  1.0  0.098
  H  H92  1  0.712900  0.560000  0.808800  1.0  0.1203
  H  H93  1  0.953900  0.564900  0.850000  1.0  0.1155
  H  H94  1  0.162500  0.451800  0.880000  1.0  0.0993
  H  H95  1  0.036900  0.495400  0.832300  1.0  0.1166
  H  H96  1  0.086500  0.459900  0.757500  1.0  0.1234
  H  H97  1  0.960900  0.494600  0.667200  1.0  0.109
  H  H98  1  0.905600  0.563200  0.579500  1.0  0.1075
  H  H99  1  0.685700  0.524800  0.279400  1.0  0.1195
  H  H100  1  0.582200  0.486400  0.179900  1.0  0.1086
  H  H101  1  0.725100  0.641200  0.386500  1.0  0.1119
  H  H102  1  0.688100  0.718300  0.395600  1.0  0.1158
  H  H103  1  0.781300  0.696800  0.597900  1.0  0.0979
  H  H104  1  0.822300  0.619300  0.591200  1.0  0.1206
  H  H105  1  0.491400  0.331800  0.949700  1.0  0.0635
  H  H106  1  0.399800  0.868700  0.698400  1.0  0.1101
  H  H107  1  0.287100  0.907000  0.696600  1.0  0.1209
  H  H108  1  0.138700  0.942000  0.617900  1.0  0.1182
  H  H109  1  0.987600  0.949200  0.512600  1.0  0.1072
  H  H110  1  0.858500  0.909700  0.463300  1.0  0.1075
  H  H111  1  0.390900  0.865900  0.214100  1.0  0.1128
  H  H112  1  0.287400  0.905700  0.108300  1.0  0.126
  H  H113  1  0.143800  0.943200  0.035400  1.0  0.1173
  H  H114  1  0.985400  0.950100  0.969100  1.0  0.0905
  H  H115  1  0.859200  0.914600  0.882900  1.0  0.1253
  H  H116  1  0.298800  0.059100  0.115600  1.0  0.1106
  H  H117  1  0.114800  0.128500  0.738400  1.0  0.1168
  H  H118  1  0.144700  0.208700  0.772200  1.0  0.1077
  H  H119  1  0.292000  0.217000  0.694900  1.0  0.115
  H  H120  1  0.257400  0.138000  0.657100  1.0  0.1042
  H  H121  1  0.435300  0.988900  0.617300  1.0  0.1222
  H  H122  1  0.325900  0.026800  0.618900  1.0  0.0981
  H  H123  1  0.287100  0.060000  0.691200  1.0  0.1207
  H  H124  1  0.046100  0.064900  0.650000  1.0  0.1161
  H  H125  1  0.837500  0.951800  0.620000  1.0  0.0992
  H  H126  1  0.963100  0.995400  0.667700  1.0  0.1172
  H  H127  1  0.913500  0.959900  0.742500  1.0  0.1241
  H  H128  1  0.039100  0.994600  0.832800  1.0  0.1085
  H  H129  1  0.094400  0.063200  0.920500  1.0  0.1077
  H  H130  1  0.314300  0.024800  0.220600  1.0  0.12
  H  H131  1  0.417800  0.986400  0.320100  1.0  0.1082
  H  H132  1  0.274900  0.141200  0.113500  1.0  0.1119
  H  H133  1  0.311900  0.218300  0.104400  1.0  0.1153
  H  H134  1  0.218700  0.196800  0.902100  1.0  0.0982
  H  H135  1  0.177700  0.119300  0.908800  1.0  0.1204
  H  H136  1  0.508600  0.831800  0.550300  1.0  0.0637
  C  C137  1  0.296800  0.233800  0.495900  1.0  0.7275
  C  C138  1  0.508000  0.598900  0.166800  1.0  0.653
  C  C139  1  0.432100  0.575500  0.161800  1.0  -0.116
  C  C140  1  0.385900  0.599400  0.182900  1.0  -0.0435
  C  C141  1  0.317800  0.576400  0.181500  1.0  -0.1326
  C  C142  1  0.295600  0.529100  0.157900  1.0  0.0224
  C  C143  1  0.223900  0.503200  0.156500  1.0  0.005
  C  C144  1  0.146600  0.525700  0.132400  1.0  -0.0755
  C  C145  1  0.077800  0.499500  0.129600  1.0  0.0189
  C  C146  1  0.992000  0.524000  0.097000  1.0  0.0965
  C  C147  1  0.957500  0.549800  0.034500  1.0  -0.1231
  C  C148  1  0.880500  0.573700  0.005100  1.0  -0.0413
  C  C149  1  0.834000  0.573400  0.037100  1.0  -0.1113
  C  C150  1  0.487100  0.600700  0.842000  1.0  0.6406
  C  C151  1  0.416500  0.577000  0.776800  1.0  -0.1009
  C  C152  1  0.376800  0.601700  0.714800  1.0  -0.0578
  C  C153  1  0.313400  0.577900  0.650800  1.0  -0.114
  C  C154  1  0.291900  0.531100  0.653200  1.0  0.0139
  C  C155  1  0.233800  0.503600  0.586300  1.0  0.0324
  C  C156  1  0.158800  0.525500  0.530500  1.0  -0.1519
  C  C157  1  0.107200  0.500700  0.468300  1.0  0.0465
  C  C158  1  0.026800  0.524000  0.411700  1.0  0.0549
  C  C159  1  0.971000  0.548100  0.423300  1.0  -0.1239
  C  C160  1  0.895400  0.569900  0.372400  1.0  -0.1008
  C  C161  1  0.875400  0.567800  0.303900  1.0  -0.1288
  C  C162  1  0.250500  0.456100  0.578300  1.0  -0.0903
  C  C163  1  0.794200  0.592500  0.247100  1.0  0.7152
  C  C164  1  0.252900  0.228700  0.270100  1.0  0.7164
  C  C165  1  0.150700  0.353900  0.229500  1.0  -0.1237
  C  C166  1  0.169800  0.305900  0.250700  1.0  -0.0253
  C  C167  1  0.224800  0.279700  0.240700  1.0  -0.1323
  C  C168  1  0.256700  0.300800  0.204200  1.0  -0.0636
  C  C169  1  0.236000  0.348300  0.181800  1.0  -0.1513
  C  C170  1  0.406800  0.527300  0.134800  1.0  -0.0979
  C  C171  1  0.340700  0.505100  0.134800  1.0  -0.1649
  C  C172  1  0.234800  0.455100  0.176500  1.0  -0.108
  C  C173  1  0.169600  0.428100  0.175500  1.0  0.0614
  C  C174  1  0.090600  0.451900  0.151300  1.0  -0.0905
  C  C175  1  0.867200  0.548200  0.097900  1.0  -0.0424
  C  C176  1  0.943500  0.522800  0.127400  1.0  -0.1275
  C  C177  1  0.184300  0.375900  0.195200  1.0  0.0795
  C  C178  1  0.750600  0.600300  0.003200  1.0  0.6665
  C  C179  1  0.928200  0.542700  0.288300  1.0  -0.1243
  C  C180  1  0.003100  0.521700  0.342800  1.0  -0.1088
  C  C181  1  0.128600  0.453300  0.462700  1.0  -0.1188
  C  C182  1  0.198900  0.430100  0.517600  1.0  0.0316
  C  C183  1  0.330700  0.506800  0.718400  1.0  -0.1715
  C  C184  1  0.391800  0.530000  0.777600  1.0  -0.0229
  C  C185  1  0.222700  0.379800  0.511400  1.0  0.0621
  C  C186  1  0.263400  0.347800  0.570800  1.0  -0.1351
  C  C187  1  0.285200  0.301900  0.565400  1.0  -0.0625
  C  C188  1  0.267600  0.284600  0.500900  1.0  -0.1417
  C  C189  1  0.229200  0.314500  0.444400  1.0  -0.0345
  C  C190  1  0.205600  0.361300  0.448600  1.0  -0.1278
  C  C191  1  0.552700  0.661300  0.043400  1.0  0.699
  C  C192  1  0.703200  0.733800  0.004100  1.0  0.7289
  C  C193  1  0.492000  0.098900  0.333200  1.0  0.6517
  C  C194  1  0.567900  0.075500  0.338200  1.0  -0.1168
  C  C195  1  0.614100  0.099400  0.317100  1.0  -0.0438
  C  C196  1  0.682200  0.076400  0.318500  1.0  -0.1333
  C  C197  1  0.704400  0.029100  0.342100  1.0  0.0229
  C  C198  1  0.776100  0.003200  0.343500  1.0  0.0054
  C  C199  1  0.853400  0.025700  0.367600  1.0  -0.0757
  C  C200  1  0.922200  0.999500  0.370400  1.0  0.018
  C  C201  1  0.008000  0.024000  0.403000  1.0  0.0956
  C  C202  1  0.042500  0.049800  0.465500  1.0  -0.1238
  C  C203  1  0.119500  0.073700  0.494900  1.0  -0.0409
  C  C204  1  0.166000  0.073400  0.462900  1.0  -0.1128
  C  C205  1  0.512900  0.100700  0.658000  1.0  0.6397
  C  C206  1  0.583500  0.077000  0.723200  1.0  -0.1002
  C  C207  1  0.623200  0.101700  0.785200  1.0  -0.0584
  C  C208  1  0.686600  0.077900  0.849200  1.0  -0.1129
  C  C209  1  0.708100  0.031100  0.846800  1.0  0.0139
  C  C210  1  0.766200  0.003600  0.913700  1.0  0.0321
  C  C211  1  0.841200  0.025500  0.969500  1.0  -0.1498
  C  C212  1  0.892800  0.000700  0.031700  1.0  0.0439
  C  C213  1  0.973200  0.024000  0.088300  1.0  0.0542
  C  C214  1  0.029000  0.048100  0.076700  1.0  -0.1232
  C  C215  1  0.104600  0.069900  0.127600  1.0  -0.1001
  C  C216  1  0.124600  0.067800  0.196100  1.0  -0.1297
  C  C217  1  0.749500  0.956100  0.921700  1.0  -0.0926
  C  C218  1  0.205800  0.092500  0.252900  1.0  0.7149
  C  C219  1  0.747100  0.728700  0.229900  1.0  0.7156
  C  C220  1  0.849300  0.853900  0.270500  1.0  -0.1234
  C  C221  1  0.830200  0.805900  0.249300  1.0  -0.0259
  C  C222  1  0.775200  0.779700  0.259300  1.0  -0.1331
  C  C223  1  0.743300  0.800800  0.295800  1.0  -0.0626
  C  C224  1  0.764000  0.848300  0.318200  1.0  -0.1516
  C  C225  1  0.593200  0.027300  0.365200  1.0  -0.0971
  C  C226  1  0.659300  0.005100  0.365200  1.0  -0.1647
  C  C227  1  0.765200  0.955100  0.323500  1.0  -0.1133
  C  C228  1  0.830400  0.928100  0.324500  1.0  0.0611
  C  C229  1  0.909400  0.951900  0.348700  1.0  -0.0906
  C  C230  1  0.132800  0.048200  0.402100  1.0  -0.0416
  C  C231  1  0.056500  0.022800  0.372600  1.0  -0.1273
  C  C232  1  0.815700  0.875900  0.304800  1.0  0.0798
  C  C233  1  0.249400  0.100300  0.496800  1.0  0.6672
  C  C234  1  0.071800  0.042700  0.211700  1.0  -0.1225
  C  C235  1  0.996900  0.021700  0.157200  1.0  -0.11
  C  C236  1  0.871400  0.953300  0.037300  1.0  -0.1172
  C  C237  1  0.801100  0.930100  0.982400  1.0  0.0344
  C  C238  1  0.669300  0.006800  0.781600  1.0  -0.1693
  C  C239  1  0.608200  0.030000  0.722400  1.0  -0.0236
  C  C240  1  0.777300  0.879800  0.988600  1.0  0.0641
  C  C241  1  0.736600  0.847800  0.929200  1.0  -0.1355
  C  C242  1  0.714800  0.801900  0.934600  1.0  -0.0623
  C  C243  1  0.732400  0.784600  0.999100  1.0  -0.1416
  C  C244  1  0.770800  0.814500  0.055600  1.0  -0.0345
  C  C245  1  0.794400  0.861300  0.051400  1.0  -0.1276
  C  C246  1  0.447300  0.161300  0.456600  1.0  0.7
  C  C247  1  0.703200  0.766200  0.504100  1.0  0.7298
  C  C248  1  0.492000  0.401100  0.833200  1.0  0.6526
  C  C249  1  0.567900  0.424500  0.838200  1.0  -0.1176
  C  C250  1  0.614100  0.400600  0.817100  1.0  -0.0444
  C  C251  1  0.682200  0.423600  0.818500  1.0  -0.132
  C  C252  1  0.704400  0.470900  0.842100  1.0  0.0228
  C  C253  1  0.776100  0.496800  0.843500  1.0  0.0052
  C  C254  1  0.853400  0.474300  0.867600  1.0  -0.0757
  C  C255  1  0.922200  0.500500  0.870400  1.0  0.0176
  C  C256  1  0.008000  0.476000  0.903000  1.0  0.0961
  C  C257  1  0.042500  0.450200  0.965500  1.0  -0.1245
  C  C258  1  0.119500  0.426300  0.994900  1.0  -0.0415
  C  C259  1  0.166000  0.426600  0.962900  1.0  -0.1135
  C  C260  1  0.512900  0.399300  0.158000  1.0  0.6401
  C  C261  1  0.583500  0.423000  0.223200  1.0  -0.1008
  C  C262  1  0.623200  0.398300  0.285200  1.0  -0.0614
  C  C263  1  0.686600  0.422100  0.349200  1.0  -0.1135
  C  C264  1  0.708100  0.468900  0.346800  1.0  0.0145
  C  C265  1  0.766200  0.496400  0.413700  1.0  0.0311
  C  C266  1  0.841200  0.474500  0.469500  1.0  -0.15
  C  C267  1  0.892800  0.499300  0.531700  1.0  0.045
  C  C268  1  0.973200  0.476000  0.588300  1.0  0.0541
  C  C269  1  0.029000  0.451900  0.576700  1.0  -0.123
  C  C270  1  0.104600  0.430100  0.627600  1.0  -0.1005
  C  C271  1  0.124600  0.432200  0.696100  1.0  -0.1297
  C  C272  1  0.749500  0.543900  0.421700  1.0  -0.0924
  C  C273  1  0.205800  0.407500  0.752900  1.0  0.7148
  C  C274  1  0.747100  0.771300  0.729900  1.0  0.7159
  C  C275  1  0.849300  0.646100  0.770500  1.0  -0.1231
  C  C276  1  0.830200  0.694100  0.749300  1.0  -0.0255
  C  C277  1  0.775200  0.720300  0.759300  1.0  -0.1325
  C  C278  1  0.743300  0.699200  0.795800  1.0  -0.0632
  C  C279  1  0.764000  0.651700  0.818200  1.0  -0.1513
  C  C280  1  0.593200  0.472700  0.865200  1.0  -0.0963
  C  C281  1  0.659300  0.494900  0.865200  1.0  -0.1654
  C  C282  1  0.765200  0.544900  0.823500  1.0  -0.1128
  C  C283  1  0.830400  0.571900  0.824500  1.0  0.0605
  C  C284  1  0.909400  0.548100  0.848700  1.0  -0.0909
  C  C285  1  0.132800  0.451800  0.902100  1.0  -0.0416
  C  C286  1  0.056500  0.477200  0.872600  1.0  -0.1273
  C  C287  1  0.815700  0.624100  0.804800  1.0  0.0799
  C  C288  1  0.249400  0.399700  0.996800  1.0  0.6674
  C  C289  1  0.071800  0.457300  0.711700  1.0  -0.1223
  C  C290  1  0.996900  0.478300  0.657200  1.0  -0.11
  C  C291  1  0.871400  0.546700  0.537300  1.0  -0.1169
  C  C292  1  0.801100  0.569900  0.482400  1.0  0.0334
  C  C293  1  0.669300  0.493200  0.281600  1.0  -0.169
  C  C294  1  0.608200  0.470000  0.222400  1.0  -0.0237
  C  C295  1  0.777300  0.620200  0.488600  1.0  0.0638
  C  C296  1  0.736600  0.652200  0.429200  1.0  -0.1357
  C  C297  1  0.714800  0.698100  0.434600  1.0  -0.0619
  C  C298  1  0.732400  0.715400  0.499100  1.0  -0.1414
  C  C299  1  0.770800  0.685500  0.555600  1.0  -0.0344
  C  C300  1  0.794400  0.638700  0.551400  1.0  -0.1279
  C  C301  1  0.447300  0.338700  0.956600  1.0  0.7
  C  C302  1  0.296800  0.266200  0.995900  1.0  0.7285
  C  C303  1  0.508000  0.901100  0.666800  1.0  0.6542
  C  C304  1  0.432100  0.924500  0.661800  1.0  -0.1163
  C  C305  1  0.385900  0.900600  0.682900  1.0  -0.0436
  C  C306  1  0.317800  0.923600  0.681500  1.0  -0.1334
  C  C307  1  0.295600  0.970900  0.657900  1.0  0.0219
  C  C308  1  0.223900  0.996800  0.656500  1.0  0.0059
  C  C309  1  0.146600  0.974300  0.632400  1.0  -0.075
  C  C310  1  0.077800  0.000500  0.629600  1.0  0.0194
  C  C311  1  0.992000  0.976000  0.597000  1.0  0.0968
  C  C312  1  0.957500  0.950200  0.534500  1.0  -0.1237
  C  C313  1  0.880500  0.926300  0.505100  1.0  -0.0409
  C  C314  1  0.834000  0.926600  0.537100  1.0  -0.1123
  C  C315  1  0.487100  0.899300  0.342000  1.0  0.6409
  C  C316  1  0.416500  0.923000  0.276800  1.0  -0.1013
  C  C317  1  0.376800  0.898300  0.214800  1.0  -0.0596
  C  C318  1  0.313400  0.922100  0.150800  1.0  -0.114
  C  C319  1  0.291900  0.968900  0.153200  1.0  0.0141
  C  C320  1  0.233800  0.996400  0.086300  1.0  0.0316
  C  C321  1  0.158800  0.974500  0.030500  1.0  -0.1508
  C  C322  1  0.107200  0.999300  0.968300  1.0  0.0462
  C  C323  1  0.026800  0.976000  0.911700  1.0  0.055
  C  C324  1  0.971000  0.951900  0.923300  1.0  -0.1236
  C  C325  1  0.895400  0.930100  0.872400  1.0  -0.1011
  C  C326  1  0.875400  0.932200  0.803900  1.0  -0.1296
  C  C327  1  0.250500  0.043900  0.078300  1.0  -0.0898
  C  C328  1  0.794200  0.907500  0.747100  1.0  0.7151
  C  C329  1  0.252900  0.271300  0.770100  1.0  0.7165
  C  C330  1  0.150700  0.146100  0.729500  1.0  -0.1239
  C  C331  1  0.169800  0.194100  0.750700  1.0  -0.0257
  C  C332  1  0.224800  0.220300  0.740700  1.0  -0.1322
  C  C333  1  0.256700  0.199200  0.704200  1.0  -0.0635
  C  C334  1  0.236000  0.151700  0.681800  1.0  -0.1507
  C  C335  1  0.406800  0.972700  0.634800  1.0  -0.0977
  C  C336  1  0.340700  0.994900  0.634800  1.0  -0.1655
  C  C337  1  0.234800  0.044900  0.676500  1.0  -0.1075
  C  C338  1  0.169600  0.071900  0.675500  1.0  0.0603
  C  C339  1  0.090600  0.048100  0.651300  1.0  -0.0903
  C  C340  1  0.867200  0.951800  0.597900  1.0  -0.0423
  C  C341  1  0.943500  0.977200  0.627400  1.0  -0.1273
  C  C342  1  0.184300  0.124100  0.695200  1.0  0.0798
  C  C343  1  0.750600  0.899700  0.503200  1.0  0.6669
  C  C344  1  0.928200  0.957300  0.788300  1.0  -0.1246
  C  C345  1  0.003100  0.978300  0.842800  1.0  -0.1086
  C  C346  1  0.128600  0.046700  0.962700  1.0  -0.1184
  C  C347  1  0.198900  0.069900  0.017600  1.0  0.0321
  C  C348  1  0.330700  0.993200  0.218400  1.0  -0.1707
  C  C349  1  0.391800  0.970000  0.277600  1.0  -0.0231
  C  C350  1  0.222700  0.120200  0.011400  1.0  0.0615
  C  C351  1  0.263400  0.152200  0.070800  1.0  -0.1352
  C  C352  1  0.285200  0.198100  0.065400  1.0  -0.0626
  C  C353  1  0.267600  0.215400  0.000900  1.0  -0.1414
  C  C354  1  0.229200  0.185500  0.944400  1.0  -0.0348
  C  C355  1  0.205600  0.138700  0.948600  1.0  -0.128
  C  C356  1  0.552700  0.838700  0.543400  1.0  0.6989
  O  O357  1  0.342300  0.210300  0.551000  1.0  -0.5715
  O  O358  1  0.273700  0.220200  0.435400  1.0  -0.649
  O  O359  1  0.536500  0.638200  0.197800  1.0  -0.5778
  O  O360  1  0.543500  0.577800  0.139100  1.0  -0.6156
  O  O361  1  0.509100  0.644300  0.841200  1.0  -0.5592
  O  O362  1  0.525000  0.577900  0.898700  1.0  -0.5542
  O  O363  1  0.738000  0.606100  0.259000  1.0  -0.5851
  O  O364  1  0.216400  0.207600  0.294800  1.0  -0.6248
  O  O365  1  0.317800  0.211600  0.269800  1.0  -0.5934
  O  O366  1  0.711500  0.609800  0.939500  1.0  -0.5606
  O  O367  1  0.719200  0.612600  0.038100  1.0  -0.6707
  O  O368  1  0.789400  0.600500  0.189500  1.0  -0.628
  O  O369  1  0.624900  0.652900  0.094800  1.0  -0.638
  O  O370  1  0.535100  0.661100  0.982700  1.0  -0.5685
  O  O371  1  0.657700  0.710300  0.949000  1.0  -0.5714
  O  O372  1  0.726300  0.720200  0.064600  1.0  -0.6493
  O  O373  1  0.463500  0.138200  0.302200  1.0  -0.5792
  O  O374  1  0.456500  0.077800  0.360900  1.0  -0.6175
  O  O375  1  0.490900  0.144300  0.658800  1.0  -0.5578
  O  O376  1  0.475000  0.077900  0.601300  1.0  -0.5523
  O  O377  1  0.262000  0.106100  0.241000  1.0  -0.5848
  O  O378  1  0.783600  0.707600  0.205200  1.0  -0.6242
  O  O379  1  0.682200  0.711600  0.230200  1.0  -0.5912
  O  O380  1  0.288500  0.109800  0.560500  1.0  -0.5608
  O  O381  1  0.280800  0.112600  0.461900  1.0  -0.6703
  O  O382  1  0.210600  0.100500  0.310500  1.0  -0.6286
  O  O383  1  0.375100  0.152900  0.405200  1.0  -0.6383
  O  O384  1  0.464900  0.161100  0.517300  1.0  -0.5658
  O  O385  1  0.657700  0.789700  0.449000  1.0  -0.5713
  O  O386  1  0.726300  0.779800  0.564600  1.0  -0.6489
  O  O387  1  0.463500  0.361800  0.802200  1.0  -0.578
  O  O388  1  0.456500  0.422200  0.860900  1.0  -0.6176
  O  O389  1  0.490900  0.355700  0.158800  1.0  -0.5583
  O  O390  1  0.475000  0.422100  0.101300  1.0  -0.5529
  O  O391  1  0.262000  0.393900  0.741000  1.0  -0.5844
  O  O392  1  0.783600  0.792400  0.705200  1.0  -0.6242
  O  O393  1  0.682200  0.788400  0.730200  1.0  -0.5909
  O  O394  1  0.288500  0.390200  0.060500  1.0  -0.561
  O  O395  1  0.280800  0.387400  0.961900  1.0  -0.6697
  O  O396  1  0.210600  0.399500  0.810500  1.0  -0.629
  O  O397  1  0.375100  0.347100  0.905200  1.0  -0.6379
  O  O398  1  0.464900  0.338900  0.017300  1.0  -0.5653
  O  O399  1  0.342300  0.289700  0.051000  1.0  -0.5707
  O  O400  1  0.273700  0.279800  0.935400  1.0  -0.6489
  O  O401  1  0.536500  0.861800  0.697800  1.0  -0.5781
  O  O402  1  0.543500  0.922200  0.639100  1.0  -0.615
  O  O403  1  0.509100  0.855700  0.341200  1.0  -0.5577
  O  O404  1  0.525000  0.922100  0.398700  1.0  -0.5538
  O  O405  1  0.738000  0.893900  0.759000  1.0  -0.5846
  O  O406  1  0.216400  0.292400  0.794800  1.0  -0.625
  O  O407  1  0.317800  0.288400  0.769800  1.0  -0.5933
  O  O408  1  0.711500  0.890200  0.439500  1.0  -0.5614
  O  O409  1  0.719200  0.887400  0.538100  1.0  -0.6701
  O  O410  1  0.789400  0.899500  0.689500  1.0  -0.628
  O  O411  1  0.624900  0.847100  0.594800  1.0  -0.6375
  O  O412  1  0.535100  0.838900  0.482700  1.0  -0.5683
