# generated using pymatgen
data_Co2H3C9ClO6
_symmetry_space_group_name_H-M   'P 1'
_cell_length_a   14.65180000
_cell_length_b   14.65180000
_cell_length_c   14.65180000
_cell_angle_alpha   90.00000000
_cell_angle_beta   90.00000000
_cell_angle_gamma   90.00000000
_symmetry_Int_Tables_number   1
_chemical_formula_structural   Co2H3C9ClO6
_chemical_formula_sum   'Co8 H12 C36 Cl4 O24'
_cell_volume   3145.37872890
_cell_formula_units_Z   4
loop_
 _symmetry_equiv_pos_site_id
 _symmetry_equiv_pos_as_xyz
  1  'x, y, z'
loop_
 _atom_site_type_symbol
 _atom_site_label
 _atom_site_symmetry_multiplicity
 _atom_site_fract_x
 _atom_site_fract_y
 _atom_site_fract_z
 _atom_site_occupancy
 _atom_site_charge
  Co  Co1  1  0.955760  0.544240  0.455760  1.0  1.0443
  Co  Co2  1  0.816330  0.683670  0.316330  1.0  0.9225
  Co  Co3  1  0.544240  0.455760  0.955760  1.0  1.0456
  Co  Co4  1  0.683670  0.316330  0.816330  1.0  0.9228
  Co  Co5  1  0.044240  0.044240  0.044240  1.0  1.0452
  Co  Co6  1  0.183670  0.183670  0.183670  1.0  0.9282
  Co  Co7  1  0.455760  0.955760  0.544240  1.0  1.0455
  Co  Co8  1  0.316330  0.816330  0.683670  1.0  0.9229
  H  H9  1  0.752200  0.469900  0.163200  1.0  0.0981
  H  H10  1  0.747800  0.530100  0.663200  1.0  0.0982
  H  H11  1  0.247800  0.969900  0.336800  1.0  0.0982
  H  H12  1  0.252200  0.030100  0.836800  1.0  0.0978
  H  H13  1  0.163200  0.752200  0.469900  1.0  0.099
  H  H14  1  0.663200  0.747800  0.530100  1.0  0.0989
  H  H15  1  0.336800  0.247800  0.969900  1.0  0.0992
  H  H16  1  0.836800  0.252200  0.030100  1.0  0.0996
  H  H17  1  0.469900  0.163200  0.752200  1.0  0.0992
  H  H18  1  0.530100  0.663200  0.747800  1.0  0.0988
  H  H19  1  0.969900  0.336800  0.247800  1.0  0.0989
  H  H20  1  0.030100  0.836800  0.252200  1.0  0.099
  C  C21  1  0.869200  0.486000  0.292700  1.0  0.6996
  C  C22  1  0.794100  0.422700  0.156100  1.0  0.0322
  C  C23  1  0.863300  0.415100  0.216400  1.0  -0.1667
  C  C24  1  0.630800  0.514000  0.792700  1.0  0.7001
  C  C25  1  0.705900  0.577300  0.656100  1.0  0.0316
  C  C26  1  0.636700  0.584900  0.716400  1.0  -0.1663
  C  C27  1  0.130800  0.986000  0.207300  1.0  0.6991
  C  C28  1  0.205900  0.922700  0.343900  1.0  0.0306
  C  C29  1  0.136700  0.915100  0.283600  1.0  -0.1656
  C  C30  1  0.369200  0.014000  0.707300  1.0  0.6979
  C  C31  1  0.294100  0.077300  0.843900  1.0  0.0328
  C  C32  1  0.363300  0.084900  0.783600  1.0  -0.166
  C  C33  1  0.292700  0.869200  0.486000  1.0  0.699
  C  C34  1  0.156100  0.794100  0.422700  1.0  0.031
  C  C35  1  0.216400  0.863300  0.415100  1.0  -0.1686
  C  C36  1  0.792700  0.630800  0.514000  1.0  0.6985
  C  C37  1  0.656100  0.705900  0.577300  1.0  0.0294
  C  C38  1  0.716400  0.636700  0.584900  1.0  -0.1684
  C  C39  1  0.207300  0.130800  0.986000  1.0  0.6996
  C  C40  1  0.343900  0.205900  0.922700  1.0  0.031
  C  C41  1  0.283600  0.136700  0.915100  1.0  -0.168
  C  C42  1  0.707300  0.369200  0.014000  1.0  0.699
  C  C43  1  0.843900  0.294100  0.077300  1.0  0.0337
  C  C44  1  0.783600  0.363300  0.084900  1.0  -0.1685
  C  C45  1  0.486000  0.292700  0.869200  1.0  0.698
  C  C46  1  0.422700  0.156100  0.794100  1.0  0.0318
  C  C47  1  0.415100  0.216400  0.863300  1.0  -0.1684
  C  C48  1  0.514000  0.792700  0.630800  1.0  0.6981
  C  C49  1  0.577300  0.656100  0.705900  1.0  0.0313
  C  C50  1  0.584900  0.716400  0.636700  1.0  -0.1677
  C  C51  1  0.986000  0.207300  0.130800  1.0  0.699
  C  C52  1  0.922700  0.343900  0.205900  1.0  0.0309
  C  C53  1  0.915100  0.283600  0.136700  1.0  -0.1677
  C  C54  1  0.014000  0.707300  0.369200  1.0  0.6986
  C  C55  1  0.077300  0.843900  0.294100  1.0  0.0313
  C  C56  1  0.084900  0.783600  0.363300  1.0  -0.1688
  Cl  Cl57  1  0.037900  0.462100  0.537900  1.0  -0.4283
  Cl  Cl58  1  0.462100  0.537900  0.037900  1.0  -0.4271
  Cl  Cl59  1  0.962100  0.962100  0.962100  1.0  -0.4281
  Cl  Cl60  1  0.537900  0.037900  0.462100  1.0  -0.4268
  O  O61  1  0.819500  0.552500  0.290300  1.0  -0.5917
  O  O62  1  0.937000  0.468800  0.348900  1.0  -0.5797
  O  O63  1  0.680500  0.447500  0.790300  1.0  -0.5955
  O  O64  1  0.563000  0.531200  0.848900  1.0  -0.5817
  O  O65  1  0.180500  0.052500  0.209700  1.0  -0.5962
  O  O66  1  0.063000  0.968800  0.151100  1.0  -0.5814
  O  O67  1  0.319500  0.947500  0.709700  1.0  -0.591
  O  O68  1  0.437000  0.031200  0.651100  1.0  -0.581
  O  O69  1  0.290300  0.819500  0.552500  1.0  -0.5958
  O  O70  1  0.348900  0.937000  0.468800  1.0  -0.58
  O  O71  1  0.790300  0.680500  0.447500  1.0  -0.5991
  O  O72  1  0.848900  0.563000  0.531200  1.0  -0.5806
  O  O73  1  0.209700  0.180500  0.052500  1.0  -0.5988
  O  O74  1  0.151100  0.063000  0.968800  1.0  -0.5814
  O  O75  1  0.709700  0.319500  0.947500  1.0  -0.5964
  O  O76  1  0.651100  0.437000  0.031200  1.0  -0.5815
  O  O77  1  0.552500  0.290300  0.819500  1.0  -0.5928
  O  O78  1  0.468800  0.348900  0.937000  1.0  -0.5819
  O  O79  1  0.447500  0.790300  0.680500  1.0  -0.5917
  O  O80  1  0.531200  0.848900  0.563000  1.0  -0.5828
  O  O81  1  0.052500  0.209700  0.180500  1.0  -0.5923
  O  O82  1  0.968800  0.151100  0.063000  1.0  -0.5815
  O  O83  1  0.947500  0.709700  0.319500  1.0  -0.5898
  O  O84  1  0.031200  0.651100  0.437000  1.0  -0.5805
