# generated using pymatgen
data_Co3H30C54O13
_symmetry_space_group_name_H-M   'P 1'
_cell_length_a   17.44300000
_cell_length_b   25.09400000
_cell_length_c   21.99100000
_cell_angle_alpha   90.00000000
_cell_angle_beta   90.00000000
_cell_angle_gamma   90.00000000
_symmetry_Int_Tables_number   1
_chemical_formula_structural   Co3H30C54O13
_chemical_formula_sum   'Co12 H120 C216 O52'
_cell_volume   9625.78269222
_cell_formula_units_Z   4
loop_
 _symmetry_equiv_pos_site_id
 _symmetry_equiv_pos_as_xyz
  1  'x, y, z'
loop_
 _atom_site_type_symbol
 _atom_site_label
 _atom_site_symmetry_multiplicity
 _atom_site_fract_x
 _atom_site_fract_y
 _atom_site_fract_z
 _atom_site_occupancy
 _atom_site_charge
  Co  Co1  1  0.998520  0.678840  0.576100  1.0  1.0758
  Co  Co2  1  0.501480  0.321160  0.076100  1.0  1.0759
  Co  Co3  1  0.998520  0.821160  0.576100  1.0  1.0755
  Co  Co4  1  0.501480  0.178840  0.076100  1.0  1.0762
  Co  Co5  1  0.112870  0.750000  0.665930  1.0  1.0575
  Co  Co6  1  0.387130  0.250000  0.165930  1.0  1.0576
  Co  Co7  1  0.001480  0.178840  0.423900  1.0  1.0778
  Co  Co8  1  0.498520  0.821160  0.923900  1.0  1.0777
  Co  Co9  1  0.001480  0.321160  0.423900  1.0  1.0775
  Co  Co10  1  0.498520  0.678840  0.923900  1.0  1.078
  Co  Co11  1  0.887130  0.250000  0.334070  1.0  1.0598
  Co  Co12  1  0.612870  0.750000  0.834070  1.0  1.0587
  H  H13  1  0.400400  0.361100  0.312200  1.0  0.1092
  H  H14  1  0.560800  0.436100  0.215500  1.0  0.1163
  H  H15  1  0.571600  0.498400  0.291700  1.0  0.1131
  H  H16  1  0.408200  0.425000  0.385900  1.0  0.0957
  H  H17  1  0.383300  0.518300  0.409500  1.0  0.1122
  H  H18  1  0.408600  0.613200  0.574400  1.0  0.1025
  H  H19  1  0.611200  0.517000  0.395200  1.0  0.1179
  H  H20  1  0.823800  0.543100  0.496500  1.0  0.1073
  H  H21  1  0.301700  0.651600  0.614500  1.0  0.1142
  H  H22  1  0.511200  0.615900  0.512400  1.0  0.1076
  H  H23  1  0.294800  0.582300  0.422000  1.0  0.1192
  H  H24  1  0.743300  0.686900  0.532700  1.0  0.1022
  H  H25  1  0.184700  0.615700  0.465300  1.0  0.1107
  H  H26  1  0.704200  0.516000  0.468900  1.0  0.1062
  H  H27  1  0.624600  0.662400  0.498500  1.0  0.1218
  H  H28  1  0.099600  0.638900  0.812200  1.0  0.1097
  H  H29  1  0.939200  0.563900  0.715500  1.0  0.1156
  H  H30  1  0.928400  0.501600  0.791700  1.0  0.1125
  H  H31  1  0.091800  0.575000  0.885900  1.0  0.0957
  H  H32  1  0.116700  0.481700  0.909500  1.0  0.1139
  H  H33  1  0.091400  0.386800  0.074400  1.0  0.1027
  H  H34  1  0.888800  0.483000  0.895200  1.0  0.1175
  H  H35  1  0.676200  0.456900  0.996500  1.0  0.1075
  H  H36  1  0.198300  0.348400  0.114500  1.0  0.1143
  H  H37  1  0.988800  0.384100  0.012400  1.0  0.1086
  H  H38  1  0.205200  0.417700  0.922000  1.0  0.1205
  H  H39  1  0.756700  0.313100  0.032700  1.0  0.1024
  H  H40  1  0.315300  0.384300  0.965300  1.0  0.1115
  H  H41  1  0.795800  0.484000  0.968900  1.0  0.1056
  H  H42  1  0.875400  0.337600  0.998500  1.0  0.1209
  H  H43  1  0.400400  0.138900  0.312200  1.0  0.1097
  H  H44  1  0.560800  0.063900  0.215500  1.0  0.1161
  H  H45  1  0.571600  0.001600  0.291700  1.0  0.1127
  H  H46  1  0.408200  0.075000  0.385900  1.0  0.0955
  H  H47  1  0.383300  0.981700  0.409500  1.0  0.1124
  H  H48  1  0.408600  0.886800  0.574400  1.0  0.1029
  H  H49  1  0.611200  0.983000  0.395200  1.0  0.1181
  H  H50  1  0.823800  0.956900  0.496500  1.0  0.1077
  H  H51  1  0.301700  0.848400  0.614500  1.0  0.1144
  H  H52  1  0.511200  0.884100  0.512400  1.0  0.1083
  H  H53  1  0.294800  0.917700  0.422000  1.0  0.1193
  H  H54  1  0.743300  0.813100  0.532700  1.0  0.1023
  H  H55  1  0.184700  0.884300  0.465300  1.0  0.1108
  H  H56  1  0.704200  0.984000  0.468900  1.0  0.1057
  H  H57  1  0.624600  0.837600  0.498500  1.0  0.1211
  H  H58  1  0.099600  0.861100  0.812200  1.0  0.1096
  H  H59  1  0.939200  0.936100  0.715500  1.0  0.1157
  H  H60  1  0.928400  0.998400  0.791700  1.0  0.1135
  H  H61  1  0.091800  0.925000  0.885900  1.0  0.0957
  H  H62  1  0.116700  0.018300  0.909500  1.0  0.1139
  H  H63  1  0.091400  0.113200  0.074400  1.0  0.1022
  H  H64  1  0.888800  0.017000  0.895200  1.0  0.1174
  H  H65  1  0.676200  0.043100  0.996500  1.0  0.1073
  H  H66  1  0.198300  0.151600  0.114500  1.0  0.114
  H  H67  1  0.988800  0.115900  0.012400  1.0  0.1076
  H  H68  1  0.205200  0.082300  0.922000  1.0  0.1203
  H  H69  1  0.756700  0.186900  0.032700  1.0  0.1023
  H  H70  1  0.315300  0.115700  0.965300  1.0  0.1114
  H  H71  1  0.795800  0.016000  0.968900  1.0  0.106
  H  H72  1  0.875400  0.162400  0.998500  1.0  0.1213
  H  H73  1  0.599600  0.861100  0.687800  1.0  0.1098
  H  H74  1  0.439200  0.936100  0.784500  1.0  0.1162
  H  H75  1  0.428400  0.998400  0.708300  1.0  0.1138
  H  H76  1  0.591800  0.925000  0.614100  1.0  0.0971
  H  H77  1  0.616700  0.018300  0.590500  1.0  0.113
  H  H78  1  0.591400  0.113200  0.425600  1.0  0.1023
  H  H79  1  0.388800  0.017000  0.604800  1.0  0.1181
  H  H80  1  0.176200  0.043100  0.503500  1.0  0.1074
  H  H81  1  0.698300  0.151600  0.385500  1.0  0.114
  H  H82  1  0.488800  0.115900  0.487600  1.0  0.1083
  H  H83  1  0.705200  0.082300  0.578000  1.0  0.1195
  H  H84  1  0.256700  0.186900  0.467300  1.0  0.1023
  H  H85  1  0.815300  0.115700  0.534700  1.0  0.1112
  H  H86  1  0.295800  0.016000  0.531100  1.0  0.1057
  H  H87  1  0.375400  0.162400  0.501500  1.0  0.1213
  H  H88  1  0.900400  0.138900  0.187800  1.0  0.1099
  H  H89  1  0.060800  0.063900  0.284500  1.0  0.1162
  H  H90  1  0.071600  0.001600  0.208300  1.0  0.1128
  H  H91  1  0.908200  0.075000  0.114100  1.0  0.0972
  H  H92  1  0.883300  0.981700  0.090500  1.0  0.1135
  H  H93  1  0.908600  0.886800  0.925600  1.0  0.1023
  H  H94  1  0.111200  0.983000  0.104800  1.0  0.1176
  H  H95  1  0.323800  0.956900  0.003500  1.0  0.1074
  H  H96  1  0.801700  0.848400  0.885500  1.0  0.114
  H  H97  1  0.011200  0.884100  0.987600  1.0  0.1084
  H  H98  1  0.794800  0.917700  0.078000  1.0  0.1207
  H  H99  1  0.243300  0.813100  0.967300  1.0  0.1025
  H  H100  1  0.684700  0.884300  0.034700  1.0  0.1113
  H  H101  1  0.204200  0.984000  0.031100  1.0  0.1052
  H  H102  1  0.124600  0.837600  0.001500  1.0  0.1213
  H  H103  1  0.599600  0.638900  0.687800  1.0  0.1098
  H  H104  1  0.439200  0.563900  0.784500  1.0  0.1163
  H  H105  1  0.428400  0.501600  0.708300  1.0  0.1128
  H  H106  1  0.591800  0.575000  0.614100  1.0  0.0969
  H  H107  1  0.616700  0.481700  0.590500  1.0  0.1133
  H  H108  1  0.591400  0.386800  0.425600  1.0  0.1024
  H  H109  1  0.388800  0.483000  0.604800  1.0  0.1182
  H  H110  1  0.176200  0.456900  0.503500  1.0  0.1074
  H  H111  1  0.698300  0.348400  0.385500  1.0  0.1142
  H  H112  1  0.488800  0.384100  0.487600  1.0  0.1088
  H  H113  1  0.705200  0.417700  0.578000  1.0  0.1197
  H  H114  1  0.256700  0.313100  0.467300  1.0  0.1026
  H  H115  1  0.815300  0.384300  0.534700  1.0  0.1115
  H  H116  1  0.295800  0.484000  0.531100  1.0  0.105
  H  H117  1  0.375400  0.337600  0.501500  1.0  0.1212
  H  H118  1  0.900400  0.361100  0.187800  1.0  0.1094
  H  H119  1  0.060800  0.436100  0.284500  1.0  0.1164
  H  H120  1  0.071600  0.498400  0.208300  1.0  0.1131
  H  H121  1  0.908200  0.425000  0.114100  1.0  0.0973
  H  H122  1  0.883300  0.518300  0.090500  1.0  0.1132
  H  H123  1  0.908600  0.613200  0.925600  1.0  0.102
  H  H124  1  0.111200  0.517000  0.104800  1.0  0.1175
  H  H125  1  0.323800  0.543100  0.003500  1.0  0.1072
  H  H126  1  0.801700  0.651600  0.885500  1.0  0.1139
  H  H127  1  0.011200  0.615900  0.987600  1.0  0.1081
  H  H128  1  0.794800  0.582300  0.078000  1.0  0.1206
  H  H129  1  0.243300  0.686900  0.967300  1.0  0.1023
  H  H130  1  0.684700  0.615700  0.034700  1.0  0.1111
  H  H131  1  0.204200  0.516000  0.031100  1.0  0.106
  H  H132  1  0.124600  0.662400  0.001500  1.0  0.122
  C  C133  1  0.434500  0.389300  0.307400  1.0  -0.0398
  C  C134  1  0.530100  0.433400  0.250000  1.0  -0.0641
  C  C135  1  0.535900  0.471100  0.295800  1.0  -0.1014
  C  C136  1  0.439600  0.427500  0.351800  1.0  -0.1275
  C  C137  1  0.471300  0.351300  0.205700  1.0  0.7162
  C  C138  1  0.479100  0.392000  0.255500  1.0  -0.1387
  C  C139  1  0.431000  0.531100  0.421500  1.0  -0.1239
  C  C140  1  0.232000  0.639000  0.543600  1.0  -0.1331
  C  C141  1  0.573500  0.568600  0.458200  1.0  -0.0093
  C  C142  1  0.495800  0.510900  0.394800  1.0  0.0243
  C  C143  1  0.162200  0.665400  0.571300  1.0  0.726
  C  C144  1  0.364100  0.593500  0.494200  1.0  0.0836
  C  C145  1  0.434900  0.570300  0.465800  1.0  0.05
  C  C146  1  0.363900  0.614400  0.551300  1.0  -0.1432
  C  C147  1  0.567000  0.530300  0.413400  1.0  -0.1372
  C  C148  1  0.783400  0.567200  0.498000  1.0  -0.0397
  C  C149  1  0.299700  0.637200  0.575600  1.0  -0.062
  C  C150  1  0.507700  0.589100  0.483300  1.0  -0.1202
  C  C151  1  0.796200  0.617900  0.517900  1.0  -0.1317
  C  C152  1  0.650600  0.586300  0.479100  1.0  0.0872
  C  C153  1  0.296200  0.595400  0.461600  1.0  -0.131
  C  C154  1  0.735800  0.652400  0.518500  1.0  -0.0568
  C  C155  1  0.230400  0.616700  0.487000  1.0  -0.0356
  C  C156  1  0.711900  0.551300  0.480400  1.0  -0.1362
  C  C157  1  0.490600  0.469600  0.347100  1.0  0.1019
  C  C158  1  0.664200  0.637600  0.498700  1.0  -0.1419
  C  C159  1  0.874600  0.639000  0.538800  1.0  0.6839
  C  C160  1  0.065500  0.610700  0.807400  1.0  -0.0391
  C  C161  1  0.969900  0.566600  0.750000  1.0  -0.0622
  C  C162  1  0.964100  0.528900  0.795800  1.0  -0.099
  C  C163  1  0.060400  0.572500  0.851800  1.0  -0.1286
  C  C164  1  0.028700  0.648700  0.705700  1.0  0.7167
  C  C165  1  0.020900  0.608000  0.755500  1.0  -0.1371
  C  C166  1  0.069000  0.468900  0.921500  1.0  -0.1234
  C  C167  1  0.268000  0.361000  0.043600  1.0  -0.1339
  C  C168  1  0.926500  0.431400  0.958200  1.0  -0.0102
  C  C169  1  0.004200  0.489100  0.894800  1.0  0.025
  C  C170  1  0.337800  0.334600  0.071300  1.0  0.7261
  C  C171  1  0.135900  0.406500  0.994200  1.0  0.0814
  C  C172  1  0.065100  0.429700  0.965800  1.0  0.0516
  C  C173  1  0.136100  0.385600  0.051300  1.0  -0.1433
  C  C174  1  0.933000  0.469700  0.913400  1.0  -0.1398
  C  C175  1  0.716600  0.432800  0.998000  1.0  -0.0425
  C  C176  1  0.200300  0.362800  0.075600  1.0  -0.0613
  C  C177  1  0.992300  0.410900  0.983300  1.0  -0.1195
  C  C178  1  0.703800  0.382100  0.017900  1.0  -0.132
  C  C179  1  0.849400  0.413700  0.979100  1.0  0.0892
  C  C180  1  0.203800  0.404600  0.961600  1.0  -0.1334
  C  C181  1  0.764200  0.347600  0.018500  1.0  -0.0573
  C  C182  1  0.269600  0.383300  0.987000  1.0  -0.0343
  C  C183  1  0.788100  0.448700  0.980400  1.0  -0.1357
  C  C184  1  0.009400  0.530400  0.847100  1.0  0.1001
  C  C185  1  0.835800  0.362400  0.998700  1.0  -0.142
  C  C186  1  0.625400  0.361000  0.038800  1.0  0.6846
  C  C187  1  0.434500  0.110700  0.307400  1.0  -0.0397
  C  C188  1  0.530100  0.066600  0.250000  1.0  -0.0639
  C  C189  1  0.535900  0.028900  0.295800  1.0  -0.0995
  C  C190  1  0.439600  0.072500  0.351800  1.0  -0.1276
  C  C191  1  0.471300  0.148700  0.205700  1.0  0.7168
  C  C192  1  0.479100  0.108000  0.255500  1.0  -0.1377
  C  C193  1  0.431000  0.968900  0.421500  1.0  -0.124
  C  C194  1  0.232000  0.861000  0.543600  1.0  -0.1345
  C  C195  1  0.573500  0.931400  0.458200  1.0  -0.0089
  C  C196  1  0.495800  0.989100  0.394800  1.0  0.0245
  C  C197  1  0.162200  0.834600  0.571300  1.0  0.726
  C  C198  1  0.364100  0.906500  0.494200  1.0  0.0819
  C  C199  1  0.434900  0.929700  0.465800  1.0  0.0507
  C  C200  1  0.363900  0.885600  0.551300  1.0  -0.1428
  C  C201  1  0.567000  0.969700  0.413400  1.0  -0.1381
  C  C202  1  0.783400  0.932800  0.498000  1.0  -0.0396
  C  C203  1  0.299700  0.862800  0.575600  1.0  -0.0614
  C  C204  1  0.507700  0.910900  0.483300  1.0  -0.1195
  C  C205  1  0.796200  0.882100  0.517900  1.0  -0.1314
  C  C206  1  0.650600  0.913700  0.479100  1.0  0.0877
  C  C207  1  0.296200  0.904600  0.461600  1.0  -0.1312
  C  C208  1  0.735800  0.847600  0.518500  1.0  -0.057
  C  C209  1  0.230400  0.883300  0.487000  1.0  -0.035
  C  C210  1  0.711900  0.948700  0.480400  1.0  -0.1357
  C  C211  1  0.490600  0.030400  0.347100  1.0  0.1011
  C  C212  1  0.664200  0.862400  0.498700  1.0  -0.1418
  C  C213  1  0.874600  0.861000  0.538800  1.0  0.6844
  C  C214  1  0.065500  0.889300  0.807400  1.0  -0.0404
  C  C215  1  0.969900  0.933400  0.750000  1.0  -0.0628
  C  C216  1  0.964100  0.971100  0.795800  1.0  -0.1021
  C  C217  1  0.060400  0.927500  0.851800  1.0  -0.1282
  C  C218  1  0.028700  0.851300  0.705700  1.0  0.7159
  C  C219  1  0.020900  0.892000  0.755500  1.0  -0.1378
  C  C220  1  0.069000  0.031100  0.921500  1.0  -0.1228
  C  C221  1  0.268000  0.139000  0.043600  1.0  -0.1335
  C  C222  1  0.926500  0.068600  0.958200  1.0  -0.0105
  C  C223  1  0.004200  0.010900  0.894800  1.0  0.0248
  C  C224  1  0.337800  0.165400  0.071300  1.0  0.7263
  C  C225  1  0.135900  0.093500  0.994200  1.0  0.0829
  C  C226  1  0.065100  0.070300  0.965800  1.0  0.0502
  C  C227  1  0.136100  0.114400  0.051300  1.0  -0.1441
  C  C228  1  0.933000  0.030300  0.913400  1.0  -0.1396
  C  C229  1  0.716600  0.067200  0.998000  1.0  -0.0416
  C  C230  1  0.200300  0.137200  0.075600  1.0  -0.0614
  C  C231  1  0.992300  0.089100  0.983300  1.0  -0.1206
  C  C232  1  0.703800  0.117900  0.017900  1.0  -0.1318
  C  C233  1  0.849400  0.086300  0.979100  1.0  0.0888
  C  C234  1  0.203800  0.095400  0.961600  1.0  -0.133
  C  C235  1  0.764200  0.152400  0.018500  1.0  -0.0572
  C  C236  1  0.269600  0.116700  0.987000  1.0  -0.0341
  C  C237  1  0.788100  0.051300  0.980400  1.0  -0.136
  C  C238  1  0.009400  0.969600  0.847100  1.0  0.1009
  C  C239  1  0.835800  0.137600  0.998700  1.0  -0.1424
  C  C240  1  0.625400  0.139000  0.038800  1.0  0.684
  C  C241  1  0.565500  0.889300  0.692600  1.0  -0.0409
  C  C242  1  0.469900  0.933400  0.750000  1.0  -0.0628
  C  C243  1  0.464100  0.971100  0.704200  1.0  -0.1
  C  C244  1  0.560400  0.927500  0.648200  1.0  -0.1289
  C  C245  1  0.528700  0.851300  0.794300  1.0  0.7163
  C  C246  1  0.520900  0.892000  0.744500  1.0  -0.1368
  C  C247  1  0.569000  0.031100  0.578500  1.0  -0.1237
  C  C248  1  0.768000  0.139000  0.456400  1.0  -0.1329
  C  C249  1  0.426500  0.068600  0.541800  1.0  -0.0122
  C  C250  1  0.504200  0.010900  0.605200  1.0  0.0229
  C  C251  1  0.837800  0.165400  0.428700  1.0  0.7258
  C  C252  1  0.635900  0.093500  0.505800  1.0  0.0828
  C  C253  1  0.565100  0.070300  0.534200  1.0  0.0515
  C  C254  1  0.636100  0.114400  0.448700  1.0  -0.1445
  C  C255  1  0.433000  0.030300  0.586600  1.0  -0.1396
  C  C256  1  0.216600  0.067200  0.502000  1.0  -0.0411
  C  C257  1  0.700300  0.137200  0.424400  1.0  -0.0609
  C  C258  1  0.492300  0.089100  0.516700  1.0  -0.1208
  C  C259  1  0.203800  0.117900  0.482100  1.0  -0.1317
  C  C260  1  0.349400  0.086300  0.520900  1.0  0.0893
  C  C261  1  0.703800  0.095400  0.538400  1.0  -0.1347
  C  C262  1  0.264200  0.152400  0.481500  1.0  -0.0576
  C  C263  1  0.769600  0.116700  0.513000  1.0  -0.0351
  C  C264  1  0.288100  0.051300  0.519600  1.0  -0.1361
  C  C265  1  0.509400  0.969600  0.652900  1.0  0.1031
  C  C266  1  0.335800  0.137600  0.501300  1.0  -0.1422
  C  C267  1  0.125400  0.139000  0.461200  1.0  0.6842
  C  C268  1  0.934500  0.110700  0.192600  1.0  -0.0402
  C  C269  1  0.030100  0.066600  0.250000  1.0  -0.0637
  C  C270  1  0.035900  0.028900  0.204200  1.0  -0.0977
  C  C271  1  0.939600  0.072500  0.148200  1.0  -0.1289
  C  C272  1  0.971300  0.148700  0.294300  1.0  0.7171
  C  C273  1  0.979100  0.108000  0.244500  1.0  -0.1383
  C  C274  1  0.931000  0.968900  0.078500  1.0  -0.1263
  C  C275  1  0.732000  0.861000  0.956400  1.0  -0.1347
  C  C276  1  0.073500  0.931400  0.041800  1.0  -0.0089
  C  C277  1  0.995800  0.989100  0.105200  1.0  0.0228
  C  C278  1  0.662200  0.834600  0.928700  1.0  0.7256
  C  C279  1  0.864100  0.906500  0.005800  1.0  0.0817
  C  C280  1  0.934900  0.929700  0.034200  1.0  0.0531
  C  C281  1  0.863900  0.885600  0.948700  1.0  -0.1435
  C  C282  1  0.067000  0.969700  0.086600  1.0  -0.1376
  C  C283  1  0.283400  0.932800  0.002000  1.0  -0.039
  C  C284  1  0.799700  0.862800  0.924400  1.0  -0.0602
  C  C285  1  0.007700  0.910900  0.016700  1.0  -0.1207
  C  C286  1  0.296200  0.882100  0.982100  1.0  -0.1309
  C  C287  1  0.150600  0.913700  0.020900  1.0  0.0882
  C  C288  1  0.796200  0.904600  0.038400  1.0  -0.1334
  C  C289  1  0.235800  0.847600  0.981500  1.0  -0.0563
  C  C290  1  0.730400  0.883300  0.013000  1.0  -0.036
  C  C291  1  0.211900  0.948700  0.019600  1.0  -0.136
  C  C292  1  0.990600  0.030400  0.152900  1.0  0.1038
  C  C293  1  0.164200  0.862400  0.001300  1.0  -0.1416
  C  C294  1  0.374600  0.861000  0.961200  1.0  0.6841
  C  C295  1  0.565500  0.610700  0.692600  1.0  -0.0395
  C  C296  1  0.469900  0.566600  0.750000  1.0  -0.0626
  C  C297  1  0.464100  0.528900  0.704200  1.0  -0.0994
  C  C298  1  0.560400  0.572500  0.648200  1.0  -0.129
  C  C299  1  0.528700  0.648700  0.794300  1.0  0.7169
  C  C300  1  0.520900  0.608000  0.744500  1.0  -0.1375
  C  C301  1  0.569000  0.468900  0.578500  1.0  -0.1226
  C  C302  1  0.768000  0.361000  0.456400  1.0  -0.1335
  C  C303  1  0.426500  0.431400  0.541800  1.0  -0.0105
  C  C304  1  0.504200  0.489100  0.605200  1.0  0.0229
  C  C305  1  0.837800  0.334600  0.428700  1.0  0.7256
  C  C306  1  0.635900  0.406500  0.505800  1.0  0.0816
  C  C307  1  0.565100  0.429700  0.534200  1.0  0.0537
  C  C308  1  0.636100  0.385600  0.448700  1.0  -0.1436
  C  C309  1  0.433000  0.469700  0.586600  1.0  -0.1403
  C  C310  1  0.216600  0.432800  0.502000  1.0  -0.0417
  C  C311  1  0.700300  0.362800  0.424400  1.0  -0.0603
  C  C312  1  0.492300  0.410900  0.516700  1.0  -0.1207
  C  C313  1  0.203800  0.382100  0.482100  1.0  -0.1319
  C  C314  1  0.349400  0.413700  0.520900  1.0  0.0893
  C  C315  1  0.703800  0.404600  0.538400  1.0  -0.1348
  C  C316  1  0.264200  0.347600  0.481500  1.0  -0.0567
  C  C317  1  0.769600  0.383300  0.513000  1.0  -0.0352
  C  C318  1  0.288100  0.448700  0.519600  1.0  -0.1362
  C  C319  1  0.509400  0.530400  0.652900  1.0  0.1033
  C  C320  1  0.335800  0.362400  0.501300  1.0  -0.1419
  C  C321  1  0.125400  0.361000  0.461200  1.0  0.6844
  C  C322  1  0.934500  0.389300  0.192600  1.0  -0.0405
  C  C323  1  0.030100  0.433400  0.250000  1.0  -0.0634
  C  C324  1  0.035900  0.471100  0.204200  1.0  -0.0974
  C  C325  1  0.939600  0.427500  0.148200  1.0  -0.1292
  C  C326  1  0.971300  0.351300  0.294300  1.0  0.7166
  C  C327  1  0.979100  0.392000  0.244500  1.0  -0.1375
  C  C328  1  0.931000  0.531100  0.078500  1.0  -0.1276
  C  C329  1  0.732000  0.639000  0.956400  1.0  -0.1331
  C  C330  1  0.073500  0.568600  0.041800  1.0  -0.0104
  C  C331  1  0.995800  0.510900  0.105200  1.0  0.0226
  C  C332  1  0.662200  0.665400  0.928700  1.0  0.7256
  C  C333  1  0.864100  0.593500  0.005800  1.0  0.0831
  C  C334  1  0.934900  0.570300  0.034200  1.0  0.0512
  C  C335  1  0.863900  0.614400  0.948700  1.0  -0.144
  C  C336  1  0.067000  0.530300  0.086600  1.0  -0.1364
  C  C337  1  0.283400  0.567200  0.002000  1.0  -0.0392
  C  C338  1  0.799700  0.637200  0.924400  1.0  -0.0612
  C  C339  1  0.007700  0.589100  0.016700  1.0  -0.1206
  C  C340  1  0.296200  0.617900  0.982100  1.0  -0.1312
  C  C341  1  0.150600  0.586300  0.020900  1.0  0.0877
  C  C342  1  0.796200  0.595400  0.038400  1.0  -0.134
  C  C343  1  0.235800  0.652400  0.981500  1.0  -0.057
  C  C344  1  0.730400  0.616700  0.013000  1.0  -0.0371
  C  C345  1  0.211900  0.551300  0.019600  1.0  -0.1366
  C  C346  1  0.990600  0.469600  0.152900  1.0  0.1035
  C  C347  1  0.164200  0.637600  0.001300  1.0  -0.1417
  C  C348  1  0.374600  0.639000  0.961200  1.0  0.684
  O  O349  1  0.881100  0.679800  0.565300  1.0  -0.518
  O  O350  1  0.930700  0.609200  0.529000  1.0  -0.5814
  O  O351  1  0.501400  0.362480  0.155260  1.0  -0.5729
  O  O352  1  0.436000  0.309310  0.219560  1.0  -0.6109
  O  O353  1  0.170600  0.692560  0.617060  1.0  -0.5967
  O  O354  1  0.098900  0.657430  0.543200  1.0  -0.5987
  O  O355  1  0.618900  0.320200  0.065300  1.0  -0.5166
  O  O356  1  0.569300  0.390800  0.029000  1.0  -0.5806
  O  O357  1  0.998600  0.637520  0.655260  1.0  -0.5719
  O  O358  1  0.064000  0.690690  0.719560  1.0  -0.6109
  O  O359  1  0.329400  0.307440  0.117060  1.0  -0.5962
  O  O360  1  0.401100  0.342570  0.043200  1.0  -0.5991
  O  O361  1  0.881100  0.820200  0.565300  1.0  -0.5166
  O  O362  1  0.930700  0.890800  0.529000  1.0  -0.5809
  O  O363  1  0.501400  0.137520  0.155260  1.0  -0.5724
  O  O364  1  0.436000  0.190690  0.219560  1.0  -0.6107
  O  O365  1  0.170600  0.807440  0.617060  1.0  -0.5962
  O  O366  1  0.098900  0.842570  0.543200  1.0  -0.5985
  O  O367  1  0.618900  0.179800  0.065300  1.0  -0.5179
  O  O368  1  0.569300  0.109200  0.029000  1.0  -0.5806
  O  O369  1  0.998600  0.862480  0.655260  1.0  -0.5726
  O  O370  1  0.064000  0.809310  0.719560  1.0  -0.6112
  O  O371  1  0.329400  0.192560  0.117060  1.0  -0.5967
  O  O372  1  0.401100  0.157430  0.043200  1.0  -0.599
  O  O373  1  0.009600  0.750000  0.615600  1.0  -0.7746
  O  O374  1  0.490400  0.250000  0.115600  1.0  -0.7747
  O  O375  1  0.118900  0.179800  0.434700  1.0  -0.5174
  O  O376  1  0.069300  0.109200  0.471000  1.0  -0.58
  O  O377  1  0.498600  0.862480  0.844740  1.0  -0.5725
  O  O378  1  0.564000  0.809310  0.780440  1.0  -0.6113
  O  O379  1  0.829400  0.192560  0.382940  1.0  -0.5978
  O  O380  1  0.901100  0.157430  0.456800  1.0  -0.5963
  O  O381  1  0.381100  0.820200  0.934700  1.0  -0.5169
  O  O382  1  0.430700  0.890800  0.971000  1.0  -0.5813
  O  O383  1  0.001400  0.137520  0.344740  1.0  -0.5721
  O  O384  1  0.936000  0.190690  0.280440  1.0  -0.6109
  O  O385  1  0.670600  0.807440  0.882940  1.0  -0.5971
  O  O386  1  0.598900  0.842570  0.956800  1.0  -0.5973
  O  O387  1  0.118900  0.320200  0.434700  1.0  -0.5171
  O  O388  1  0.069300  0.390800  0.471000  1.0  -0.58
  O  O389  1  0.498600  0.637520  0.844740  1.0  -0.572
  O  O390  1  0.564000  0.690690  0.780440  1.0  -0.6113
  O  O391  1  0.829400  0.307440  0.382940  1.0  -0.5974
  O  O392  1  0.901100  0.342570  0.456800  1.0  -0.5969
  O  O393  1  0.381100  0.679800  0.934700  1.0  -0.5172
  O  O394  1  0.430700  0.609200  0.971000  1.0  -0.5813
  O  O395  1  0.001400  0.362480  0.344740  1.0  -0.5725
  O  O396  1  0.936000  0.309310  0.280440  1.0  -0.6109
  O  O397  1  0.670600  0.692560  0.882940  1.0  -0.5976
  O  O398  1  0.598900  0.657430  0.956800  1.0  -0.5971
  O  O399  1  0.990400  0.250000  0.384400  1.0  -0.7746
  O  O400  1  0.509600  0.750000  0.884400  1.0  -0.7747
