# generated using pymatgen
data_Co3H8C18O13
_symmetry_space_group_name_H-M   'P 1'
_cell_length_a   16.98810000
_cell_length_b   16.98810000
_cell_length_c   16.98810000
_cell_angle_alpha   63.26730000
_cell_angle_beta   77.16110000
_cell_angle_gamma   109.14500000
_symmetry_Int_Tables_number   1
_chemical_formula_structural   Co3H8C18O13
_chemical_formula_sum   'Co12 H32 C72 O52'
_cell_volume   3718.15049286
_cell_formula_units_Z   4
loop_
 _symmetry_equiv_pos_site_id
 _symmetry_equiv_pos_as_xyz
  1  'x, y, z'
loop_
 _atom_site_type_symbol
 _atom_site_label
 _atom_site_symmetry_multiplicity
 _atom_site_fract_x
 _atom_site_fract_y
 _atom_site_fract_z
 _atom_site_occupancy
 _atom_site_charge
  Co  Co1  1  0.141040  0.027410  0.562910  1.0  1.0152
  Co  Co2  1  0.187380  0.141920  0.333640  1.0  1.0909
  Co  Co3  1  0.137890  0.896650  0.441260  1.0  1.0744
  Co  Co4  1  0.858960  0.296050  0.113630  1.0  1.025
  Co  Co5  1  0.812620  0.478980  0.045460  1.0  1.0949
  Co  Co6  1  0.862110  0.420850  0.241240  1.0  1.0704
  Co  Co7  1  0.590320  0.527410  0.613630  1.0  1.0136
  Co  Co8  1  0.475560  0.641920  0.545460  1.0  1.0881
  Co  Co9  1  0.337910  0.396650  0.741240  1.0  1.0752
  Co  Co10  1  0.409680  0.796050  0.062910  1.0  1.0236
  Co  Co11  1  0.524440  0.978980  0.833640  1.0  1.096
  Co  Co12  1  0.662090  0.920850  0.941260  1.0  1.0708
  H  H13  1  0.973100  0.200700  0.382200  1.0  0.1155
  H  H14  1  0.858900  0.988200  0.673100  1.0  0.1266
  H  H15  1  0.712600  0.079000  0.258800  1.0  0.35
  H  H16  1  0.711900  0.113700  0.555400  1.0  0.1334
  H  H17  1  0.964900  0.100700  0.279400  1.0  0.1093
  H  H18  1  0.853400  0.809900  0.488100  1.0  0.1201
  H  H19  1  0.692500  0.930800  0.403700  1.0  0.1156
  H  H20  1  0.141000  0.967000  0.504000  1.0  0.3732
  H  H21  1  0.026900  0.644700  0.772400  1.0  0.1173
  H  H22  1  0.141100  0.468000  0.870700  1.0  0.1259
  H  H23  1  0.287400  0.028600  0.633600  1.0  0.3502
  H  H24  1  0.288100  0.732700  0.598200  1.0  0.1341
  H  H25  1  0.035100  0.755700  0.864200  1.0  0.1082
  H  H26  1  0.146600  0.658500  0.043500  1.0  0.1205
  H  H27  1  0.307500  0.903800  0.761700  1.0  0.1147
  H  H28  1  0.859000  0.355000  0.174000  1.0  0.3733
  H  H29  1  0.582900  0.700700  0.272400  1.0  0.1171
  H  H30  1  0.661300  0.488200  0.370700  1.0  0.126
  H  H31  1  0.337800  0.579000  0.133600  1.0  0.3515
  H  H32  1  0.669100  0.613700  0.098200  1.0  0.1345
  H  H33  1  0.380100  0.600700  0.364200  1.0  0.1097
  H  H34  1  0.298000  0.309900  0.543500  1.0  0.1207
  H  H35  1  0.334500  0.430800  0.261700  1.0  0.1165
  H  H36  1  0.471000  0.467000  0.674000  1.0  0.3741
  H  H37  1  0.417100  0.144700  0.882200  1.0  0.1168
  H  H38  1  0.338700  0.968000  0.173100  1.0  0.127
  H  H39  1  0.662200  0.528600  0.758800  1.0  0.3526
  H  H40  1  0.330900  0.232700  0.055400  1.0  0.1333
  H  H41  1  0.619900  0.255700  0.779400  1.0  0.1097
  H  H42  1  0.702000  0.158500  0.988100  1.0  0.1203
  H  H43  1  0.665500  0.403800  0.903700  1.0  0.1159
  H  H44  1  0.529000  0.855000  0.004000  1.0  0.3756
  C  C45  1  0.842300  0.258400  0.376100  1.0  0.6702
  C  C46  1  0.844100  0.174300  0.457000  1.0  -0.1126
  C  C47  1  0.923900  0.161500  0.444400  1.0  0.0318
  C  C48  1  0.778200  0.045700  0.632900  1.0  -0.0963
  C  C49  1  0.854300  0.033800  0.619900  1.0  -0.025
  C  C50  1  0.928600  0.093500  0.521500  1.0  -0.1512
  C  C51  1  0.015400  0.081600  0.505800  1.0  0.7223
  C  C52  1  0.767300  0.112700  0.548200  1.0  -0.0991
  C  C53  1  0.827300  0.026500  0.327200  1.0  -0.1062
  C  C54  1  0.912600  0.037000  0.322800  1.0  0.0335
  C  C55  1  0.922700  0.955800  0.380700  1.0  -0.1569
  C  C56  1  0.847100  0.863600  0.446300  1.0  -0.0214
  C  C57  1  0.754400  0.847200  0.452200  1.0  -0.1334
  C  C58  1  0.750300  0.935300  0.394800  1.0  -0.0317
  C  C59  1  0.811900  0.115500  0.264400  1.0  0.6098
  C  C60  1  0.016000  0.966000  0.378600  1.0  0.7067
  C  C61  1  0.702700  0.994100  0.727800  1.0  0.7285
  C  C62  1  0.674200  0.746900  0.518300  1.0  0.7478
  C  C63  1  0.157700  0.781600  0.583900  1.0  0.6709
  C  C64  1  0.155900  0.698900  0.669800  1.0  -0.1123
  C  C65  1  0.076100  0.631700  0.762400  1.0  0.0312
  C  C66  1  0.221800  0.588900  0.732500  1.0  -0.0978
  C  C67  1  0.145700  0.525800  0.820500  1.0  -0.025
  C  C68  1  0.071400  0.549900  0.835100  1.0  -0.1526
  C  C69  1  0.984600  0.478800  0.933800  1.0  0.7234
  C  C70  1  0.232700  0.684500  0.654600  1.0  -0.0915
  C  C71  1  0.172700  0.845500  0.800800  1.0  -0.1074
  C  C72  1  0.087400  0.764600  0.875600  1.0  0.0383
  C  C73  1  0.077300  0.696600  0.966900  1.0  -0.1503
  C  C74  1  0.152900  0.706600  0.983500  1.0  -0.0222
  C  C75  1  0.245600  0.793400  0.907200  1.0  -0.1355
  C  C76  1  0.249700  0.854900  0.815000  1.0  -0.0304
  C  C77  1  0.188100  0.923700  0.696400  1.0  0.6093
  C  C78  1  0.984000  0.605400  0.050000  1.0  0.7073
  C  C79  1  0.297300  0.569500  0.708600  1.0  0.7282
  C  C80  1  0.325800  0.807500  0.927300  1.0  0.7464
  C  C81  1  0.634500  0.758400  0.083900  1.0  0.6711
  C  C82  1  0.631300  0.674300  0.169800  1.0  -0.1125
  C  C83  1  0.605900  0.661500  0.262400  1.0  0.0309
  C  C84  1  0.678600  0.545700  0.232500  1.0  -0.0976
  C  C85  1  0.653700  0.533800  0.320500  1.0  -0.0259
  C  C86  1  0.615000  0.593500  0.335100  1.0  -0.1539
  C  C87  1  0.587400  0.581600  0.433800  1.0  0.7252
  C  C88  1  0.660900  0.612700  0.154600  1.0  -0.0923
  C  C89  1  0.353700  0.526500  0.300800  1.0  -0.1079
  C  C90  1  0.359800  0.537000  0.375600  1.0  0.0434
  C  C91  1  0.336500  0.455800  0.466900  1.0  -0.1589
  C  C92  1  0.309900  0.363600  0.483500  1.0  -0.0238
  C  C93  1  0.299400  0.347200  0.407200  1.0  -0.1336
  C  C94  1  0.330100  0.435300  0.315000  1.0  -0.0291
  C  C95  1  0.379900  0.615500  0.196400  1.0  0.6103
  C  C96  1  0.344600  0.466000  0.550000  1.0  0.7112
  C  C97  1  0.721900  0.494100  0.208600  1.0  0.7279
  C  C98  1  0.265200  0.246900  0.427300  1.0  0.7461
  C  C99  1  0.365500  0.281600  0.876100  1.0  0.6702
  C  C100  1  0.368700  0.198900  0.957000  1.0  -0.11
  C  C101  1  0.394100  0.131700  0.944400  1.0  0.0343
  C  C102  1  0.321400  0.088900  0.132900  1.0  -0.0976
  C  C103  1  0.346300  0.025800  0.119900  1.0  -0.024
  C  C104  1  0.385000  0.049900  0.021500  1.0  -0.1522
  C  C105  1  0.412600  0.978800  0.005800  1.0  0.7226
  C  C106  1  0.339100  0.184500  0.048200  1.0  -0.0908
  C  C107  1  0.646300  0.345500  0.827200  1.0  -0.1086
  C  C108  1  0.640200  0.264600  0.822800  1.0  0.0445
  C  C109  1  0.663500  0.196600  0.880700  1.0  -0.1567
  C  C110  1  0.690100  0.206600  0.946300  1.0  -0.0211
  C  C111  1  0.700600  0.293400  0.952200  1.0  -0.1363
  C  C112  1  0.669900  0.354900  0.894800  1.0  -0.03
  C  C113  1  0.620100  0.423700  0.764400  1.0  0.6073
  C  C114  1  0.655400  0.105400  0.878600  1.0  0.7101
  C  C115  1  0.278100  0.069500  0.227800  1.0  0.7322
  C  C116  1  0.734800  0.307500  0.018300  1.0  0.7478
  O  O117  1  0.771900  0.267800  0.387100  1.0  -0.5602
  O  O118  1  0.916800  0.322700  0.293700  1.0  -0.6037
  O  O119  1  0.078700  0.140800  0.421500  1.0  -0.5942
  O  O120  1  0.016800  0.021100  0.578900  1.0  -0.5529
  O  O121  1  0.891700  0.193400  0.189100  1.0  -0.5843
  O  O122  1  0.739000  0.109600  0.279400  1.0  -0.5745
  O  O123  1  0.020000  0.897900  0.439700  1.0  -0.5875
  O  O124  1  0.084800  0.054900  0.315300  1.0  -0.6212
  O  O125  1  0.597400  0.745100  0.535900  1.0  -0.5977
  O  O126  1  0.619800  0.976000  0.738800  1.0  -0.6179
  O  O127  1  0.183100  0.022000  0.451300  1.0  -0.8396
  O  O128  1  0.722600  0.966100  0.797900  1.0  -0.6538
  O  O129  1  0.686700  0.671300  0.550400  1.0  -0.571
  O  O130  1  0.228100  0.841000  0.504100  1.0  -0.5661
  O  O131  1  0.083200  0.789500  0.594100  1.0  -0.6001
  O  O132  1  0.921300  0.499800  0.937900  1.0  -0.5942
  O  O133  1  0.983200  0.404300  0.995700  1.0  -0.5513
  O  O134  1  0.108300  0.919200  0.698300  1.0  -0.58
  O  O135  1  0.261000  0.981600  0.629400  1.0  -0.5742
  O  O136  1  0.980000  0.540300  0.122100  1.0  -0.5866
  O  O137  1  0.915200  0.599900  0.029900  1.0  -0.6245
  O  O138  1  0.402600  0.866700  0.852300  1.0  -0.6031
  O  O139  1  0.380200  0.641400  0.643800  1.0  -0.6133
  O  O140  1  0.816900  0.365600  0.161100  1.0  -0.8485
  O  O141  1  0.277400  0.479500  0.756500  1.0  -0.6564
  O  O142  1  0.313300  0.762900  0.015400  1.0  -0.5716
  O  O143  1  0.654900  0.767800  0.004100  1.0  -0.5659
  O  O144  1  0.616400  0.822700  0.094100  1.0  -0.6066
  O  O145  1  0.562300  0.640800  0.437900  1.0  -0.5947
  O  O146  1  0.600000  0.521100  0.495700  1.0  -0.5499
  O  O147  1  0.382500  0.693400  0.198300  1.0  -0.5826
  O  O148  1  0.389000  0.609600  0.129400  1.0  -0.5709
  O  O149  1  0.337600  0.397900  0.622100  1.0  -0.5877
  O  O150  1  0.370200  0.554900  0.529900  1.0  -0.6251
  O  O151  1  0.281000  0.245100  0.352300  1.0  -0.5989
  O  O152  1  0.714800  0.476000  0.143800  1.0  -0.6175
  O  O153  1  0.473300  0.522000  0.661100  1.0  -0.8384
  O  O154  1  0.764000  0.466100  0.256500  1.0  -0.6503
  O  O155  1  0.221700  0.171300  0.515400  1.0  -0.5703
  O  O156  1  0.345100  0.341000  0.887100  1.0  -0.5637
  O  O157  1  0.383600  0.289500  0.793700  1.0  -0.6032
  O  O158  1  0.437700  0.999800  0.921500  1.0  -0.5956
  O  O159  1  0.400000  0.904300  0.078900  1.0  -0.555
  O  O160  1  0.617500  0.419200  0.689100  1.0  -0.5782
  O  O161  1  0.611000  0.481600  0.779400  1.0  -0.5684
  O  O162  1  0.662400  0.040300  0.939700  1.0  -0.5867
  O  O163  1  0.629800  0.099900  0.815300  1.0  -0.6211
  O  O164  1  0.719000  0.366700  0.035900  1.0  -0.5974
  O  O165  1  0.285200  0.141400  0.238800  1.0  -0.6174
  O  O166  1  0.526700  0.865600  0.951300  1.0  -0.844
  O  O167  1  0.236000  0.979500  0.297900  1.0  -0.656
  O  O168  1  0.778300  0.262900  0.050400  1.0  -0.5724
