# generated using pymatgen
data_Dy2H7C18S3O13
_symmetry_space_group_name_H-M   'P 1'
_cell_length_a   12.79340000
_cell_length_b   14.68220000
_cell_length_c   19.07710000
_cell_angle_alpha   107.11500000
_cell_angle_beta   105.53600000
_cell_angle_gamma   93.51800000
_symmetry_Int_Tables_number   1
_chemical_formula_structural   Dy2H7C18S3O13
_chemical_formula_sum   'Dy8 H28 C72 S12 O52'
_cell_volume   3261.07450343
_cell_formula_units_Z   4
loop_
 _symmetry_equiv_pos_site_id
 _symmetry_equiv_pos_as_xyz
  1  'x, y, z'
loop_
 _atom_site_type_symbol
 _atom_site_label
 _atom_site_symmetry_multiplicity
 _atom_site_fract_x
 _atom_site_fract_y
 _atom_site_fract_z
 _atom_site_occupancy
 _atom_site_charge
  Dy  Dy1  1  0.402870  0.620000  0.779880  1.0  2.2774
  Dy  Dy2  1  0.157230  0.881480  0.280020  1.0  2.2842
  Dy  Dy3  1  0.348050  0.124210  0.236810  1.0  2.289
  Dy  Dy4  1  0.109910  0.385480  0.736090  1.0  2.2857
  Dy  Dy5  1  0.597130  0.380000  0.220120  1.0  2.2741
  Dy  Dy6  1  0.842770  0.118520  0.719980  1.0  2.2849
  Dy  Dy7  1  0.651950  0.875790  0.763190  1.0  2.2895
  Dy  Dy8  1  0.890090  0.614520  0.263910  1.0  2.2869
  H  H9  1  0.939900  0.389900  0.803800  1.0  0.3929
  H  H10  1  0.367200  0.533600  0.570000  1.0  0.103
  H  H11  1  0.395300  0.459000  0.444500  1.0  0.113
  H  H12  1  0.121600  0.541600  0.071600  1.0  0.1106
  H  H13  1  0.150100  0.471000  0.946600  1.0  0.104
  H  H14  1  0.534700  0.119000  0.187300  1.0  0.404
  H  H15  1  0.068400  0.649700  0.480300  1.0  0.1072
  H  H16  1  0.977100  0.856700  0.068900  1.0  0.1088
  H  H17  1  0.195200  0.647300  0.601300  1.0  0.1087
  H  H18  1  0.606500  0.036200  0.320000  1.0  0.1056
  H  H19  1  0.858200  0.851500  0.945800  1.0  0.109
  H  H20  1  0.770400  0.958400  0.321800  1.0  0.1129
  H  H21  1  0.897700  0.967000  0.197300  1.0  0.1054
  H  H22  1  0.731000  0.039900  0.186500  1.0  0.1141
  H  H23  1  0.060100  0.610100  0.196200  1.0  0.3943
  H  H24  1  0.632800  0.466400  0.430000  1.0  0.1039
  H  H25  1  0.604700  0.541000  0.555500  1.0  0.1138
  H  H26  1  0.878400  0.458400  0.928400  1.0  0.1117
  H  H27  1  0.849900  0.529000  0.053400  1.0  0.1048
  H  H28  1  0.465300  0.881000  0.812700  1.0  0.4106
  H  H29  1  0.931600  0.350300  0.519700  1.0  0.1089
  H  H30  1  0.022900  0.143300  0.931100  1.0  0.1082
  H  H31  1  0.804800  0.352700  0.398700  1.0  0.1082
  H  H32  1  0.393500  0.963800  0.680000  1.0  0.1057
  H  H33  1  0.141800  0.148500  0.054200  1.0  0.109
  H  H34  1  0.229600  0.041600  0.678200  1.0  0.1133
  H  H35  1  0.102300  0.033000  0.802700  1.0  0.1058
  H  H36  1  0.269000  0.960100  0.813500  1.0  0.1136
  C  C37  1  0.233700  0.598700  0.957700  1.0  -0.1857
  C  C38  1  0.338600  0.470400  0.539000  1.0  -0.0585
  C  C39  1  0.356000  0.426800  0.467000  1.0  -0.0668
  C  C40  1  0.402300  0.924100  0.295100  1.0  0.7866
  C  C41  1  0.157300  0.576000  0.048600  1.0  -0.0576
  C  C42  1  0.273300  0.580900  0.889300  1.0  0.7901
  C  C43  1  0.175400  0.534900  0.977100  1.0  -0.0393
  C  C44  1  0.197900  0.671900  0.080500  1.0  -0.172
  C  C45  1  0.188600  0.741400  0.151000  1.0  0.6786
  C  C46  1  0.274900  0.408500  0.557600  1.0  -0.2096
  C  C47  1  0.863500  0.762400  0.078000  1.0  -0.226
  C  C48  1  0.909300  0.748000  0.152200  1.0  0.7926
  C  C49  1  0.742700  0.758800  0.954300  1.0  -0.2073
  C  C50  1  0.140000  0.682200  0.500500  1.0  -0.0468
  C  C51  1  0.315600  0.264600  0.363800  1.0  0.6969
  C  C52  1  0.097700  0.077600  0.215700  1.0  0.7804
  C  C53  1  0.311400  0.735100  0.587200  1.0  -0.2211
  C  C54  1  0.235500  0.428800  0.625600  1.0  0.8099
  C  C55  1  0.754700  0.757700  0.287900  1.0  0.6839
  C  C56  1  0.645800  0.743100  0.885800  1.0  0.8427
  C  C57  1  0.184300  0.734600  0.466300  1.0  -0.215
  C  C58  1  0.308900  0.332900  0.434400  1.0  -0.1551
  C  C59  1  0.136100  0.748200  0.390800  1.0  0.8634
  C  C60  1  0.679300  0.827500  0.296500  1.0  -0.1639
  C  C61  1  0.983000  0.094800  0.209100  1.0  -0.2166
  C  C62  1  0.739000  0.238700  0.204800  1.0  0.6837
  C  C63  1  0.816400  0.168400  0.200900  1.0  -0.1781
  C  C64  1  0.409200  0.749800  0.653800  1.0  0.8131
  C  C65  1  0.907900  0.819500  0.045900  1.0  -0.0514
  C  C66  1  0.212800  0.681000  0.570600  1.0  -0.0641
  C  C67  1  0.516400  0.906200  0.298400  1.0  -0.1745
  C  C68  1  0.606900  0.970600  0.311900  1.0  -0.0446
  C  C69  1  0.839500  0.816800  0.975500  1.0  -0.0348
  C  C70  1  0.700900  0.925400  0.312100  1.0  -0.0697
  C  C71  1  0.894800  0.030900  0.199700  1.0  -0.0643
  C  C72  1  0.799300  0.073300  0.194100  1.0  -0.0574
  C  C73  1  0.766300  0.401300  0.042300  1.0  -0.1855
  C  C74  1  0.661400  0.529600  0.461000  1.0  -0.0602
  C  C75  1  0.644000  0.573200  0.533000  1.0  -0.0664
  C  C76  1  0.597700  0.075900  0.704900  1.0  0.7872
  C  C77  1  0.842700  0.424000  0.951400  1.0  -0.0562
  C  C78  1  0.726700  0.419100  0.110700  1.0  0.795
  C  C79  1  0.824600  0.465100  0.022900  1.0  -0.0395
  C  C80  1  0.802100  0.328100  0.919500  1.0  -0.1732
  C  C81  1  0.811400  0.258600  0.849000  1.0  0.6804
  C  C82  1  0.725100  0.591500  0.442400  1.0  -0.2097
  C  C83  1  0.136500  0.237600  0.922000  1.0  -0.2258
  C  C84  1  0.090700  0.252000  0.847800  1.0  0.7891
  C  C85  1  0.257300  0.241200  0.045700  1.0  -0.2082
  C  C86  1  0.860000  0.317800  0.499500  1.0  -0.0484
  C  C87  1  0.684400  0.735400  0.636200  1.0  0.6946
  C  C88  1  0.902300  0.922400  0.784300  1.0  0.7761
  C  C89  1  0.688600  0.264900  0.412800  1.0  -0.2214
  C  C90  1  0.764500  0.571200  0.374400  1.0  0.8084
  C  C91  1  0.245300  0.242300  0.712100  1.0  0.6815
  C  C92  1  0.354200  0.256900  0.114200  1.0  0.8404
  C  C93  1  0.815700  0.265400  0.533700  1.0  -0.2151
  C  C94  1  0.691100  0.667100  0.565600  1.0  -0.1544
  C  C95  1  0.863900  0.251800  0.609200  1.0  0.8635
  C  C96  1  0.320700  0.172500  0.703500  1.0  -0.163
  C  C97  1  0.017000  0.905200  0.790900  1.0  -0.2161
  C  C98  1  0.261000  0.761300  0.795200  1.0  0.6843
  C  C99  1  0.183600  0.831600  0.799100  1.0  -0.1771
  C  C100  1  0.590800  0.250200  0.346200  1.0  0.8142
  C  C101  1  0.092100  0.180500  0.954100  1.0  -0.0526
  C  C102  1  0.787200  0.319000  0.429400  1.0  -0.0649
  C  C103  1  0.483600  0.093800  0.701600  1.0  -0.1751
  C  C104  1  0.393100  0.029400  0.688100  1.0  -0.0435
  C  C105  1  0.160500  0.183200  0.024500  1.0  -0.0336
  C  C106  1  0.299100  0.074600  0.687900  1.0  -0.0695
  C  C107  1  0.105200  0.969100  0.800300  1.0  -0.0651
  C  C108  1  0.200700  0.926700  0.805900  1.0  -0.057
  S  S109  1  0.263450  0.711060  0.024770  1.0  0.1799
  S  S110  1  0.735150  0.705410  0.020700  1.0  0.1922
  S  S111  1  0.238390  0.297470  0.489140  1.0  0.1801
  S  S112  1  0.315840  0.788610  0.519690  1.0  0.1845
  S  S113  1  0.545440  0.791690  0.285790  1.0  0.1788
  S  S114  1  0.950670  0.206920  0.214740  1.0  0.1888
  S  S115  1  0.736550  0.288940  0.975230  1.0  0.1794
  S  S116  1  0.264850  0.294590  0.979300  1.0  0.1841
  S  S117  1  0.761610  0.702530  0.510860  1.0  0.1789
  S  S118  1  0.684160  0.211390  0.480310  1.0  0.1843
  S  S119  1  0.454560  0.208310  0.714210  1.0  0.1786
  S  S120  1  0.049330  0.793080  0.785260  1.0  0.1897
  O  O121  1  0.225200  0.510100  0.831700  1.0  -0.7998
  O  O122  1  0.372000  0.996900  0.279300  1.0  -0.8201
  O  O123  1  0.973400  0.437000  0.800200  1.0  -0.7186
  O  O124  1  0.343000  0.864200  0.307400  1.0  -0.6588
  O  O125  1  0.352600  0.637800  0.892900  1.0  -0.6587
  O  O126  1  0.183300  0.811100  0.374200  1.0  -0.7857
  O  O127  1  0.159500  0.137200  0.203900  1.0  -0.6633
  O  O128  1  0.286300  0.499000  0.683300  1.0  -0.833
  O  O129  1  0.563900  0.687400  0.877200  1.0  -0.7502
  O  O130  1  0.048700  0.693100  0.349100  1.0  -0.7661
  O  O131  1  0.483800  0.817000  0.667700  1.0  -0.6933
  O  O132  1  0.153000  0.374500  0.621100  1.0  -0.6837
  O  O133  1  0.487700  0.072600  0.177500  1.0  -0.7368
  O  O134  1  0.775200  0.326800  0.239400  1.0  -0.6438
  O  O135  1  0.865500  0.677600  0.163200  1.0  -0.7006
  O  O136  1  0.296200  0.175100  0.353700  1.0  -0.6697
  O  O137  1  0.127800  0.006300  0.234000  1.0  -0.8341
  O  O138  1  0.653800  0.790400  0.841800  1.0  -0.7439
  O  O139  1  0.168300  0.711300  0.202500  1.0  -0.6219
  O  O140  1  0.989900  0.807700  0.199600  1.0  -0.7902
  O  O141  1  0.342700  0.292500  0.314200  1.0  -0.6242
  O  O142  1  0.197400  0.830000  0.158600  1.0  -0.641
  O  O143  1  0.714000  0.668800  0.255000  1.0  -0.6711
  O  O144  1  0.410200  0.694700  0.692500  1.0  -0.7997
  O  O145  1  0.636600  0.211000  0.173900  1.0  -0.6262
  O  O146  1  0.855900  0.783400  0.311000  1.0  -0.6337
  O  O147  1  0.774800  0.489900  0.168300  1.0  -0.8013
  O  O148  1  0.628000  0.003100  0.720700  1.0  -0.8201
  O  O149  1  0.026600  0.563000  0.199800  1.0  -0.7303
  O  O150  1  0.657000  0.135800  0.692600  1.0  -0.6597
  O  O151  1  0.647400  0.362200  0.107100  1.0  -0.6578
  O  O152  1  0.816700  0.188900  0.625800  1.0  -0.7864
  O  O153  1  0.840500  0.862800  0.796100  1.0  -0.666
  O  O154  1  0.713700  0.501000  0.316700  1.0  -0.8373
  O  O155  1  0.436100  0.312600  0.122800  1.0  -0.7502
  O  O156  1  0.951300  0.306900  0.650900  1.0  -0.7666
  O  O157  1  0.516200  0.183000  0.332300  1.0  -0.694
  O  O158  1  0.847000  0.625500  0.378900  1.0  -0.6837
  O  O159  1  0.512300  0.927400  0.822500  1.0  -0.736
  O  O160  1  0.224800  0.673200  0.760600  1.0  -0.649
  O  O161  1  0.134500  0.322400  0.836800  1.0  -0.7013
  O  O162  1  0.703800  0.824900  0.646300  1.0  -0.6663
  O  O163  1  0.872200  0.993700  0.766000  1.0  -0.8331
  O  O164  1  0.346200  0.209600  0.158200  1.0  -0.7454
  O  O165  1  0.831700  0.288700  0.797500  1.0  -0.6243
  O  O166  1  0.010100  0.192300  0.800400  1.0  -0.7883
  O  O167  1  0.657300  0.707500  0.685800  1.0  -0.6233
  O  O168  1  0.802600  0.170000  0.841400  1.0  -0.6415
  O  O169  1  0.286000  0.331200  0.745000  1.0  -0.6702
  O  O170  1  0.589800  0.305300  0.307500  1.0  -0.8015
  O  O171  1  0.363400  0.789000  0.826100  1.0  -0.6256
  O  O172  1  0.144100  0.216600  0.689000  1.0  -0.6295
