# generated using pymatgen
data_Tb2H7C18S3O13
_symmetry_space_group_name_H-M   'P 1'
_cell_length_a   12.80680000
_cell_length_b   14.55740000
_cell_length_c   19.12760000
_cell_angle_alpha   106.66000000
_cell_angle_beta   105.62100000
_cell_angle_gamma   93.69100000
_symmetry_Int_Tables_number   1
_chemical_formula_structural   Tb2H7C18S3O13
_chemical_formula_sum   'Tb8 H28 C72 S12 O52'
_cell_volume   3251.18719788
_cell_formula_units_Z   4
loop_
 _symmetry_equiv_pos_site_id
 _symmetry_equiv_pos_as_xyz
  1  'x, y, z'
loop_
 _atom_site_type_symbol
 _atom_site_label
 _atom_site_symmetry_multiplicity
 _atom_site_fract_x
 _atom_site_fract_y
 _atom_site_fract_z
 _atom_site_occupancy
 _atom_site_charge
  Tb  Tb1  1  0.660530  0.383180  0.280630  1.0  2.2593
  Tb  Tb2  1  0.904240  0.118180  0.780640  1.0  2.2513
  Tb  Tb3  1  0.390700  0.113500  0.263240  1.0  2.2621
  Tb  Tb4  1  0.154290  0.374770  0.762130  1.0  2.2707
  Tb  Tb5  1  0.339470  0.616820  0.719370  1.0  2.2594
  Tb  Tb6  1  0.095760  0.881820  0.219360  1.0  2.2507
  Tb  Tb7  1  0.609300  0.886500  0.736760  1.0  2.262
  Tb  Tb8  1  0.845710  0.625230  0.237870  1.0  2.2709
  H  H9  1  0.357800  0.354900  0.942900  1.0  0.1077
  H  H10  1  0.479700  0.361400  0.068700  1.0  0.1053
  H  H11  1  0.647200  0.969100  0.945900  1.0  0.1033
  H  H12  1  0.618200  0.041400  0.071600  1.0  0.0976
  H  H13  1  0.127600  0.965500  0.425900  1.0  0.1071
  H  H14  1  0.100400  0.037900  0.551700  1.0  0.1151
  H  H15  1  0.696500  0.144700  0.601600  1.0  0.1063
  H  H16  1  0.569300  0.143700  0.479700  1.0  0.111
  H  H17  1  0.771600  0.464100  0.814500  1.0  0.1148
  H  H18  1  0.599600  0.535400  0.803100  1.0  0.1028
  H  H19  1  0.726800  0.536600  0.676500  1.0  0.1108
  H  H20  1  0.893200  0.459000  0.675300  1.0  0.1054
  H  H21  1  0.562400  0.106700  0.195200  1.0  0.3878
  H  H22  1  0.964600  0.382200  0.809600  1.0  0.4128
  H  H23  1  0.642200  0.645100  0.057100  1.0  0.1074
  H  H24  1  0.520300  0.638600  0.931300  1.0  0.107
  H  H25  1  0.352800  0.030900  0.054100  1.0  0.1036
  H  H26  1  0.381800  0.958600  0.928400  1.0  0.1019
  H  H27  1  0.872400  0.034500  0.574100  1.0  0.1057
  H  H28  1  0.899600  0.962100  0.448300  1.0  0.115
  H  H29  1  0.303500  0.855300  0.398400  1.0  0.1095
  H  H30  1  0.430700  0.856300  0.520300  1.0  0.1084
  H  H31  1  0.228400  0.535900  0.185500  1.0  0.1173
  H  H32  1  0.400400  0.464600  0.196900  1.0  0.1027
  H  H33  1  0.273200  0.463400  0.323500  1.0  0.1103
  H  H34  1  0.106800  0.541000  0.324700  1.0  0.104
  H  H35  1  0.437600  0.893300  0.804800  1.0  0.3868
  H  H36  1  0.035400  0.617800  0.190400  1.0  0.4087
  C  C37  1  0.763500  0.262000  0.793600  1.0  0.6829
  C  C38  1  0.146700  0.241700  0.886000  1.0  0.7766
  C  C39  1  0.242100  0.261000  0.954500  1.0  -0.2016
  C  C40  1  0.339300  0.319900  0.973900  1.0  -0.0493
  C  C41  1  0.409200  0.322800  0.045500  1.0  -0.0557
  C  C42  1  0.365600  0.265100  0.077800  1.0  -0.2119
  C  C43  1  0.774100  0.082700  0.890700  1.0  0.763
  C  C44  1  0.733900  0.100300  0.957900  1.0  -0.1873
  C  C45  1  0.673500  0.034600  0.977000  1.0  -0.0696
  C  C46  1  0.655600  0.076500  0.048400  1.0  -0.0586
  C  C47  1  0.697400  0.171900  0.080000  1.0  -0.2033
  C  C48  1  0.688900  0.240900  0.150400  1.0  0.6904
  C  C49  1  0.264800  0.073700  0.374200  1.0  0.7433
  C  C50  1  0.224400  0.092000  0.441200  1.0  -0.2014
  C  C51  1  0.158500  0.029700  0.458300  1.0  -0.0351
  C  C52  1  0.141800  0.071600  0.529700  1.0  -0.0505
  C  C53  1  0.190900  0.165300  0.563900  1.0  -0.1749
  C  C54  1  0.743700  0.741000  0.713900  1.0  0.701
  C  C55  1  0.911700  0.248500  0.653600  1.0  0.7353
  C  C56  1  0.813300  0.233100  0.586400  1.0  -0.2143
  C  C57  1  0.714400  0.178700  0.569800  1.0  -0.0503
  C  C58  1  0.641900  0.178400  0.500400  1.0  -0.0621
  C  C59  1  0.686400  0.233200  0.466000  1.0  -0.1993
  C  C60  1  0.685200  0.331000  0.797000  1.0  -0.1798
  C  C61  1  0.702000  0.428400  0.805700  1.0  -0.0641
  C  C62  1  0.603900  0.469500  0.800000  1.0  -0.0833
  C  C63  1  0.516200  0.403200  0.789700  1.0  -0.2071
  C  C64  1  0.401200  0.417400  0.783700  1.0  0.7595
  C  C65  1  0.185700  0.233300  0.635100  1.0  0.7149
  C  C66  1  0.637800  0.246800  0.391400  1.0  0.8123
  C  C67  1  0.413700  0.250900  0.152400  1.0  0.7217
  C  C68  1  0.818400  0.670000  0.702900  1.0  -0.1721
  C  C69  1  0.982600  0.593800  0.700200  1.0  -0.2034
  C  C70  1  0.096100  0.577800  0.703500  1.0  0.7448
  C  C71  1  0.797300  0.571300  0.686200  1.0  -0.0624
  C  C72  1  0.892100  0.526700  0.685100  1.0  -0.0842
  C  C73  1  0.236500  0.738000  0.206400  1.0  0.68
  C  C74  1  0.853300  0.758300  0.114000  1.0  0.7759
  C  C75  1  0.757900  0.739000  0.045500  1.0  -0.2022
  C  C76  1  0.660700  0.680100  0.026100  1.0  -0.0492
  C  C77  1  0.590800  0.677200  0.954500  1.0  -0.0563
  C  C78  1  0.634400  0.734900  0.922200  1.0  -0.2126
  C  C79  1  0.225900  0.917300  0.109300  1.0  0.7634
  C  C80  1  0.266100  0.899700  0.042100  1.0  -0.191
  C  C81  1  0.326500  0.965400  0.023000  1.0  -0.0692
  C  C82  1  0.344400  0.923500  0.951600  1.0  -0.057
  C  C83  1  0.302600  0.828100  0.920000  1.0  -0.2016
  C  C84  1  0.311100  0.759100  0.849600  1.0  0.6882
  C  C85  1  0.735200  0.926300  0.625800  1.0  0.7452
  C  C86  1  0.775600  0.908000  0.558800  1.0  -0.1976
  C  C87  1  0.841500  0.970300  0.541700  1.0  -0.0309
  C  C88  1  0.858200  0.928400  0.470300  1.0  -0.0508
  C  C89  1  0.809100  0.834700  0.436100  1.0  -0.175
  C  C90  1  0.256300  0.259000  0.286100  1.0  0.7105
  C  C91  1  0.088300  0.751500  0.346400  1.0  0.7343
  C  C92  1  0.186700  0.766900  0.413600  1.0  -0.2147
  C  C93  1  0.285600  0.821300  0.430200  1.0  -0.0473
  C  C94  1  0.358100  0.821600  0.499600  1.0  -0.0628
  C  C95  1  0.313600  0.766800  0.534000  1.0  -0.1987
  C  C96  1  0.314800  0.669000  0.203000  1.0  -0.1793
  C  C97  1  0.298000  0.571600  0.194300  1.0  -0.0653
  C  C98  1  0.396100  0.530500  0.200000  1.0  -0.0797
  C  C99  1  0.483800  0.596800  0.210300  1.0  -0.2087
  C  C100  1  0.598800  0.582600  0.216300  1.0  0.7605
  C  C101  1  0.814300  0.766700  0.364900  1.0  0.7209
  C  C102  1  0.362200  0.753200  0.608600  1.0  0.8113
  C  C103  1  0.586300  0.749100  0.847600  1.0  0.7204
  C  C104  1  0.181600  0.330000  0.297100  1.0  -0.1734
  C  C105  1  0.017400  0.406200  0.299800  1.0  -0.2022
  C  C106  1  0.903900  0.422200  0.296500  1.0  0.747
  C  C107  1  0.202700  0.428700  0.313800  1.0  -0.0616
  C  C108  1  0.107900  0.473300  0.314900  1.0  -0.0894
  S  S109  1  0.551170  0.290840  0.784090  1.0  0.1865
  S  S110  1  0.237470  0.206330  0.021540  1.0  0.1845
  S  S111  1  0.817810  0.286090  0.518400  1.0  0.1661
  S  S112  1  0.764680  0.212110  0.025780  1.0  0.1713
  S  S113  1  0.262470  0.202720  0.510620  1.0  0.1752
  S  S114  1  0.952410  0.708620  0.714620  1.0  0.1741
  S  S115  1  0.448830  0.709160  0.215910  1.0  0.1749
  S  S116  1  0.762530  0.793670  0.978460  1.0  0.1739
  S  S117  1  0.182190  0.713910  0.481600  1.0  0.1693
  S  S118  1  0.235320  0.787890  0.974220  1.0  0.1805
  S  S119  1  0.737530  0.797280  0.489380  1.0  0.1842
  S  S120  1  0.047590  0.291380  0.285380  1.0  0.1823
  O  O121  1  0.064800  0.184800  0.879600  1.0  -0.6912
  O  O122  1  0.151700  0.286100  0.839700  1.0  -0.7651
  O  O123  1  0.986100  0.315400  0.666300  1.0  -0.6837
  O  O124  1  0.912800  0.192400  0.692500  1.0  -0.7436
  O  O125  1  0.347900  0.128500  0.378800  1.0  -0.6611
  O  O126  1  0.727000  0.173000  0.759600  1.0  -0.6341
  O  O127  1  0.864700  0.290400  0.824600  1.0  -0.6289
  O  O128  1  0.853200  0.139900  0.894500  1.0  -0.6337
  O  O129  1  0.725300  0.011400  0.833000  1.0  -0.7893
  O  O130  1  0.667800  0.210000  0.201500  1.0  -0.6384
  O  O131  1  0.700600  0.330100  0.159200  1.0  -0.6419
  O  O132  1  0.213900  0.004100  0.315400  1.0  -0.7847
  O  O133  1  0.784600  0.829700  0.747100  1.0  -0.6163
  O  O134  1  0.642200  0.714400  0.690300  1.0  -0.5979
  O  O135  1  0.527200  0.058700  0.199200  1.0  -0.6955
  O  O136  1  0.370900  0.178000  0.162800  1.0  -0.7141
  O  O137  1  0.491400  0.312000  0.199000  1.0  -0.7159
  O  O138  1  0.368500  0.489000  0.765900  1.0  -0.804
  O  O139  1  0.342500  0.355900  0.795500  1.0  -0.6309
  O  O140  1  0.157600  0.203000  0.683700  1.0  -0.6273
  O  O141  1  0.206900  0.323500  0.646200  1.0  -0.6448
  O  O142  1  0.014100  0.429200  0.820300  1.0  -0.6987
  O  O143  1  0.129100  0.504700  0.719100  1.0  -0.8111
  O  O144  1  0.154400  0.638900  0.691100  1.0  -0.6133
  O  O145  1  0.550100  0.192400  0.349300  1.0  -0.7691
  O  O146  1  0.686200  0.311000  0.374600  1.0  -0.7259
  O  O147  1  0.935200  0.815200  0.120400  1.0  -0.6932
  O  O148  1  0.848300  0.713900  0.160300  1.0  -0.7654
  O  O149  1  0.013900  0.684600  0.333700  1.0  -0.6842
  O  O150  1  0.087200  0.807600  0.307500  1.0  -0.7452
  O  O151  1  0.652100  0.871500  0.621200  1.0  -0.6621
  O  O152  1  0.273000  0.827000  0.240400  1.0  -0.6286
  O  O153  1  0.135300  0.709600  0.175400  1.0  -0.6298
  O  O154  1  0.146800  0.860100  0.105500  1.0  -0.6345
  O  O155  1  0.274700  0.988600  0.167000  1.0  -0.7911
  O  O156  1  0.332200  0.790000  0.798500  1.0  -0.6406
  O  O157  1  0.299400  0.669900  0.840800  1.0  -0.6421
  O  O158  1  0.786100  0.995900  0.684600  1.0  -0.7847
  O  O159  1  0.215400  0.170300  0.252900  1.0  -0.6186
  O  O160  1  0.357800  0.285600  0.309700  1.0  -0.6005
  O  O161  1  0.472800  0.941300  0.800800  1.0  -0.6914
  O  O162  1  0.629100  0.822000  0.837200  1.0  -0.7148
  O  O163  1  0.508600  0.688000  0.801000  1.0  -0.7127
  O  O164  1  0.631500  0.511000  0.234100  1.0  -0.8047
  O  O165  1  0.657500  0.644100  0.204500  1.0  -0.63
  O  O166  1  0.842400  0.797000  0.316300  1.0  -0.6305
  O  O167  1  0.793100  0.676500  0.353800  1.0  -0.6462
  O  O168  1  0.985900  0.570800  0.179700  1.0  -0.6992
  O  O169  1  0.870900  0.495300  0.280900  1.0  -0.8094
  O  O170  1  0.845600  0.361100  0.308900  1.0  -0.6131
  O  O171  1  0.449900  0.807600  0.650700  1.0  -0.7705
  O  O172  1  0.313800  0.689000  0.625400  1.0  -0.7267
