# generated using pymatgen
data_Nd2H6C18(SO4)3
_symmetry_space_group_name_H-M   'P 1'
_cell_length_a   10.06340000
_cell_length_b   13.02840000
_cell_length_c   14.92270000
_cell_angle_alpha   79.66220000
_cell_angle_beta   70.29460000
_cell_angle_gamma   67.28110000
_symmetry_Int_Tables_number   1
_chemical_formula_structural   Nd2H6C18(SO4)3
_chemical_formula_sum   'Nd4 H12 C36 S6 O24'
_cell_volume   1696.29245267
_cell_formula_units_Z   2
loop_
 _symmetry_equiv_pos_site_id
 _symmetry_equiv_pos_as_xyz
  1  'x, y, z'
loop_
 _atom_site_type_symbol
 _atom_site_label
 _atom_site_symmetry_multiplicity
 _atom_site_fract_x
 _atom_site_fract_y
 _atom_site_fract_z
 _atom_site_occupancy
 _atom_site_charge
  Nd  Nd1  1  0.091830  0.295200  0.608000  1.0  2.2455
  Nd  Nd2  1  0.354840  0.030200  0.346400  1.0  2.2573
  Nd  Nd3  1  0.504970  0.795200  0.108000  1.0  2.2486
  Nd  Nd4  1  0.768560  0.530200  0.846400  1.0  2.2579
  H  H5  1  0.824100  0.618100  0.199300  1.0  0.094
  H  H6  1  0.000900  0.460300  0.273300  1.0  0.1101
  H  H7  1  0.470900  0.317000  0.577400  1.0  0.1144
  H  H8  1  0.720600  0.313000  0.578000  1.0  0.1079
  H  H9  1  0.116000  0.853000  0.690800  1.0  0.1097
  H  H10  1  0.028400  0.701400  0.758800  1.0  0.1059
  H  H11  1  0.858500  0.118100  0.699300  1.0  0.0929
  H  H12  1  0.765500  0.960300  0.773300  1.0  0.1116
  H  H13  1  0.134700  0.817000  0.077400  1.0  0.1154
  H  H14  1  0.888400  0.813000  0.078000  1.0  0.11
  H  H15  1  0.840200  0.353000  0.190800  1.0  0.1088
  H  H16  1  0.011400  0.201400  0.258800  1.0  0.106
  C  C17  1  0.114000  0.636500  0.623300  1.0  -0.2392
  C  C18  1  0.459500  0.164600  0.484800  1.0  0.8278
  C  C19  1  0.958400  0.455200  0.466000  1.0  0.652
  C  C20  1  0.618400  0.800300  0.310100  1.0  0.7808
  C  C21  1  0.198800  0.790900  0.559500  1.0  -0.1987
  C  C22  1  0.890800  0.527500  0.400900  1.0  -0.1477
  C  C23  1  0.086700  0.526600  0.642000  1.0  0.7799
  C  C24  1  0.976500  0.159800  0.490800  1.0  0.7658
  C  C25  1  0.822700  0.614200  0.262400  1.0  -0.087
  C  C26  1  0.250800  0.875800  0.488600  1.0  0.73
  C  C27  1  0.922800  0.519500  0.306900  1.0  -0.0649
  C  C28  1  0.827900  0.192900  0.485300  1.0  -0.1867
  C  C29  1  0.579900  0.193900  0.482300  1.0  -0.2143
  C  C30  1  0.563000  0.270100  0.541900  1.0  -0.0747
  C  C31  1  0.710500  0.267200  0.541800  1.0  -0.0562
  C  C32  1  0.128100  0.796100  0.655700  1.0  -0.0563
  C  C33  1  0.078100  0.710800  0.695000  1.0  -0.0698
  C  C34  1  0.731000  0.692700  0.322300  1.0  -0.1702
  C  C35  1  0.126200  0.136500  0.123300  1.0  -0.2393
  C  C36  1  0.391100  0.664600  0.984800  1.0  0.8283
  C  C37  1  0.620400  0.955200  0.966000  1.0  0.6516
  C  C38  1  0.771200  0.300300  0.810100  1.0  0.7798
  C  C39  1  0.950800  0.290900  0.059500  1.0  -0.2008
  C  C40  1  0.680800  0.027500  0.900900  1.0  -0.1463
  C  C41  1  0.244700  0.026600  0.142000  1.0  0.7805
  C  C42  1  0.872900  0.659800  0.990800  1.0  0.762
  C  C43  1  0.800700  0.114200  0.762400  1.0  -0.0882
  C  C44  1  0.884800  0.375800  0.988600  1.0  0.7314
  C  C45  1  0.750800  0.019500  0.806900  1.0  -0.0658
  C  C46  1  0.993900  0.692900  0.985300  1.0  -0.1865
  C  C47  1  0.243900  0.693900  0.982300  1.0  -0.2145
  C  C48  1  0.125000  0.770100  0.041900  1.0  -0.0745
  C  C49  1  0.980500  0.767200  0.041800  1.0  -0.057
  C  C50  1  0.920100  0.296100  0.155700  1.0  -0.0556
  C  C51  1  0.016100  0.210800  0.195000  1.0  -0.0686
  C  C52  1  0.754000  0.192700  0.822300  1.0  -0.1707
  S  S53  1  0.752900  0.650300  0.437500  1.0  0.1395
  S  S54  1  0.201700  0.673300  0.517300  1.0  0.1891
  S  S55  1  0.766900  0.121700  0.428500  1.0  0.1957
  S  S56  1  0.659300  0.150300  0.937500  1.0  0.1404
  S  S57  1  0.107700  0.173300  0.017300  1.0  0.1866
  S  S58  1  0.182900  0.621700  0.928500  1.0  0.1961
  O  O59  1  0.276600  0.861900  0.403300  1.0  -0.6856
  O  O60  1  0.895100  0.453600  0.558200  1.0  -0.6515
  O  O61  1  0.570900  0.869300  0.373300  1.0  -0.6318
  O  O62  1  0.173500  0.453400  0.585000  1.0  -0.6623
  O  O63  1  0.571600  0.814500  0.241500  1.0  -0.836
  O  O64  1  0.987600  0.506800  0.714000  1.0  -0.8349
  O  O65  1  0.098800  0.375500  0.434900  1.0  -0.6556
  O  O66  1  0.340700  0.217300  0.515500  1.0  -0.7012
  O  O67  1  0.268700  0.948000  0.514600  1.0  -0.6248
  O  O68  1  0.486000  0.098100  0.412500  1.0  -0.8537
  O  O69  1  0.018700  0.200200  0.526400  1.0  -0.6872
  O  O70  1  0.085300  0.109600  0.402200  1.0  -0.8206
  O  O71  1  0.958200  0.361900  0.903300  1.0  -0.681
  O  O72  1  0.593100  0.953600  0.058200  1.0  -0.652
  O  O73  1  0.686500  0.369300  0.873300  1.0  -0.6271
  O  O74  1  0.288100  0.953400  0.085000  1.0  -0.6628
  O  O75  1  0.872400  0.314500  0.741500  1.0  -0.8356
  O  O76  1  0.291600  0.006800  0.214000  1.0  -0.8365
  O  O77  1  0.590800  0.875500  0.934900  1.0  -0.6583
  O  O78  1  0.426500  0.717300  0.015500  1.0  -0.7005
  O  O79  1  0.768700  0.448000  0.014600  1.0  -0.6184
  O  O80  1  0.503400  0.598100  0.912500  1.0  -0.8518
  O  O81  1  0.754700  0.700200  0.026400  1.0  -0.6885
  O  O82  1  0.902900  0.609600  0.902200  1.0  -0.8215
