# generated using pymatgen
data_Cu4H24C29S4(N2O)4
_symmetry_space_group_name_H-M   'P 1'
_cell_length_a   10.72370000
_cell_length_b   13.44810000
_cell_length_c   13.44810000
_cell_angle_alpha   90.00000000
_cell_angle_beta   90.00000000
_cell_angle_gamma   90.00000000
_symmetry_Int_Tables_number   1
_chemical_formula_structural   Cu4H24C29S4(N2O)4
_chemical_formula_sum   'Cu8 H48 C58 S8 N16 O8'
_cell_volume   1939.39608966
_cell_formula_units_Z   2
loop_
 _symmetry_equiv_pos_site_id
 _symmetry_equiv_pos_as_xyz
  1  'x, y, z'
loop_
 _atom_site_type_symbol
 _atom_site_label
 _atom_site_symmetry_multiplicity
 _atom_site_fract_x
 _atom_site_fract_y
 _atom_site_fract_z
 _atom_site_occupancy
 _atom_site_charge
  Cu  Cu1  1  0.757110  0.347110  0.728780  1.0  0.2836
  Cu  Cu2  1  0.757110  0.152890  0.771220  1.0  0.2832
  Cu  Cu3  1  0.257110  0.271220  0.847110  1.0  0.2837
  Cu  Cu4  1  0.257110  0.228780  0.652890  1.0  0.285
  Cu  Cu5  1  0.242890  0.652890  0.271220  1.0  0.2832
  Cu  Cu6  1  0.242890  0.847110  0.228780  1.0  0.2838
  Cu  Cu7  1  0.742890  0.728780  0.152890  1.0  0.2852
  Cu  Cu8  1  0.742890  0.771220  0.347110  1.0  0.284
  H  H9  1  0.530600  0.483600  0.769400  1.0  0.0873
  H  H10  1  0.505200  0.674300  0.544000  1.0  0.1174
  H  H11  1  0.674900  0.594600  0.473300  1.0  0.088
  H  H12  1  0.774100  0.470000  0.556000  1.0  0.0813
  H  H13  1  0.384400  0.750700  0.639700  1.0  0.0632
  H  H14  1  0.278700  0.672100  0.619300  1.0  0.0705
  H  H15  1  0.530600  0.016400  0.730600  1.0  0.0863
  H  H16  1  0.505200  0.825700  0.956000  1.0  0.1172
  H  H17  1  0.674900  0.905400  0.026700  1.0  0.0888
  H  H18  1  0.774100  0.030000  0.944000  1.0  0.0812
  H  H19  1  0.384400  0.749300  0.860300  1.0  0.0634
  H  H20  1  0.278700  0.827900  0.880700  1.0  0.0722
  H  H21  1  0.030600  0.230600  0.983600  1.0  0.0875
  H  H22  1  0.005200  0.456000  0.174300  1.0  0.1184
  H  H23  1  0.174900  0.526700  0.094600  1.0  0.0898
  H  H24  1  0.274100  0.444000  0.970000  1.0  0.0807
  H  H25  1  0.884400  0.360300  0.250700  1.0  0.0631
  H  H26  1  0.778700  0.380700  0.172100  1.0  0.0694
  H  H27  1  0.030600  0.269400  0.516400  1.0  0.087
  H  H28  1  0.005200  0.044000  0.325700  1.0  0.1189
  H  H29  1  0.174900  0.973300  0.405400  1.0  0.0894
  H  H30  1  0.274100  0.056000  0.530000  1.0  0.0812
  H  H31  1  0.884400  0.139700  0.249300  1.0  0.0637
  H  H32  1  0.778700  0.119300  0.327900  1.0  0.0706
  H  H33  1  0.469400  0.516400  0.230600  1.0  0.0865
  H  H34  1  0.494800  0.325700  0.456000  1.0  0.1175
  H  H35  1  0.325100  0.405400  0.526700  1.0  0.0886
  H  H36  1  0.225900  0.530000  0.444000  1.0  0.0809
  H  H37  1  0.615600  0.249300  0.360300  1.0  0.0633
  H  H38  1  0.721300  0.327900  0.380700  1.0  0.0721
  H  H39  1  0.469400  0.983600  0.269400  1.0  0.0873
  H  H40  1  0.494800  0.174300  0.044000  1.0  0.1174
  H  H41  1  0.325100  0.094600  0.973300  1.0  0.0881
  H  H42  1  0.225900  0.970000  0.056000  1.0  0.0811
  H  H43  1  0.615600  0.250700  0.139700  1.0  0.0632
  H  H44  1  0.721300  0.172100  0.119300  1.0  0.0699
  H  H45  1  0.969400  0.769400  0.016400  1.0  0.087
  H  H46  1  0.994800  0.544000  0.825700  1.0  0.1192
  H  H47  1  0.825100  0.473300  0.905400  1.0  0.089
  H  H48  1  0.725900  0.556000  0.030000  1.0  0.0808
  H  H49  1  0.115600  0.639700  0.749300  1.0  0.0642
  H  H50  1  0.221300  0.619300  0.827900  1.0  0.0704
  H  H51  1  0.969400  0.730600  0.483600  1.0  0.0876
  H  H52  1  0.994800  0.956000  0.674300  1.0  0.1188
  H  H53  1  0.825100  0.026700  0.594600  1.0  0.0899
  H  H54  1  0.725900  0.944000  0.470000  1.0  0.0806
  H  H55  1  0.115600  0.860300  0.750700  1.0  0.0627
  H  H56  1  0.221300  0.880700  0.672100  1.0  0.0687
  C  C57  1  0.542100  0.288300  0.875400  1.0  0.2974
  C  C58  1  0.561800  0.508100  0.709700  1.0  0.0447
  C  C59  1  0.501900  0.587900  0.666200  1.0  0.2095
  C  C60  1  0.543900  0.621500  0.576300  1.0  -0.167
  C  C61  1  0.645400  0.574400  0.535200  1.0  -0.0871
  C  C62  1  0.703400  0.498600  0.584100  1.0  0.0781
  C  C63  1  0.330800  0.701500  0.670500  1.0  0.0671
  C  C64  1  0.542100  0.211700  0.624600  1.0  0.298
  C  C65  1  0.561800  0.991900  0.790300  1.0  0.0469
  C  C66  1  0.501900  0.912100  0.833800  1.0  0.2092
  C  C67  1  0.543900  0.878500  0.923700  1.0  -0.1664
  C  C68  1  0.645400  0.925600  0.964800  1.0  -0.0872
  C  C69  1  0.703400  0.001400  0.915900  1.0  0.0785
  C  C70  1  0.330800  0.798500  0.829500  1.0  0.068
  C  C71  1  0.042100  0.124600  0.788300  1.0  0.2994
  C  C72  1  0.061800  0.290300  0.008100  1.0  0.0413
  C  C73  1  0.001900  0.333800  0.087900  1.0  0.2106
  C  C74  1  0.043900  0.423700  0.121500  1.0  -0.1685
  C  C75  1  0.145400  0.464800  0.074400  1.0  -0.0873
  C  C76  1  0.203400  0.415900  0.998600  1.0  0.0797
  C  C77  1  0.830800  0.329500  0.201500  1.0  0.0708
  C  C78  1  0.042100  0.375400  0.711700  1.0  0.2978
  C  C79  1  0.061800  0.209700  0.491900  1.0  0.0425
  C  C80  1  0.001900  0.166200  0.412100  1.0  0.2111
  C  C81  1  0.043900  0.076300  0.378500  1.0  -0.1685
  C  C82  1  0.145400  0.035200  0.425600  1.0  -0.0874
  C  C83  1  0.203400  0.084100  0.501400  1.0  0.0798
  C  C84  1  0.830800  0.170500  0.298500  1.0  0.0712
  C  C85  1  0.457900  0.711700  0.124600  1.0  0.2972
  C  C86  1  0.438200  0.491900  0.290300  1.0  0.0483
  C  C87  1  0.498100  0.412100  0.333800  1.0  0.2091
  C  C88  1  0.456100  0.378500  0.423700  1.0  -0.1659
  C  C89  1  0.354600  0.425600  0.464800  1.0  -0.0882
  C  C90  1  0.296600  0.501400  0.415900  1.0  0.0778
  C  C91  1  0.669200  0.298500  0.329500  1.0  0.0672
  C  C92  1  0.457900  0.788300  0.375400  1.0  0.2977
  C  C93  1  0.438200  0.008100  0.209700  1.0  0.0453
  C  C94  1  0.498100  0.087900  0.166200  1.0  0.21
  C  C95  1  0.456100  0.121500  0.076300  1.0  -0.1666
  C  C96  1  0.354600  0.074400  0.035200  1.0  -0.0876
  C  C97  1  0.296600  0.998600  0.084100  1.0  0.0781
  C  C98  1  0.669200  0.201500  0.170500  1.0  0.0674
  C  C99  1  0.957900  0.875400  0.211700  1.0  0.2977
  C  C100  1  0.938200  0.709700  0.991900  1.0  0.0429
  C  C101  1  0.998100  0.666200  0.912100  1.0  0.211
  C  C102  1  0.956100  0.576300  0.878500  1.0  -0.1682
  C  C103  1  0.854600  0.535200  0.925600  1.0  -0.0882
  C  C104  1  0.796600  0.584100  0.001400  1.0  0.0791
  C  C105  1  0.169200  0.670500  0.798500  1.0  0.071
  C  C106  1  0.957900  0.624600  0.288300  1.0  0.2989
  C  C107  1  0.938200  0.790300  0.508100  1.0  0.042
  C  C108  1  0.998100  0.833800  0.587900  1.0  0.2106
  C  C109  1  0.956100  0.923700  0.621500  1.0  -0.1683
  C  C110  1  0.854600  0.964800  0.574400  1.0  -0.0883
  C  C111  1  0.796600  0.915900  0.498600  1.0  0.079
  C  C112  1  0.169200  0.829500  0.701500  1.0  0.0703
  C  C113  1  0.250000  0.750000  0.750000  1.0  -0.0502
  C  C114  1  0.750000  0.250000  0.250000  1.0  -0.0502
  S  S115  1  0.696560  0.291680  0.887060  1.0  -0.3035
  S  S116  1  0.696560  0.208320  0.612940  1.0  -0.305
  S  S117  1  0.196560  0.112940  0.791680  1.0  -0.304
  S  S118  1  0.196560  0.387060  0.708320  1.0  -0.3035
  S  S119  1  0.303440  0.708320  0.112940  1.0  -0.3046
  S  S120  1  0.303440  0.791680  0.387060  1.0  -0.303
  S  S121  1  0.803440  0.887060  0.208320  1.0  -0.3031
  S  S122  1  0.803440  0.612940  0.291680  1.0  -0.3035
  N  N123  1  0.435600  0.285100  0.869300  1.0  -0.4225
  N  N124  1  0.661800  0.464500  0.670600  1.0  -0.2339
  N  N125  1  0.435600  0.214900  0.630700  1.0  -0.4226
  N  N126  1  0.661800  0.035500  0.829400  1.0  -0.2341
  N  N127  1  0.935600  0.130700  0.785100  1.0  -0.4228
  N  N128  1  0.161800  0.329400  0.964500  1.0  -0.2363
  N  N129  1  0.935600  0.369300  0.714900  1.0  -0.4221
  N  N130  1  0.161800  0.170600  0.535500  1.0  -0.2341
  N  N131  1  0.564400  0.714900  0.130700  1.0  -0.4208
  N  N132  1  0.338200  0.535500  0.329400  1.0  -0.235
  N  N133  1  0.564400  0.785100  0.369300  1.0  -0.4212
  N  N134  1  0.338200  0.964500  0.170600  1.0  -0.2356
  N  N135  1  0.064400  0.869300  0.214900  1.0  -0.4205
  N  N136  1  0.838200  0.670600  0.035500  1.0  -0.2358
  N  N137  1  0.064400  0.630700  0.285100  1.0  -0.4212
  N  N138  1  0.838200  0.829400  0.464500  1.0  -0.238
  O  O139  1  0.404300  0.626400  0.717500  1.0  -0.2643
  O  O140  1  0.404300  0.873600  0.782500  1.0  -0.2644
  O  O141  1  0.904300  0.282500  0.126400  1.0  -0.2644
  O  O142  1  0.904300  0.217500  0.373600  1.0  -0.2641
  O  O143  1  0.595700  0.373600  0.282500  1.0  -0.2649
  O  O144  1  0.595700  0.126400  0.217500  1.0  -0.265
  O  O145  1  0.095700  0.717500  0.873600  1.0  -0.2651
  O  O146  1  0.095700  0.782500  0.626400  1.0  -0.2649
