# generated using pymatgen
data_CdH2C2O3
_symmetry_space_group_name_H-M   'P 1'
_cell_length_a   8.36500000
_cell_length_b   9.79500000
_cell_length_c   20.94600000
_cell_angle_alpha   90.00000000
_cell_angle_beta   90.00000000
_cell_angle_gamma   90.00000000
_symmetry_Int_Tables_number   1
_chemical_formula_structural   CdH2C2O3
_chemical_formula_sum   'Cd8 H16 C16 O24'
_cell_volume   1716.21417555
_cell_formula_units_Z   8
loop_
 _symmetry_equiv_pos_site_id
 _symmetry_equiv_pos_as_xyz
  1  'x, y, z'
loop_
 _atom_site_type_symbol
 _atom_site_label
 _atom_site_symmetry_multiplicity
 _atom_site_fract_x
 _atom_site_fract_y
 _atom_site_fract_z
 _atom_site_occupancy
 _atom_site_charge
  Cd  Cd1  1  0.507680  0.603380  0.716770  1.0  0.4481
  Cd  Cd2  1  0.308310  0.659420  0.978660  1.0  0.507
  Cd  Cd3  1  0.992320  0.396620  0.216770  1.0  0.4464
  Cd  Cd4  1  0.191690  0.340580  0.478660  1.0  0.5091
  Cd  Cd5  1  0.492320  0.103380  0.783230  1.0  0.4469
  Cd  Cd6  1  0.691690  0.159420  0.521340  1.0  0.5095
  Cd  Cd7  1  0.007680  0.896620  0.283230  1.0  0.4451
  Cd  Cd8  1  0.808310  0.840580  0.021340  1.0  0.5082
  H  H9  1  0.424800  0.400100  0.924100  1.0  0.4019
  H  H10  1  0.694300  0.678100  0.815600  1.0  0.3737
  H  H11  1  0.672100  0.410000  0.939700  1.0  0.1084
  H  H12  1  0.788800  0.497500  0.846000  1.0  0.1037
  H  H13  1  0.075200  0.599900  0.424100  1.0  0.4012
  H  H14  1  0.805700  0.321900  0.315600  1.0  0.38
  H  H15  1  0.827900  0.590000  0.439700  1.0  0.1085
  H  H16  1  0.711200  0.502500  0.346000  1.0  0.1048
  H  H17  1  0.575200  0.900100  0.575900  1.0  0.4023
  H  H18  1  0.305700  0.178100  0.684400  1.0  0.3787
  H  H19  1  0.327900  0.910000  0.560300  1.0  0.1079
  H  H20  1  0.211200  0.997500  0.654000  1.0  0.1047
  H  H21  1  0.924800  0.099900  0.075900  1.0  0.4009
  H  H22  1  0.194300  0.821900  0.184400  1.0  0.3767
  H  H23  1  0.172100  0.090000  0.060300  1.0  0.1087
  H  H24  1  0.288800  0.002500  0.154000  1.0  0.1038
  C  C25  1  0.678400  0.620300  0.955510  1.0  0.5815
  C  C26  1  0.621400  0.492400  0.920170  1.0  0.0726
  C  C27  1  0.669700  0.501500  0.849190  1.0  0.0496
  C  C28  1  0.598900  0.379000  0.814040  1.0  0.6098
  C  C29  1  0.821600  0.379700  0.455510  1.0  0.5817
  C  C30  1  0.878600  0.507600  0.420170  1.0  0.0721
  C  C31  1  0.830300  0.498500  0.349190  1.0  0.0506
  C  C32  1  0.901100  0.621000  0.314040  1.0  0.6114
  C  C33  1  0.321600  0.120300  0.544490  1.0  0.5826
  C  C34  1  0.378600  0.992400  0.579830  1.0  0.072
  C  C35  1  0.330300  0.001500  0.650810  1.0  0.0505
  C  C36  1  0.401100  0.879000  0.685960  1.0  0.6099
  C  C37  1  0.178400  0.879700  0.044490  1.0  0.5833
  C  C38  1  0.121400  0.007600  0.079830  1.0  0.0724
  C  C39  1  0.169700  0.998500  0.150810  1.0  0.0499
  C  C40  1  0.098900  0.121000  0.185960  1.0  0.6114
  O  O41  1  0.581400  0.697600  0.983540  1.0  -0.4943
  O  O42  1  0.827900  0.643600  0.955450  1.0  -0.58
  O  O43  1  0.452300  0.482400  0.926090  1.0  -0.5484
  O  O44  1  0.615700  0.626700  0.822190  1.0  -0.4915
  O  O45  1  0.599700  0.266700  0.844020  1.0  -0.5863
  O  O46  1  0.544900  0.390800  0.757920  1.0  -0.559
  O  O47  1  0.918600  0.302400  0.483540  1.0  -0.4932
  O  O48  1  0.672100  0.356400  0.455450  1.0  -0.5812
  O  O49  1  0.047700  0.517600  0.426090  1.0  -0.5483
  O  O50  1  0.884300  0.373300  0.322190  1.0  -0.493
  O  O51  1  0.900300  0.733300  0.344020  1.0  -0.5876
  O  O52  1  0.955100  0.609200  0.257920  1.0  -0.5591
  O  O53  1  0.418600  0.197600  0.516460  1.0  -0.4973
  O  O54  1  0.172100  0.143600  0.544550  1.0  -0.5803
  O  O55  1  0.547700  0.982400  0.573910  1.0  -0.5457
  O  O56  1  0.384300  0.126700  0.677810  1.0  -0.4935
  O  O57  1  0.400300  0.766700  0.655980  1.0  -0.5865
  O  O58  1  0.455100  0.890800  0.742080  1.0  -0.5596
  O  O59  1  0.081400  0.802400  0.016460  1.0  -0.4972
  O  O60  1  0.327900  0.856400  0.044550  1.0  -0.5802
  O  O61  1  0.952300  0.017600  0.073910  1.0  -0.5455
  O  O62  1  0.115700  0.873300  0.177810  1.0  -0.4941
  O  O63  1  0.099700  0.233300  0.155980  1.0  -0.5862
  O  O64  1  0.044900  0.109200  0.242080  1.0  -0.56
