# generated using pymatgen
data_CdH2C2O3
_symmetry_space_group_name_H-M   'P 1'
_cell_length_a   8.41490000
_cell_length_b   9.81300000
_cell_length_c   21.02800000
_cell_angle_alpha   90.00000000
_cell_angle_beta   90.00000000
_cell_angle_gamma   90.00000000
_symmetry_Int_Tables_number   1
_chemical_formula_structural   CdH2C2O3
_chemical_formula_sum   'Cd8 H16 C16 O24'
_cell_volume   1736.39579928
_cell_formula_units_Z   8
loop_
 _symmetry_equiv_pos_site_id
 _symmetry_equiv_pos_as_xyz
  1  'x, y, z'
loop_
 _atom_site_type_symbol
 _atom_site_label
 _atom_site_symmetry_multiplicity
 _atom_site_fract_x
 _atom_site_fract_y
 _atom_site_fract_z
 _atom_site_occupancy
 _atom_site_charge
  Cd  Cd1  1  0.495990  0.107710  0.783020  1.0  0.4745
  Cd  Cd2  1  0.305720  0.662710  0.977260  1.0  0.514
  Cd  Cd3  1  0.004010  0.892290  0.283020  1.0  0.4747
  Cd  Cd4  1  0.194280  0.337290  0.477260  1.0  0.5175
  Cd  Cd5  1  0.504010  0.607710  0.716980  1.0  0.4734
  Cd  Cd6  1  0.694280  0.162710  0.522740  1.0  0.517
  Cd  Cd7  1  0.995990  0.392290  0.216980  1.0  0.4731
  Cd  Cd8  1  0.805720  0.837290  0.022740  1.0  0.5152
  H  H9  1  0.782900  0.503600  0.846100  1.0  0.0999
  H  H10  1  0.663700  0.415300  0.937500  1.0  0.109
  H  H11  1  0.436000  0.406300  0.917000  1.0  0.3909
  H  H12  1  0.690000  0.674000  0.810100  1.0  0.353
  H  H13  1  0.717100  0.496400  0.346100  1.0  0.0999
  H  H14  1  0.836300  0.584700  0.437500  1.0  0.108
  H  H15  1  0.064000  0.593700  0.417000  1.0  0.384
  H  H16  1  0.810000  0.326000  0.310100  1.0  0.3637
  H  H17  1  0.217100  0.003600  0.653900  1.0  0.0999
  H  H18  1  0.336300  0.915300  0.562500  1.0  0.1076
  H  H19  1  0.564000  0.906300  0.583000  1.0  0.3897
  H  H20  1  0.310000  0.174000  0.689900  1.0  0.3612
  H  H21  1  0.282900  0.996400  0.153900  1.0  0.1
  H  H22  1  0.163700  0.084700  0.062500  1.0  0.1089
  H  H23  1  0.936000  0.093700  0.083000  1.0  0.3856
  H  H24  1  0.190000  0.826000  0.189900  1.0  0.3585
  C  C25  1  0.598900  0.383100  0.812940  1.0  0.6083
  C  C26  1  0.666667  0.506400  0.848570  1.0  0.0505
  C  C27  1  0.616300  0.497200  0.918720  1.0  0.0608
  C  C28  1  0.673900  0.621500  0.955480  1.0  0.5853
  C  C29  1  0.901100  0.616900  0.312940  1.0  0.609
  C  C30  1  0.833300  0.493600  0.348570  1.0  0.049
  C  C31  1  0.883700  0.502800  0.418720  1.0  0.0606
  C  C32  1  0.826100  0.378500  0.455480  1.0  0.5852
  C  C33  1  0.401100  0.883100  0.687060  1.0  0.6094
  C  C34  1  0.333333  0.006400  0.651430  1.0  0.0507
  C  C35  1  0.383700  0.997200  0.581280  1.0  0.0608
  C  C36  1  0.326100  0.121500  0.544520  1.0  0.5847
  C  C37  1  0.098900  0.116900  0.187060  1.0  0.611
  C  C38  1  0.166700  0.993600  0.151430  1.0  0.0488
  C  C39  1  0.116300  0.002800  0.081280  1.0  0.0607
  C  C40  1  0.173900  0.878500  0.044520  1.0  0.5866
  O  O41  1  0.602400  0.272470  0.842280  1.0  -0.5785
  O  O42  1  0.545700  0.396900  0.757790  1.0  -0.5589
  O  O43  1  0.612700  0.630700  0.821910  1.0  -0.4979
  O  O44  1  0.448500  0.487930  0.923580  1.0  -0.5498
  O  O45  1  0.578100  0.698550  0.983070  1.0  -0.4947
  O  O46  1  0.821300  0.643100  0.956630  1.0  -0.5697
  O  O47  1  0.897600  0.727530  0.342280  1.0  -0.5773
  O  O48  1  0.954300  0.603100  0.257790  1.0  -0.56
  O  O49  1  0.887300  0.369300  0.321910  1.0  -0.498
  O  O50  1  0.051500  0.512070  0.423580  1.0  -0.5476
  O  O51  1  0.921900  0.301450  0.483070  1.0  -0.4933
  O  O52  1  0.678700  0.356900  0.456630  1.0  -0.5685
  O  O53  1  0.397600  0.772470  0.657720  1.0  -0.577
  O  O54  1  0.454300  0.896900  0.742210  1.0  -0.5592
  O  O55  1  0.387300  0.130700  0.678090  1.0  -0.4981
  O  O56  1  0.551500  0.987930  0.576420  1.0  -0.5486
  O  O57  1  0.421900  0.198550  0.516930  1.0  -0.4972
  O  O58  1  0.178700  0.143100  0.543370  1.0  -0.5701
  O  O59  1  0.102400  0.227530  0.157720  1.0  -0.577
  O  O60  1  0.045700  0.103100  0.242210  1.0  -0.5585
  O  O61  1  0.112700  0.869300  0.178090  1.0  -0.5026
  O  O62  1  0.948500  0.012070  0.076420  1.0  -0.5507
  O  O63  1  0.078100  0.801450  0.016930  1.0  -0.4975
  O  O64  1  0.321300  0.856900  0.043370  1.0  -0.57
