# generated using pymatgen
data_NdCuH8C14(NO4)2
_symmetry_space_group_name_H-M   'P 1'
_cell_length_a   9.27610000
_cell_length_b   11.55060000
_cell_length_c   17.26710000
_cell_angle_alpha   104.82700000
_cell_angle_beta   90.00000000
_cell_angle_gamma   113.67500000
_symmetry_Int_Tables_number   1
_chemical_formula_structural   NdCuH8C14(NO4)2
_chemical_formula_sum   'Nd4 Cu4 H32 C56 N8 O32'
_cell_volume   1626.88159854
_cell_formula_units_Z   4
loop_
 _symmetry_equiv_pos_site_id
 _symmetry_equiv_pos_as_xyz
  1  'x, y, z'
loop_
 _atom_site_type_symbol
 _atom_site_label
 _atom_site_symmetry_multiplicity
 _atom_site_fract_x
 _atom_site_fract_y
 _atom_site_fract_z
 _atom_site_occupancy
 _atom_site_charge
  Nd  Nd1  1  0.670540  0.972940  0.926940  1.0  2.2819
  Nd  Nd2  1  0.697600  0.027060  0.573060  1.0  2.2812
  Nd  Nd3  1  0.329460  0.027060  0.073060  1.0  2.2816
  Nd  Nd4  1  0.302400  0.972940  0.426940  1.0  2.2857
  Cu  Cu5  1  0.094110  0.328440  0.134520  1.0  0.3919
  Cu  Cu6  1  0.765670  0.671560  0.365480  1.0  0.3913
  Cu  Cu7  1  0.905890  0.671560  0.865480  1.0  0.3908
  Cu  Cu8  1  0.234330  0.328440  0.634520  1.0  0.3915
  H  H9  1  0.562100  0.196800  0.779300  1.0  0.1279
  H  H10  1  0.503200  0.297400  0.692600  1.0  0.0805
  H  H11  1  0.088900  0.227200  0.765600  1.0  0.0811
  H  H12  1  0.139100  0.131600  0.857400  1.0  0.1234
  H  H13  1  0.182500  0.718600  0.054600  1.0  0.1006
  H  H14  1  0.081400  0.563000  0.123100  1.0  0.0843
  H  H15  1  0.279500  0.352200  0.996300  1.0  0.0791
  H  H16  1  0.389900  0.504600  0.925600  1.0  0.1211
  H  H17  1  0.365300  0.803200  0.720700  1.0  0.1282
  H  H18  1  0.205800  0.702600  0.807400  1.0  0.0798
  H  H19  1  0.861700  0.772800  0.734400  1.0  0.0813
  H  H20  1  0.007500  0.868400  0.642600  1.0  0.1233
  H  H21  1  0.463900  0.281400  0.445400  1.0  0.1009
  H  H22  1  0.518400  0.437000  0.376900  1.0  0.0842
  H  H23  1  0.927300  0.647800  0.503700  1.0  0.0789
  H  H24  1  0.885300  0.495400  0.574400  1.0  0.121
  H  H25  1  0.437900  0.803200  0.220700  1.0  0.129
  H  H26  1  0.496800  0.702600  0.307400  1.0  0.0799
  H  H27  1  0.911100  0.772800  0.234400  1.0  0.0805
  H  H28  1  0.860900  0.868400  0.142600  1.0  0.1232
  H  H29  1  0.817500  0.281400  0.945400  1.0  0.1007
  H  H30  1  0.918600  0.437000  0.876900  1.0  0.0842
  H  H31  1  0.720500  0.647800  0.003700  1.0  0.0792
  H  H32  1  0.610100  0.495400  0.074400  1.0  0.1208
  H  H33  1  0.634700  0.196800  0.279300  1.0  0.1288
  H  H34  1  0.794200  0.297400  0.192600  1.0  0.0802
  H  H35  1  0.138300  0.227200  0.265600  1.0  0.0803
  H  H36  1  0.992500  0.131600  0.357400  1.0  0.1234
  H  H37  1  0.536100  0.718600  0.554600  1.0  0.1002
  H  H38  1  0.481600  0.563000  0.623100  1.0  0.0843
  H  H39  1  0.072700  0.352200  0.496300  1.0  0.079
  H  H40  1  0.114700  0.504600  0.425600  1.0  0.1208
  C  C41  1  0.389440  0.080680  0.882900  1.0  0.7406
  C  C42  1  0.354640  0.149880  0.826880  1.0  -0.049
  C  C43  1  0.464500  0.201600  0.777400  1.0  -0.1245
  C  C44  1  0.427600  0.260800  0.725000  1.0  0.1547
  C  C45  1  0.185300  0.220600  0.768200  1.0  0.1555
  C  C46  1  0.214000  0.162200  0.823200  1.0  -0.1424
  C  C47  1  0.393890  0.744380  0.949610  1.0  0.6805
  C  C48  1  0.305780  0.633360  0.985800  1.0  -0.0397
  C  C49  1  0.207800  0.646200  0.043000  1.0  -0.1158
  C  C50  1  0.146600  0.551800  0.083600  1.0  0.1375
  C  C51  1  0.262800  0.428800  0.009700  1.0  0.1629
  C  C52  1  0.329600  0.520000  0.966800  1.0  -0.1459
  C  C53  1  0.980310  0.928020  0.976480  1.0  0.555
  C  C54  1  0.706600  0.925200  0.732120  1.0  0.5652
  C  C55  1  0.308760  0.919320  0.617100  1.0  0.7408
  C  C56  1  0.204760  0.850120  0.673120  1.0  -0.0491
  C  C57  1  0.262900  0.798400  0.722600  1.0  -0.1238
  C  C58  1  0.166800  0.739200  0.775000  1.0  0.1535
  C  C59  1  0.964700  0.779400  0.731800  1.0  0.1557
  C  C60  1  0.051800  0.837800  0.676800  1.0  -0.1432
  C  C61  1  0.649510  0.255620  0.550390  1.0  0.679
  C  C62  1  0.672420  0.366640  0.514200  1.0  -0.0388
  C  C63  1  0.561600  0.353800  0.457000  1.0  -0.115
  C  C64  1  0.594800  0.448200  0.416400  1.0  0.1392
  C  C65  1  0.834000  0.571200  0.490300  1.0  0.1637
  C  C66  1  0.809600  0.480000  0.533200  1.0  -0.1465
  C  C67  1  0.052290  0.071980  0.523520  1.0  0.5548
  C  C68  1  0.781400  0.074800  0.767880  1.0  0.5635
  C  C69  1  0.610560  0.919320  0.117100  1.0  0.7338
  C  C70  1  0.645360  0.850120  0.173120  1.0  -0.0488
  C  C71  1  0.535500  0.798400  0.222600  1.0  -0.1222
  C  C72  1  0.572400  0.739200  0.275000  1.0  0.1536
  C  C73  1  0.814700  0.779400  0.231800  1.0  0.1568
  C  C74  1  0.786000  0.837800  0.176800  1.0  -0.1436
  C  C75  1  0.606110  0.255620  0.050390  1.0  0.6782
  C  C76  1  0.694220  0.366640  0.014200  1.0  -0.0389
  C  C77  1  0.792200  0.353800  0.957000  1.0  -0.1162
  C  C78  1  0.853400  0.448200  0.916400  1.0  0.1393
  C  C79  1  0.737200  0.571200  0.990300  1.0  0.1637
  C  C80  1  0.670400  0.480000  0.033200  1.0  -0.1463
  C  C81  1  0.019690  0.071980  0.023520  1.0  0.556
  C  C82  1  0.293400  0.074800  0.267880  1.0  0.5636
  C  C83  1  0.691240  0.080680  0.382900  1.0  0.7335
  C  C84  1  0.795240  0.149880  0.326880  1.0  -0.0487
  C  C85  1  0.737100  0.201600  0.277400  1.0  -0.1231
  C  C86  1  0.833200  0.260800  0.225000  1.0  0.1538
  C  C87  1  0.035300  0.220600  0.268200  1.0  0.1572
  C  C88  1  0.948200  0.162200  0.323200  1.0  -0.143
  C  C89  1  0.350490  0.744380  0.449610  1.0  0.6803
  C  C90  1  0.327580  0.633360  0.485800  1.0  -0.0401
  C  C91  1  0.438400  0.646200  0.543000  1.0  -0.1161
  C  C92  1  0.405200  0.551800  0.583600  1.0  0.1375
  C  C93  1  0.166000  0.428800  0.509700  1.0  0.1632
  C  C94  1  0.190400  0.520000  0.466800  1.0  -0.1454
  C  C95  1  0.947710  0.928020  0.476480  1.0  0.5549
  C  C96  1  0.218600  0.925200  0.232120  1.0  0.5652
  N  N97  1  0.288480  0.267760  0.718800  1.0  -0.2912
  N  N98  1  0.176500  0.445200  0.068800  1.0  -0.2808
  N  N99  1  0.020720  0.732240  0.781200  1.0  -0.291
  N  N100  1  0.731300  0.554800  0.431200  1.0  -0.2806
  N  N101  1  0.711520  0.732240  0.281200  1.0  -0.2897
  N  N102  1  0.823500  0.554800  0.931200  1.0  -0.2805
  N  N103  1  0.979280  0.267760  0.218800  1.0  -0.2917
  N  N104  1  0.268700  0.445200  0.568800  1.0  -0.2809
  O  O105  1  0.490510  0.035420  0.864440  1.0  -0.719
  O  O106  1  0.315930  0.077260  0.943600  1.0  -0.7079
  O  O107  1  0.489820  0.732040  0.901140  1.0  -0.6363
  O  O108  1  0.375450  0.850100  0.973120  1.0  -0.7965
  O  O109  1  0.863350  0.870900  0.923160  1.0  -0.6412
  O  O110  1  0.066280  0.877360  0.995820  1.0  -0.6294
  O  O111  1  0.655020  0.857440  0.780600  1.0  -0.6504
  O  O112  1  0.706620  0.883240  0.657700  1.0  -0.6503
  O  O113  1  0.455090  0.964580  0.635560  1.0  -0.7182
  O  O114  1  0.238670  0.922740  0.556400  1.0  -0.7072
  O  O115  1  0.757780  0.267960  0.598860  1.0  -0.6373
  O  O116  1  0.525350  0.149900  0.526880  1.0  -0.7967
  O  O117  1  0.992450  0.129100  0.576840  1.0  -0.6377
  O  O118  1  0.188920  0.122640  0.504180  1.0  -0.6288
  O  O119  1  0.797580  0.142560  0.719400  1.0  -0.6522
  O  O120  1  0.823380  0.116760  0.842300  1.0  -0.6506
  O  O121  1  0.509490  0.964580  0.135560  1.0  -0.7197
  O  O122  1  0.684070  0.922740  0.056400  1.0  -0.7077
  O  O123  1  0.510180  0.267960  0.098860  1.0  -0.6377
  O  O124  1  0.624550  0.149900  0.026880  1.0  -0.7959
  O  O125  1  0.136650  0.129100  0.076840  1.0  -0.6391
  O  O126  1  0.933720  0.122640  0.004180  1.0  -0.6284
  O  O127  1  0.344980  0.142560  0.219400  1.0  -0.6513
  O  O128  1  0.293380  0.116760  0.342300  1.0  -0.6513
  O  O129  1  0.544910  0.035420  0.364440  1.0  -0.7208
  O  O130  1  0.761330  0.077260  0.443600  1.0  -0.7087
  O  O131  1  0.242220  0.732040  0.401140  1.0  -0.6362
  O  O132  1  0.474650  0.850100  0.473120  1.0  -0.7955
  O  O133  1  0.007550  0.870900  0.423160  1.0  -0.6414
  O  O134  1  0.811080  0.877360  0.495820  1.0  -0.6289
  O  O135  1  0.202420  0.857440  0.280600  1.0  -0.6523
  O  O136  1  0.176620  0.883240  0.157700  1.0  -0.6512
