# generated using pymatgen
data_CdAgH14C28I2(NO4)2
_symmetry_space_group_name_H-M   'P 1'
_cell_length_a   13.40710000
_cell_length_b   15.79400000
_cell_length_c   17.81470000
_cell_angle_alpha   93.02100000
_cell_angle_beta   90.00000000
_cell_angle_gamma   90.00000000
_symmetry_Int_Tables_number   1
_chemical_formula_structural   CdAgH14C28I2(NO4)2
_chemical_formula_sum   'Cd4 Ag4 H56 C112 I8 N8 O32'
_cell_volume   3767.05126522
_cell_formula_units_Z   4
loop_
 _symmetry_equiv_pos_site_id
 _symmetry_equiv_pos_as_xyz
  1  'x, y, z'
loop_
 _atom_site_type_symbol
 _atom_site_label
 _atom_site_symmetry_multiplicity
 _atom_site_fract_x
 _atom_site_fract_y
 _atom_site_fract_z
 _atom_site_occupancy
 _atom_site_charge
  Cd  Cd1  1  0.013160  0.746510  0.260680  1.0  1.1004
  Cd  Cd2  1  0.513160  0.253490  0.239320  1.0  1.1004
  Cd  Cd3  1  0.486840  0.746510  0.760680  1.0  1.1011
  Cd  Cd4  1  0.986840  0.253490  0.739320  1.0  1.1006
  Ag  Ag5  1  0.269620  0.701570  0.630860  1.0  0.4165
  Ag  Ag6  1  0.769620  0.298430  0.869140  1.0  0.4166
  Ag  Ag7  1  0.730380  0.298430  0.369140  1.0  0.4163
  Ag  Ag8  1  0.230380  0.701570  0.130860  1.0  0.4158
  H  H9  1  0.127800  0.855500  0.398200  1.0  0.1307
  H  H10  1  0.617800  0.086900  0.440100  1.0  0.134
  H  H11  1  0.731900  0.226900  0.037000  1.0  0.0893
  H  H12  1  0.891800  0.573800  0.054400  1.0  0.1448
  H  H13  1  0.473100  0.102600  0.673200  1.0  0.1155
  H  H14  1  0.627800  0.144500  0.101800  1.0  0.132
  H  H15  1  0.800900  0.885900  0.437400  1.0  0.1369
  H  H16  1  0.901200  0.952800  0.584800  1.0  0.1191
  H  H17  1  0.973100  0.897400  0.826800  1.0  0.1158
  H  H18  1  0.263500  0.982200  0.248200  1.0  0.1199
  H  H19  1  0.585800  0.184000  0.614700  1.0  0.1358
  H  H20  1  0.990500  0.911800  0.459200  1.0  0.112
  H  H21  1  0.708100  0.255600  0.686500  1.0  0.0896
  H  H22  1  0.757000  0.505600  0.243500  1.0  0.1265
  H  H23  1  0.117800  0.913100  0.059900  1.0  0.1338
  H  H24  1  0.399300  0.051100  0.790800  1.0  0.1106
  H  H25  1  0.231900  0.773100  0.463000  1.0  0.0897
  H  H26  1  0.899300  0.948900  0.709200  1.0  0.1106
  H  H27  1  0.085800  0.816000  0.885300  1.0  0.1368
  H  H28  1  0.391800  0.426200  0.445600  1.0  0.1459
  H  H29  1  0.401200  0.047200  0.915200  1.0  0.1193
  H  H30  1  0.257000  0.494400  0.256500  1.0  0.1273
  H  H31  1  0.300900  0.114100  0.062600  1.0  0.138
  H  H32  1  0.197500  0.618900  0.452500  1.0  0.1402
  H  H33  1  0.697500  0.381100  0.047500  1.0  0.1399
  H  H34  1  0.763500  0.017800  0.251800  1.0  0.1196
  H  H35  1  0.208100  0.744400  0.813500  1.0  0.0896
  H  H36  1  0.490500  0.088200  0.040800  1.0  0.1123
  H  H37  1  0.302500  0.618900  0.952500  1.0  0.1405
  H  H38  1  0.199100  0.114100  0.562600  1.0  0.1385
  H  H39  1  0.108200  0.426200  0.945600  1.0  0.1453
  H  H40  1  0.608200  0.573800  0.554400  1.0  0.1453
  H  H41  1  0.768100  0.226900  0.537000  1.0  0.0899
  H  H42  1  0.098800  0.047200  0.415200  1.0  0.1195
  H  H43  1  0.699100  0.885900  0.937400  1.0  0.1377
  H  H44  1  0.100700  0.051100  0.290800  1.0  0.1108
  H  H45  1  0.372200  0.855500  0.898200  1.0  0.1309
  H  H46  1  0.872200  0.144500  0.601800  1.0  0.1318
  H  H47  1  0.291900  0.744400  0.313500  1.0  0.0899
  H  H48  1  0.414200  0.816000  0.385300  1.0  0.136
  H  H49  1  0.236500  0.982200  0.748200  1.0  0.1197
  H  H50  1  0.598800  0.952800  0.084800  1.0  0.1194
  H  H51  1  0.882200  0.086900  0.940100  1.0  0.1342
  H  H52  1  0.509500  0.911800  0.959200  1.0  0.1118
  H  H53  1  0.736500  0.017800  0.751800  1.0  0.1194
  H  H54  1  0.026900  0.102600  0.173200  1.0  0.1158
  H  H55  1  0.009500  0.088200  0.540800  1.0  0.1118
  H  H56  1  0.526900  0.897400  0.326800  1.0  0.1161
  H  H57  1  0.600700  0.948900  0.209200  1.0  0.111
  H  H58  1  0.268100  0.773100  0.963000  1.0  0.0898
  H  H59  1  0.802500  0.381100  0.547500  1.0  0.1404
  H  H60  1  0.743000  0.505600  0.743500  1.0  0.1273
  H  H61  1  0.914200  0.184000  0.114700  1.0  0.1361
  H  H62  1  0.791900  0.255600  0.186500  1.0  0.09
  H  H63  1  0.243000  0.494400  0.756500  1.0  0.1281
  H  H64  1  0.382200  0.913100  0.559900  1.0  0.134
  C  C65  1  0.596600  0.169500  0.898500  1.0  0.1713
  C  C66  1  0.948300  0.918700  0.682100  1.0  -0.098
  C  C67  1  0.148100  0.622800  0.306500  1.0  0.7048
  C  C68  1  0.659800  0.049600  0.413100  1.0  0.0249
  C  C69  1  0.631100  0.132200  0.299800  1.0  0.6968
  C  C70  1  0.179500  0.800000  0.488700  1.0  0.1855
  C  C71  1  0.330600  0.447500  0.343700  1.0  -0.1287
  C  C72  1  0.365800  0.116500  0.206100  1.0  0.7144
  C  C73  1  0.117100  0.847600  0.449000  1.0  -0.1171
  C  C74  1  0.517700  0.128900  0.778700  1.0  0.0366
  C  C75  1  0.017700  0.871100  0.721300  1.0  0.0354
  C  C76  1  0.385800  0.379400  0.299300  1.0  0.716
  C  C77  1  0.158800  0.774300  0.789500  1.0  0.2032
  C  C78  1  0.749000  0.008900  0.301800  1.0  -0.0439
  C  C79  1  0.715900  0.435300  0.152300  1.0  -0.1446
  C  C80  1  0.658800  0.225700  0.710500  1.0  0.2063
  C  C81  1  0.096600  0.830500  0.601500  1.0  0.1716
  C  C82  1  0.131100  0.867800  0.200200  1.0  0.6971
  C  C83  1  0.590900  0.176000  0.819500  1.0  0.1471
  C  C84  1  0.294500  0.056600  0.163200  1.0  -0.1216
  C  C85  1  0.527100  0.121100  0.937200  1.0  -0.0492
  C  C86  1  0.086900  0.819100  0.833300  1.0  -0.1516
  C  C87  1  0.231700  0.576800  0.424600  1.0  0.0177
  C  C88  1  0.681500  0.061600  0.340800  1.0  -0.11
  C  C89  1  0.538400  0.116600  0.013900  1.0  -0.0253
  C  C90  1  0.347900  0.460700  0.420800  1.0  0.0067
  C  C91  1  0.701300  0.980200  0.446700  1.0  -0.0018
  C  C92  1  0.027100  0.878900  0.562800  1.0  -0.0485
  C  C93  1  0.798900  0.474600  0.041100  1.0  0.0014
  C  C94  1  0.448300  0.081300  0.817900  1.0  -0.1013
  C  C95  1  0.249000  0.991100  0.198200  1.0  -0.0454
  C  C96  1  0.770400  0.929100  0.412200  1.0  0.0292
  C  C97  1  0.950200  0.922100  0.608400  1.0  -0.0769
  C  C98  1  0.586900  0.180900  0.666667  1.0  -0.1495
  C  C99  1  0.201300  0.019800  0.053300  1.0  0.002
  C  C100  1  0.617100  0.152400  0.051000  1.0  -0.117
  C  C101  1  0.679500  0.200000  0.011300  1.0  0.1864
  C  C102  1  0.090900  0.824000  0.680500  1.0  0.1452
  C  C103  1  0.450200  0.077900  0.891600  1.0  -0.077
  C  C104  1  0.847900  0.539300  0.079200  1.0  0.0059
  C  C105  1  0.038400  0.883400  0.486100  1.0  -0.0254
  C  C106  1  0.159800  0.950400  0.086900  1.0  0.0222
  C  C107  1  0.266200  0.501400  0.308200  1.0  0.0397
  C  C108  1  0.794500  0.943400  0.336800  1.0  -0.1223
  C  C109  1  0.519800  0.133400  0.701900  1.0  -0.0025
  C  C110  1  0.181500  0.938400  0.159200  1.0  -0.1098
  C  C111  1  0.865800  0.883500  0.293900  1.0  0.7135
  C  C112  1  0.270400  0.070900  0.087800  1.0  0.0301
  C  C113  1  0.215900  0.564700  0.347700  1.0  -0.1459
  C  C114  1  0.298900  0.525400  0.458900  1.0  0.0079
  C  C115  1  0.731700  0.423200  0.075400  1.0  0.0204
  C  C116  1  0.019800  0.866600  0.798100  1.0  0.0083
  C  C117  1  0.766200  0.498600  0.191800  1.0  0.0415
  C  C118  1  0.885800  0.620600  0.200700  1.0  0.7137
  C  C119  1  0.830600  0.552500  0.156300  1.0  -0.1282
  C  C120  1  0.648100  0.377200  0.193500  1.0  0.7173
  C  C121  1  0.320500  0.800000  0.988700  1.0  0.186
  C  C122  1  0.614200  0.620600  0.700700  1.0  0.7143
  C  C123  1  0.351900  0.622800  0.806500  1.0  0.7066
  C  C124  1  0.634200  0.883500  0.793900  1.0  0.7131
  C  C125  1  0.798700  0.980200  0.946700  1.0  -1e-04
  C  C126  1  0.409100  0.824000  0.180500  1.0  0.1443
  C  C127  1  0.284100  0.564700  0.847700  1.0  -0.1454
  C  C128  1  0.051700  0.081300  0.317900  1.0  -0.0951
  C  C129  1  0.549800  0.922100  0.108400  1.0  -0.067
  C  C130  1  0.340200  0.950400  0.586900  1.0  0.0208
  C  C131  1  0.229600  0.070900  0.587800  1.0  0.0297
  C  C132  1  0.461600  0.883400  0.986100  1.0  -0.0245
  C  C133  1  0.980200  0.133400  0.201900  1.0  0.0077
  C  C134  1  0.820500  0.200000  0.511300  1.0  0.1863
  C  C135  1  0.840200  0.049600  0.913100  1.0  0.025
  C  C136  1  0.784100  0.435300  0.652300  1.0  -0.1445
  C  C137  1  0.768300  0.423200  0.575400  1.0  0.0201
  C  C138  1  0.205500  0.056600  0.663200  1.0  -0.1216
  C  C139  1  0.114200  0.379400  0.799300  1.0  0.7136
  C  C140  1  0.368900  0.867800  0.700200  1.0  0.6979
  C  C141  1  0.049800  0.077900  0.391600  1.0  -0.0689
  C  C142  1  0.551700  0.918700  0.182100  1.0  -0.0998
  C  C143  1  0.152100  0.460700  0.920800  1.0  0.0065
  C  C144  1  0.868900  0.132200  0.799800  1.0  0.6972
  C  C145  1  0.482300  0.871100  0.221300  1.0  0.0359
  C  C146  1  0.913100  0.180900  0.166700  1.0  -0.1528
  C  C147  1  0.982300  0.128900  0.278700  1.0  0.035
  C  C148  1  0.882900  0.152400  0.551000  1.0  -0.1182
  C  C149  1  0.134200  0.116500  0.706100  1.0  0.7157
  C  C150  1  0.701100  0.474600  0.541100  1.0  0.0019
  C  C151  1  0.413100  0.819100  0.333333  1.0  -0.1528
  C  C152  1  0.382900  0.847600  0.949000  1.0  -0.1178
  C  C153  1  0.751000  0.008900  0.801800  1.0  -0.0446
  C  C154  1  0.341200  0.774300  0.289500  1.0  0.206
  C  C155  1  0.909100  0.176000  0.319500  1.0  0.145
  C  C156  1  0.705500  0.943400  0.836800  1.0  -0.1223
  C  C157  1  0.472900  0.878900  0.062800  1.0  -0.049
  C  C158  1  0.251000  0.991100  0.698200  1.0  -0.0452
  C  C159  1  0.729600  0.929100  0.912200  1.0  0.0305
  C  C160  1  0.972900  0.121100  0.437200  1.0  -0.0493
  C  C161  1  0.903400  0.169500  0.398500  1.0  0.1719
  C  C162  1  0.669400  0.552500  0.656300  1.0  -0.1287
  C  C163  1  0.233800  0.501400  0.808200  1.0  0.038
  C  C164  1  0.169400  0.447500  0.843700  1.0  -0.1289
  C  C165  1  0.480200  0.866600  0.298100  1.0  1e-04
  C  C166  1  0.851900  0.377200  0.693500  1.0  0.7081
  C  C167  1  0.841200  0.225700  0.210500  1.0  0.2033
  C  C168  1  0.818500  0.061600  0.840800  1.0  -0.1097
  C  C169  1  0.318500  0.938400  0.659200  1.0  -0.1095
  C  C170  1  0.201100  0.525400  0.958900  1.0  0.0033
  C  C171  1  0.961600  0.116600  0.513900  1.0  -0.0241
  C  C172  1  0.652100  0.539300  0.579200  1.0  0.0051
  C  C173  1  0.268300  0.576800  0.924600  1.0  0.0188
  C  C174  1  0.403400  0.830500  0.101500  1.0  0.1721
  C  C175  1  0.733800  0.498600  0.691800  1.0  0.0401
  C  C176  1  0.298700  0.019800  0.553300  1.0  0.001
  I  I177  1  0.831350  0.455980  0.924710  1.0  -0.3117
  I  I178  1  0.160280  0.041040  0.939570  1.0  -0.2329
  I  I179  1  0.331350  0.544020  0.575290  1.0  -0.3157
  I  I180  1  0.660280  0.958960  0.560430  1.0  -0.2329
  I  I181  1  0.839720  0.958960  0.060430  1.0  -0.2323
  I  I182  1  0.168650  0.544020  0.075290  1.0  -0.3152
  I  I183  1  0.339720  0.041040  0.439570  1.0  -0.231
  I  I184  1  0.668650  0.455980  0.424710  1.0  -0.3113
  N  N185  1  0.671500  0.211500  0.936400  1.0  -0.2417
  N  N186  1  0.658300  0.226500  0.784000  1.0  -0.3216
  N  N187  1  0.158300  0.773500  0.716000  1.0  -0.32
  N  N188  1  0.171500  0.788500  0.563600  1.0  -0.2385
  N  N189  1  0.828500  0.211500  0.436400  1.0  -0.2418
  N  N190  1  0.841700  0.226500  0.284000  1.0  -0.3215
  N  N191  1  0.328500  0.788500  0.063600  1.0  -0.239
  N  N192  1  0.341700  0.773500  0.216000  1.0  -0.3208
  O  O193  1  0.407200  0.172900  0.168800  1.0  -0.591
  O  O194  1  0.138800  0.615000  0.238300  1.0  -0.5899
  O  O195  1  0.427700  0.321700  0.336100  1.0  -0.5729
  O  O196  1  0.377600  0.108100  0.274800  1.0  -0.5352
  O  O197  1  0.638800  0.385000  0.261700  1.0  -0.5886
  O  O198  1  0.092300  0.807400  0.158400  1.0  -0.6609
  O  O199  1  0.907200  0.827100  0.331200  1.0  -0.5868
  O  O200  1  0.124500  0.871400  0.267800  1.0  -0.5981
  O  O201  1  0.602700  0.320700  0.153000  1.0  -0.5664
  O  O202  1  0.624500  0.128600  0.232200  1.0  -0.5953
  O  O203  1  0.592300  0.192600  0.341600  1.0  -0.6637
  O  O204  1  0.392700  0.380000  0.228900  1.0  -0.6471
  O  O205  1  0.877600  0.891900  0.225200  1.0  -0.5325
  O  O206  1  0.102700  0.679300  0.347000  1.0  -0.5678
  O  O207  1  0.892700  0.620000  0.271100  1.0  -0.6492
  O  O208  1  0.927700  0.678300  0.163900  1.0  -0.5732
  O  O209  1  0.375500  0.871400  0.767800  1.0  -0.5982
  O  O210  1  0.875500  0.128600  0.732200  1.0  -0.5953
  O  O211  1  0.361200  0.615000  0.738300  1.0  -0.5904
  O  O212  1  0.407700  0.807400  0.658400  1.0  -0.6618
  O  O213  1  0.092800  0.172900  0.668800  1.0  -0.5889
  O  O214  1  0.907700  0.192600  0.841600  1.0  -0.6627
  O  O215  1  0.122400  0.108100  0.774800  1.0  -0.5348
  O  O216  1  0.897300  0.320700  0.653000  1.0  -0.5678
  O  O217  1  0.572300  0.678300  0.663900  1.0  -0.5734
  O  O218  1  0.107300  0.380000  0.728900  1.0  -0.6473
  O  O219  1  0.607300  0.620000  0.771100  1.0  -0.6487
  O  O220  1  0.397300  0.679300  0.847000  1.0  -0.57
  O  O221  1  0.622400  0.891900  0.725200  1.0  -0.5324
  O  O222  1  0.592800  0.827100  0.831200  1.0  -0.5871
  O  O223  1  0.861200  0.385000  0.761700  1.0  -0.5874
  O  O224  1  0.072300  0.321700  0.836100  1.0  -0.5717
