# generated using pymatgen
data_LaNi2H32C20S2(N3O8)2
_symmetry_space_group_name_H-M   'P 1'
_cell_length_a   14.23700000
_cell_length_b   15.73900000
_cell_length_c   16.61100000
_cell_angle_alpha   90.00000000
_cell_angle_beta   90.00000000
_cell_angle_gamma   90.00000000
_symmetry_Int_Tables_number   1
_chemical_formula_structural   LaNi2H32C20S2(N3O8)2
_chemical_formula_sum   'La4 Ni8 H128 C80 S8 N24 O64'
_cell_volume   3722.12881137
_cell_formula_units_Z   4
loop_
 _symmetry_equiv_pos_site_id
 _symmetry_equiv_pos_as_xyz
  1  'x, y, z'
loop_
 _atom_site_type_symbol
 _atom_site_label
 _atom_site_symmetry_multiplicity
 _atom_site_fract_x
 _atom_site_fract_y
 _atom_site_fract_z
 _atom_site_occupancy
 _atom_site_charge
  La  La1  1  0.108560  0.750000  0.750000  1.0  2.0173
  La  La2  1  0.391440  0.250000  0.250000  1.0  2.0154
  La  La3  1  0.891440  0.250000  0.250000  1.0  2.0153
  La  La4  1  0.608560  0.750000  0.750000  1.0  2.0173
  Ni  Ni5  1  0.287420  0.559950  0.884010  1.0  0.7904
  Ni  Ni6  1  0.287420  0.940050  0.615990  1.0  0.7889
  Ni  Ni7  1  0.212580  0.440050  0.384010  1.0  0.7867
  Ni  Ni8  1  0.212580  0.059950  0.115990  1.0  0.7869
  Ni  Ni9  1  0.712580  0.440050  0.115990  1.0  0.7851
  Ni  Ni10  1  0.712580  0.059950  0.384010  1.0  0.7872
  Ni  Ni11  1  0.787420  0.559950  0.615990  1.0  0.7906
  Ni  Ni12  1  0.787420  0.940050  0.884010  1.0  0.7901
  H  H13  1  0.096200  0.734700  0.570400  1.0  0.4199
  H  H14  1  0.007500  0.772800  0.592800  1.0  0.4356
  H  H15  1  0.298400  0.757800  0.665400  1.0  0.3997
  H  H16  1  0.246200  0.692100  0.623300  1.0  0.4156
  H  H17  1  0.224300  0.460200  0.688200  1.0  0.0889
  H  H18  1  0.180900  0.435900  0.772200  1.0  0.0955
  H  H19  1  0.428500  0.498800  0.716200  1.0  0.0953
  H  H20  1  0.343500  0.547600  0.678300  1.0  0.0967
  H  H21  1  0.303200  0.371900  0.833300  1.0  0.076
  H  H22  1  0.379300  0.377000  0.764900  1.0  0.0667
  H  H23  1  0.477800  0.458500  0.847400  1.0  0.0694
  H  H24  1  0.452300  0.374700  0.893600  1.0  0.0924
  H  H25  1  0.357300  0.366900  0.993300  1.0  0.0844
  H  H26  1  0.351100  0.444100  0.052400  1.0  0.0735
  H  H27  1  0.490400  0.565500  0.942900  1.0  0.0843
  H  H28  1  0.432900  0.561000  0.023100  1.0  0.0784
  H  H29  1  0.096200  0.765300  0.929600  1.0  0.4212
  H  H30  1  0.007500  0.727200  0.907200  1.0  0.4365
  H  H31  1  0.298400  0.742200  0.834600  1.0  0.3994
  H  H32  1  0.246200  0.807900  0.876700  1.0  0.4171
  H  H33  1  0.224300  0.039800  0.811800  1.0  0.0871
  H  H34  1  0.180900  0.064100  0.727800  1.0  0.0955
  H  H35  1  0.428500  0.001200  0.783800  1.0  0.0955
  H  H36  1  0.343500  0.952400  0.821700  1.0  0.0975
  H  H37  1  0.303200  0.128100  0.666667  1.0  0.0768
  H  H38  1  0.379300  0.123000  0.735100  1.0  0.0655
  H  H39  1  0.477800  0.041500  0.652600  1.0  0.0695
  H  H40  1  0.452300  0.125300  0.606400  1.0  0.0905
  H  H41  1  0.357300  0.133100  0.506700  1.0  0.0834
  H  H42  1  0.351100  0.055900  0.447600  1.0  0.0749
  H  H43  1  0.490400  0.934500  0.557100  1.0  0.0855
  H  H44  1  0.432900  0.939000  0.476900  1.0  0.0783
  H  H45  1  0.403800  0.265300  0.070400  1.0  0.4202
  H  H46  1  0.492500  0.227200  0.092800  1.0  0.4338
  H  H47  1  0.201600  0.242200  0.165400  1.0  0.3997
  H  H48  1  0.253800  0.307900  0.123300  1.0  0.4155
  H  H49  1  0.275700  0.539800  0.188200  1.0  0.0876
  H  H50  1  0.319100  0.564100  0.272200  1.0  0.0959
  H  H51  1  0.071500  0.501200  0.216200  1.0  0.0949
  H  H52  1  0.156500  0.452400  0.178300  1.0  0.0982
  H  H53  1  0.196800  0.628100  0.333333  1.0  0.0746
  H  H54  1  0.120700  0.623000  0.264900  1.0  0.067
  H  H55  1  0.022200  0.541500  0.347400  1.0  0.0704
  H  H56  1  0.047700  0.625300  0.393600  1.0  0.0924
  H  H57  1  0.142700  0.633100  0.493300  1.0  0.083
  H  H58  1  0.148900  0.555900  0.552400  1.0  0.0733
  H  H59  1  0.009600  0.434500  0.442900  1.0  0.085
  H  H60  1  0.067100  0.439000  0.523100  1.0  0.0804
  H  H61  1  0.403800  0.234700  0.429600  1.0  0.4209
  H  H62  1  0.492500  0.272800  0.407200  1.0  0.4343
  H  H63  1  0.201600  0.257800  0.334600  1.0  0.4001
  H  H64  1  0.253800  0.192100  0.376700  1.0  0.4188
  H  H65  1  0.275700  0.960200  0.311800  1.0  0.0873
  H  H66  1  0.319100  0.935900  0.227800  1.0  0.0952
  H  H67  1  0.071500  0.998800  0.283800  1.0  0.0965
  H  H68  1  0.156500  0.047600  0.321700  1.0  0.0988
  H  H69  1  0.196800  0.871900  0.166700  1.0  0.0751
  H  H70  1  0.120700  0.877000  0.235100  1.0  0.0678
  H  H71  1  0.022200  0.958500  0.152600  1.0  0.0693
  H  H72  1  0.047700  0.874700  0.106400  1.0  0.0929
  H  H73  1  0.142700  0.866900  0.006700  1.0  0.0849
  H  H74  1  0.148900  0.944100  0.947600  1.0  0.0739
  H  H75  1  0.009600  0.065500  0.057100  1.0  0.0845
  H  H76  1  0.067100  0.061000  0.976900  1.0  0.0781
  H  H77  1  0.903800  0.265300  0.429600  1.0  0.4205
  H  H78  1  0.992500  0.227200  0.407200  1.0  0.4351
  H  H79  1  0.701600  0.242200  0.334600  1.0  0.3995
  H  H80  1  0.753800  0.307900  0.376700  1.0  0.4177
  H  H81  1  0.775700  0.539800  0.311800  1.0  0.0869
  H  H82  1  0.819100  0.564100  0.227800  1.0  0.096
  H  H83  1  0.571500  0.501200  0.283800  1.0  0.0961
  H  H84  1  0.656500  0.452400  0.321700  1.0  0.0989
  H  H85  1  0.696800  0.628100  0.166700  1.0  0.0756
  H  H86  1  0.620700  0.623000  0.235100  1.0  0.0654
  H  H87  1  0.522200  0.541500  0.152600  1.0  0.0694
  H  H88  1  0.547700  0.625300  0.106400  1.0  0.0925
  H  H89  1  0.642700  0.633100  0.006700  1.0  0.0834
  H  H90  1  0.648900  0.555900  0.947600  1.0  0.0743
  H  H91  1  0.509600  0.434500  0.057100  1.0  0.0858
  H  H92  1  0.567100  0.439000  0.976900  1.0  0.0782
  H  H93  1  0.903800  0.234700  0.070400  1.0  0.4209
  H  H94  1  0.992500  0.272800  0.092800  1.0  0.4332
  H  H95  1  0.701600  0.257800  0.165400  1.0  0.3996
  H  H96  1  0.753800  0.192100  0.123300  1.0  0.4159
  H  H97  1  0.775700  0.960200  0.188200  1.0  0.0884
  H  H98  1  0.819100  0.935900  0.272200  1.0  0.0957
  H  H99  1  0.571500  0.998800  0.216200  1.0  0.0943
  H  H100  1  0.656500  0.047600  0.178300  1.0  0.0979
  H  H101  1  0.696800  0.871900  0.333333  1.0  0.0748
  H  H102  1  0.620700  0.877000  0.264900  1.0  0.0668
  H  H103  1  0.522200  0.958500  0.347400  1.0  0.0693
  H  H104  1  0.547700  0.874700  0.393600  1.0  0.0923
  H  H105  1  0.642700  0.866900  0.493300  1.0  0.0845
  H  H106  1  0.648900  0.944100  0.552400  1.0  0.0737
  H  H107  1  0.509600  0.065500  0.442900  1.0  0.0849
  H  H108  1  0.567100  0.061000  0.523100  1.0  0.0768
  H  H109  1  0.596200  0.734700  0.929600  1.0  0.4203
  H  H110  1  0.507500  0.772800  0.907200  1.0  0.437
  H  H111  1  0.798400  0.757800  0.834600  1.0  0.3999
  H  H112  1  0.746200  0.692100  0.876700  1.0  0.4183
  H  H113  1  0.724300  0.460200  0.811800  1.0  0.0877
  H  H114  1  0.680900  0.435900  0.727800  1.0  0.095
  H  H115  1  0.928500  0.498800  0.783800  1.0  0.0958
  H  H116  1  0.843500  0.547600  0.821700  1.0  0.0974
  H  H117  1  0.803200  0.371900  0.666667  1.0  0.0763
  H  H118  1  0.879300  0.377000  0.735100  1.0  0.0673
  H  H119  1  0.977800  0.458500  0.652600  1.0  0.0706
  H  H120  1  0.952300  0.374700  0.606400  1.0  0.0929
  H  H121  1  0.857300  0.366900  0.506700  1.0  0.0847
  H  H122  1  0.851100  0.444100  0.447600  1.0  0.0743
  H  H123  1  0.990400  0.565500  0.557100  1.0  0.0841
  H  H124  1  0.932900  0.561000  0.476900  1.0  0.0793
  H  H125  1  0.596200  0.765300  0.570400  1.0  0.4198
  H  H126  1  0.507500  0.727200  0.592800  1.0  0.4358
  H  H127  1  0.798400  0.742200  0.665400  1.0  0.3996
  H  H128  1  0.746200  0.807900  0.623300  1.0  0.415
  H  H129  1  0.724300  0.039800  0.688200  1.0  0.0878
  H  H130  1  0.680900  0.064100  0.772200  1.0  0.0952
  H  H131  1  0.928500  0.001200  0.716200  1.0  0.0962
  H  H132  1  0.843500  0.952400  0.678300  1.0  0.097
  H  H133  1  0.803200  0.128100  0.833300  1.0  0.0761
  H  H134  1  0.879300  0.123000  0.764900  1.0  0.067
  H  H135  1  0.977800  0.041500  0.847400  1.0  0.0697
  H  H136  1  0.952300  0.125300  0.893600  1.0  0.0901
  H  H137  1  0.857300  0.133100  0.993300  1.0  0.0832
  H  H138  1  0.851100  0.055900  0.052400  1.0  0.0736
  H  H139  1  0.990400  0.934500  0.942900  1.0  0.0846
  H  H140  1  0.932900  0.939000  0.023100  1.0  0.0791
  C  C141  1  0.168000  0.563300  0.747100  1.0  0.7205
  C  C142  1  0.217400  0.478400  0.743700  1.0  -0.1825
  C  C143  1  0.375300  0.535100  0.728600  1.0  -0.1198
  C  C144  1  0.411700  0.617200  0.763600  1.0  0.6807
  C  C145  1  0.351500  0.407500  0.809700  1.0  -0.0288
  C  C146  1  0.426900  0.427400  0.872700  1.0  -0.0368
  C  C147  1  0.336000  0.425200  0.998400  1.0  -0.1321
  C  C148  1  0.229800  0.427400  0.987500  1.0  0.7242
  C  C149  1  0.461800  0.526900  0.981200  1.0  -0.0328
  C  C150  1  0.233100  0.658700  0.029000  1.0  0.2057
  C  C151  1  0.168000  0.936700  0.752900  1.0  0.7209
  C  C152  1  0.217400  0.021600  0.756300  1.0  -0.1818
  C  C153  1  0.375300  0.964900  0.771400  1.0  -0.1176
  C  C154  1  0.411700  0.882800  0.736400  1.0  0.68
  C  C155  1  0.351500  0.092500  0.690300  1.0  -0.0294
  C  C156  1  0.426900  0.072600  0.627300  1.0  -0.0361
  C  C157  1  0.336000  0.074800  0.501600  1.0  -0.1321
  C  C158  1  0.229800  0.072600  0.512500  1.0  0.7238
  C  C159  1  0.461800  0.973100  0.518800  1.0  -0.0331
  C  C160  1  0.233100  0.841300  0.471000  1.0  0.208
  C  C161  1  0.332000  0.436700  0.247100  1.0  0.7207
  C  C162  1  0.282600  0.521600  0.243700  1.0  -0.1807
  C  C163  1  0.124700  0.464900  0.228600  1.0  -0.1225
  C  C164  1  0.088300  0.382800  0.263600  1.0  0.6822
  C  C165  1  0.148500  0.592500  0.309700  1.0  -0.0286
  C  C166  1  0.073100  0.572600  0.372700  1.0  -0.0383
  C  C167  1  0.164000  0.574800  0.498400  1.0  -0.1329
  C  C168  1  0.270200  0.572600  0.487500  1.0  0.7215
  C  C169  1  0.038200  0.473100  0.481200  1.0  -0.0331
  C  C170  1  0.266900  0.341300  0.529000  1.0  0.2064
  C  C171  1  0.332000  0.063300  0.252900  1.0  0.7208
  C  C172  1  0.282600  0.978400  0.256300  1.0  -0.18
  C  C173  1  0.124700  0.035100  0.271400  1.0  -0.1182
  C  C174  1  0.088300  0.117200  0.236400  1.0  0.6827
  C  C175  1  0.148500  0.907500  0.190300  1.0  -0.0296
  C  C176  1  0.073100  0.927400  0.127300  1.0  -0.0379
  C  C177  1  0.164000  0.925200  0.001600  1.0  -0.1319
  C  C178  1  0.270200  0.927400  0.012500  1.0  0.7212
  C  C179  1  0.038200  0.026900  0.018800  1.0  -0.0332
  C  C180  1  0.266900  0.158700  0.971000  1.0  0.2058
  C  C181  1  0.832000  0.436700  0.252900  1.0  0.7207
  C  C182  1  0.782600  0.521600  0.256300  1.0  -0.1802
  C  C183  1  0.624700  0.464900  0.271400  1.0  -0.1173
  C  C184  1  0.588300  0.382800  0.236400  1.0  0.6807
  C  C185  1  0.648500  0.592500  0.190300  1.0  -0.0309
  C  C186  1  0.573100  0.572600  0.127300  1.0  -0.0391
  C  C187  1  0.664000  0.574800  0.001600  1.0  -0.1321
  C  C188  1  0.770200  0.572600  0.012500  1.0  0.7209
  C  C189  1  0.538200  0.473100  0.018800  1.0  -0.0334
  C  C190  1  0.766900  0.341300  0.971000  1.0  0.2067
  C  C191  1  0.832000  0.063300  0.247100  1.0  0.7208
  C  C192  1  0.782600  0.978400  0.243700  1.0  -0.1811
  C  C193  1  0.624700  0.035100  0.228600  1.0  -0.1207
  C  C194  1  0.588300  0.117200  0.263600  1.0  0.6839
  C  C195  1  0.648500  0.907500  0.309700  1.0  -0.028
  C  C196  1  0.573100  0.927400  0.372700  1.0  -0.0379
  C  C197  1  0.664000  0.925200  0.498400  1.0  -0.1326
  C  C198  1  0.770200  0.927400  0.487500  1.0  0.7216
  C  C199  1  0.538200  0.026900  0.481200  1.0  -0.0331
  C  C200  1  0.766900  0.158700  0.529000  1.0  0.2054
  C  C201  1  0.668000  0.563300  0.752900  1.0  0.7205
  C  C202  1  0.717400  0.478400  0.756300  1.0  -0.1815
  C  C203  1  0.875300  0.535100  0.771400  1.0  -0.1177
  C  C204  1  0.911700  0.617200  0.736400  1.0  0.6801
  C  C205  1  0.851500  0.407500  0.690300  1.0  -0.0278
  C  C206  1  0.926900  0.427400  0.627300  1.0  -0.0363
  C  C207  1  0.836000  0.425200  0.501600  1.0  -0.1327
  C  C208  1  0.729800  0.427400  0.512500  1.0  0.7239
  C  C209  1  0.961800  0.526900  0.518800  1.0  -0.0328
  C  C210  1  0.733100  0.658700  0.471000  1.0  0.2072
  C  C211  1  0.668000  0.936700  0.747100  1.0  0.7212
  C  C212  1  0.717400  0.021600  0.743700  1.0  -0.1821
  C  C213  1  0.875300  0.964900  0.728600  1.0  -0.1222
  C  C214  1  0.911700  0.882800  0.763600  1.0  0.6811
  C  C215  1  0.851500  0.092500  0.809700  1.0  -0.0303
  C  C216  1  0.926900  0.072600  0.872700  1.0  -0.0357
  C  C217  1  0.836000  0.074800  0.998400  1.0  -0.1316
  C  C218  1  0.729800  0.072600  0.987500  1.0  0.7242
  C  C219  1  0.961800  0.973100  0.981200  1.0  -0.0327
  C  C220  1  0.733100  0.841300  0.029000  1.0  0.207
  S  S221  1  0.185500  0.702800  0.116200  1.0  -0.317
  S  S222  1  0.185500  0.797200  0.383800  1.0  -0.3166
  S  S223  1  0.314500  0.297200  0.616200  1.0  -0.3174
  S  S224  1  0.314500  0.202800  0.883800  1.0  -0.3158
  S  S225  1  0.814500  0.297200  0.883800  1.0  -0.3162
  S  S226  1  0.814500  0.202800  0.616200  1.0  -0.317
  S  S227  1  0.685500  0.702800  0.383800  1.0  -0.3163
  S  S228  1  0.685500  0.797200  0.116200  1.0  -0.3173
  N  N229  1  0.310100  0.487600  0.781200  1.0  -0.1599
  N  N230  1  0.388200  0.478400  0.939900  1.0  -0.1984
  N  N231  1  0.267300  0.634500  0.975400  1.0  -0.3547
  N  N232  1  0.310100  0.012400  0.718800  1.0  -0.1593
  N  N233  1  0.388200  0.021600  0.560100  1.0  -0.2001
  N  N234  1  0.267300  0.865500  0.524600  1.0  -0.3521
  N  N235  1  0.189900  0.512400  0.281200  1.0  -0.1593
  N  N236  1  0.111800  0.521600  0.439900  1.0  -0.1983
  N  N237  1  0.232700  0.365500  0.475400  1.0  -0.3532
  N  N238  1  0.189900  0.987600  0.218800  1.0  -0.1586
  N  N239  1  0.111800  0.978400  0.060100  1.0  -0.198
  N  N240  1  0.232700  0.134500  0.024600  1.0  -0.3529
  N  N241  1  0.689900  0.512400  0.218800  1.0  -0.1586
  N  N242  1  0.611800  0.521600  0.060100  1.0  -0.1984
  N  N243  1  0.732700  0.365500  0.024600  1.0  -0.3525
  N  N244  1  0.689900  0.987600  0.281200  1.0  -0.1591
  N  N245  1  0.611800  0.978400  0.439900  1.0  -0.1979
  N  N246  1  0.732700  0.134500  0.475400  1.0  -0.3543
  N  N247  1  0.810100  0.487600  0.718800  1.0  -0.1596
  N  N248  1  0.888200  0.478400  0.560100  1.0  -0.1996
  N  N249  1  0.767300  0.634500  0.524600  1.0  -0.3529
  N  N250  1  0.810100  0.012400  0.781200  1.0  -0.1599
  N  N251  1  0.888200  0.021600  0.939900  1.0  -0.1988
  N  N252  1  0.767300  0.865500  0.975400  1.0  -0.3536
  O  O253  1  0.182800  0.610000  0.808700  1.0  -0.6597
  O  O254  1  0.116700  0.586000  0.690700  1.0  -0.6055
  O  O255  1  0.385100  0.638500  0.833400  1.0  -0.6002
  O  O256  1  0.468200  0.658200  0.721600  1.0  -0.6354
  O  O257  1  0.194800  0.473300  0.931700  1.0  -0.5723
  O  O258  1  0.182500  0.383600  0.035500  1.0  -0.5892
  O  O259  1  0.050200  0.736800  0.603700  1.0  -0.8222
  O  O260  1  0.258800  0.718000  0.666500  1.0  -0.7545
  O  O261  1  0.182800  0.890000  0.691300  1.0  -0.6588
  O  O262  1  0.116700  0.914000  0.809300  1.0  -0.6066
  O  O263  1  0.385100  0.861500  0.666667  1.0  -0.6011
  O  O264  1  0.468200  0.841800  0.778400  1.0  -0.6362
  O  O265  1  0.194800  0.026700  0.568300  1.0  -0.5745
  O  O266  1  0.182500  0.116400  0.464500  1.0  -0.5881
  O  O267  1  0.050200  0.763200  0.896300  1.0  -0.8238
  O  O268  1  0.258800  0.782000  0.833500  1.0  -0.7535
  O  O269  1  0.317200  0.390000  0.308700  1.0  -0.6587
  O  O270  1  0.383300  0.414000  0.190700  1.0  -0.6052
  O  O271  1  0.114900  0.361500  0.333400  1.0  -0.5995
  O  O272  1  0.031800  0.341800  0.221600  1.0  -0.637
  O  O273  1  0.305200  0.526700  0.431700  1.0  -0.5737
  O  O274  1  0.317500  0.616400  0.535500  1.0  -0.5889
  O  O275  1  0.449800  0.263200  0.103700  1.0  -0.8224
  O  O276  1  0.241200  0.282000  0.166500  1.0  -0.7531
  O  O277  1  0.317200  0.110000  0.191300  1.0  -0.6583
  O  O278  1  0.383300  0.086000  0.309300  1.0  -0.6065
  O  O279  1  0.114900  0.138500  0.166600  1.0  -0.6025
  O  O280  1  0.031800  0.158200  0.278400  1.0  -0.6357
  O  O281  1  0.305200  0.973300  0.068300  1.0  -0.573
  O  O282  1  0.317500  0.883600  0.964500  1.0  -0.5898
  O  O283  1  0.449800  0.236800  0.396300  1.0  -0.8241
  O  O284  1  0.241200  0.218000  0.333500  1.0  -0.7555
  O  O285  1  0.817200  0.390000  0.191300  1.0  -0.6579
  O  O286  1  0.883300  0.414000  0.309300  1.0  -0.6064
  O  O287  1  0.614900  0.361500  0.166600  1.0  -0.602
  O  O288  1  0.531800  0.341800  0.278400  1.0  -0.6361
  O  O289  1  0.805200  0.526700  0.068300  1.0  -0.5737
  O  O290  1  0.817500  0.616400  0.964500  1.0  -0.5892
  O  O291  1  0.949800  0.263200  0.396300  1.0  -0.8236
  O  O292  1  0.741200  0.282000  0.333500  1.0  -0.7539
  O  O293  1  0.817200  0.110000  0.308700  1.0  -0.6596
  O  O294  1  0.883300  0.086000  0.190700  1.0  -0.6055
  O  O295  1  0.614900  0.138500  0.333400  1.0  -0.6
  O  O296  1  0.531800  0.158200  0.221600  1.0  -0.6365
  O  O297  1  0.805200  0.973300  0.431700  1.0  -0.573
  O  O298  1  0.817500  0.883600  0.535500  1.0  -0.59
  O  O299  1  0.949800  0.236800  0.103700  1.0  -0.8219
  O  O300  1  0.741200  0.218000  0.166500  1.0  -0.7547
  O  O301  1  0.682800  0.610000  0.691300  1.0  -0.658
  O  O302  1  0.616700  0.586000  0.809300  1.0  -0.6068
  O  O303  1  0.885100  0.638500  0.666667  1.0  -0.6019
  O  O304  1  0.968200  0.658200  0.778400  1.0  -0.6359
  O  O305  1  0.694800  0.473300  0.568300  1.0  -0.5734
  O  O306  1  0.682500  0.383600  0.464500  1.0  -0.5886
  O  O307  1  0.550200  0.736800  0.896300  1.0  -0.8242
  O  O308  1  0.758800  0.718000  0.833500  1.0  -0.755
  O  O309  1  0.682800  0.890000  0.808700  1.0  -0.6596
  O  O310  1  0.616700  0.914000  0.690700  1.0  -0.605
  O  O311  1  0.885100  0.861500  0.833400  1.0  -0.5995
  O  O312  1  0.968200  0.841800  0.721600  1.0  -0.6354
  O  O313  1  0.694800  0.026700  0.931700  1.0  -0.5733
  O  O314  1  0.682500  0.116400  0.035500  1.0  -0.5888
  O  O315  1  0.550200  0.763200  0.603700  1.0  -0.8226
  O  O316  1  0.758800  0.782000  0.666500  1.0  -0.7531
