# generated using pymatgen
data_LaCu2H32C20S2(N3O8)2
_symmetry_space_group_name_H-M   'P 1'
_cell_length_a   14.50600000
_cell_length_b   15.91200000
_cell_length_c   16.68900000
_cell_angle_alpha   90.00000000
_cell_angle_beta   90.00000000
_cell_angle_gamma   90.00000000
_symmetry_Int_Tables_number   1
_chemical_formula_structural   LaCu2H32C20S2(N3O8)2
_chemical_formula_sum   'La4 Cu8 H128 C80 S8 N24 O64'
_cell_volume   3852.14616821
_cell_formula_units_Z   4
loop_
 _symmetry_equiv_pos_site_id
 _symmetry_equiv_pos_as_xyz
  1  'x, y, z'
loop_
 _atom_site_type_symbol
 _atom_site_label
 _atom_site_symmetry_multiplicity
 _atom_site_fract_x
 _atom_site_fract_y
 _atom_site_fract_z
 _atom_site_occupancy
 _atom_site_charge
  La  La1  1  0.107060  0.750000  0.750000  1.0  1.9997
  La  La2  1  0.392940  0.250000  0.250000  1.0  1.9984
  La  La3  1  0.892940  0.250000  0.250000  1.0  1.9984
  La  La4  1  0.607060  0.750000  0.750000  1.0  1.9997
  Cu  Cu5  1  0.287680  0.562780  0.886060  1.0  0.7813
  Cu  Cu6  1  0.287680  0.937220  0.613940  1.0  0.783
  Cu  Cu7  1  0.212320  0.437220  0.386060  1.0  0.7792
  Cu  Cu8  1  0.212320  0.062780  0.113940  1.0  0.7808
  Cu  Cu9  1  0.712320  0.437220  0.113940  1.0  0.78
  Cu  Cu10  1  0.712320  0.062780  0.386060  1.0  0.7792
  Cu  Cu11  1  0.787680  0.562780  0.613940  1.0  0.7834
  Cu  Cu12  1  0.787680  0.937220  0.886060  1.0  0.7819
  H  H13  1  0.092200  0.732100  0.572600  1.0  0.4123
  H  H14  1  0.003500  0.770100  0.595000  1.0  0.461
  H  H15  1  0.294400  0.759200  0.666667  1.0  0.4257
  H  H16  1  0.242300  0.693600  0.624600  1.0  0.4057
  H  H17  1  0.224200  0.462700  0.692800  1.0  0.0895
  H  H18  1  0.182000  0.441000  0.777000  1.0  0.0883
  H  H19  1  0.423500  0.503700  0.714800  1.0  0.0842
  H  H20  1  0.339400  0.554300  0.681000  1.0  0.1007
  H  H21  1  0.303800  0.378300  0.833300  1.0  0.0745
  H  H22  1  0.376700  0.385600  0.764100  1.0  0.0697
  H  H23  1  0.475300  0.461000  0.846400  1.0  0.0729
  H  H24  1  0.449900  0.376400  0.889600  1.0  0.0885
  H  H25  1  0.361300  0.365600  0.990800  1.0  0.0844
  H  H26  1  0.353700  0.440000  0.051800  1.0  0.0748
  H  H27  1  0.490800  0.565100  0.943100  1.0  0.0814
  H  H28  1  0.435100  0.561400  0.023500  1.0  0.0631
  H  H29  1  0.092200  0.767900  0.927400  1.0  0.4126
  H  H30  1  0.003500  0.729900  0.905000  1.0  0.4625
  H  H31  1  0.294400  0.740800  0.833300  1.0  0.4249
  H  H32  1  0.242300  0.806400  0.875400  1.0  0.4068
  H  H33  1  0.224200  0.037300  0.807200  1.0  0.0875
  H  H34  1  0.182000  0.059000  0.723000  1.0  0.0902
  H  H35  1  0.423500  0.996300  0.785200  1.0  0.084
  H  H36  1  0.339400  0.945700  0.819000  1.0  0.1022
  H  H37  1  0.303800  0.121700  0.666667  1.0  0.0739
  H  H38  1  0.376700  0.114400  0.735900  1.0  0.0692
  H  H39  1  0.475300  0.039000  0.653600  1.0  0.0724
  H  H40  1  0.449900  0.123600  0.610400  1.0  0.0856
  H  H41  1  0.361300  0.134400  0.509200  1.0  0.0846
  H  H42  1  0.353700  0.060000  0.448200  1.0  0.075
  H  H43  1  0.490800  0.934900  0.556900  1.0  0.0823
  H  H44  1  0.435100  0.938600  0.476500  1.0  0.0634
  H  H45  1  0.407800  0.267900  0.072600  1.0  0.4129
  H  H46  1  0.496500  0.229900  0.095000  1.0  0.4603
  H  H47  1  0.205600  0.240800  0.166700  1.0  0.4257
  H  H48  1  0.257700  0.306400  0.124600  1.0  0.4058
  H  H49  1  0.275800  0.537300  0.192800  1.0  0.0883
  H  H50  1  0.318000  0.559000  0.277000  1.0  0.0875
  H  H51  1  0.076500  0.496300  0.214800  1.0  0.0843
  H  H52  1  0.160600  0.445700  0.181000  1.0  0.1018
  H  H53  1  0.196200  0.621700  0.333333  1.0  0.0728
  H  H54  1  0.123300  0.614400  0.264100  1.0  0.0701
  H  H55  1  0.024700  0.539000  0.346400  1.0  0.0739
  H  H56  1  0.050100  0.623600  0.389600  1.0  0.089
  H  H57  1  0.138700  0.634400  0.490800  1.0  0.084
  H  H58  1  0.146300  0.560000  0.551800  1.0  0.0743
  H  H59  1  0.009200  0.434900  0.443100  1.0  0.0824
  H  H60  1  0.064900  0.438600  0.523500  1.0  0.0653
  H  H61  1  0.407800  0.232100  0.427400  1.0  0.413
  H  H62  1  0.496500  0.270100  0.405000  1.0  0.461
  H  H63  1  0.205600  0.259200  0.333333  1.0  0.4264
  H  H64  1  0.257700  0.193600  0.375400  1.0  0.4077
  H  H65  1  0.275800  0.962700  0.307200  1.0  0.0883
  H  H66  1  0.318000  0.941000  0.223000  1.0  0.0881
  H  H67  1  0.076500  0.003700  0.285200  1.0  0.0862
  H  H68  1  0.160600  0.054300  0.319000  1.0  0.1024
  H  H69  1  0.196200  0.878300  0.166700  1.0  0.0736
  H  H70  1  0.123300  0.885600  0.235900  1.0  0.0709
  H  H71  1  0.024700  0.961000  0.153600  1.0  0.0731
  H  H72  1  0.050100  0.876400  0.110400  1.0  0.0868
  H  H73  1  0.138700  0.865600  0.009200  1.0  0.0859
  H  H74  1  0.146300  0.940000  0.948200  1.0  0.0749
  H  H75  1  0.009200  0.065100  0.056900  1.0  0.0812
  H  H76  1  0.064900  0.061400  0.976500  1.0  0.0633
  H  H77  1  0.907800  0.267900  0.427400  1.0  0.4127
  H  H78  1  0.996500  0.229900  0.405000  1.0  0.4612
  H  H79  1  0.705600  0.240800  0.333333  1.0  0.4261
  H  H80  1  0.757700  0.306400  0.375400  1.0  0.407
  H  H81  1  0.775800  0.537300  0.307200  1.0  0.0873
  H  H82  1  0.818000  0.559000  0.223000  1.0  0.0896
  H  H83  1  0.576500  0.496300  0.285200  1.0  0.0842
  H  H84  1  0.660600  0.445700  0.319000  1.0  0.1022
  H  H85  1  0.696200  0.621700  0.166700  1.0  0.0737
  H  H86  1  0.623300  0.614400  0.235900  1.0  0.069
  H  H87  1  0.524700  0.539000  0.153600  1.0  0.0738
  H  H88  1  0.550100  0.623600  0.110400  1.0  0.0877
  H  H89  1  0.638700  0.634400  0.009200  1.0  0.0845
  H  H90  1  0.646300  0.560000  0.948200  1.0  0.0756
  H  H91  1  0.509200  0.434900  0.056900  1.0  0.0827
  H  H92  1  0.564900  0.438600  0.976500  1.0  0.0632
  H  H93  1  0.907800  0.232100  0.072600  1.0  0.4136
  H  H94  1  0.996500  0.270100  0.095000  1.0  0.4602
  H  H95  1  0.705600  0.259200  0.166700  1.0  0.4265
  H  H96  1  0.757700  0.193600  0.124600  1.0  0.4056
  H  H97  1  0.775800  0.962700  0.192800  1.0  0.0892
  H  H98  1  0.818000  0.941000  0.277000  1.0  0.087
  H  H99  1  0.576500  0.003700  0.214800  1.0  0.0831
  H  H100  1  0.660600  0.054300  0.181000  1.0  0.1015
  H  H101  1  0.696200  0.878300  0.333333  1.0  0.0735
  H  H102  1  0.623300  0.885600  0.264100  1.0  0.0693
  H  H103  1  0.524700  0.961000  0.346400  1.0  0.0729
  H  H104  1  0.550100  0.876400  0.389600  1.0  0.0871
  H  H105  1  0.638700  0.865600  0.490800  1.0  0.085
  H  H106  1  0.646300  0.940000  0.551800  1.0  0.0749
  H  H107  1  0.509200  0.065100  0.443100  1.0  0.0821
  H  H108  1  0.564900  0.061400  0.523500  1.0  0.0626
  H  H109  1  0.592200  0.732100  0.927400  1.0  0.4117
  H  H110  1  0.503500  0.770100  0.905000  1.0  0.4624
  H  H111  1  0.794400  0.759200  0.833300  1.0  0.4255
  H  H112  1  0.742300  0.693600  0.875400  1.0  0.4077
  H  H113  1  0.724200  0.462700  0.807200  1.0  0.0886
  H  H114  1  0.682000  0.441000  0.723000  1.0  0.089
  H  H115  1  0.923500  0.503700  0.785200  1.0  0.0844
  H  H116  1  0.839400  0.554300  0.819000  1.0  0.1008
  H  H117  1  0.803800  0.378300  0.666667  1.0  0.0746
  H  H118  1  0.876700  0.385600  0.735900  1.0  0.0703
  H  H119  1  0.975300  0.461000  0.653600  1.0  0.0731
  H  H120  1  0.949900  0.376400  0.610400  1.0  0.088
  H  H121  1  0.861300  0.365600  0.509200  1.0  0.0852
  H  H122  1  0.853700  0.440000  0.448200  1.0  0.0745
  H  H123  1  0.990800  0.565100  0.556900  1.0  0.0807
  H  H124  1  0.935100  0.561400  0.476500  1.0  0.0648
  H  H125  1  0.592200  0.767900  0.572600  1.0  0.4122
  H  H126  1  0.503500  0.729900  0.595000  1.0  0.4618
  H  H127  1  0.794400  0.740800  0.666667  1.0  0.4251
  H  H128  1  0.742300  0.806400  0.624600  1.0  0.4057
  H  H129  1  0.724200  0.037300  0.692800  1.0  0.0883
  H  H130  1  0.682000  0.059000  0.777000  1.0  0.0889
  H  H131  1  0.923500  0.996300  0.714800  1.0  0.0851
  H  H132  1  0.839400  0.945700  0.681000  1.0  0.1028
  H  H133  1  0.803800  0.121700  0.833300  1.0  0.0729
  H  H134  1  0.876700  0.114400  0.764100  1.0  0.0708
  H  H135  1  0.975300  0.039000  0.846400  1.0  0.0733
  H  H136  1  0.949900  0.123600  0.889600  1.0  0.0868
  H  H137  1  0.861300  0.134400  0.990800  1.0  0.0841
  H  H138  1  0.853700  0.060000  0.051800  1.0  0.0747
  H  H139  1  0.990800  0.934900  0.943100  1.0  0.0818
  H  H140  1  0.935100  0.938600  0.023500  1.0  0.0646
  C  C141  1  0.166400  0.564500  0.747300  1.0  0.7463
  C  C142  1  0.217000  0.482600  0.747300  1.0  -0.1779
  C  C143  1  0.372900  0.540300  0.729600  1.0  -0.1496
  C  C144  1  0.412000  0.620600  0.765400  1.0  0.683
  C  C145  1  0.350900  0.414200  0.810300  1.0  -0.0447
  C  C146  1  0.425400  0.429700  0.871100  1.0  -0.0349
  C  C147  1  0.339000  0.422600  0.997600  1.0  -0.1081
  C  C148  1  0.235900  0.422900  0.987500  1.0  0.7148
  C  C149  1  0.462700  0.527400  0.981700  1.0  -0.0142
  C  C150  1  0.227100  0.657100  0.026000  1.0  0.1463
  C  C151  1  0.166400  0.935500  0.752700  1.0  0.7463
  C  C152  1  0.217000  0.017400  0.752700  1.0  -0.1784
  C  C153  1  0.372900  0.959700  0.770400  1.0  -0.1472
  C  C154  1  0.412000  0.879400  0.734600  1.0  0.6787
  C  C155  1  0.350900  0.085800  0.689700  1.0  -0.0464
  C  C156  1  0.425400  0.070300  0.628900  1.0  -0.0351
  C  C157  1  0.339000  0.077400  0.502400  1.0  -0.1065
  C  C158  1  0.235900  0.077100  0.512500  1.0  0.7156
  C  C159  1  0.462700  0.972600  0.518300  1.0  -0.0144
  C  C160  1  0.227100  0.842900  0.474000  1.0  0.1449
  C  C161  1  0.333600  0.435500  0.247300  1.0  0.7459
  C  C162  1  0.283000  0.517400  0.247300  1.0  -0.1765
  C  C163  1  0.127100  0.459700  0.229600  1.0  -0.1505
  C  C164  1  0.088000  0.379400  0.265400  1.0  0.6795
  C  C165  1  0.149100  0.585800  0.310300  1.0  -0.0451
  C  C166  1  0.074600  0.570300  0.371100  1.0  -0.0365
  C  C167  1  0.161000  0.577400  0.497600  1.0  -0.1052
  C  C168  1  0.264100  0.577100  0.487500  1.0  0.7126
  C  C169  1  0.037300  0.472600  0.481700  1.0  -0.0147
  C  C170  1  0.272900  0.342900  0.526000  1.0  0.1455
  C  C171  1  0.333600  0.064500  0.252700  1.0  0.7457
  C  C172  1  0.283000  0.982600  0.252700  1.0  -0.1762
  C  C173  1  0.127100  0.040300  0.270400  1.0  -0.1472
  C  C174  1  0.088000  0.120600  0.234600  1.0  0.6767
  C  C175  1  0.149100  0.914200  0.189700  1.0  -0.0445
  C  C176  1  0.074600  0.929700  0.128900  1.0  -0.0351
  C  C177  1  0.161000  0.922600  0.002400  1.0  -0.1057
  C  C178  1  0.264100  0.922900  0.012500  1.0  0.7119
  C  C179  1  0.037300  0.027400  0.018300  1.0  -0.0155
  C  C180  1  0.272900  0.157100  0.974000  1.0  0.1438
  C  C181  1  0.833600  0.435500  0.252700  1.0  0.7456
  C  C182  1  0.783000  0.517400  0.252700  1.0  -0.1765
  C  C183  1  0.627100  0.459700  0.270400  1.0  -0.1483
  C  C184  1  0.588000  0.379400  0.234600  1.0  0.6769
  C  C185  1  0.649100  0.585800  0.189700  1.0  -0.0445
  C  C186  1  0.574600  0.570300  0.128900  1.0  -0.0363
  C  C187  1  0.661000  0.577400  0.002400  1.0  -0.1035
  C  C188  1  0.764100  0.577100  0.012500  1.0  0.7124
  C  C189  1  0.537300  0.472600  0.018300  1.0  -0.0155
  C  C190  1  0.772900  0.342900  0.974000  1.0  0.145
  C  C191  1  0.833600  0.064500  0.247300  1.0  0.7465
  C  C192  1  0.783000  0.982600  0.247300  1.0  -0.177
  C  C193  1  0.627100  0.040300  0.229600  1.0  -0.1497
  C  C194  1  0.588000  0.120600  0.265400  1.0  0.6793
  C  C195  1  0.649100  0.914200  0.310300  1.0  -0.045
  C  C196  1  0.574600  0.929700  0.371100  1.0  -0.0358
  C  C197  1  0.661000  0.922600  0.497600  1.0  -0.1081
  C  C198  1  0.764100  0.922900  0.487500  1.0  0.7122
  C  C199  1  0.537300  0.027400  0.481700  1.0  -0.015
  C  C200  1  0.772900  0.157100  0.526000  1.0  0.1446
  C  C201  1  0.666400  0.564500  0.752700  1.0  0.746
  C  C202  1  0.717000  0.482600  0.752700  1.0  -0.1773
  C  C203  1  0.872900  0.540300  0.770400  1.0  -0.1477
  C  C204  1  0.912000  0.620600  0.734600  1.0  0.679
  C  C205  1  0.850900  0.414200  0.689700  1.0  -0.0455
  C  C206  1  0.925400  0.429700  0.628900  1.0  -0.034
  C  C207  1  0.839000  0.422600  0.502400  1.0  -0.1073
  C  C208  1  0.735900  0.422900  0.512500  1.0  0.7148
  C  C209  1  0.962700  0.527400  0.518300  1.0  -0.0147
  C  C210  1  0.727100  0.657100  0.474000  1.0  0.1451
  C  C211  1  0.666400  0.935500  0.747300  1.0  0.7466
  C  C212  1  0.717000  0.017400  0.747300  1.0  -0.1784
  C  C213  1  0.872900  0.959700  0.729600  1.0  -0.1504
  C  C214  1  0.912000  0.879400  0.765400  1.0  0.6823
  C  C215  1  0.850900  0.085800  0.810300  1.0  -0.0454
  C  C216  1  0.925400  0.070300  0.871100  1.0  -0.035
  C  C217  1  0.839000  0.077400  0.997600  1.0  -0.107
  C  C218  1  0.735900  0.077100  0.987500  1.0  0.7157
  C  C219  1  0.962700  0.972600  0.981700  1.0  -0.0134
  C  C220  1  0.727100  0.842900  0.026000  1.0  0.146
  S  S221  1  0.183600  0.702100  0.114100  1.0  -0.3047
  S  S222  1  0.183600  0.797900  0.385900  1.0  -0.3031
  S  S223  1  0.316400  0.297900  0.614100  1.0  -0.3039
  S  S224  1  0.316400  0.202100  0.885900  1.0  -0.303
  S  S225  1  0.816400  0.297900  0.885900  1.0  -0.3028
  S  S226  1  0.816400  0.202100  0.614100  1.0  -0.3059
  S  S227  1  0.683600  0.702100  0.385900  1.0  -0.3034
  S  S228  1  0.683600  0.797900  0.114100  1.0  -0.3041
  N  N229  1  0.309600  0.493700  0.785000  1.0  -0.1252
  N  N230  1  0.388500  0.478000  0.940800  1.0  -0.1937
  N  N231  1  0.263400  0.631000  0.974100  1.0  -0.322
  N  N232  1  0.309600  0.006300  0.715000  1.0  -0.1244
  N  N233  1  0.388500  0.022000  0.559200  1.0  -0.1937
  N  N234  1  0.263400  0.869000  0.525900  1.0  -0.3178
  N  N235  1  0.190400  0.506300  0.285000  1.0  -0.1247
  N  N236  1  0.111500  0.522000  0.440800  1.0  -0.1929
  N  N237  1  0.236600  0.369000  0.474100  1.0  -0.3238
  N  N238  1  0.190400  0.993700  0.215000  1.0  -0.124
  N  N239  1  0.111500  0.978000  0.059200  1.0  -0.193
  N  N240  1  0.236600  0.131000  0.025900  1.0  -0.3219
  N  N241  1  0.690400  0.506300  0.215000  1.0  -0.1239
  N  N242  1  0.611500  0.522000  0.059200  1.0  -0.1932
  N  N243  1  0.736600  0.369000  0.025900  1.0  -0.3208
  N  N244  1  0.690400  0.993700  0.285000  1.0  -0.1249
  N  N245  1  0.611500  0.978000  0.440800  1.0  -0.1926
  N  N246  1  0.736600  0.131000  0.474100  1.0  -0.3241
  N  N247  1  0.809600  0.493700  0.715000  1.0  -0.1247
  N  N248  1  0.888500  0.478000  0.559200  1.0  -0.1938
  N  N249  1  0.763400  0.631000  0.525900  1.0  -0.3188
  N  N250  1  0.809600  0.006300  0.785000  1.0  -0.1249
  N  N251  1  0.888500  0.022000  0.940800  1.0  -0.1936
  N  N252  1  0.763400  0.869000  0.974100  1.0  -0.3215
  O  O253  1  0.179400  0.612400  0.808900  1.0  -0.6721
  O  O254  1  0.116200  0.584900  0.690800  1.0  -0.5996
  O  O255  1  0.387600  0.642300  0.835100  1.0  -0.6083
  O  O256  1  0.468600  0.658200  0.723000  1.0  -0.6347
  O  O257  1  0.199600  0.465700  0.934300  1.0  -0.5678
  O  O258  1  0.193200  0.378700  0.038300  1.0  -0.5938
  O  O259  1  0.046200  0.734100  0.605900  1.0  -0.8298
  O  O260  1  0.254800  0.719400  0.667800  1.0  -0.764
  O  O261  1  0.179400  0.887600  0.691100  1.0  -0.6708
  O  O262  1  0.116200  0.915100  0.809200  1.0  -0.6013
  O  O263  1  0.387600  0.857700  0.664900  1.0  -0.6076
  O  O264  1  0.468600  0.841800  0.777000  1.0  -0.6346
  O  O265  1  0.199600  0.034300  0.565700  1.0  -0.5698
  O  O266  1  0.193200  0.121300  0.461700  1.0  -0.5931
  O  O267  1  0.046200  0.765900  0.894100  1.0  -0.8331
  O  O268  1  0.254800  0.780600  0.832200  1.0  -0.7619
  O  O269  1  0.320600  0.387600  0.308900  1.0  -0.6713
  O  O270  1  0.383800  0.415100  0.190800  1.0  -0.599
  O  O271  1  0.112400  0.357700  0.335100  1.0  -0.6066
  O  O272  1  0.031400  0.341800  0.223000  1.0  -0.6362
  O  O273  1  0.300400  0.534300  0.434300  1.0  -0.5711
  O  O274  1  0.306800  0.621300  0.538300  1.0  -0.594
  O  O275  1  0.453800  0.265900  0.105900  1.0  -0.8296
  O  O276  1  0.245200  0.280600  0.167800  1.0  -0.7626
  O  O277  1  0.320600  0.112400  0.191100  1.0  -0.6709
  O  O278  1  0.383800  0.084900  0.309200  1.0  -0.6009
  O  O279  1  0.112400  0.142300  0.164900  1.0  -0.6097
  O  O280  1  0.031400  0.158200  0.277000  1.0  -0.6356
  O  O281  1  0.300400  0.965700  0.065700  1.0  -0.5713
  O  O282  1  0.306800  0.878700  0.961700  1.0  -0.5947
  O  O283  1  0.453800  0.234100  0.394100  1.0  -0.8325
  O  O284  1  0.245200  0.219400  0.332200  1.0  -0.7645
  O  O285  1  0.820600  0.387600  0.191100  1.0  -0.6702
  O  O286  1  0.883800  0.415100  0.309200  1.0  -0.6008
  O  O287  1  0.612400  0.357700  0.164900  1.0  -0.6081
  O  O288  1  0.531400  0.341800  0.277000  1.0  -0.636
  O  O289  1  0.800400  0.534300  0.065700  1.0  -0.5717
  O  O290  1  0.806800  0.621300  0.961700  1.0  -0.5942
  O  O291  1  0.953800  0.265900  0.394100  1.0  -0.8322
  O  O292  1  0.745200  0.280600  0.332200  1.0  -0.7627
  O  O293  1  0.820600  0.112400  0.308900  1.0  -0.6719
  O  O294  1  0.883800  0.084900  0.190800  1.0  -0.5992
  O  O295  1  0.612400  0.142300  0.335100  1.0  -0.6084
  O  O296  1  0.531400  0.158200  0.223000  1.0  -0.6352
  O  O297  1  0.800400  0.965700  0.434300  1.0  -0.5701
  O  O298  1  0.806800  0.878700  0.538300  1.0  -0.5944
  O  O299  1  0.953800  0.234100  0.105900  1.0  -0.829
  O  O300  1  0.745200  0.219400  0.167800  1.0  -0.7646
  O  O301  1  0.679400  0.612400  0.691100  1.0  -0.6708
  O  O302  1  0.616200  0.584900  0.809200  1.0  -0.6015
  O  O303  1  0.887600  0.642300  0.664900  1.0  -0.609
  O  O304  1  0.968600  0.658200  0.777000  1.0  -0.6341
  O  O305  1  0.699600  0.465700  0.565700  1.0  -0.5682
  O  O306  1  0.693200  0.378700  0.461700  1.0  -0.594
  O  O307  1  0.546200  0.734100  0.894100  1.0  -0.833
  O  O308  1  0.754800  0.719400  0.832200  1.0  -0.7635
  O  O309  1  0.679400  0.887600  0.808900  1.0  -0.6716
  O  O310  1  0.616200  0.915100  0.690800  1.0  -0.5995
  O  O311  1  0.887600  0.857700  0.835100  1.0  -0.6064
  O  O312  1  0.968600  0.841800  0.723000  1.0  -0.6355
  O  O313  1  0.699600  0.034300  0.934300  1.0  -0.5692
  O  O314  1  0.693200  0.121300  0.038300  1.0  -0.5934
  O  O315  1  0.546200  0.765900  0.605900  1.0  -0.8305
  O  O316  1  0.754800  0.780600  0.667800  1.0  -0.7622
