# generated using pymatgen
data_Co5H26(C8O9)2
_symmetry_space_group_name_H-M   'P 1'
_cell_length_a   11.40900000
_cell_length_b   17.70610000
_cell_length_c   17.70610000
_cell_angle_alpha   84.04200000
_cell_angle_beta   71.20530000
_cell_angle_gamma   71.20530000
_symmetry_Int_Tables_number   1
_chemical_formula_structural   Co5H26(C8O9)2
_chemical_formula_sum   'Co20 H104 C64 O72'
_cell_volume   3205.52341198
_cell_formula_units_Z   4
loop_
 _symmetry_equiv_pos_site_id
 _symmetry_equiv_pos_as_xyz
  1  'x, y, z'
loop_
 _atom_site_type_symbol
 _atom_site_label
 _atom_site_symmetry_multiplicity
 _atom_site_fract_x
 _atom_site_fract_y
 _atom_site_fract_z
 _atom_site_occupancy
 _atom_site_charge
  Co  Co1  1  0.426920  0.775350  0.330830  1.0  1.0548
  Co  Co2  1  0.133400  0.833520  0.411380  1.0  1.0144
  Co  Co3  1  0.033100  0.724650  0.169170  1.0  1.0559
  Co  Co4  1  0.878300  0.666480  0.088620  1.0  1.0154
  Co  Co5  1  0.757750  0.669170  0.275350  1.0  1.0586
  Co  Co6  1  0.544780  0.588620  0.333520  1.0  1.0149
  Co  Co7  1  0.202270  0.830830  0.224650  1.0  1.0561
  Co  Co8  1  0.966920  0.911380  0.166480  1.0  1.0144
  Co  Co9  1  0.573080  0.224650  0.669170  1.0  1.0585
  Co  Co10  1  0.866600  0.166480  0.588620  1.0  1.0153
  Co  Co11  1  0.966900  0.275350  0.830830  1.0  1.0571
  Co  Co12  1  0.121700  0.333520  0.911380  1.0  1.0164
  Co  Co13  1  0.242250  0.330830  0.724650  1.0  1.0607
  Co  Co14  1  0.455220  0.411380  0.666480  1.0  1.0154
  Co  Co15  1  0.797730  0.169170  0.775350  1.0  1.0582
  Co  Co16  1  0.033080  0.088620  0.833520  1.0  1.0153
  Co  Co17  1  0.500000  0.500000  0.500000  1.0  0.9036
  Co  Co18  1  0.000000  0.000000  0.000000  1.0  0.9036
  Co  Co19  1  0.000000  0.500000  0.000000  1.0  0.9036
  Co  Co20  1  0.000000  0.000000  0.500000  1.0  0.9036
  H  H21  1  0.575900  0.693500  0.408500  1.0  0.4178
  H  H22  1  0.388300  0.599300  0.138500  1.0  0.139
  H  H23  1  0.531600  0.602700  0.106300  1.0  0.1187
  H  H24  1  0.486300  0.557900  0.186300  1.0  0.14
  H  H25  1  0.143000  0.704400  0.565400  1.0  0.1411
  H  H26  1  0.248500  0.629900  0.585100  1.0  0.1338
  H  H27  1  0.261700  0.715600  0.584000  1.0  0.1344
  H  H28  1  0.913600  0.472500  0.448100  1.0  0.1466
  H  H29  1  0.815500  0.541100  0.507300  1.0  0.1345
  H  H30  1  0.778600  0.464400  0.501400  1.0  0.1369
  H  H31  1  0.447700  0.330300  0.356700  1.0  0.1573
  H  H32  1  0.382600  0.393000  0.301200  1.0  0.1663
  H  H33  1  0.532700  0.349100  0.272300  1.0  0.148
  H  H34  1  0.177900  0.806500  0.091500  1.0  0.4183
  H  H35  1  0.626100  0.900700  0.361500  1.0  0.1401
  H  H36  1  0.740600  0.897300  0.393700  1.0  0.1203
  H  H37  1  0.730500  0.942100  0.313700  1.0  0.1403
  H  H38  1  0.912800  0.795600  0.934600  1.0  0.1403
  H  H39  1  0.963500  0.870100  0.914900  1.0  0.1317
  H  H40  1  0.061300  0.784400  0.916000  1.0  0.1351
  H  H41  1  0.334200  0.027500  0.051900  1.0  0.1433
  H  H42  1  0.363900  0.958900  0.992700  1.0  0.1375
  H  H43  1  0.244400  0.035600  0.998600  1.0  0.138
  H  H44  1  0.634700  0.169700  0.143300  1.0  0.1587
  H  H45  1  0.576800  0.107000  0.198800  1.0  0.1697
  H  H46  1  0.654100  0.150900  0.227700  1.0  0.1484
  H  H47  1  0.984400  0.591500  0.193500  1.0  0.4213
  H  H48  1  0.526800  0.861500  0.099300  1.0  0.141
  H  H49  1  0.637900  0.893700  0.102700  1.0  0.1223
  H  H50  1  0.672600  0.813700  0.057900  1.0  0.1368
  H  H51  1  0.708400  0.434600  0.204400  1.0  0.1442
  H  H52  1  0.833600  0.414900  0.129900  1.0  0.1315
  H  H53  1  0.845700  0.416000  0.215600  1.0  0.1349
  H  H54  1  0.361700  0.551900  0.972500  1.0  0.1467
  H  H55  1  0.322800  0.492700  0.041100  1.0  0.1349
  H  H56  1  0.280000  0.498600  0.964400  1.0  0.1376
  H  H57  1  0.804400  0.643300  0.830300  1.0  0.1575
  H  H58  1  0.683800  0.698800  0.893000  1.0  0.1658
  H  H59  1  0.805000  0.727700  0.849100  1.0  0.1482
  H  H60  1  0.269400  0.908500  0.306500  1.0  0.4192
  H  H61  1  0.987600  0.638500  0.400700  1.0  0.1398
  H  H62  1  0.134300  0.606300  0.397300  1.0  0.1241
  H  H63  1  0.044200  0.686300  0.442100  1.0  0.1395
  H  H64  1  0.847400  0.065400  0.295600  1.0  0.1403
  H  H65  1  0.878400  0.085100  0.370100  1.0  0.1314
  H  H66  1  0.977300  0.084000  0.284400  1.0  0.1355
  H  H67  1  0.386100  0.948100  0.527500  1.0  0.144
  H  H68  1  0.356600  0.007300  0.458900  1.0  0.1355
  H  H69  1  0.243000  0.001400  0.535600  1.0  0.1367
  H  H70  1  0.778000  0.856700  0.669700  1.0  0.1593
  H  H71  1  0.775600  0.801200  0.607000  1.0  0.1662
  H  H72  1  0.881800  0.772300  0.650900  1.0  0.1486
  H  H73  1  0.424100  0.306500  0.591500  1.0  0.4198
  H  H74  1  0.611700  0.400700  0.861500  1.0  0.1389
  H  H75  1  0.468400  0.397300  0.893700  1.0  0.1193
  H  H76  1  0.513700  0.442100  0.813700  1.0  0.1401
  H  H77  1  0.857000  0.295600  0.434600  1.0  0.1433
  H  H78  1  0.751500  0.370100  0.414900  1.0  0.1351
  H  H79  1  0.738300  0.284400  0.416000  1.0  0.1345
  H  H80  1  0.086400  0.527500  0.551900  1.0  0.1449
  H  H81  1  0.184500  0.458900  0.492700  1.0  0.1348
  H  H82  1  0.221400  0.535600  0.498600  1.0  0.1369
  H  H83  1  0.552300  0.669700  0.643300  1.0  0.1598
  H  H84  1  0.617400  0.607000  0.698800  1.0  0.1666
  H  H85  1  0.467300  0.650900  0.727700  1.0  0.1492
  H  H86  1  0.822100  0.193500  0.908500  1.0  0.4174
  H  H87  1  0.373900  0.099300  0.638500  1.0  0.1402
  H  H88  1  0.259400  0.102700  0.606300  1.0  0.1191
  H  H89  1  0.269500  0.057900  0.686300  1.0  0.1403
  H  H90  1  0.087200  0.204400  0.065400  1.0  0.1413
  H  H91  1  0.036500  0.129900  0.085100  1.0  0.1334
  H  H92  1  0.938700  0.215600  0.084000  1.0  0.1349
  H  H93  1  0.665800  0.972500  0.948100  1.0  0.1443
  H  H94  1  0.636100  0.041100  0.007300  1.0  0.1353
  H  H95  1  0.755600  0.964400  0.001400  1.0  0.1392
  H  H96  1  0.365300  0.830300  0.856700  1.0  0.1607
  H  H97  1  0.423200  0.893000  0.801200  1.0  0.1733
  H  H98  1  0.345900  0.849100  0.772300  1.0  0.1499
  H  H99  1  0.015600  0.408500  0.806500  1.0  0.4194
  H  H100  1  0.473200  0.138500  0.900700  1.0  0.1411
  H  H101  1  0.362100  0.106300  0.897300  1.0  0.1226
  H  H102  1  0.327400  0.186300  0.942100  1.0  0.1378
  H  H103  1  0.291600  0.565400  0.795600  1.0  0.1436
  H  H104  1  0.166400  0.585100  0.870100  1.0  0.1329
  H  H105  1  0.154300  0.584000  0.784400  1.0  0.135
  H  H106  1  0.638300  0.448100  0.027500  1.0  0.1465
  H  H107  1  0.677200  0.507300  0.958900  1.0  0.1345
  H  H108  1  0.720000  0.501400  0.035600  1.0  0.1392
  H  H109  1  0.195600  0.356700  0.169700  1.0  0.1606
  H  H110  1  0.316200  0.301200  0.107000  1.0  0.1689
  H  H111  1  0.195000  0.272300  0.150900  1.0  0.1482
  H  H112  1  0.730600  0.091500  0.693500  1.0  0.4215
  H  H113  1  0.012400  0.361500  0.599300  1.0  0.1394
  H  H114  1  0.865700  0.393700  0.602700  1.0  0.1232
  H  H115  1  0.955800  0.313700  0.557900  1.0  0.1396
  H  H116  1  0.152600  0.934600  0.704400  1.0  0.1405
  H  H117  1  0.121600  0.914900  0.629900  1.0  0.1318
  H  H118  1  0.022700  0.916000  0.715600  1.0  0.1347
  H  H119  1  0.613900  0.051900  0.472500  1.0  0.1439
  H  H120  1  0.643400  0.992700  0.541100  1.0  0.1368
  H  H121  1  0.757000  0.998600  0.464400  1.0  0.1379
  H  H122  1  0.222000  0.143300  0.330300  1.0  0.1596
  H  H123  1  0.224400  0.198800  0.393000  1.0  0.1664
  H  H124  1  0.118200  0.227700  0.349100  1.0  0.1511
  C  C125  1  0.420000  0.678100  0.198900  1.0  0.7746
  C  C126  1  0.460100  0.602800  0.153400  1.0  -0.4151
  C  C127  1  0.311200  0.671600  0.471400  1.0  0.751
  C  C128  1  0.234000  0.681200  0.559600  1.0  -0.4178
  C  C129  1  0.764300  0.539900  0.407900  1.0  0.7737
  C  C130  1  0.823200  0.501000  0.472000  1.0  -0.3837
  C  C131  1  0.482800  0.436500  0.353300  1.0  0.7572
  C  C132  1  0.459300  0.371300  0.317700  1.0  -0.4834
  C  C133  1  0.797000  0.821900  0.301100  1.0  0.7724
  C  C134  1  0.716300  0.897200  0.346600  1.0  -0.4152
  C  C135  1  0.954200  0.828400  0.028600  1.0  0.7509
  C  C136  1  0.974800  0.818800  0.940400  1.0  -0.4169
  C  C137  1  0.212100  0.960100  0.092100  1.0  0.7747
  C  C138  1  0.296200  0.999000  0.028000  1.0  -0.383
  C  C139  1  0.772600  0.063500  0.146700  1.0  0.7564
  C  C140  1  0.648300  0.128700  0.182300  1.0  -0.483
  C  C141  1  0.618900  0.801100  0.178100  1.0  0.7758
  C  C142  1  0.613500  0.846600  0.102800  1.0  -0.4146
  C  C143  1  0.782600  0.528600  0.171600  1.0  0.7474
  C  C144  1  0.793600  0.440400  0.181200  1.0  -0.417
  C  C145  1  0.172200  0.592100  0.039900  1.0  0.771
  C  C146  1  0.295200  0.528000  0.001000  1.0  -0.3843
  C  C147  1  0.836100  0.646700  0.936500  1.0  0.7584
  C  C148  1  0.777000  0.682300  0.871300  1.0  -0.4825
  C  C149  1  0.098100  0.698900  0.321900  1.0  0.775
  C  C150  1  0.062900  0.653400  0.397200  1.0  -0.4158
  C  C151  1  0.982800  0.971400  0.328400  1.0  0.7476
  C  C152  1  0.915200  0.059600  0.318800  1.0  -0.4158
  C  C153  1  0.304200  0.907900  0.460100  1.0  0.7712
  C  C154  1  0.324200  0.972000  0.499000  1.0  -0.3827
  C  C155  1  0.919300  0.853300  0.563500  1.0  0.7576
  C  C156  1  0.830600  0.817700  0.628700  1.0  -0.4799
  C  C157  1  0.580000  0.321900  0.801100  1.0  0.7764
  C  C158  1  0.539900  0.397200  0.846600  1.0  -0.4168
  C  C159  1  0.688800  0.328400  0.528600  1.0  0.75
  C  C160  1  0.766000  0.318800  0.440400  1.0  -0.4173
  C  C161  1  0.235700  0.460100  0.592100  1.0  0.7743
  C  C162  1  0.176800  0.499000  0.528000  1.0  -0.3811
  C  C163  1  0.517200  0.563500  0.646700  1.0  0.7567
  C  C164  1  0.540700  0.628700  0.682300  1.0  -0.4864
  C  C165  1  0.203000  0.178100  0.698900  1.0  0.7719
  C  C166  1  0.283700  0.102800  0.653400  1.0  -0.4173
  C  C167  1  0.045800  0.171600  0.971400  1.0  0.7519
  C  C168  1  0.025200  0.181200  0.059600  1.0  -0.4189
  C  C169  1  0.787900  0.039900  0.907900  1.0  0.7747
  C  C170  1  0.703800  0.001000  0.972000  1.0  -0.3819
  C  C171  1  0.227400  0.936500  0.853300  1.0  0.7551
  C  C172  1  0.351700  0.871300  0.817700  1.0  -0.4833
  C  C173  1  0.381100  0.198900  0.821900  1.0  0.7768
  C  C174  1  0.386500  0.153400  0.897200  1.0  -0.4165
  C  C175  1  0.217400  0.471400  0.828400  1.0  0.7469
  C  C176  1  0.206400  0.559600  0.818800  1.0  -0.4164
  C  C177  1  0.827800  0.407900  0.960100  1.0  0.7727
  C  C178  1  0.704800  0.472000  0.999000  1.0  -0.3829
  C  C179  1  0.163900  0.353300  0.063500  1.0  0.7579
  C  C180  1  0.223000  0.317700  0.128700  1.0  -0.4839
  C  C181  1  0.901900  0.301100  0.678100  1.0  0.7758
  C  C182  1  0.937100  0.346600  0.602800  1.0  -0.4171
  C  C183  1  0.017200  0.028600  0.671600  1.0  0.7463
  C  C184  1  0.084800  0.940400  0.681200  1.0  -0.4163
  C  C185  1  0.695800  0.092100  0.539900  1.0  0.7727
  C  C186  1  0.675800  0.028000  0.501000  1.0  -0.3821
  C  C187  1  0.080700  0.146700  0.436500  1.0  0.7583
  C  C188  1  0.169400  0.182300  0.371300  1.0  -0.4828
  O  O189  1  0.438210  0.674860  0.266720  1.0  -0.6807
  O  O190  1  0.371500  0.742600  0.168000  1.0  -0.5918
  O  O191  1  0.288800  0.729600  0.425800  1.0  -0.6639
  O  O192  1  0.396300  0.605510  0.446690  1.0  -0.6928
  O  O193  1  0.657600  0.527110  0.408290  1.0  -0.6759
  O  O194  1  0.818500  0.581600  0.357800  1.0  -0.5885
  O  O195  1  0.502100  0.494500  0.308700  1.0  -0.5867
  O  O196  1  0.480000  0.429500  0.425100  1.0  -0.5866
  O  O197  1  0.576210  0.690540  0.353440  1.0  -0.9353
  O  O198  1  0.879790  0.825140  0.233280  1.0  -0.6815
  O  O199  1  0.782100  0.757400  0.332000  1.0  -0.5914
  O  O200  1  0.944200  0.770400  0.074200  1.0  -0.6663
  O  O201  1  0.948500  0.894490  0.053310  1.0  -0.6929
  O  O202  1  0.093000  0.972890  0.091710  1.0  -0.6743
  O  O203  1  0.257900  0.918400  0.142200  1.0  -0.5884
  O  O204  1  0.805300  0.005500  0.191300  1.0  -0.5857
  O  O205  1  0.834600  0.070500  0.074900  1.0  -0.5859
  O  O206  1  0.120190  0.809460  0.146560  1.0  -0.9357
  O  O207  1  0.704930  0.733280  0.174860  1.0  -0.6824
  O  O208  1  0.539500  0.832000  0.242600  1.0  -0.5911
  O  O209  1  0.714600  0.574200  0.229600  1.0  -0.6656
  O  O210  1  0.842990  0.553310  0.105510  1.0  -0.6933
  O  O211  1  0.065890  0.591710  0.027110  1.0  -0.6752
  O  O212  1  0.176300  0.642200  0.081600  1.0  -0.5886
  O  O213  1  0.810800  0.691300  0.994500  1.0  -0.5848
  O  O214  1  0.905100  0.574900  0.929500  1.0  -0.5869
  O  O215  1  0.929650  0.646560  0.190540  1.0  -0.9337
  O  O216  1  0.113070  0.766720  0.325140  1.0  -0.6822
  O  O217  1  0.114100  0.668000  0.257400  1.0  -0.5931
  O  O218  1  0.018400  0.925800  0.270400  1.0  -0.6664
  O  O219  1  0.001810  0.946690  0.394490  1.0  -0.6921
  O  O220  1  0.184710  0.908290  0.472890  1.0  -0.6737
  O  O221  1  0.400100  0.857800  0.418400  1.0  -0.5887
  O  O222  1  0.996600  0.808700  0.505500  1.0  -0.5867
  O  O223  1  0.909500  0.925100  0.570500  1.0  -0.5864
  O  O224  1  0.266750  0.853440  0.309460  1.0  -0.9331
  O  O225  1  0.561790  0.325140  0.733280  1.0  -0.6814
  O  O226  1  0.628500  0.257400  0.832000  1.0  -0.5916
  O  O227  1  0.711200  0.270400  0.574200  1.0  -0.6639
  O  O228  1  0.603700  0.394490  0.553310  1.0  -0.6931
  O  O229  1  0.342400  0.472890  0.591710  1.0  -0.6762
  O  O230  1  0.181500  0.418400  0.642200  1.0  -0.589
  O  O231  1  0.497900  0.505500  0.691300  1.0  -0.5874
  O  O232  1  0.520000  0.570500  0.574900  1.0  -0.5851
  O  O233  1  0.423790  0.309460  0.646560  1.0  -0.9335
  O  O234  1  0.120210  0.174860  0.766720  1.0  -0.6822
  O  O235  1  0.217900  0.242600  0.668000  1.0  -0.5912
  O  O236  1  0.055800  0.229600  0.925800  1.0  -0.6667
  O  O237  1  0.051500  0.105510  0.946690  1.0  -0.6932
  O  O238  1  0.907000  0.027110  0.908290  1.0  -0.6755
  O  O239  1  0.742100  0.081600  0.857800  1.0  -0.5884
  O  O240  1  0.194700  0.994500  0.808700  1.0  -0.5857
  O  O241  1  0.165400  0.929500  0.925100  1.0  -0.5865
  O  O242  1  0.879810  0.190540  0.853440  1.0  -0.9365
  O  O243  1  0.295070  0.266720  0.825140  1.0  -0.6829
  O  O244  1  0.460500  0.168000  0.757400  1.0  -0.5936
  O  O245  1  0.285400  0.425800  0.770400  1.0  -0.6663
  O  O246  1  0.157010  0.446690  0.894490  1.0  -0.6928
  O  O247  1  0.934110  0.408290  0.972890  1.0  -0.6759
  O  O248  1  0.823700  0.357800  0.918400  1.0  -0.5889
  O  O249  1  0.189200  0.308700  0.005500  1.0  -0.5861
  O  O250  1  0.094900  0.425100  0.070500  1.0  -0.5867
  O  O251  1  0.070350  0.353440  0.809460  1.0  -0.9348
  O  O252  1  0.886930  0.233280  0.674860  1.0  -0.683
  O  O253  1  0.885900  0.332000  0.742600  1.0  -0.5907
  O  O254  1  0.981600  0.074200  0.729600  1.0  -0.6653
  O  O255  1  0.998190  0.053310  0.605510  1.0  -0.6927
  O  O256  1  0.815290  0.091710  0.527110  1.0  -0.6751
  O  O257  1  0.599900  0.142200  0.581600  1.0  -0.5886
  O  O258  1  0.003400  0.191300  0.494500  1.0  -0.5873
  O  O259  1  0.090500  0.074900  0.429500  1.0  -0.5853
  O  O260  1  0.733250  0.146560  0.690540  1.0  -0.9342
