# generated using pymatgen
data_Cu3H16(C12N13)2
_symmetry_space_group_name_H-M   'P 1'
_cell_length_a   12.95170000
_cell_length_b   14.73300000
_cell_length_c   20.05200000
_cell_angle_alpha   90.00000000
_cell_angle_beta   129.25600000
_cell_angle_gamma   90.00000000
_symmetry_Int_Tables_number   1
_chemical_formula_structural   Cu3H16(C12N13)2
_chemical_formula_sum   'Cu6 H32 C48 N52'
_cell_volume   2962.78214015
_cell_formula_units_Z   2
loop_
 _symmetry_equiv_pos_site_id
 _symmetry_equiv_pos_as_xyz
  1  'x, y, z'
loop_
 _atom_site_type_symbol
 _atom_site_label
 _atom_site_symmetry_multiplicity
 _atom_site_fract_x
 _atom_site_fract_y
 _atom_site_fract_z
 _atom_site_occupancy
 _atom_site_charge
  Cu  Cu1  1  0.613440  0.208160  0.597630  1.0  0.7899
  Cu  Cu2  1  0.386560  0.708160  0.902370  1.0  0.7881
  Cu  Cu3  1  0.386560  0.791840  0.402370  1.0  0.7885
  Cu  Cu4  1  0.613440  0.291840  0.097630  1.0  0.7898
  Cu  Cu5  1  0.500000  0.000000  0.500000  1.0  0.7343
  Cu  Cu6  1  0.500000  0.500000  0.000000  1.0  0.7343
  H  H7  1  0.662800  0.330800  0.361500  1.0  0.1174
  H  H8  1  0.540700  0.131900  0.146300  1.0  0.0893
  H  H9  1  0.113900  0.968900  0.873300  1.0  0.1166
  H  H10  1  0.665700  0.372000  0.252300  1.0  0.078
  H  H11  1  0.531800  0.084100  0.252700  1.0  0.1069
  H  H12  1  0.931000  0.806900  0.666200  1.0  0.1138
  H  H13  1  0.116000  0.714700  0.742400  1.0  0.091
  H  H14  1  0.296100  0.875400  0.943000  1.0  0.0745
  H  H15  1  0.337200  0.830800  0.138500  1.0  0.1172
  H  H16  1  0.459300  0.631900  0.353700  1.0  0.0895
  H  H17  1  0.886100  0.468900  0.626700  1.0  0.1167
  H  H18  1  0.334300  0.872000  0.247700  1.0  0.0782
  H  H19  1  0.468200  0.584100  0.247300  1.0  0.1073
  H  H20  1  0.069000  0.306900  0.833800  1.0  0.1136
  H  H21  1  0.884000  0.214700  0.757600  1.0  0.0912
  H  H22  1  0.703900  0.375400  0.557000  1.0  0.0754
  H  H23  1  0.337200  0.669200  0.638500  1.0  0.1169
  H  H24  1  0.459300  0.868100  0.853700  1.0  0.089
  H  H25  1  0.886100  0.031100  0.126700  1.0  0.1165
  H  H26  1  0.334300  0.628000  0.747700  1.0  0.0781
  H  H27  1  0.468200  0.915900  0.747300  1.0  0.1074
  H  H28  1  0.069000  0.193100  0.333800  1.0  0.1137
  H  H29  1  0.884000  0.285300  0.257600  1.0  0.0912
  H  H30  1  0.703900  0.124600  0.057000  1.0  0.0753
  H  H31  1  0.662800  0.169200  0.861500  1.0  0.1172
  H  H32  1  0.540700  0.368100  0.646300  1.0  0.0897
  H  H33  1  0.113900  0.531100  0.373300  1.0  0.1164
  H  H34  1  0.665700  0.128000  0.752300  1.0  0.0784
  H  H35  1  0.531800  0.415900  0.752700  1.0  0.1071
  H  H36  1  0.931000  0.693100  0.166200  1.0  0.114
  H  H37  1  0.116000  0.785300  0.242400  1.0  0.0915
  H  H38  1  0.296100  0.624600  0.443000  1.0  0.0742
  C  C39  1  0.590100  0.174000  0.387100  1.0  0.3349
  C  C40  1  0.596900  0.201200  0.319000  1.0  -0.0887
  C  C41  1  0.638100  0.289400  0.318600  1.0  -0.1011
  C  C42  1  0.566600  0.171300  0.190800  1.0  0.1356
  C  C43  1  0.882600  0.956200  0.712800  1.0  0.3052
  C  C44  1  0.001800  0.899200  0.761600  1.0  -0.0579
  C  C45  1  0.112800  0.918200  0.845200  1.0  -0.1273
  C  C46  1  0.641000  0.313200  0.253700  1.0  0.1405
  C  C47  1  0.560400  0.142600  0.254200  1.0  -0.078
  C  C48  1  0.004100  0.821600  0.722500  1.0  -0.1394
  C  C49  1  0.115800  0.767100  0.768200  1.0  0.1517
  C  C50  1  0.221800  0.861600  0.886800  1.0  0.1689
  C  C51  1  0.409900  0.674000  0.112900  1.0  0.3338
  C  C52  1  0.403100  0.701200  0.181000  1.0  -0.0864
  C  C53  1  0.361900  0.789400  0.181400  1.0  -0.1014
  C  C54  1  0.433400  0.671300  0.309200  1.0  0.1359
  C  C55  1  0.117400  0.456200  0.787200  1.0  0.3054
  C  C56  1  0.998200  0.399200  0.738400  1.0  -0.0575
  C  C57  1  0.887200  0.418200  0.654800  1.0  -0.1268
  C  C58  1  0.359000  0.813200  0.246300  1.0  0.1383
  C  C59  1  0.439600  0.642600  0.245800  1.0  -0.0783
  C  C60  1  0.995900  0.321600  0.777500  1.0  -0.1396
  C  C61  1  0.884200  0.267100  0.731800  1.0  0.151
  C  C62  1  0.778200  0.361600  0.613200  1.0  0.1684
  C  C63  1  0.409900  0.826000  0.612900  1.0  0.3334
  C  C64  1  0.403100  0.798800  0.681000  1.0  -0.0865
  C  C65  1  0.361900  0.710600  0.681400  1.0  -0.1003
  C  C66  1  0.433400  0.828700  0.809200  1.0  0.1367
  C  C67  1  0.117400  0.043800  0.287200  1.0  0.305
  C  C68  1  0.998200  0.100800  0.238400  1.0  -0.0579
  C  C69  1  0.887200  0.081800  0.154800  1.0  -0.1271
  C  C70  1  0.359000  0.686800  0.746300  1.0  0.1372
  C  C71  1  0.439600  0.857400  0.745800  1.0  -0.0785
  C  C72  1  0.995900  0.178400  0.277500  1.0  -0.1399
  C  C73  1  0.884200  0.232900  0.231800  1.0  0.1506
  C  C74  1  0.778200  0.138400  0.113200  1.0  0.1682
  C  C75  1  0.590100  0.326000  0.887100  1.0  0.3345
  C  C76  1  0.596900  0.298800  0.819000  1.0  -0.0889
  C  C77  1  0.638100  0.210600  0.818600  1.0  -0.0999
  C  C78  1  0.566600  0.328700  0.690800  1.0  0.1369
  C  C79  1  0.882600  0.543800  0.212800  1.0  0.305
  C  C80  1  0.001800  0.600800  0.261600  1.0  -0.0587
  C  C81  1  0.112800  0.581800  0.345200  1.0  -0.1277
  C  C82  1  0.641000  0.186800  0.753700  1.0  0.1386
  C  C83  1  0.560400  0.357400  0.754200  1.0  -0.0787
  C  C84  1  0.004100  0.678400  0.222500  1.0  -0.1395
  C  C85  1  0.115800  0.732900  0.268200  1.0  0.1516
  C  C86  1  0.221800  0.638400  0.386800  1.0  0.1687
  N  N87  1  0.554100  0.095800  0.456100  1.0  -0.0438
  N  N88  1  0.604700  0.175100  0.496000  1.0  -0.0438
  N  N89  1  0.628400  0.226500  0.453800  1.0  -0.35
  N  N90  1  0.544400  0.092700  0.386400  1.0  -0.3407
  N  N91  1  0.609600  0.255200  0.192800  1.0  -0.3107
  N  N92  1  0.750500  0.067500  0.668600  1.0  -0.1607
  N  N93  1  0.686100  0.997800  0.613700  1.0  -0.0395
  N  N94  1  0.766600  0.926700  0.639700  1.0  -0.3512
  N  N95  1  0.874000  0.041200  0.732500  1.0  -0.3057
  N  N96  1  0.461300  0.126400  0.550300  1.0  -0.3706
  N  N97  1  0.370900  0.143300  0.548200  1.0  0.4793
  N  N98  1  0.225500  0.787600  0.849600  1.0  -0.3493
  N  N99  1  0.281800  0.157900  0.545400  1.0  -0.3996
  N  N100  1  0.445900  0.595800  0.043900  1.0  -0.0437
  N  N101  1  0.395300  0.675100  0.004000  1.0  -0.0451
  N  N102  1  0.371600  0.726500  0.046200  1.0  -0.3502
  N  N103  1  0.455600  0.592700  0.113600  1.0  -0.3396
  N  N104  1  0.390400  0.755200  0.307200  1.0  -0.3105
  N  N105  1  0.249500  0.567500  0.831400  1.0  -0.1608
  N  N106  1  0.313900  0.497800  0.886300  1.0  -0.0393
  N  N107  1  0.233400  0.426700  0.860300  1.0  -0.3519
  N  N108  1  0.126000  0.541200  0.767500  1.0  -0.3038
  N  N109  1  0.538700  0.626400  0.949700  1.0  -0.3708
  N  N110  1  0.629100  0.643300  0.951800  1.0  0.4773
  N  N111  1  0.774500  0.287600  0.650400  1.0  -0.3477
  N  N112  1  0.718200  0.657900  0.954600  1.0  -0.3981
  N  N113  1  0.445900  0.904200  0.543900  1.0  -0.0447
  N  N114  1  0.395300  0.824900  0.504000  1.0  -0.0448
  N  N115  1  0.371600  0.773500  0.546200  1.0  -0.3498
  N  N116  1  0.455600  0.907300  0.613600  1.0  -0.3408
  N  N117  1  0.390400  0.744800  0.807200  1.0  -0.3111
  N  N118  1  0.249500  0.932500  0.331400  1.0  -0.1614
  N  N119  1  0.313900  0.002200  0.386300  1.0  -0.0385
  N  N120  1  0.233400  0.073300  0.360300  1.0  -0.353
  N  N121  1  0.126000  0.958800  0.267500  1.0  -0.3044
  N  N122  1  0.538700  0.873600  0.449700  1.0  -0.3708
  N  N123  1  0.629100  0.856700  0.451800  1.0  0.4767
  N  N124  1  0.774500  0.212400  0.150400  1.0  -0.3473
  N  N125  1  0.718200  0.842100  0.454600  1.0  -0.3989
  N  N126  1  0.554100  0.404200  0.956100  1.0  -0.0445
  N  N127  1  0.604700  0.324900  0.996000  1.0  -0.0453
  N  N128  1  0.628400  0.273500  0.953800  1.0  -0.3502
  N  N129  1  0.544400  0.407300  0.886400  1.0  -0.3417
  N  N130  1  0.609600  0.244800  0.692800  1.0  -0.3111
  N  N131  1  0.750500  0.432500  0.168600  1.0  -0.1612
  N  N132  1  0.686100  0.502200  0.113700  1.0  -0.0384
  N  N133  1  0.766600  0.573300  0.139700  1.0  -0.3519
  N  N134  1  0.874000  0.458800  0.232500  1.0  -0.3049
  N  N135  1  0.461300  0.373600  0.050300  1.0  -0.371
  N  N136  1  0.370900  0.356700  0.048200  1.0  0.4792
  N  N137  1  0.225500  0.712400  0.349600  1.0  -0.3487
  N  N138  1  0.281800  0.342100  0.045400  1.0  -0.3991
