# generated using pymatgen
data_Cd2H7C15(N2O3)2
_symmetry_space_group_name_H-M   'P 1'
_cell_length_a   9.17940000
_cell_length_b   9.46000000
_cell_length_c   11.15380000
_cell_angle_alpha   90.72600000
_cell_angle_beta   100.25200000
_cell_angle_gamma   105.26500000
_symmetry_Int_Tables_number   1
_chemical_formula_structural   Cd2H7C15(N2O3)2
_chemical_formula_sum   'Cd4 H14 C30 N8 O12'
_cell_volume   917.66383376
_cell_formula_units_Z   2
loop_
 _symmetry_equiv_pos_site_id
 _symmetry_equiv_pos_as_xyz
  1  'x, y, z'
loop_
 _atom_site_type_symbol
 _atom_site_label
 _atom_site_symmetry_multiplicity
 _atom_site_fract_x
 _atom_site_fract_y
 _atom_site_fract_z
 _atom_site_occupancy
 _atom_site_charge
  Cd  Cd1  1  0.162760  0.866150  0.032130  1.0  1.1181
  Cd  Cd2  1  0.996960  0.477090  0.150040  1.0  1.0537
  Cd  Cd3  1  0.837240  0.133850  0.967870  1.0  1.1179
  Cd  Cd4  1  0.003040  0.522910  0.849960  1.0  1.0541
  H  H5  1  0.126000  0.703600  0.535200  1.0  0.1076
  H  H6  1  0.259400  0.109200  0.699200  1.0  0.1248
  H  H7  1  0.157200  0.054300  0.334100  1.0  0.1169
  H  H8  1  0.231400  0.501700  0.571400  1.0  0.1214
  H  H9  1  0.422000  0.684600  0.690500  1.0  0.102
  H  H10  1  0.697900  0.419800  0.731500  1.0  0.0993
  H  H11  1  0.510500  0.238800  0.607300  1.0  0.1374
  H  H12  1  0.874000  0.296400  0.464800  1.0  0.1073
  H  H13  1  0.740600  0.890800  0.300800  1.0  0.1245
  H  H14  1  0.842800  0.945700  0.665900  1.0  0.1173
  H  H15  1  0.768600  0.498300  0.428600  1.0  0.1203
  H  H16  1  0.578000  0.315400  0.309500  1.0  0.1019
  H  H17  1  0.302100  0.580200  0.268500  1.0  0.0992
  H  H18  1  0.489500  0.761200  0.392700  1.0  0.1369
  C  C19  1  0.076100  0.764300  0.303400  1.0  0.7089
  C  C20  1  0.133800  0.862500  0.417600  1.0  -0.1613
  C  C21  1  0.147900  0.804800  0.530100  1.0  -0.0142
  C  C22  1  0.194500  0.896100  0.636800  1.0  -0.1504
  C  C23  1  0.228600  0.047100  0.628800  1.0  -0.1237
  C  C24  1  0.216300  0.104600  0.515300  1.0  0.2938
  C  C25  1  0.167500  0.014300  0.409900  1.0  -0.1233
  C  C26  1  0.199300  0.830900  0.759400  1.0  0.7091
  C  C27  1  0.353700  0.353600  0.579100  1.0  0.2969
  C  C28  1  0.326000  0.485500  0.603300  1.0  -0.1452
  C  C29  1  0.440000  0.594400  0.675500  1.0  -0.0026
  C  C30  1  0.579400  0.571300  0.725300  1.0  -0.0924
  C  C31  1  0.604100  0.437200  0.699000  1.0  -0.0012
  C  C32  1  0.491900  0.328100  0.625200  1.0  -0.2399
  C  C33  1  0.697800  0.686900  0.804000  1.0  0.3029
  C  C34  1  0.923900  0.235700  0.696600  1.0  0.7103
  C  C35  1  0.866200  0.137500  0.582400  1.0  -0.1623
  C  C36  1  0.852100  0.195200  0.469900  1.0  -0.0147
  C  C37  1  0.805500  0.103900  0.363200  1.0  -0.1518
  C  C38  1  0.771400  0.952900  0.371200  1.0  -0.1232
  C  C39  1  0.783700  0.895400  0.484700  1.0  0.2943
  C  C40  1  0.832500  0.985700  0.590100  1.0  -0.121
  C  C41  1  0.800700  0.169100  0.240600  1.0  0.7141
  C  C42  1  0.646300  0.646400  0.420900  1.0  0.2961
  C  C43  1  0.674000  0.514500  0.396700  1.0  -0.1461
  C  C44  1  0.560000  0.405600  0.324500  1.0  -0.004
  C  C45  1  0.420600  0.428700  0.274700  1.0  -0.0941
  C  C46  1  0.395900  0.562800  0.301000  1.0  -1e-04
  C  C47  1  0.508100  0.671900  0.374800  1.0  -0.2419
  C  C48  1  0.302200  0.313100  0.196000  1.0  0.3032
  N  N49  1  0.672400  0.811500  0.842400  1.0  -0.3358
  N  N50  1  0.806700  0.887200  0.911200  1.0  0.011
  N  N51  1  0.907700  0.811700  0.915200  1.0  -0.0257
  N  N52  1  0.842400  0.684400  0.847300  1.0  -0.3004
  N  N53  1  0.327600  0.188500  0.157600  1.0  -0.3346
  N  N54  1  0.193300  0.112800  0.088800  1.0  0.0127
  N  N55  1  0.092300  0.188300  0.084800  1.0  -0.0254
  N  N56  1  0.157600  0.315600  0.152700  1.0  -0.2999
  O  O57  1  0.040600  0.820500  0.203900  1.0  -0.7143
  O  O58  1  0.062600  0.629100  0.314000  1.0  -0.584
  O  O59  1  0.155600  0.693900  0.758000  1.0  -0.6572
  O  O60  1  0.246400  0.917700  0.853500  1.0  -0.6045
  O  O61  1  0.237400  0.253600  0.500000  1.0  -0.246
  O  O62  1  0.141600  0.625100  0.031300  1.0  -0.7826
  O  O63  1  0.959400  0.179500  0.796100  1.0  -0.7142
  O  O64  1  0.937400  0.370900  0.686000  1.0  -0.5846
  O  O65  1  0.844400  0.306100  0.242000  1.0  -0.6585
  O  O66  1  0.753600  0.082300  0.146500  1.0  -0.6051
  O  O67  1  0.762600  0.746400  0.500000  1.0  -0.2446
  O  O68  1  0.858400  0.374900  0.968700  1.0  -0.783
