# generated using pymatgen
data_Co2H7C15(N2O3)2
_symmetry_space_group_name_H-M   'P 1'
_cell_length_a   9.11700000
_cell_length_b   9.45200000
_cell_length_c   10.91400000
_cell_angle_alpha   97.53000000
_cell_angle_beta   92.11000000
_cell_angle_gamma   103.25000000
_symmetry_Int_Tables_number   1
_chemical_formula_structural   Co2H7C15(N2O3)2
_chemical_formula_sum   'Co4 H14 C30 N8 O12'
_cell_volume   905.38966247
_cell_formula_units_Z   2
loop_
 _symmetry_equiv_pos_site_id
 _symmetry_equiv_pos_as_xyz
  1  'x, y, z'
loop_
 _atom_site_type_symbol
 _atom_site_label
 _atom_site_symmetry_multiplicity
 _atom_site_fract_x
 _atom_site_fract_y
 _atom_site_fract_z
 _atom_site_occupancy
 _atom_site_charge
  Co  Co1  1  0.643600  0.362450  0.966210  1.0  0.9772
  Co  Co2  1  0.977790  0.492630  0.141190  1.0  1.0845
  Co  Co3  1  0.356400  0.637550  0.033790  1.0  0.981
  Co  Co4  1  0.022210  0.507370  0.858810  1.0  1.0848
  H  H5  1  0.398500  0.233500  0.281800  1.0  0.1306
  H  H6  1  0.433200  0.333400  0.655200  1.0  0.119
  H  H7  1  0.812100  0.392700  0.467600  1.0  0.1204
  H  H8  1  0.275700  0.987900  0.373700  1.0  0.1294
  H  H9  1  0.099400  0.801200  0.257100  1.0  0.1066
  H  H10  1  0.788400  0.040800  0.298400  1.0  0.1082
  H  H11  1  0.967000  0.230600  0.417700  1.0  0.1158
  H  H12  1  0.601500  0.766500  0.718200  1.0  0.1302
  H  H13  1  0.566800  0.666667  0.344800  1.0  0.119
  H  H14  1  0.187900  0.607300  0.532400  1.0  0.1207
  H  H15  1  0.724300  0.012100  0.626300  1.0  0.1295
  H  H16  1  0.900600  0.198800  0.742900  1.0  0.107
  H  H17  1  0.211600  0.959200  0.701600  1.0  0.1088
  H  H18  1  0.033000  0.769400  0.582300  1.0  0.1157
  C  C19  1  0.690600  0.316100  0.232200  1.0  0.6914
  C  C20  1  0.617800  0.311700  0.355800  1.0  -0.1333
  C  C21  1  0.458000  0.267400  0.355400  1.0  -0.1026
  C  C22  1  0.393200  0.276500  0.469200  1.0  0.2576
  C  C23  1  0.479800  0.326800  0.580900  1.0  -0.107
  C  C24  1  0.638200  0.367600  0.580500  1.0  -0.1322
  C  C25  1  0.707600  0.362700  0.468200  1.0  -0.0038
  C  C26  1  0.730500  0.423400  0.703100  1.0  0.6894
  C  C27  1  0.139700  0.129300  0.404700  1.0  0.2732
  C  C28  1  0.178400  0.999200  0.357800  1.0  -0.1686
  C  C29  1  0.072400  0.887500  0.287900  1.0  -0.0258
  C  C30  1  0.925100  0.900800  0.262300  1.0  -0.0043
  C  C31  1  0.886400  0.030400  0.312600  1.0  -0.0149
  C  C32  1  0.993700  0.145100  0.384300  1.0  -0.177
  C  C33  1  0.810600  0.781900  0.184300  1.0  0.2752
  C  C34  1  0.309400  0.683900  0.767800  1.0  0.6904
  C  C35  1  0.382200  0.688300  0.644200  1.0  -0.132
  C  C36  1  0.542000  0.732600  0.644600  1.0  -0.1024
  C  C37  1  0.606800  0.723500  0.530800  1.0  0.2573
  C  C38  1  0.520200  0.673200  0.419100  1.0  -0.1083
  C  C39  1  0.361800  0.632400  0.419500  1.0  -0.133
  C  C40  1  0.292400  0.637300  0.531800  1.0  -0.0044
  C  C41  1  0.269500  0.576600  0.296900  1.0  0.6883
  C  C42  1  0.860300  0.870700  0.595300  1.0  0.2746
  C  C43  1  0.821600  0.000800  0.642200  1.0  -0.1699
  C  C44  1  0.927600  0.112500  0.712100  1.0  -0.026
  C  C45  1  0.074900  0.099200  0.737700  1.0  -0.0032
  C  C46  1  0.113600  0.969600  0.687400  1.0  -0.0178
  C  C47  1  0.006300  0.854900  0.615700  1.0  -0.1761
  C  C48  1  0.189400  0.218100  0.815700  1.0  0.275
  N  N49  1  0.675000  0.802300  0.147200  1.0  -0.3267
  N  N50  1  0.601200  0.672600  0.077700  1.0  -0.0954
  N  N51  1  0.688000  0.579100  0.073000  1.0  -0.0959
  N  N52  1  0.822300  0.643500  0.140400  1.0  -0.283
  N  N53  1  0.325000  0.197700  0.852800  1.0  -0.3269
  N  N54  1  0.398800  0.327400  0.922300  1.0  -0.0966
  N  N55  1  0.312000  0.420900  0.927000  1.0  -0.0955
  N  N56  1  0.177700  0.356500  0.859600  1.0  -0.2833
  O  O57  1  0.875500  0.380700  0.971500  1.0  -0.7275
  O  O58  1  0.834000  0.365200  0.240800  1.0  -0.6125
  O  O59  1  0.607900  0.274900  0.132000  1.0  -0.6117
  O  O60  1  0.872700  0.435800  0.703400  1.0  -0.5811
  O  O61  1  0.662200  0.459800  0.798800  1.0  -0.6258
  O  O62  1  0.236300  0.248800  0.478700  1.0  -0.2479
  O  O63  1  0.124500  0.619300  0.028500  1.0  -0.727
  O  O64  1  0.166000  0.634800  0.759200  1.0  -0.6133
  O  O65  1  0.392100  0.725100  0.868000  1.0  -0.6112
  O  O66  1  0.127300  0.564200  0.296600  1.0  -0.583
  O  O67  1  0.337800  0.540200  0.201200  1.0  -0.6261
  O  O68  1  0.763700  0.751200  0.521300  1.0  -0.2477
