# generated using pymatgen
data_Cd2H8C15(N2O3)2
_symmetry_space_group_name_H-M   'P 1'
_cell_length_a   9.15300000
_cell_length_b   9.48660000
_cell_length_c   11.15310000
_cell_angle_alpha   90.92900000
_cell_angle_beta   99.74600000
_cell_angle_gamma   105.17400000
_symmetry_Int_Tables_number   1
_chemical_formula_structural   Cd2H8C15(N2O3)2
_chemical_formula_sum   'Cd4 H16 C30 N8 O12'
_cell_volume   919.31326620
_cell_formula_units_Z   2
loop_
 _symmetry_equiv_pos_site_id
 _symmetry_equiv_pos_as_xyz
  1  'x, y, z'
loop_
 _atom_site_type_symbol
 _atom_site_label
 _atom_site_symmetry_multiplicity
 _atom_site_fract_x
 _atom_site_fract_y
 _atom_site_fract_z
 _atom_site_occupancy
 _atom_site_charge
  Cd  Cd1  1  0.338390  0.133840  0.467130  1.0  1.0688
  Cd  Cd2  1  0.495820  0.476790  0.649970  1.0  1.0804
  Cd  Cd3  1  0.661610  0.866160  0.532870  1.0  1.0695
  Cd  Cd4  1  0.504180  0.523210  0.350030  1.0  1.0848
  H  H5  1  0.625500  0.702800  0.036300  1.0  0.1081
  H  H6  1  0.658300  0.054300  0.835200  1.0  0.1127
  H  H7  1  0.761400  0.107900  0.200700  1.0  0.1161
  H  H8  1  0.009000  0.234600  0.115700  1.0  0.1216
  H  H9  1  0.196700  0.416700  0.238700  1.0  0.0957
  H  H10  1  0.926300  0.687800  0.182900  1.0  0.0959
  H  H11  1  0.736500  0.504300  0.063600  1.0  0.1152
  H  H12  1  0.281000  0.383000  0.467000  1.0  0.4694
  H  H13  1  0.374500  0.297200  0.963700  1.0  0.1079
  H  H14  1  0.341700  0.945700  0.164800  1.0  0.1128
  H  H15  1  0.238600  0.892100  0.799300  1.0  0.1169
  H  H16  1  0.991000  0.765400  0.884300  1.0  0.1214
  H  H17  1  0.803300  0.583300  0.761300  1.0  0.0965
  H  H18  1  0.073700  0.312200  0.817100  1.0  0.0958
  H  H19  1  0.263500  0.495700  0.936400  1.0  0.1139
  H  H20  1  0.719000  0.617000  0.533000  1.0  0.4664
  C  C21  1  0.575500  0.764500  0.803300  1.0  0.7146
  C  C22  1  0.634000  0.862500  0.918000  1.0  -0.1432
  C  C23  1  0.648100  0.803800  0.031300  1.0  -0.0135
  C  C24  1  0.695700  0.894900  0.137200  1.0  -0.156
  C  C25  1  0.701100  0.829500  0.259500  1.0  0.6968
  C  C26  1  0.668200  0.014100  0.910700  1.0  -0.1157
  C  C27  1  0.730100  0.046300  0.130100  1.0  -0.1355
  C  C28  1  0.717000  0.103800  0.016500  1.0  0.2568
  C  C29  1  0.855200  0.352600  0.079500  1.0  0.2976
  C  C30  1  0.991800  0.325200  0.130200  1.0  -0.244
  C  C31  1  0.104300  0.434900  0.203500  1.0  -0.0433
  C  C32  1  0.080700  0.571100  0.224800  1.0  -0.0934
  C  C33  1  0.943000  0.596400  0.170800  1.0  -0.0221
  C  C34  1  0.829300  0.486900  0.098700  1.0  -0.1909
  C  C35  1  0.198000  0.687400  0.303300  1.0  0.3338
  C  C36  1  0.424500  0.235500  0.196700  1.0  0.714
  C  C37  1  0.366000  0.137500  0.082000  1.0  -0.1422
  C  C38  1  0.351900  0.196200  0.968700  1.0  -0.0145
  C  C39  1  0.304300  0.105100  0.862800  1.0  -0.1578
  C  C40  1  0.298900  0.170500  0.740500  1.0  0.701
  C  C41  1  0.331800  0.985900  0.089300  1.0  -0.1139
  C  C42  1  0.269900  0.953700  0.869900  1.0  -0.1358
  C  C43  1  0.283000  0.896200  0.983500  1.0  0.2568
  C  C44  1  0.144800  0.647400  0.920500  1.0  0.2971
  C  C45  1  0.008200  0.674800  0.869800  1.0  -0.2461
  C  C46  1  0.895700  0.565100  0.796500  1.0  -0.0415
  C  C47  1  0.919300  0.428900  0.775200  1.0  -0.0952
  C  C48  1  0.057000  0.403600  0.829200  1.0  -0.0243
  C  C49  1  0.170700  0.513100  0.901300  1.0  -0.1908
  C  C50  1  0.802000  0.312600  0.696700  1.0  0.3353
  N  N51  1  0.342600  0.684200  0.347460  1.0  -0.3141
  N  N52  1  0.407100  0.811500  0.414740  1.0  -0.0267
  N  N53  1  0.305600  0.886600  0.410300  1.0  0.0081
  N  N54  1  0.171600  0.811600  0.340700  1.0  -0.3548
  N  N55  1  0.657400  0.315800  0.652540  1.0  -0.3154
  N  N56  1  0.592900  0.188500  0.585260  1.0  -0.0256
  N  N57  1  0.694400  0.113400  0.589700  1.0  0.0107
  N  N58  1  0.828400  0.188400  0.659300  1.0  -0.3532
  O  O59  1  0.538500  0.820700  0.704920  1.0  -0.7254
  O  O60  1  0.561700  0.629490  0.813860  1.0  -0.6049
  O  O61  1  0.658800  0.693000  0.258500  1.0  -0.6649
  O  O62  1  0.748000  0.916100  0.353970  1.0  -0.6288
  O  O63  1  0.739300  0.252590  0.001750  1.0  -0.2479
  O  O64  1  0.360100  0.373730  0.468630  1.0  -0.971
  O  O65  1  0.461500  0.179300  0.295080  1.0  -0.7256
  O  O66  1  0.438300  0.370510  0.186140  1.0  -0.6051
  O  O67  1  0.341200  0.307000  0.741500  1.0  -0.665
  O  O68  1  0.252000  0.083900  0.646030  1.0  -0.6281
  O  O69  1  0.260700  0.747410  0.998250  1.0  -0.2471
  O  O70  1  0.639900  0.626270  0.531370  1.0  -0.9687
