# generated using pymatgen
data_Na2P6H114Pb(C29O3)6
_symmetry_space_group_name_H-M   'P 1'
_cell_length_a   11.22130000
_cell_length_b   39.84680000
_cell_length_c   22.49480000
_cell_angle_alpha   90.00000000
_cell_angle_beta   104.13500000
_cell_angle_gamma   90.00000000
_symmetry_Int_Tables_number   1
_chemical_formula_structural   Na2P6H114Pb(C29O3)6
_chemical_formula_sum   'Na4 P12 H228 Pb2 C348 O36'
_cell_volume   9753.63420849
_cell_formula_units_Z   2
loop_
 _symmetry_equiv_pos_site_id
 _symmetry_equiv_pos_as_xyz
  1  'x, y, z'
loop_
 _atom_site_type_symbol
 _atom_site_label
 _atom_site_symmetry_multiplicity
 _atom_site_fract_x
 _atom_site_fract_y
 _atom_site_fract_z
 _atom_site_occupancy
 _atom_site_charge
  Na  Na1  1  0.493500  0.496310  0.744530  1.0  0.9745
  Na  Na2  1  0.917800  0.430890  0.656400  1.0  0.8863
  Na  Na3  1  0.506500  0.996310  0.255470  1.0  0.9744
  Na  Na4  1  0.082200  0.930890  0.343600  1.0  0.8847
  P  P5  1  0.666560  0.495290  0.321510  1.0  1.0761
  P  P6  1  0.872590  0.405910  0.293650  1.0  1.0328
  P  P7  1  0.135700  0.201080  0.496470  1.0  1.0871
  P  P8  1  0.244290  0.259380  0.324880  1.0  1.004
  P  P9  1  0.817630  0.780150  0.072830  1.0  1.0571
  P  P10  1  0.533800  0.808120  0.909180  1.0  0.9926
  P  P11  1  0.333440  0.995290  0.678490  1.0  1.0744
  P  P12  1  0.127410  0.905910  0.706350  1.0  1.0353
  P  P13  1  0.864300  0.701080  0.503530  1.0  1.0877
  P  P14  1  0.755710  0.759380  0.675120  1.0  1.0065
  P  P15  1  0.182370  0.280150  0.927170  1.0  1.0563
  P  P16  1  0.466200  0.308120  0.090820  1.0  0.9918
  H  H17  1  0.041700  0.472700  0.218200  1.0  0.1029
  H  H18  1  0.084700  0.467200  0.124600  1.0  0.1072
  H  H19  1  0.929000  0.462700  0.036000  1.0  0.1224
  H  H20  1  0.573100  0.485000  0.102000  1.0  0.1207
  H  H21  1  0.533300  0.497300  0.195800  1.0  0.1094
  H  H22  1  0.899500  0.539400  0.272600  1.0  0.1112
  H  H23  1  0.017800  0.584100  0.311800  1.0  0.1164
  H  H24  1  0.180700  0.577500  0.399900  1.0  0.1015
  H  H25  1  0.194400  0.462700  0.437900  1.0  0.1045
  H  H26  1  0.086600  0.417500  0.392400  1.0  0.1043
  H  H27  1  0.758700  0.498200  0.967100  1.0  0.1225
  H  H28  1  0.595800  0.496400  0.880900  1.0  0.1065
  H  H29  1  0.428400  0.426400  0.964300  1.0  0.1253
  H  H30  1  0.589300  0.430100  0.050600  1.0  0.0951
  H  H31  1  0.390300  0.551200  0.422500  1.0  0.1188
  H  H32  1  0.555900  0.551300  0.506800  1.0  0.0998
  H  H33  1  0.357200  0.499100  0.603800  1.0  0.1052
  H  H34  1  0.189300  0.500100  0.520300  1.0  0.1168
  H  H35  1  0.560100  0.431900  0.300000  1.0  0.1147
  H  H36  1  0.361000  0.409900  0.278700  1.0  0.1187
  H  H37  1  0.195000  0.446000  0.274900  1.0  0.0872
  H  H38  1  0.222700  0.503400  0.284500  1.0  0.1223
  H  H39  1  0.421000  0.525200  0.305400  1.0  0.0994
  H  H40  1  0.653700  0.554700  0.243800  1.0  0.117
  H  H41  1  0.641400  0.612300  0.262000  1.0  0.1186
  H  H42  1  0.622800  0.631100  0.356100  1.0  0.1104
  H  H43  1  0.623500  0.593900  0.434700  1.0  0.1167
  H  H44  1  0.648300  0.536400  0.418300  1.0  0.1132
  H  H45  1  0.835100  0.407000  0.410900  1.0  0.1014
  H  H46  1  0.865700  0.371500  0.494000  1.0  0.11
  H  H47  1  0.954900  0.317900  0.490800  1.0  0.1305
  H  H48  1  0.015900  0.302800  0.402600  1.0  0.096
  H  H49  1  0.984500  0.338500  0.318500  1.0  0.1088
  H  H50  1  0.788200  0.396000  0.167900  1.0  0.1133
  H  H51  1  0.876400  0.379600  0.086800  1.0  0.114
  H  H52  1  0.079300  0.365100  0.107000  1.0  0.0979
  H  H53  1  0.203900  0.367200  0.206100  1.0  0.1089
  H  H54  1  0.120500  0.383900  0.287600  1.0  0.1214
  H  H55  1  0.530100  0.264900  0.444200  1.0  0.1063
  H  H56  1  0.637300  0.314000  0.467700  1.0  0.1091
  H  H57  1  0.560900  0.357400  0.518400  1.0  0.1152
  H  H58  1  0.204200  0.312200  0.557900  1.0  0.1034
  H  H59  1  0.111700  0.261100  0.545400  1.0  0.109
  H  H60  1  0.438800  0.204400  0.545600  1.0  0.111
  H  H61  1  0.553600  0.158900  0.589800  1.0  0.1134
  H  H62  1  0.626000  0.119900  0.529900  1.0  0.1042
  H  H63  1  0.499200  0.162400  0.331000  1.0  0.1137
  H  H64  1  0.378100  0.206700  0.287000  1.0  0.1059
  H  H65  1  0.190400  0.365800  0.502300  1.0  0.1075
  H  H66  1  0.119800  0.407300  0.556900  1.0  0.1079
  H  H67  1  0.453200  0.412300  0.675400  1.0  0.0924
  H  H68  1  0.522000  0.368200  0.626300  1.0  0.1215
  H  H69  1  0.789300  0.123800  0.463400  1.0  0.1185
  H  H70  1  0.877600  0.084500  0.410400  1.0  0.1127
  H  H71  1  0.542200  0.065900  0.298000  1.0  0.0829
  H  H72  1  0.455600  0.105600  0.349300  1.0  0.1032
  H  H73  1  0.914900  0.185800  0.529900  1.0  0.1265
  H  H74  1  0.705300  0.198700  0.488000  1.0  0.0944
  H  H75  1  0.648800  0.232500  0.402000  1.0  0.1049
  H  H76  1  0.795800  0.256200  0.359200  1.0  0.1145
  H  H77  1  0.002200  0.243900  0.399500  1.0  0.1095
  H  H78  1  0.096500  0.192800  0.365300  1.0  0.1083
  H  H79  1  0.130700  0.149300  0.301900  1.0  0.1208
  H  H80  1  0.219800  0.099100  0.345800  1.0  0.1065
  H  H81  1  0.270700  0.092300  0.451300  1.0  0.1208
  H  H82  1  0.235000  0.136000  0.514300  1.0  0.1129
  H  H83  1  0.478300  0.268700  0.290700  1.0  0.1098
  H  H84  1  0.613100  0.314300  0.295200  1.0  0.1133
  H  H85  1  0.564500  0.365800  0.332100  1.0  0.1055
  H  H86  1  0.375500  0.372900  0.359100  1.0  0.1183
  H  H87  1  0.244800  0.327300  0.355500  1.0  0.11
  H  H88  1  0.295100  0.269500  0.202800  1.0  0.1133
  H  H89  1  0.220600  0.243700  0.108900  1.0  0.0967
  H  H90  1  0.061200  0.204800  0.094100  1.0  0.1239
  H  H91  1  0.982600  0.190500  0.178400  1.0  0.1023
  H  H92  1  0.057700  0.214500  0.271800  1.0  0.1049
  H  H93  1  0.349900  0.745800  0.981000  1.0  0.0987
  H  H94  1  0.230100  0.703400  0.928300  1.0  0.1197
  H  H95  1  0.322600  0.658900  0.886300  1.0  0.1187
  H  H96  1  0.741400  0.676800  0.959700  1.0  0.1243
  H  H97  1  0.858700  0.717700  0.020500  1.0  0.1105
  H  H98  1  0.551300  0.737900  0.114900  1.0  0.1168
  H  H99  1  0.485300  0.741000  0.204500  1.0  0.122
  H  H100  1  0.411800  0.792300  0.233700  1.0  0.1065
  H  H101  1  0.380800  0.862100  0.065000  1.0  0.1055
  H  H102  1  0.419200  0.856400  0.971200  1.0  0.0991
  H  H103  1  0.475600  0.606700  0.924400  1.0  0.133
  H  H104  1  0.549800  0.564600  0.867900  1.0  0.1121
  H  H105  1  0.703500  0.636500  0.784400  1.0  0.1197
  H  H106  1  0.638600  0.676500  0.841900  1.0  0.0962
  H  H107  1  0.226100  0.830900  0.207300  1.0  0.1179
  H  H108  1  0.160400  0.881700  0.240700  1.0  0.1083
  H  H109  1  0.441100  0.929500  0.192500  1.0  0.0999
  H  H110  1  0.507100  0.879500  0.162100  1.0  0.1079
  H  H111  1  0.880700  0.714500  0.125400  1.0  0.0958
  H  H112  1  0.976800  0.694700  0.222600  1.0  0.1126
  H  H113  1  0.022300  0.729900  0.305300  1.0  0.1268
  H  H114  1  0.984200  0.788500  0.286300  1.0  0.1062
  H  H115  1  0.896700  0.808300  0.188100  1.0  0.1229
  H  H116  1  0.079500  0.769000  0.115000  1.0  0.1091
  H  H117  1  0.248100  0.773200  0.067400  1.0  0.1137
  H  H118  1  0.211200  0.791500  0.966300  1.0  0.099
  H  H119  1  0.014200  0.801500  0.910400  1.0  0.0972
  H  H120  1  0.846700  0.797100  0.956300  1.0  0.1244
  H  H121  1  0.708000  0.854000  0.968300  1.0  0.1141
  H  H122  1  0.759500  0.909000  0.954500  1.0  0.1093
  H  H123  1  0.640000  0.941500  0.875200  1.0  0.123
  H  H124  1  0.466400  0.916800  0.808600  1.0  0.1064
  H  H125  1  0.424300  0.860200  0.819900  1.0  0.1027
  H  H126  1  0.276400  0.829400  0.875500  1.0  0.1022
  H  H127  1  0.101500  0.810400  0.802200  1.0  0.12
  H  H128  1  0.118000  0.761900  0.746700  1.0  0.1014
  H  H129  1  0.295500  0.734600  0.757800  1.0  0.1262
  H  H130  1  0.472900  0.754000  0.825900  1.0  0.1045
  H  H131  1  0.958300  0.972700  0.781800  1.0  0.1036
  H  H132  1  0.915300  0.967200  0.875400  1.0  0.108
  H  H133  1  0.071000  0.962700  0.964000  1.0  0.1226
  H  H134  1  0.426900  0.985000  0.898000  1.0  0.1208
  H  H135  1  0.466700  0.997300  0.804200  1.0  0.1106
  H  H136  1  0.100500  0.039400  0.727400  1.0  0.111
  H  H137  1  0.982200  0.084100  0.688200  1.0  0.1166
  H  H138  1  0.819300  0.077500  0.600100  1.0  0.1019
  H  H139  1  0.805600  0.962700  0.562100  1.0  0.105
  H  H140  1  0.913400  0.917500  0.607600  1.0  0.1039
  H  H141  1  0.241300  0.998200  0.032900  1.0  0.1228
  H  H142  1  0.404200  0.996400  0.119100  1.0  0.107
  H  H143  1  0.571600  0.926400  0.035700  1.0  0.125
  H  H144  1  0.410700  0.930100  0.949400  1.0  0.0951
  H  H145  1  0.609700  0.051200  0.577500  1.0  0.1181
  H  H146  1  0.444100  0.051300  0.493200  1.0  0.1005
  H  H147  1  0.642800  0.999100  0.396200  1.0  0.1046
  H  H148  1  0.810700  0.000100  0.479700  1.0  0.1167
  H  H149  1  0.439900  0.931900  0.700000  1.0  0.114
  H  H150  1  0.639000  0.909900  0.721300  1.0  0.1176
  H  H151  1  0.805000  0.946000  0.725100  1.0  0.088
  H  H152  1  0.777300  0.003400  0.715500  1.0  0.1215
  H  H153  1  0.579000  0.025200  0.694600  1.0  0.0989
  H  H154  1  0.346300  0.054700  0.756200  1.0  0.1175
  H  H155  1  0.358600  0.112300  0.738000  1.0  0.1189
  H  H156  1  0.377200  0.131100  0.643900  1.0  0.1106
  H  H157  1  0.376500  0.093900  0.565300  1.0  0.1158
  H  H158  1  0.351700  0.036400  0.581700  1.0  0.1136
  H  H159  1  0.164900  0.907000  0.589100  1.0  0.1012
  H  H160  1  0.134300  0.871500  0.506000  1.0  0.1096
  H  H161  1  0.045100  0.817900  0.509200  1.0  0.1301
  H  H162  1  0.984100  0.802800  0.597400  1.0  0.0971
  H  H163  1  0.015500  0.838500  0.681500  1.0  0.1088
  H  H164  1  0.211800  0.896000  0.832100  1.0  0.1133
  H  H165  1  0.123600  0.879600  0.913200  1.0  0.1135
  H  H166  1  0.920700  0.865100  0.893000  1.0  0.098
  H  H167  1  0.796100  0.867200  0.793900  1.0  0.1093
  H  H168  1  0.879500  0.883900  0.712400  1.0  0.1208
  H  H169  1  0.469900  0.764900  0.555800  1.0  0.1059
  H  H170  1  0.362700  0.814000  0.532300  1.0  0.1105
  H  H171  1  0.439100  0.857400  0.481600  1.0  0.1152
  H  H172  1  0.795800  0.812200  0.442100  1.0  0.1037
  H  H173  1  0.888300  0.761100  0.454600  1.0  0.11
  H  H174  1  0.561200  0.704400  0.454400  1.0  0.1132
  H  H175  1  0.446400  0.658900  0.410200  1.0  0.1142
  H  H176  1  0.374000  0.619900  0.470100  1.0  0.104
  H  H177  1  0.500800  0.662400  0.669000  1.0  0.1137
  H  H178  1  0.621900  0.706700  0.713000  1.0  0.1057
  H  H179  1  0.809600  0.865800  0.497700  1.0  0.1074
  H  H180  1  0.880200  0.907300  0.443100  1.0  0.1081
  H  H181  1  0.546800  0.912300  0.324600  1.0  0.0925
  H  H182  1  0.478000  0.868200  0.373700  1.0  0.1222
  H  H183  1  0.210700  0.623800  0.536600  1.0  0.1192
  H  H184  1  0.122400  0.584500  0.589600  1.0  0.1121
  H  H185  1  0.457800  0.565900  0.702000  1.0  0.0835
  H  H186  1  0.544400  0.605600  0.650700  1.0  0.1034
  H  H187  1  0.085100  0.685800  0.470100  1.0  0.1262
  H  H188  1  0.294700  0.698700  0.512000  1.0  0.0941
  H  H189  1  0.351200  0.732500  0.598000  1.0  0.1053
  H  H190  1  0.204200  0.756200  0.640800  1.0  0.1139
  H  H191  1  0.997800  0.743900  0.600500  1.0  0.1099
  H  H192  1  0.903500  0.692800  0.634700  1.0  0.109
  H  H193  1  0.869300  0.649300  0.698100  1.0  0.1206
  H  H194  1  0.780200  0.599100  0.654200  1.0  0.1066
  H  H195  1  0.729300  0.592300  0.548700  1.0  0.1209
  H  H196  1  0.765000  0.636000  0.485700  1.0  0.1124
  H  H197  1  0.521700  0.768700  0.709300  1.0  0.1097
  H  H198  1  0.386900  0.814300  0.704800  1.0  0.1141
  H  H199  1  0.435500  0.865800  0.667900  1.0  0.1054
  H  H200  1  0.624500  0.872900  0.640900  1.0  0.1185
  H  H201  1  0.755200  0.827300  0.644500  1.0  0.1102
  H  H202  1  0.704900  0.769500  0.797200  1.0  0.1131
  H  H203  1  0.779400  0.743700  0.891100  1.0  0.0968
  H  H204  1  0.938800  0.704800  0.905900  1.0  0.1232
  H  H205  1  0.017400  0.690500  0.821600  1.0  0.1029
  H  H206  1  0.942300  0.714500  0.728200  1.0  0.1037
  H  H207  1  0.650100  0.245800  0.019000  1.0  0.0987
  H  H208  1  0.769900  0.203400  0.071700  1.0  0.1187
  H  H209  1  0.677400  0.158900  0.113700  1.0  0.1191
  H  H210  1  0.258600  0.176800  0.040300  1.0  0.1239
  H  H211  1  0.141300  0.217700  0.979500  1.0  0.1099
  H  H212  1  0.448700  0.237900  0.885100  1.0  0.117
  H  H213  1  0.514700  0.241000  0.795500  1.0  0.1208
  H  H214  1  0.588200  0.292300  0.766300  1.0  0.1071
  H  H215  1  0.619200  0.362100  0.935000  1.0  0.1048
  H  H216  1  0.580800  0.356400  0.028800  1.0  0.0988
  H  H217  1  0.524400  0.106700  0.075600  1.0  0.1333
  H  H218  1  0.450200  0.064600  0.132100  1.0  0.1119
  H  H219  1  0.296500  0.136500  0.215600  1.0  0.1205
  H  H220  1  0.361400  0.176500  0.158100  1.0  0.0965
  H  H221  1  0.773900  0.330900  0.792700  1.0  0.1177
  H  H222  1  0.839600  0.381700  0.759300  1.0  0.1086
  H  H223  1  0.558900  0.429500  0.807500  1.0  0.1002
  H  H224  1  0.492900  0.379500  0.837900  1.0  0.1081
  H  H225  1  0.119300  0.214500  0.874600  1.0  0.0962
  H  H226  1  0.023200  0.194700  0.777400  1.0  0.1126
  H  H227  1  0.977700  0.229900  0.694700  1.0  0.1267
  H  H228  1  0.015800  0.288500  0.713700  1.0  0.1065
  H  H229  1  0.103300  0.308300  0.811900  1.0  0.1218
  H  H230  1  0.920500  0.269000  0.885000  1.0  0.1084
  H  H231  1  0.751900  0.273200  0.932600  1.0  0.1148
  H  H232  1  0.788800  0.291500  0.033700  1.0  0.0996
  H  H233  1  0.985800  0.301500  0.089600  1.0  0.0961
  H  H234  1  0.153300  0.297100  0.043700  1.0  0.1239
  H  H235  1  0.292000  0.354000  0.031700  1.0  0.1141
  H  H236  1  0.240500  0.409000  0.045500  1.0  0.1098
  H  H237  1  0.360000  0.441500  0.124800  1.0  0.1231
  H  H238  1  0.533600  0.416800  0.191400  1.0  0.1068
  H  H239  1  0.575700  0.360200  0.180100  1.0  0.103
  H  H240  1  0.723600  0.329400  0.124500  1.0  0.1025
  H  H241  1  0.898500  0.310400  0.197800  1.0  0.1189
  H  H242  1  0.882000  0.261900  0.253300  1.0  0.1023
  H  H243  1  0.704500  0.234600  0.242200  1.0  0.1269
  H  H244  1  0.527100  0.254000  0.174100  1.0  0.1056
  Pb  Pb245  1  0.186040  0.485700  0.754420  1.0  0.815
  Pb  Pb246  1  0.813960  0.985700  0.245580  1.0  0.8134
  C  C247  1  0.707400  0.488190  0.249100  1.0  -0.1714
  C  C248  1  0.825300  0.479970  0.246500  1.0  0.0078
  C  C249  1  0.851700  0.475930  0.186900  1.0  -0.0778
  C  C250  1  0.976500  0.472350  0.182200  1.0  -0.112
  C  C251  1  0.001500  0.468500  0.127100  1.0  -0.0719
  C  C252  1  0.908900  0.466200  0.074100  1.0  -0.1494
  C  C253  1  0.787800  0.469100  0.076000  1.0  0.0208
  C  C254  1  0.757900  0.476060  0.134400  1.0  -0.054
  C  C255  1  0.637800  0.484160  0.138200  1.0  -0.1017
  C  C256  1  0.613800  0.490830  0.194000  1.0  -0.0448
  C  C257  1  0.958200  0.443160  0.326000  1.0  -0.1929
  C  C258  1  0.928500  0.474700  0.302600  1.0  -0.0239
  C  C259  1  0.996700  0.503560  0.330200  1.0  0.0292
  C  C260  1  0.968400  0.536300  0.306300  1.0  -0.0685
  C  C261  1  0.035700  0.562600  0.329900  1.0  -0.118
  C  C262  1  0.134700  0.558400  0.382500  1.0  -0.1845
  C  C263  1  0.165400  0.528020  0.408400  1.0  0.0025
  C  C264  1  0.098100  0.499340  0.382500  1.0  0.0048
  C  C265  1  0.126900  0.466190  0.403600  1.0  -0.13
  C  C266  1  0.062500  0.439350  0.377000  1.0  -0.0617
  C  C267  1  0.685600  0.465490  0.019300  1.0  0.0359
  C  C268  1  0.689500  0.484400  0.966900  1.0  -0.1397
  C  C269  1  0.593900  0.483000  0.915600  1.0  0.0024
  C  C270  1  0.493500  0.461830  0.914300  1.0  -0.1394
  C  C271  1  0.493900  0.441630  0.965100  1.0  -0.1121
  C  C272  1  0.589700  0.443970  0.016200  1.0  -0.0925
  C  C273  1  0.381000  0.463710  0.861700  1.0  0.6991
  C  C274  1  0.270400  0.525780  0.462300  1.0  0.0345
  C  C275  1  0.383000  0.540820  0.459400  1.0  -0.1312
  C  C276  1  0.481700  0.540580  0.509300  1.0  -0.0469
  C  C277  1  0.474700  0.524650  0.564100  1.0  -0.1454
  C  C278  1  0.364000  0.509810  0.567000  1.0  -0.0426
  C  C279  1  0.264000  0.510400  0.517200  1.0  -0.0905
  C  C280  1  0.583700  0.524460  0.617200  1.0  0.7336
  C  C281  1  0.510200  0.480880  0.306600  1.0  -0.2604
  C  C282  1  0.491800  0.446380  0.297600  1.0  -0.066
  C  C283  1  0.374300  0.433300  0.285000  1.0  -0.1086
  C  C284  1  0.275600  0.455000  0.281900  1.0  -0.0868
  C  C285  1  0.291400  0.488900  0.288400  1.0  -0.1207
  C  C286  1  0.409100  0.501600  0.300800  1.0  -0.037
  C  C287  1  0.656200  0.539940  0.330000  1.0  -0.1519
  C  C288  1  0.650800  0.562500  0.283300  1.0  -0.0897
  C  C289  1  0.641000  0.596700  0.293800  1.0  -0.1041
  C  C290  1  0.630800  0.607700  0.349600  1.0  -0.1315
  C  C291  1  0.631900  0.586000  0.396100  1.0  -0.1329
  C  C292  1  0.645900  0.551800  0.385800  1.0  -0.0478
  C  C293  1  0.906900  0.376480  0.355800  1.0  -0.2281
  C  C294  1  0.872000  0.385650  0.409000  1.0  -0.0625
  C  C295  1  0.889800  0.364540  0.458300  1.0  -0.0737
  C  C296  1  0.943400  0.332800  0.456800  1.0  -0.1181
  C  C297  1  0.978300  0.323970  0.404500  1.0  -0.0819
  C  C298  1  0.960200  0.345330  0.354200  1.0  -0.0898
  C  C299  1  0.945800  0.391320  0.235000  1.0  -0.1661
  C  C300  1  0.872800  0.390200  0.176000  1.0  -0.0621
  C  C301  1  0.925400  0.380300  0.127700  1.0  -0.0862
  C  C302  1  0.045100  0.371900  0.139700  1.0  -0.0744
  C  C303  1  0.119500  0.373100  0.198700  1.0  -0.084
  C  C304  1  0.070200  0.382930  0.247000  1.0  -0.0705
  C  C305  1  0.219900  0.239380  0.493000  1.0  -0.1275
  C  C306  1  0.316600  0.245490  0.467600  1.0  0.0109
  C  C307  1  0.387000  0.276880  0.482200  1.0  -0.019
  C  C308  1  0.498600  0.282080  0.465400  1.0  -0.0531
  C  C309  1  0.561600  0.311100  0.478900  1.0  -0.1
  C  C310  1  0.515900  0.337060  0.509300  1.0  -0.1615
  C  C311  1  0.406700  0.333400  0.526300  1.0  -0.0313
  C  C312  1  0.340800  0.302200  0.515600  1.0  0.03
  C  C313  1  0.236400  0.295140  0.536700  1.0  -0.1196
  C  C314  1  0.179500  0.265220  0.528100  1.0  -0.1074
  C  C315  1  0.340200  0.225390  0.365200  1.0  -0.1521
  C  C316  1  0.363300  0.221090  0.427500  1.0  -0.0143
  C  C317  1  0.438800  0.193520  0.456400  1.0  -0.0354
  C  C318  1  0.467500  0.188700  0.520400  1.0  -0.0544
  C  C319  1  0.535800  0.161880  0.546600  1.0  -0.0777
  C  C320  1  0.580000  0.138700  0.510700  1.0  -0.1141
  C  C321  1  0.558900  0.142300  0.449000  1.0  -0.012
  C  C322  1  0.485200  0.170300  0.419500  1.0  0.005
  C  C323  1  0.463800  0.176670  0.355900  1.0  -0.1543
  C  C324  1  0.392700  0.203130  0.329900  1.0  -0.062
  C  C325  1  0.362900  0.361760  0.559500  1.0  0.0656
  C  C326  1  0.243100  0.374470  0.538700  1.0  -0.0919
  C  C327  1  0.201800  0.399410  0.570700  1.0  -0.0259
  C  C328  1  0.278000  0.413280  0.623100  1.0  -0.1287
  C  C329  1  0.398600  0.401950  0.641400  1.0  -0.0301
  C  C330  1  0.440400  0.376250  0.611600  1.0  -0.1577
  C  C331  1  0.230000  0.439480  0.659300  1.0  0.7066
  C  C332  1  0.612100  0.118050  0.412400  1.0  0.0363
  C  C333  1  0.739100  0.111880  0.429900  1.0  -0.1372
  C  C334  1  0.791500  0.088390  0.398500  1.0  -0.0334
  C  C335  1  0.718600  0.070340  0.349400  1.0  -0.1673
  C  C336  1  0.592700  0.077490  0.331800  1.0  -0.0354
  C  C337  1  0.541000  0.100960  0.362400  1.0  -0.0957
  C  C338  1  0.771700  0.042910  0.319500  1.0  0.7286
  C  C339  1  0.977000  0.213070  0.465900  1.0  -0.1727
  C  C340  1  0.890500  0.199690  0.494700  1.0  -0.0652
  C  C341  1  0.766600  0.207500  0.469800  1.0  -0.1091
  C  C342  1  0.733300  0.227900  0.419200  1.0  -0.085
  C  C343  1  0.819600  0.241630  0.393400  1.0  -0.0763
  C  C344  1  0.941700  0.234190  0.417200  1.0  -0.0873
  C  C345  1  0.163400  0.168420  0.445800  1.0  -0.1992
  C  C346  1  0.132100  0.172380  0.382800  1.0  -0.0549
  C  C347  1  0.152400  0.146630  0.345200  1.0  -0.1125
  C  C348  1  0.204900  0.116780  0.371400  1.0  -0.1025
  C  C349  1  0.235400  0.112730  0.433700  1.0  -0.1022
  C  C350  1  0.214200  0.138780  0.471100  1.0  -0.0433
  C  C351  1  0.348900  0.294080  0.323100  1.0  -0.1464
  C  C352  1  0.458400  0.289910  0.305000  1.0  -0.0631
  C  C353  1  0.538800  0.316960  0.307800  1.0  -0.0989
  C  C354  1  0.509200  0.347500  0.328900  1.0  -0.0948
  C  C355  1  0.397200  0.351620  0.345900  1.0  -0.093
  C  C356  1  0.319500  0.324690  0.343300  1.0  -0.0455
  C  C357  1  0.187200  0.243460  0.248200  1.0  -0.2482
  C  C358  1  0.232800  0.252870  0.198200  1.0  -0.1413
  C  C359  1  0.186700  0.237900  0.142300  1.0  -0.0808
  C  C360  1  0.093100  0.214700  0.133200  1.0  -0.0866
  C  C361  1  0.047200  0.206500  0.183300  1.0  -0.0955
  C  C362  1  0.092100  0.220500  0.238600  1.0  -0.0769
  C  C363  1  0.717000  0.749090  0.028500  1.0  -0.1702
  C  C364  1  0.591700  0.752480  0.011700  1.0  -0.0082
  C  C365  1  0.515200  0.726190  0.977500  1.0  -0.0224
  C  C366  1  0.387900  0.727370  0.966100  1.0  -0.0368
  C  C367  1  0.316800  0.702700  0.934200  1.0  -0.0933
  C  C368  1  0.372800  0.675800  0.909600  1.0  -0.1259
  C  C369  1  0.496000  0.673860  0.918700  1.0  -0.0169
  C  C370  1  0.573200  0.698030  0.957000  1.0  0.0228
  C  C371  1  0.702200  0.695460  0.973200  1.0  -0.1655
  C  C372  1  0.771900  0.720070  0.008800  1.0  -0.0738
  C  C373  1  0.501000  0.809400  0.984700  1.0  -0.2101
  C  C374  1  0.528300  0.783250  0.026500  1.0  -0.0799
  C  C375  1  0.496800  0.785330  0.083800  1.0  0.0101
  C  C376  1  0.514400  0.757980  0.124800  1.0  -0.0968
  C  C377  1  0.478900  0.760070  0.178500  1.0  -0.113
  C  C378  1  0.432600  0.790810  0.195300  1.0  -0.1173
  C  C379  1  0.417000  0.817940  0.158400  1.0  -0.0066
  C  C380  1  0.445700  0.816150  0.101100  1.0  0.0094
  C  C381  1  0.417800  0.841940  0.055600  1.0  -0.1167
  C  C382  1  0.441800  0.838850  0.000400  1.0  -0.0786
  C  C383  1  0.549300  0.645930  0.887300  1.0  0.0578
  C  C384  1  0.522700  0.612640  0.896100  1.0  -0.1498
  C  C385  1  0.567100  0.587580  0.862300  1.0  -0.0205
  C  C386  1  0.634000  0.596170  0.821800  1.0  -0.1396
  C  C387  1  0.658700  0.630160  0.813400  1.0  -0.1013
  C  C388  1  0.618400  0.653700  0.846700  1.0  -0.0842
  C  C389  1  0.679500  0.569560  0.784200  1.0  0.744
  C  C390  1  0.371500  0.850330  0.179700  1.0  0.0635
  C  C391  1  0.269400  0.851040  0.204100  1.0  -0.1408
  C  C392  1  0.230200  0.881460  0.223800  1.0  -0.0541
  C  C393  1  0.291400  0.911200  0.219200  1.0  -0.1257
  C  C394  1  0.396600  0.909610  0.195600  1.0  -0.0564
  C  C395  1  0.435000  0.879940  0.177100  1.0  -0.1258
  C  C396  1  0.248600  0.943930  0.238300  1.0  0.712
  C  C397  1  0.874900  0.762300  0.147300  1.0  -0.0384
  C  C398  1  0.901300  0.730000  0.158400  1.0  -0.0672
  C  C399  1  0.958500  0.717900  0.217200  1.0  -0.1119
  C  C400  1  0.987000  0.738100  0.265100  1.0  -0.1514
  C  C401  1  0.963000  0.773000  0.253300  1.0  -0.1091
  C  C402  1  0.909500  0.784900  0.195100  1.0  -0.0808
  C  C403  1  0.948500  0.781910  0.039800  1.0  -0.1482
  C  C404  1  0.065400  0.775400  0.073200  1.0  -0.0267
  C  C405  1  0.166900  0.778300  0.044900  1.0  -0.1406
  C  C406  1  0.144500  0.788700  0.985000  1.0  -0.0449
  C  C407  1  0.028200  0.795000  0.952200  1.0  -0.0606
  C  C408  1  0.927600  0.792100  0.979300  1.0  -0.1064
  C  C409  1  0.562300  0.851700  0.894900  1.0  -0.1842
  C  C410  1  0.660300  0.866590  0.935000  1.0  -0.0739
  C  C411  1  0.689800  0.899400  0.927300  1.0  -0.0872
  C  C412  1  0.619300  0.918700  0.880200  1.0  -0.1075
  C  C413  1  0.517500  0.904000  0.840400  1.0  -0.1038
  C  C414  1  0.491800  0.870470  0.847800  1.0  -0.0375
  C  C415  1  0.394300  0.794910  0.857000  1.0  -0.1903
  C  C416  1  0.282600  0.810500  0.850700  1.0  -0.0385
  C  C417  1  0.177800  0.798900  0.808100  1.0  -0.0912
  C  C418  1  0.188800  0.770300  0.775000  1.0  -0.1036
  C  C419  1  0.292300  0.754300  0.781300  1.0  -0.0975
  C  C420  1  0.397700  0.765800  0.821700  1.0  -0.052
  C  C421  1  0.292600  0.988190  0.750900  1.0  -0.1707
  C  C422  1  0.174700  0.979970  0.753500  1.0  0.0076
  C  C423  1  0.148300  0.975930  0.813100  1.0  -0.0784
  C  C424  1  0.023500  0.972350  0.817800  1.0  -0.1112
  C  C425  1  0.998500  0.968500  0.872900  1.0  -0.074
  C  C426  1  0.091100  0.966200  0.925900  1.0  -0.151
  C  C427  1  0.212200  0.969100  0.924000  1.0  0.0187
  C  C428  1  0.242100  0.976060  0.865600  1.0  -0.0546
  C  C429  1  0.362200  0.984160  0.861800  1.0  -0.1016
  C  C430  1  0.386200  0.990830  0.806000  1.0  -0.0447
  C  C431  1  0.041800  0.943160  0.674000  1.0  -0.1923
  C  C432  1  0.071500  0.974700  0.697400  1.0  -0.0243
  C  C433  1  0.003300  0.003560  0.669800  1.0  0.0276
  C  C434  1  0.031600  0.036300  0.693700  1.0  -0.0695
  C  C435  1  0.964300  0.062600  0.670100  1.0  -0.1183
  C  C436  1  0.865300  0.058400  0.617500  1.0  -0.1852
  C  C437  1  0.834600  0.028020  0.591600  1.0  0.0038
  C  C438  1  0.901900  0.999340  0.617500  1.0  0.0064
  C  C439  1  0.873100  0.966190  0.596400  1.0  -0.1287
  C  C440  1  0.937500  0.939350  0.623000  1.0  -0.0596
  C  C441  1  0.314400  0.965490  0.980700  1.0  0.0352
  C  C442  1  0.310500  0.984400  0.033100  1.0  -0.1407
  C  C443  1  0.406100  0.983000  0.084400  1.0  0.0016
  C  C444  1  0.506500  0.961830  0.085700  1.0  -0.1404
  C  C445  1  0.506100  0.941630  0.034900  1.0  -0.1111
  C  C446  1  0.410300  0.943970  0.983800  1.0  -0.0924
  C  C447  1  0.619000  0.963710  0.138300  1.0  0.7004
  C  C448  1  0.729600  0.025780  0.537700  1.0  0.0352
  C  C449  1  0.617000  0.040820  0.540600  1.0  -0.1303
  C  C450  1  0.518300  0.040580  0.490700  1.0  -0.0451
  C  C451  1  0.525300  0.024650  0.435900  1.0  -0.1458
  C  C452  1  0.636000  0.009810  0.433000  1.0  -0.0439
  C  C453  1  0.736000  0.010400  0.482800  1.0  -0.09
  C  C454  1  0.416300  0.024460  0.382800  1.0  0.7289
  C  C455  1  0.489800  0.980880  0.693400  1.0  -0.258
  C  C456  1  0.508200  0.946380  0.702400  1.0  -0.0658
  C  C457  1  0.625700  0.933300  0.715000  1.0  -0.1091
  C  C458  1  0.724400  0.955000  0.718100  1.0  -0.0886
  C  C459  1  0.708600  0.988900  0.711600  1.0  -0.1192
  C  C460  1  0.590900  0.001600  0.699200  1.0  -0.0368
  C  C461  1  0.343800  0.039940  0.670000  1.0  -0.1522
  C  C462  1  0.349200  0.062500  0.716700  1.0  -0.0901
  C  C463  1  0.359000  0.096700  0.706200  1.0  -0.1044
  C  C464  1  0.369200  0.107700  0.650400  1.0  -0.1304
  C  C465  1  0.368100  0.086000  0.603900  1.0  -0.1339
  C  C466  1  0.354100  0.051800  0.614200  1.0  -0.0481
  C  C467  1  0.093100  0.876480  0.644200  1.0  -0.2264
  C  C468  1  0.128000  0.885650  0.591000  1.0  -0.0614
  C  C469  1  0.110200  0.864540  0.541700  1.0  -0.074
  C  C470  1  0.056600  0.832800  0.543200  1.0  -0.119
  C  C471  1  0.021700  0.823970  0.595500  1.0  -0.0806
  C  C472  1  0.039800  0.845330  0.645800  1.0  -0.089
  C  C473  1  0.054200  0.891320  0.765000  1.0  -0.1665
  C  C474  1  0.127200  0.890200  0.824000  1.0  -0.0619
  C  C475  1  0.074600  0.880300  0.872300  1.0  -0.0843
  C  C476  1  0.954900  0.871900  0.860300  1.0  -0.073
  C  C477  1  0.880500  0.873100  0.801300  1.0  -0.0844
  C  C478  1  0.929800  0.882930  0.753000  1.0  -0.0697
  C  C479  1  0.780100  0.739380  0.507000  1.0  -0.126
  C  C480  1  0.683400  0.745490  0.532400  1.0  0.0096
  C  C481  1  0.613000  0.776880  0.517800  1.0  -0.0175
  C  C482  1  0.501400  0.782080  0.534600  1.0  -0.0529
  C  C483  1  0.438400  0.811100  0.521100  1.0  -0.1018
  C  C484  1  0.484100  0.837060  0.490700  1.0  -0.1611
  C  C485  1  0.593300  0.833400  0.473700  1.0  -0.0325
  C  C486  1  0.659200  0.802200  0.484400  1.0  0.0292
  C  C487  1  0.763600  0.795140  0.463300  1.0  -0.1178
  C  C488  1  0.820500  0.765220  0.471900  1.0  -0.106
  C  C489  1  0.659800  0.725390  0.634800  1.0  -0.1534
  C  C490  1  0.636700  0.721090  0.572500  1.0  -0.0151
  C  C491  1  0.561200  0.693520  0.543600  1.0  -0.0355
  C  C492  1  0.532500  0.688700  0.479600  1.0  -0.0543
  C  C493  1  0.464200  0.661880  0.453400  1.0  -0.084
  C  C494  1  0.420000  0.638700  0.489300  1.0  -0.1147
  C  C495  1  0.441100  0.642300  0.551000  1.0  -0.0128
  C  C496  1  0.514800  0.670300  0.580500  1.0  0.0051
  C  C497  1  0.536200  0.676670  0.644100  1.0  -0.1564
  C  C498  1  0.607300  0.703130  0.670100  1.0  -0.0613
  C  C499  1  0.637100  0.861760  0.440500  1.0  0.0645
  C  C500  1  0.756900  0.874470  0.461300  1.0  -0.0898
  C  C501  1  0.798200  0.899410  0.429300  1.0  -0.0261
  C  C502  1  0.722000  0.913280  0.376900  1.0  -0.1283
  C  C503  1  0.601400  0.901950  0.358600  1.0  -0.0303
  C  C504  1  0.559600  0.876250  0.388400  1.0  -0.1573
  C  C505  1  0.770000  0.939480  0.340700  1.0  0.7072
  C  C506  1  0.387900  0.618050  0.587600  1.0  0.0367
  C  C507  1  0.260900  0.611880  0.570100  1.0  -0.1365
  C  C508  1  0.208500  0.588390  0.601500  1.0  -0.0309
  C  C509  1  0.281400  0.570340  0.650600  1.0  -0.1683
  C  C510  1  0.407300  0.577490  0.668200  1.0  -0.0357
  C  C511  1  0.459000  0.600960  0.637600  1.0  -0.098
  C  C512  1  0.228300  0.542910  0.680500  1.0  0.7304
  C  C513  1  0.023000  0.713070  0.534100  1.0  -0.1702
  C  C514  1  0.109500  0.699690  0.505300  1.0  -0.0659
  C  C515  1  0.233400  0.707500  0.530200  1.0  -0.1094
  C  C516  1  0.266700  0.727900  0.580800  1.0  -0.0883
  C  C517  1  0.180400  0.741630  0.606600  1.0  -0.0768
  C  C518  1  0.058300  0.734190  0.582800  1.0  -0.0867
  C  C519  1  0.836600  0.668420  0.554200  1.0  -0.1953
  C  C520  1  0.867900  0.672380  0.617200  1.0  -0.0561
  C  C521  1  0.847600  0.646630  0.654800  1.0  -0.1107
  C  C522  1  0.795100  0.616780  0.628600  1.0  -0.102
  C  C523  1  0.764600  0.612730  0.566300  1.0  -0.1007
  C  C524  1  0.785800  0.638780  0.528900  1.0  -0.0429
  C  C525  1  0.651100  0.794080  0.676900  1.0  -0.1454
  C  C526  1  0.541600  0.789910  0.695000  1.0  -0.0651
  C  C527  1  0.461200  0.816960  0.692200  1.0  -0.0991
  C  C528  1  0.490800  0.847500  0.671100  1.0  -0.0942
  C  C529  1  0.602800  0.851620  0.654100  1.0  -0.093
  C  C530  1  0.680500  0.824690  0.656700  1.0  -0.0469
  C  C531  1  0.812800  0.743460  0.751800  1.0  -0.249
  C  C532  1  0.767200  0.752870  0.801800  1.0  -0.1425
  C  C533  1  0.813300  0.737900  0.857700  1.0  -0.0791
  C  C534  1  0.906900  0.714700  0.866800  1.0  -0.0844
  C  C535  1  0.952800  0.706500  0.816700  1.0  -0.0947
  C  C536  1  0.907900  0.720500  0.761400  1.0  -0.0774
  C  C537  1  0.283000  0.249090  0.971500  1.0  -0.1695
  C  C538  1  0.408300  0.252480  0.988300  1.0  -0.0088
  C  C539  1  0.484800  0.226190  0.022500  1.0  -0.0218
  C  C540  1  0.612100  0.227370  0.033900  1.0  -0.0365
  C  C541  1  0.683200  0.202700  0.065800  1.0  -0.0896
  C  C542  1  0.627200  0.175800  0.090400  1.0  -0.1263
  C  C543  1  0.504000  0.173860  0.081300  1.0  -0.0163
  C  C544  1  0.426800  0.198030  0.043000  1.0  0.0241
  C  C545  1  0.297800  0.195460  0.026800  1.0  -0.1659
  C  C546  1  0.228100  0.220070  0.991200  1.0  -0.0731
  C  C547  1  0.499000  0.309400  0.015300  1.0  -0.2114
  C  C548  1  0.471700  0.283250  0.973500  1.0  -0.08
  C  C549  1  0.503200  0.285330  0.916200  1.0  0.0083
  C  C550  1  0.485600  0.257980  0.875200  1.0  -0.0974
  C  C551  1  0.521100  0.260070  0.821500  1.0  -0.11
  C  C552  1  0.567400  0.290810  0.804700  1.0  -0.1159
  C  C553  1  0.583000  0.317940  0.841600  1.0  -0.0078
  C  C554  1  0.554300  0.316150  0.898900  1.0  0.0084
  C  C555  1  0.582200  0.341940  0.944400  1.0  -0.117
  C  C556  1  0.558200  0.338850  0.999600  1.0  -0.0795
  C  C557  1  0.450700  0.145930  0.112700  1.0  0.0562
  C  C558  1  0.477300  0.112640  0.103900  1.0  -0.1513
  C  C559  1  0.432900  0.087580  0.137700  1.0  -0.0184
  C  C560  1  0.366000  0.096170  0.178200  1.0  -0.1401
  C  C561  1  0.341300  0.130160  0.186600  1.0  -0.0996
  C  C562  1  0.381600  0.153700  0.153300  1.0  -0.0844
  C  C563  1  0.320500  0.069560  0.215800  1.0  0.7429
  C  C564  1  0.628500  0.350330  0.820300  1.0  0.0633
  C  C565  1  0.730600  0.351040  0.795900  1.0  -0.1405
  C  C566  1  0.769800  0.381460  0.776200  1.0  -0.0524
  C  C567  1  0.708600  0.411200  0.780800  1.0  -0.1268
  C  C568  1  0.603400  0.409610  0.804400  1.0  -0.0549
  C  C569  1  0.565000  0.379940  0.822900  1.0  -0.124
  C  C570  1  0.751400  0.443930  0.761700  1.0  0.7099
  C  C571  1  0.125100  0.262300  0.852700  1.0  -0.039
  C  C572  1  0.098700  0.230000  0.841600  1.0  -0.0665
  C  C573  1  0.041500  0.217900  0.782800  1.0  -0.1077
  C  C574  1  0.013000  0.238100  0.734900  1.0  -0.1523
  C  C575  1  0.037000  0.273000  0.746700  1.0  -0.1102
  C  C576  1  0.090500  0.284900  0.804900  1.0  -0.0775
  C  C577  1  0.051500  0.281910  0.960200  1.0  -0.1486
  C  C578  1  0.934600  0.275400  0.926800  1.0  -0.027
  C  C579  1  0.833100  0.278300  0.955100  1.0  -0.1404
  C  C580  1  0.855500  0.288700  0.015000  1.0  -0.0427
  C  C581  1  0.971800  0.295000  0.047800  1.0  -0.0606
  C  C582  1  0.072400  0.292100  0.020700  1.0  -0.1079
  C  C583  1  0.437700  0.351700  0.105100  1.0  -0.1844
  C  C584  1  0.339700  0.366590  0.065000  1.0  -0.0732
  C  C585  1  0.310200  0.399400  0.072700  1.0  -0.0858
  C  C586  1  0.380700  0.418700  0.119800  1.0  -0.1077
  C  C587  1  0.482500  0.404000  0.159600  1.0  -0.1046
  C  C588  1  0.508200  0.370470  0.152200  1.0  -0.0381
  C  C589  1  0.605700  0.294910  0.143000  1.0  -0.1928
  C  C590  1  0.717400  0.310500  0.149300  1.0  -0.0378
  C  C591  1  0.822200  0.298900  0.191900  1.0  -0.0899
  C  C592  1  0.811200  0.270300  0.225000  1.0  -0.1024
  C  C593  1  0.707700  0.254300  0.218700  1.0  -0.0966
  C  C594  1  0.602300  0.265800  0.178300  1.0  -0.0516
  O  O595  1  0.748800  0.479380  0.376100  1.0  -0.6009
  O  O596  1  0.738200  0.411110  0.268600  1.0  -0.6838
  O  O597  1  0.386000  0.484330  0.818700  1.0  -0.6871
  O  O598  1  0.288300  0.446120  0.861500  1.0  -0.5495
  O  O599  1  0.672300  0.543100  0.616100  1.0  -0.5519
  O  O600  1  0.579600  0.505610  0.661700  1.0  -0.7037
  O  O601  1  0.160700  0.188220  0.560900  1.0  -0.628
  O  O602  1  0.141500  0.269140  0.352600  1.0  -0.6651
  O  O603  1  0.310400  0.454470  0.700900  1.0  -0.6923
  O  O604  1  0.118400  0.444270  0.649700  1.0  -0.6951
  O  O605  1  0.883100  0.037760  0.332000  1.0  -0.5482
  O  O606  1  0.696500  0.026020  0.279200  1.0  -0.6697
  O  O607  1  0.761200  0.813600  0.074700  1.0  -0.6561
  O  O608  1  0.639600  0.786430  0.905700  1.0  -0.6657
  O  O609  1  0.643500  0.539840  0.785800  1.0  -0.7041
  O  O610  1  0.754800  0.578520  0.754100  1.0  -0.5533
  O  O611  1  0.310700  0.969780  0.231500  1.0  -0.732
  O  O612  1  0.158100  0.944780  0.260800  1.0  -0.7209
  O  O613  1  0.251200  0.979380  0.623900  1.0  -0.6093
  O  O614  1  0.261800  0.911110  0.731400  1.0  -0.6837
  O  O615  1  0.614000  0.984330  0.181300  1.0  -0.6871
  O  O616  1  0.711700  0.946120  0.138500  1.0  -0.5533
  O  O617  1  0.327700  0.043100  0.383900  1.0  -0.5546
  O  O618  1  0.420400  0.005610  0.338300  1.0  -0.7038
  O  O619  1  0.839300  0.688220  0.439100  1.0  -0.6323
  O  O620  1  0.858500  0.769140  0.647400  1.0  -0.6645
  O  O621  1  0.689600  0.954470  0.299100  1.0  -0.6903
  O  O622  1  0.881600  0.944270  0.350300  1.0  -0.6937
  O  O623  1  0.116900  0.537760  0.668000  1.0  -0.5471
  O  O624  1  0.303500  0.526020  0.720800  1.0  -0.6659
  O  O625  1  0.238800  0.313600  0.925300  1.0  -0.6563
  O  O626  1  0.360400  0.286430  0.094300  1.0  -0.6618
  O  O627  1  0.356500  0.039840  0.214200  1.0  -0.7037
  O  O628  1  0.245200  0.078520  0.245900  1.0  -0.5481
  O  O629  1  0.689300  0.469780  0.768500  1.0  -0.7321
  O  O630  1  0.841900  0.444780  0.739200  1.0  -0.7213
