# generated using pymatgen
data_Cu2H15C21N3O8
_symmetry_space_group_name_H-M   'P 1'
_cell_length_a   14.66900000
_cell_length_b   16.66390000
_cell_length_c   16.66390000
_cell_angle_alpha   60.67240000
_cell_angle_beta   63.88700000
_cell_angle_gamma   63.88710000
_symmetry_Int_Tables_number   1
_chemical_formula_structural   Cu2H15C21N3O8
_chemical_formula_sum   'Cu8 H60 C84 N12 O32'
_cell_volume   3054.80284071
_cell_formula_units_Z   4
loop_
 _symmetry_equiv_pos_site_id
 _symmetry_equiv_pos_as_xyz
  1  'x, y, z'
loop_
 _atom_site_type_symbol
 _atom_site_label
 _atom_site_symmetry_multiplicity
 _atom_site_fract_x
 _atom_site_fract_y
 _atom_site_fract_z
 _atom_site_occupancy
 _atom_site_charge
  Cu  Cu1  1  0.427200  0.047580  0.952420  1.0  0.8365
  Cu  Cu2  1  0.572800  0.952420  0.047580  1.0  0.836
  Cu  Cu3  1  0.072800  0.547580  0.452420  1.0  0.837
  Cu  Cu4  1  0.927200  0.452420  0.547580  1.0  0.8363
  Cu  Cu5  1  0.250000  0.556000  0.944000  1.0  0.8334
  Cu  Cu6  1  0.250000  0.944000  0.556000  1.0  0.8343
  Cu  Cu7  1  0.750000  0.444000  0.056000  1.0  0.8343
  Cu  Cu8  1  0.750000  0.056000  0.444000  1.0  0.8334
  H  H9  1  0.573500  0.442500  0.177300  1.0  0.3506
  H  H10  1  0.618000  0.495100  0.192100  1.0  0.3431
  H  H11  1  0.596600  0.663600  0.103200  1.0  0.1168
  H  H12  1  0.456400  0.517600  0.085200  1.0  0.122
  H  H13  1  0.371500  0.807000  0.967600  1.0  0.1088
  H  H14  1  0.806700  0.177300  0.442500  1.0  0.3524
  H  H15  1  0.694800  0.192100  0.495100  1.0  0.3411
  H  H16  1  0.636600  0.103200  0.663600  1.0  0.1189
  H  H17  1  0.940800  0.085200  0.517600  1.0  0.1221
  H  H18  1  0.853900  0.967600  0.807000  1.0  0.1092
  H  H19  1  0.926500  0.322700  0.057500  1.0  0.3514
  H  H20  1  0.882000  0.307900  0.004900  1.0  0.3427
  H  H21  1  0.903400  0.396800  0.836400  1.0  0.1162
  H  H22  1  0.043600  0.414800  0.982400  1.0  0.1233
  H  H23  1  0.128500  0.532400  0.693000  1.0  0.108
  H  H24  1  0.693300  0.057500  0.322700  1.0  0.3514
  H  H25  1  0.805200  0.004900  0.307900  1.0  0.3457
  H  H26  1  0.863400  0.836400  0.396800  1.0  0.1194
  H  H27  1  0.559200  0.982400  0.414800  1.0  0.1232
  H  H28  1  0.646100  0.693000  0.532400  1.0  0.1074
  H  H29  1  0.426500  0.557500  0.822700  1.0  0.3503
  H  H30  1  0.382000  0.504900  0.807900  1.0  0.3432
  H  H31  1  0.403400  0.336400  0.896800  1.0  0.117
  H  H32  1  0.543600  0.482400  0.914800  1.0  0.1223
  H  H33  1  0.628500  0.193000  0.032400  1.0  0.1085
  H  H34  1  0.193300  0.822700  0.557500  1.0  0.3532
  H  H35  1  0.305200  0.807900  0.504900  1.0  0.3426
  H  H36  1  0.363400  0.896800  0.336400  1.0  0.1182
  H  H37  1  0.059200  0.914800  0.482400  1.0  0.1213
  H  H38  1  0.146100  0.032400  0.193000  1.0  0.1089
  H  H39  1  0.073500  0.677300  0.942500  1.0  0.3509
  H  H40  1  0.118000  0.692100  0.995100  1.0  0.342
  H  H41  1  0.096600  0.603200  0.163600  1.0  0.1163
  H  H42  1  0.956400  0.585200  0.017600  1.0  0.1243
  H  H43  1  0.871500  0.467600  0.307000  1.0  0.1075
  H  H44  1  0.306700  0.942500  0.677300  1.0  0.3518
  H  H45  1  0.194800  0.995100  0.692100  1.0  0.3459
  H  H46  1  0.136600  0.163600  0.603200  1.0  0.121
  H  H47  1  0.440800  0.017600  0.585200  1.0  0.1228
  H  H48  1  0.353900  0.307000  0.467600  1.0  0.1076
  H  H49  1  0.219800  0.043400  0.956600  1.0  0.079
  H  H50  1  0.095200  0.124800  0.875200  1.0  0.1291
  H  H51  1  0.118900  0.263000  0.737000  1.0  0.0979
  H  H52  1  0.259000  0.311000  0.689000  1.0  0.1228
  H  H53  1  0.381100  0.223000  0.777000  1.0  0.0709
  H  H54  1  0.780200  0.956600  0.043400  1.0  0.0788
  H  H55  1  0.904800  0.875200  0.124800  1.0  0.1293
  H  H56  1  0.881100  0.737000  0.263000  1.0  0.0981
  H  H57  1  0.741000  0.689000  0.311000  1.0  0.1226
  H  H58  1  0.618900  0.777000  0.223000  1.0  0.0719
  H  H59  1  0.280200  0.543400  0.456600  1.0  0.079
  H  H60  1  0.404800  0.624800  0.375200  1.0  0.1288
  H  H61  1  0.381100  0.763000  0.237000  1.0  0.0974
  H  H62  1  0.241000  0.811000  0.189000  1.0  0.1232
  H  H63  1  0.118900  0.723000  0.277000  1.0  0.0699
  H  H64  1  0.719800  0.456600  0.543400  1.0  0.079
  H  H65  1  0.595200  0.375200  0.624800  1.0  0.129
  H  H66  1  0.618900  0.237000  0.763000  1.0  0.0972
  H  H67  1  0.759000  0.189000  0.811000  1.0  0.1229
  H  H68  1  0.881100  0.277000  0.723000  1.0  0.0709
  C  C69  1  0.325900  0.661600  0.983800  1.0  0.685
  C  C70  1  0.486900  0.750100  0.031900  1.0  -0.1061
  C  C71  1  0.548100  0.663300  0.081700  1.0  -0.1559
  C  C72  1  0.538900  0.577000  0.100000  1.0  0.2179
  C  C73  1  0.465000  0.575800  0.070600  1.0  -0.1371
  C  C74  1  0.403400  0.661500  0.019500  1.0  -0.1125
  C  C75  1  0.413600  0.749500  0.000700  1.0  -0.0078
  C  C76  1  0.494700  0.844200  0.015200  1.0  0.6733
  C  C77  1  0.028700  0.983800  0.661600  1.0  0.6871
  C  C78  1  0.731100  0.031900  0.750100  1.0  -0.1078
  C  C79  1  0.706900  0.081700  0.663300  1.0  -0.1575
  C  C80  1  0.784100  0.100000  0.577000  1.0  0.2175
  C  C81  1  0.888600  0.070600  0.575800  1.0  -0.1374
  C  C82  1  0.915600  0.019500  0.661500  1.0  -0.116
  C  C83  1  0.836200  0.000700  0.749500  1.0  -0.0109
  C  C84  1  0.645900  0.015200  0.844200  1.0  0.6673
  C  C85  1  0.174100  0.516200  0.838400  1.0  0.6849
  C  C86  1  0.013100  0.468100  0.749900  1.0  -0.105
  C  C87  1  0.951900  0.418300  0.836700  1.0  -0.1565
  C  C88  1  0.961100  0.400000  0.923000  1.0  0.2168
  C  C89  1  0.035000  0.429400  0.924200  1.0  -0.1348
  C  C90  1  0.096600  0.480500  0.838500  1.0  -0.1162
  C  C91  1  0.086400  0.499300  0.750500  1.0  -0.0099
  C  C92  1  0.005300  0.484800  0.655800  1.0  0.6733
  C  C93  1  0.471300  0.838400  0.516200  1.0  0.6837
  C  C94  1  0.768900  0.749900  0.468100  1.0  -0.107
  C  C95  1  0.793100  0.836700  0.418300  1.0  -0.1556
  C  C96  1  0.715900  0.923000  0.400000  1.0  0.2181
  C  C97  1  0.611400  0.924200  0.429400  1.0  -0.1359
  C  C98  1  0.584400  0.838500  0.480500  1.0  -0.115
  C  C99  1  0.663800  0.750500  0.499300  1.0  -0.0097
  C  C100  1  0.854100  0.655800  0.484800  1.0  0.6725
  C  C101  1  0.674100  0.338400  0.016200  1.0  0.6856
  C  C102  1  0.513100  0.249900  0.968100  1.0  -0.1081
  C  C103  1  0.451900  0.336700  0.918300  1.0  -0.157
  C  C104  1  0.461100  0.423000  0.900000  1.0  0.2186
  C  C105  1  0.535000  0.424200  0.929400  1.0  -0.138
  C  C106  1  0.596600  0.338500  0.980500  1.0  -0.1136
  C  C107  1  0.586400  0.250500  0.999300  1.0  -0.0098
  C  C108  1  0.505300  0.155800  0.984800  1.0  0.6691
  C  C109  1  0.971300  0.016200  0.338400  1.0  0.6871
  C  C110  1  0.268900  0.968100  0.249900  1.0  -0.1021
  C  C111  1  0.293100  0.918300  0.336700  1.0  -0.1585
  C  C112  1  0.215900  0.900000  0.423000  1.0  0.2175
  C  C113  1  0.111400  0.929400  0.424200  1.0  -0.136
  C  C114  1  0.084400  0.980500  0.338500  1.0  -0.1146
  C  C115  1  0.163800  0.999300  0.250500  1.0  -0.0121
  C  C116  1  0.354100  0.984800  0.155800  1.0  0.6694
  C  C117  1  0.825900  0.483800  0.161600  1.0  0.6841
  C  C118  1  0.986900  0.531900  0.250100  1.0  -0.1102
  C  C119  1  0.048100  0.581700  0.163300  1.0  -0.1559
  C  C120  1  0.038900  0.600000  0.077000  1.0  0.217
  C  C121  1  0.965000  0.570600  0.075800  1.0  -0.1355
  C  C122  1  0.903400  0.519500  0.161500  1.0  -0.1163
  C  C123  1  0.913600  0.500700  0.249500  1.0  -0.0086
  C  C124  1  0.994700  0.515200  0.344200  1.0  0.6737
  C  C125  1  0.528700  0.161600  0.483800  1.0  0.6841
  C  C126  1  0.231100  0.250100  0.531900  1.0  -0.1055
  C  C127  1  0.206900  0.163300  0.581700  1.0  -0.1572
  C  C128  1  0.284100  0.077000  0.600000  1.0  0.2178
  C  C129  1  0.388600  0.075800  0.570600  1.0  -0.1376
  C  C130  1  0.415600  0.161500  0.519500  1.0  -0.1151
  C  C131  1  0.336200  0.249500  0.500700  1.0  -0.0112
  C  C132  1  0.145900  0.344200  0.515200  1.0  0.6744
  C  C133  1  0.228400  0.098100  0.901900  1.0  0.1567
  C  C134  1  0.153800  0.145900  0.854100  1.0  -0.1984
  C  C135  1  0.168500  0.228500  0.771500  1.0  0.0123
  C  C136  1  0.248800  0.256400  0.743600  1.0  -0.1795
  C  C137  1  0.322300  0.202300  0.797700  1.0  0.1878
  C  C138  1  0.771600  0.901900  0.098100  1.0  0.1561
  C  C139  1  0.846200  0.854100  0.145900  1.0  -0.1995
  C  C140  1  0.831500  0.771500  0.228500  1.0  0.0138
  C  C141  1  0.751200  0.743600  0.256400  1.0  -0.1792
  C  C142  1  0.677700  0.797700  0.202300  1.0  0.1878
  C  C143  1  0.271600  0.598100  0.401900  1.0  0.1532
  C  C144  1  0.346200  0.645900  0.354100  1.0  -0.1952
  C  C145  1  0.331500  0.728500  0.271500  1.0  0.0165
  C  C146  1  0.251200  0.756400  0.243600  1.0  -0.1808
  C  C147  1  0.177700  0.702300  0.297700  1.0  0.1875
  C  C148  1  0.728400  0.401900  0.598100  1.0  0.1552
  C  C149  1  0.653800  0.354100  0.645900  1.0  -0.197
  C  C150  1  0.668500  0.271500  0.728500  1.0  0.0142
  C  C151  1  0.748800  0.243600  0.756400  1.0  -0.1787
  C  C152  1  0.822300  0.297700  0.702300  1.0  0.1892
  N  N153  1  0.606600  0.488500  0.147100  1.0  -0.6522
  N  N154  1  0.757800  0.147100  0.488500  1.0  -0.6493
  N  N155  1  0.893400  0.352900  0.011500  1.0  -0.6453
  N  N156  1  0.742200  0.011500  0.352900  1.0  -0.6512
  N  N157  1  0.393400  0.511500  0.852900  1.0  -0.6515
  N  N158  1  0.242200  0.852900  0.511500  1.0  -0.6487
  N  N159  1  0.106600  0.647100  0.988500  1.0  -0.6474
  N  N160  1  0.257800  0.988500  0.647100  1.0  -0.6527
  N  N161  1  0.313500  0.126100  0.873900  1.0  -0.328
  N  N162  1  0.686500  0.873900  0.126100  1.0  -0.3304
  N  N163  1  0.186500  0.626100  0.373900  1.0  -0.3282
  N  N164  1  0.813500  0.373900  0.626100  1.0  -0.3272
  O  O165  1  0.322800  0.582700  0.997300  1.0  -0.6113
  O  O166  1  0.437800  0.919100  0.971300  1.0  -0.5515
  O  O167  1  0.558400  0.839500  0.049700  1.0  -0.567
  O  O168  1  0.268000  0.739300  0.942700  1.0  -0.6275
  O  O169  1  0.097200  0.997300  0.582700  1.0  -0.6108
  O  O170  1  0.671800  0.971300  0.919100  1.0  -0.5596
  O  O171  1  0.552400  0.049700  0.839500  1.0  -0.5608
  O  O172  1  0.050000  0.942700  0.739300  1.0  -0.6278
  O  O173  1  0.177200  0.502700  0.917300  1.0  -0.6107
  O  O174  1  0.062200  0.528700  0.580900  1.0  -0.5506
  O  O175  1  0.941600  0.450300  0.660500  1.0  -0.5669
  O  O176  1  0.232000  0.557300  0.760700  1.0  -0.6273
  O  O177  1  0.402800  0.917300  0.502700  1.0  -0.6118
  O  O178  1  0.828200  0.580900  0.528700  1.0  -0.5499
  O  O179  1  0.947600  0.660500  0.450300  1.0  -0.563
  O  O180  1  0.450000  0.760700  0.557300  1.0  -0.6237
  O  O181  1  0.677200  0.417300  0.002700  1.0  -0.6118
  O  O182  1  0.562200  0.080900  0.028700  1.0  -0.5502
  O  O183  1  0.441600  0.160500  0.950300  1.0  -0.5669
  O  O184  1  0.732000  0.260700  0.057300  1.0  -0.6261
  O  O185  1  0.902800  0.002700  0.417300  1.0  -0.61
  O  O186  1  0.328200  0.028700  0.080900  1.0  -0.5588
  O  O187  1  0.447600  0.950300  0.160500  1.0  -0.5605
  O  O188  1  0.950000  0.057300  0.260700  1.0  -0.6246
  O  O189  1  0.822800  0.497300  0.082700  1.0  -0.6113
  O  O190  1  0.937800  0.471300  0.419100  1.0  -0.5516
  O  O191  1  0.058400  0.549700  0.339500  1.0  -0.567
  O  O192  1  0.768000  0.442700  0.239300  1.0  -0.6261
  O  O193  1  0.597200  0.082700  0.497300  1.0  -0.6117
  O  O194  1  0.171800  0.419100  0.471300  1.0  -0.5501
  O  O195  1  0.052400  0.339500  0.549700  1.0  -0.5626
  O  O196  1  0.550000  0.239300  0.442700  1.0  -0.6273
