# generated using pymatgen
data_Co6H15C28(NO5)4
_symmetry_space_group_name_H-M   'P 1'
_cell_length_a   10.81230000
_cell_length_b   11.13570000
_cell_length_c   11.13570000
_cell_angle_alpha   103.70800000
_cell_angle_beta   102.15700000
_cell_angle_gamma   77.84310000
_symmetry_Int_Tables_number   1
_chemical_formula_structural   Co6H15C28(NO5)4
_chemical_formula_sum   'Co6 H15 C28 N4 O20'
_cell_volume   1255.00724026
_cell_formula_units_Z   1
loop_
 _symmetry_equiv_pos_site_id
 _symmetry_equiv_pos_as_xyz
  1  'x, y, z'
loop_
 _atom_site_type_symbol
 _atom_site_label
 _atom_site_symmetry_multiplicity
 _atom_site_fract_x
 _atom_site_fract_y
 _atom_site_fract_z
 _atom_site_occupancy
 _atom_site_charge
  Co  Co1  1  0.931870  0.073310  0.901830  1.0  0.9443
  Co  Co2  1  0.565490  0.899970  0.074780  1.0  0.9741
  Co  Co3  1  0.065530  0.926140  0.100770  1.0  0.9701
  Co  Co4  1  0.431480  0.099230  0.927320  1.0  0.9757
  Co  Co5  1  0.748630  0.915130  0.916640  1.0  0.8817
  Co  Co6  1  0.248140  0.084170  0.085540  1.0  0.8726
  H  H7  1  0.940020  0.530830  0.872710  1.0  0.1613
  H  H8  1  0.030610  0.307610  0.856230  1.0  0.145
  H  H9  1  0.602670  0.463690  0.979380  1.0  0.145
  H  H10  1  0.557260  0.871360  0.532510  1.0  0.1589
  H  H11  1  0.466540  0.854850  0.309270  1.0  0.1456
  H  H12  1  0.894610  0.977780  0.465110  1.0  0.1432
  H  H13  1  0.057000  0.468530  0.129370  1.0  0.1596
  H  H14  1  0.966460  0.691760  0.145850  1.0  0.1478
  H  H15  1  0.394320  0.535580  0.022560  1.0  0.1468
  H  H16  1  0.439970  0.127870  0.469770  1.0  0.1592
  H  H17  1  0.530590  0.144390  0.693010  1.0  0.1474
  H  H18  1  0.102600  0.021320  0.537050  1.0  0.1429
  H  H19  1  0.485780  0.136750  0.157930  1.0  0.3942
  H  H20  1  0.511120  0.862350  0.844080  1.0  0.398
  H  H21  1  0.986290  0.842820  0.864070  1.0  0.3967
  C  C22  1  0.883780  0.470360  0.892560  1.0  -0.0553
  C  C23  1  0.936650  0.340380  0.882250  1.0  0.2134
  C  C24  1  0.765490  0.524170  0.934450  1.0  -0.0649
  C  C25  1  0.695910  0.431910  0.951780  1.0  0.033
  C  C26  1  0.723030  0.673390  0.957490  1.0  0.6682
  C  C27  1  0.748950  0.297170  0.932620  1.0  0.0117
  C  C28  1  0.685310  0.187980  0.942900  1.0  0.5971
  C  C29  1  0.613470  0.891170  0.471990  1.0  -0.0573
  C  C30  1  0.560510  0.880870  0.342020  1.0  0.1964
  C  C31  1  0.731860  0.932920  0.525730  1.0  -0.0602
  C  C32  1  0.801340  0.950250  0.433410  1.0  0.0363
  C  C33  1  0.774510  0.955820  0.674950  1.0  0.671
  C  C34  1  0.748190  0.931160  0.298700  1.0  -0.0023
  C  C35  1  0.811790  0.941470  0.189500  1.0  0.6056
  C  C36  1  0.113240  0.528970  0.109450  1.0  -0.0564
  C  C37  1  0.060370  0.658940  0.119720  1.0  0.2029
  C  C38  1  0.231540  0.475120  0.067600  1.0  -0.0619
  C  C39  1  0.301070  0.567370  0.050150  1.0  0.0376
  C  C40  1  0.274020  0.325870  0.044670  1.0  0.6749
  C  C41  1  0.248010  0.702120  0.069260  1.0  0.0239
  C  C42  1  0.311600  0.811360  0.059050  1.0  0.6055
  C  C43  1  0.383730  0.108050  0.530280  1.0  -0.0605
  C  C44  1  0.436620  0.118370  0.660230  1.0  0.2019
  C  C45  1  0.265400  0.066250  0.476520  1.0  -0.0597
  C  C46  1  0.195840  0.048900  0.568800  1.0  0.0383
  C  C47  1  0.222870  0.043260  0.327300  1.0  0.649
  C  C48  1  0.248920  0.068050  0.703530  1.0  0.0132
  C  C49  1  0.185410  0.057750  0.812840  1.0  0.6073
  N  N50  1  0.872160  0.257180  0.905340  1.0  -0.3433
  N  N51  1  0.624960  0.903890  0.258750  1.0  -0.3346
  N  N52  1  0.124850  0.742130  0.096580  1.0  -0.3398
  N  N53  1  0.372110  0.095350  0.743450  1.0  -0.3325
  O  O54  1  0.947690  0.905480  0.931160  1.0  -0.8267
  O  O55  1  0.773820  0.081130  0.955720  1.0  -0.7107
  O  O56  1  0.568480  0.190430  0.937180  1.0  -0.5665
  O  O57  1  0.760830  0.738970  0.894610  1.0  -0.5568
  O  O58  1  0.655590  0.733060  0.042570  1.0  -0.5754
  O  O59  1  0.549610  0.929470  0.906790  1.0  -0.814
  O  O60  1  0.723260  0.954370  0.082660  1.0  -0.7152
  O  O61  1  0.928620  0.935750  0.191970  1.0  -0.5965
  O  O62  1  0.736460  0.893110  0.740500  1.0  -0.5537
  O  O63  1  0.842370  0.040590  0.734640  1.0  -0.5768
  O  O64  1  0.048650  0.095270  0.072960  1.0  -0.7499
  O  O65  1  0.223020  0.918260  0.046230  1.0  -0.6963
  O  O66  1  0.428440  0.808880  0.064870  1.0  -0.5692
  O  O67  1  0.236310  0.260330  0.107670  1.0  -0.553
  O  O68  1  0.341380  0.266140  0.959550  1.0  -0.5712
  O  O69  1  0.447270  0.069660  0.095200  1.0  -0.8147
  O  O70  1  0.273770  0.044860  0.919560  1.0  -0.7163
  O  O71  1  0.068720  0.063600  0.810690  1.0  -0.5656
  O  O72  1  0.260530  0.106200  0.261700  1.0  -0.5612
  O  O73  1  0.155580  0.958100  0.267640  1.0  -0.579
