# generated using pymatgen
data_CuH12C24N5O2
_symmetry_space_group_name_H-M   'P 1'
_cell_length_a   12.23420000
_cell_length_b   13.95830000
_cell_length_c   19.60640000
_cell_angle_alpha   83.81790000
_cell_angle_beta   75.77510000
_cell_angle_gamma   64.00820000
_symmetry_Int_Tables_number   1
_chemical_formula_structural   CuH12C24N5O2
_chemical_formula_sum   'Cu4 H48 C96 N20 O8'
_cell_volume   2917.23885347
_cell_formula_units_Z   4
loop_
 _symmetry_equiv_pos_site_id
 _symmetry_equiv_pos_as_xyz
  1  'x, y, z'
loop_
 _atom_site_type_symbol
 _atom_site_label
 _atom_site_symmetry_multiplicity
 _atom_site_fract_x
 _atom_site_fract_y
 _atom_site_fract_z
 _atom_site_occupancy
 _atom_site_charge
  Cu  Cu1  1  0.696790  0.443960  0.962230  1.0  0.4259
  Cu  Cu2  1  0.859250  0.443960  0.537770  1.0  0.4269
  Cu  Cu3  1  0.303210  0.556040  0.037770  1.0  0.4294
  Cu  Cu4  1  0.140750  0.556040  0.462230  1.0  0.4295
  H  H5  1  0.621400  0.756600  0.871900  1.0  0.1116
  H  H6  1  0.542500  0.931600  0.831600  1.0  0.1003
  H  H7  1  0.198800  0.939800  0.866400  1.0  0.1269
  H  H8  1  0.277800  0.764200  0.908300  1.0  0.1031
  H  H9  1  0.977700  0.383400  0.769000  1.0  0.1212
  H  H10  1  0.856600  0.469600  0.686300  1.0  0.1014
  H  H11  1  0.091000  0.246600  0.545600  1.0  0.0813
  H  H12  1  0.212600  0.157000  0.625100  1.0  0.1222
  H  H13  1  0.331000  0.412000  0.808400  1.0  0.1267
  H  H14  1  0.335900  0.529200  0.882300  1.0  0.085
  H  H15  1  0.193400  0.408400  0.048900  1.0  0.092
  H  H16  1  0.180400  0.289200  0.982000  1.0  0.1397
  H  H17  1  0.622000  0.756600  0.628100  1.0  0.1114
  H  H18  1  0.525900  0.931600  0.668400  1.0  0.0998
  H  H19  1  0.861400  0.939800  0.633600  1.0  0.1259
  H  H20  1  0.958000  0.764200  0.591700  1.0  0.1033
  H  H21  1  0.638900  0.383400  0.731000  1.0  0.1216
  H  H22  1  0.673800  0.469600  0.813700  1.0  0.1015
  H  H23  1  0.662400  0.246600  0.954400  1.0  0.0814
  H  H24  1  0.630400  0.157000  0.874900  1.0  0.1219
  H  H25  1  0.257000  0.412000  0.691600  1.0  0.1271
  H  H26  1  0.134900  0.529200  0.617700  1.0  0.0851
  H  H27  1  0.398200  0.408400  0.451100  1.0  0.092
  H  H28  1  0.530400  0.289200  0.518000  1.0  0.1394
  H  H29  1  0.378600  0.243400  0.128100  1.0  0.111
  H  H30  1  0.457500  0.068400  0.168400  1.0  0.0997
  H  H31  1  0.801200  0.060200  0.133600  1.0  0.1259
  H  H32  1  0.722200  0.235800  0.091700  1.0  0.1034
  H  H33  1  0.022300  0.616600  0.231000  1.0  0.1213
  H  H34  1  0.143400  0.530400  0.313700  1.0  0.101
  H  H35  1  0.909000  0.753400  0.454400  1.0  0.0813
  H  H36  1  0.787400  0.843000  0.374900  1.0  0.1224
  H  H37  1  0.669000  0.588000  0.191600  1.0  0.1267
  H  H38  1  0.664100  0.470800  0.117700  1.0  0.0843
  H  H39  1  0.806600  0.591600  0.951100  1.0  0.092
  H  H40  1  0.819600  0.710800  0.018000  1.0  0.1396
  H  H41  1  0.378000  0.243400  0.371900  1.0  0.1114
  H  H42  1  0.474100  0.068400  0.331600  1.0  0.1001
  H  H43  1  0.138600  0.060200  0.366400  1.0  0.1268
  H  H44  1  0.042000  0.235800  0.408300  1.0  0.103
  H  H45  1  0.361100  0.616600  0.269000  1.0  0.1214
  H  H46  1  0.326200  0.530400  0.186300  1.0  0.101
  H  H47  1  0.337600  0.753400  0.045600  1.0  0.0816
  H  H48  1  0.369600  0.843000  0.125100  1.0  0.1227
  H  H49  1  0.743000  0.588000  0.308400  1.0  0.1266
  H  H50  1  0.865100  0.470800  0.382300  1.0  0.0844
  H  H51  1  0.601800  0.591600  0.548900  1.0  0.0922
  H  H52  1  0.469600  0.710800  0.482000  1.0  0.14
  C  C53  1  0.504130  0.630340  0.921800  1.0  0.6531
  C  C54  1  0.456070  0.743060  0.893400  1.0  -0.135
  C  C55  1  0.535500  0.793800  0.871000  1.0  -0.0312
  C  C56  1  0.488200  0.897800  0.847600  1.0  -0.1153
  C  C57  1  0.362970  0.953660  0.847000  1.0  0.0134
  C  C58  1  0.284300  0.903200  0.868200  1.0  -0.1187
  C  C59  1  0.332000  0.798000  0.892400  1.0  -0.0355
  C  C60  1  0.309100  0.068400  0.826100  1.0  0.1247
  C  C61  1  0.242700  0.106000  0.773400  1.0  -0.1676
  C  C62  1  0.189200  0.214800  0.758500  1.0  0.2522
  C  C63  1  0.259860  0.252280  0.845400  1.0  0.2403
  C  C64  1  0.319700  0.143800  0.861000  1.0  -0.1651
  C  C65  1  0.409500  0.110200  0.904900  1.0  0.3123
  C  C66  1  0.253100  0.025200  0.728000  1.0  0.3233
  C  C67  1  0.111280  0.263240  0.704300  1.0  0.027
  C  C68  1  0.002900  0.355000  0.722900  1.0  -0.1383
  C  C69  1  0.930400  0.405800  0.673600  1.0  0.1374
  C  C70  1  0.067330  0.275340  0.591500  1.0  0.163
  C  C71  1  0.140980  0.222240  0.638400  1.0  -0.1785
  C  C72  1  0.258900  0.335400  0.887300  1.0  0.0415
  C  C73  1  0.303200  0.408600  0.857900  1.0  -0.1842
  C  C74  1  0.306300  0.477800  0.902800  1.0  0.172
  C  C75  1  0.223400  0.407800  0.999400  1.0  0.1501
  C  C76  1  0.215300  0.336600  0.960100  1.0  -0.2016
  C  C77  1  0.865530  0.630340  0.578200  1.0  0.6525
  C  C78  1  0.800870  0.743060  0.606600  1.0  -0.1344
  C  C79  1  0.670700  0.793800  0.629000  1.0  -0.0308
  C  C80  1  0.614000  0.897800  0.652400  1.0  -0.1158
  C  C81  1  0.683370  0.953660  0.653000  1.0  0.0131
  C  C82  1  0.812500  0.903200  0.631800  1.0  -0.1175
  C  C83  1  0.870000  0.798000  0.607600  1.0  -0.0337
  C  C84  1  0.622500  0.068400  0.673900  1.0  0.122
  C  C85  1  0.651300  0.106000  0.726600  1.0  -0.1661
  C  C86  1  0.596000  0.214800  0.741500  1.0  0.2518
  C  C87  1  0.487860  0.252280  0.654600  1.0  0.2502
  C  C88  1  0.536500  0.143800  0.639000  1.0  -0.1658
  C  C89  1  0.480300  0.110200  0.595100  1.0  0.3179
  C  C90  1  0.721700  0.025200  0.772000  1.0  0.3232
  C  C91  1  0.625480  0.263240  0.795700  1.0  0.0242
  C  C92  1  0.642100  0.355000  0.777100  1.0  -0.1427
  C  C93  1  0.663800  0.405800  0.826400  1.0  0.1372
  C  C94  1  0.657330  0.275340  0.908500  1.0  0.1636
  C  C95  1  0.636780  0.222240  0.861600  1.0  -0.1773
  C  C96  1  0.405700  0.335400  0.612700  1.0  0.0434
  C  C97  1  0.288200  0.408600  0.642100  1.0  -0.185
  C  C98  1  0.215900  0.477800  0.597200  1.0  0.1728
  C  C99  1  0.368800  0.407800  0.500600  1.0  0.1515
  C  C100  1  0.448100  0.336600  0.539900  1.0  -0.2001
  C  C101  1  0.495870  0.369660  0.078200  1.0  0.653
  C  C102  1  0.543930  0.256940  0.106600  1.0  -0.1336
  C  C103  1  0.464500  0.206200  0.129000  1.0  -0.0309
  C  C104  1  0.511800  0.102200  0.152400  1.0  -0.1156
  C  C105  1  0.637030  0.046340  0.153000  1.0  0.0127
  C  C106  1  0.715700  0.096800  0.131800  1.0  -0.118
  C  C107  1  0.668000  0.202000  0.107600  1.0  -0.0343
  C  C108  1  0.690900  0.931600  0.173900  1.0  0.1223
  C  C109  1  0.757300  0.894000  0.226600  1.0  -0.1656
  C  C110  1  0.810800  0.785200  0.241500  1.0  0.252
  C  C111  1  0.740140  0.747720  0.154600  1.0  0.2506
  C  C112  1  0.680300  0.856200  0.139000  1.0  -0.1655
  C  C113  1  0.590500  0.889800  0.095100  1.0  0.3175
  C  C114  1  0.746900  0.974800  0.272000  1.0  0.323
  C  C115  1  0.888720  0.736760  0.295700  1.0  0.023
  C  C116  1  0.997100  0.645000  0.277100  1.0  -0.1431
  C  C117  1  0.069600  0.594200  0.326400  1.0  0.1372
  C  C118  1  0.932670  0.724660  0.408500  1.0  0.1633
  C  C119  1  0.859020  0.777760  0.361600  1.0  -0.1774
  C  C120  1  0.741100  0.664600  0.112700  1.0  0.0432
  C  C121  1  0.696800  0.591400  0.142100  1.0  -0.1843
  C  C122  1  0.693700  0.522200  0.097200  1.0  0.1724
  C  C123  1  0.776600  0.592200  0.000600  1.0  0.1516
  C  C124  1  0.784700  0.663400  0.039900  1.0  -0.2
  C  C125  1  0.134470  0.369660  0.421800  1.0  0.6538
  C  C126  1  0.199130  0.256940  0.393400  1.0  -0.1344
  C  C127  1  0.329300  0.206200  0.371000  1.0  -0.0307
  C  C128  1  0.386000  0.102200  0.347600  1.0  -0.1155
  C  C129  1  0.316630  0.046340  0.347000  1.0  0.0126
  C  C130  1  0.187500  0.096800  0.368200  1.0  -0.1188
  C  C131  1  0.130000  0.202000  0.392400  1.0  -0.0357
  C  C132  1  0.377500  0.931600  0.326100  1.0  0.1247
  C  C133  1  0.348700  0.894000  0.273400  1.0  -0.1663
  C  C134  1  0.404000  0.785200  0.258500  1.0  0.2523
  C  C135  1  0.512140  0.747720  0.345400  1.0  0.2413
  C  C136  1  0.463500  0.856200  0.361000  1.0  -0.1654
  C  C137  1  0.519700  0.889800  0.404900  1.0  0.3117
  C  C138  1  0.278300  0.974800  0.228000  1.0  0.3223
  C  C139  1  0.374520  0.736760  0.204300  1.0  0.0255
  C  C140  1  0.357900  0.645000  0.222900  1.0  -0.1391
  C  C141  1  0.336200  0.594200  0.173600  1.0  0.1374
  C  C142  1  0.342670  0.724660  0.091500  1.0  0.1637
  C  C143  1  0.363220  0.777760  0.138400  1.0  -0.1776
  C  C144  1  0.594300  0.664600  0.387300  1.0  0.0426
  C  C145  1  0.711800  0.591400  0.357900  1.0  -0.1845
  C  C146  1  0.784100  0.522200  0.402800  1.0  0.1711
  C  C147  1  0.631200  0.592200  0.499400  1.0  0.1509
  C  C148  1  0.551900  0.663400  0.460100  1.0  -0.2015
  N  N149  1  0.199590  0.286220  0.792980  1.0  -0.3965
  N  N150  1  0.470500  0.091800  0.944300  1.0  -0.3536
  N  N151  1  0.256500  0.963400  0.693300  1.0  -0.3913
  N  N152  1  0.963690  0.365620  0.607730  1.0  -0.3013
  N  N153  1  0.271160  0.476480  0.971500  1.0  -0.2842
  N  N154  1  0.514190  0.286220  0.707020  1.0  -0.3965
  N  N155  1  0.437700  0.091800  0.555700  1.0  -0.3517
  N  N156  1  0.780100  0.963400  0.806700  1.0  -0.3902
  N  N157  1  0.670690  0.365620  0.892270  1.0  -0.2993
  N  N158  1  0.252360  0.476480  0.528500  1.0  -0.2836
  N  N159  1  0.800410  0.713780  0.207020  1.0  -0.3979
  N  N160  1  0.529500  0.908200  0.055700  1.0  -0.3525
  N  N161  1  0.743500  0.036600  0.306700  1.0  -0.392
  N  N162  1  0.036310  0.634380  0.392270  1.0  -0.2993
  N  N163  1  0.728840  0.523520  0.028500  1.0  -0.2842
  N  N164  1  0.485810  0.713780  0.292980  1.0  -0.3968
  N  N165  1  0.562300  0.908200  0.444300  1.0  -0.3524
  N  N166  1  0.219900  0.036600  0.193300  1.0  -0.3897
  N  N167  1  0.329310  0.634380  0.107730  1.0  -0.3039
  N  N168  1  0.747640  0.523520  0.471500  1.0  -0.2846
  O  O169  1  0.621270  0.582060  0.915760  1.0  -0.5786
  O  O170  1  0.429510  0.592980  0.949150  1.0  -0.5816
  O  O171  1  0.796670  0.582060  0.584240  1.0  -0.5778
  O  O172  1  0.977510  0.592980  0.550850  1.0  -0.5813
  O  O173  1  0.378730  0.417940  0.084240  1.0  -0.5775
  O  O174  1  0.570490  0.407020  0.050850  1.0  -0.5813
  O  O175  1  0.203330  0.417940  0.415760  1.0  -0.5789
  O  O176  1  0.022490  0.407020  0.449150  1.0  -0.5822
