# generated using pymatgen
data_ZnH8C12(IN2)2
_symmetry_space_group_name_H-M   'P 1'
_cell_length_a   13.79340000
_cell_length_b   27.42400000
_cell_length_c   45.90700000
_cell_angle_alpha   90.00000000
_cell_angle_beta   90.00000000
_cell_angle_gamma   90.00000000
_symmetry_Int_Tables_number   1
_chemical_formula_structural   ZnH8C12(IN2)2
_chemical_formula_sum   'Zn24 H192 C288 I48 N96'
_cell_volume   17365.25014485
_cell_formula_units_Z   24
loop_
 _symmetry_equiv_pos_site_id
 _symmetry_equiv_pos_as_xyz
  1  'x, y, z'
loop_
 _atom_site_type_symbol
 _atom_site_label
 _atom_site_symmetry_multiplicity
 _atom_site_fract_x
 _atom_site_fract_y
 _atom_site_fract_z
 _atom_site_occupancy
 _atom_site_charge
  Zn  Zn1  1  0.146800  0.051450  0.571140  1.0  0.8908
  Zn  Zn2  1  0.356280  0.027860  0.413440  1.0  0.8437
  Zn  Zn3  1  0.149330  0.243830  0.311530  1.0  0.9424
  Zn  Zn4  1  0.853200  0.448550  0.071140  1.0  0.8892
  Zn  Zn5  1  0.643720  0.472140  0.913440  1.0  0.8441
  Zn  Zn6  1  0.850670  0.256170  0.811530  1.0  0.9418
  Zn  Zn7  1  0.646800  0.948550  0.928860  1.0  0.8899
  Zn  Zn8  1  0.856280  0.972140  0.086560  1.0  0.8448
  Zn  Zn9  1  0.649330  0.756170  0.188470  1.0  0.9423
  Zn  Zn10  1  0.353200  0.551450  0.428860  1.0  0.8894
  Zn  Zn11  1  0.143720  0.527860  0.586560  1.0  0.8439
  Zn  Zn12  1  0.350670  0.743830  0.688470  1.0  0.9409
  Zn  Zn13  1  0.853200  0.948550  0.428860  1.0  0.8893
  Zn  Zn14  1  0.643720  0.972140  0.586560  1.0  0.8444
  Zn  Zn15  1  0.850670  0.756170  0.688470  1.0  0.9413
  Zn  Zn16  1  0.146800  0.551450  0.928860  1.0  0.8896
  Zn  Zn17  1  0.356280  0.527860  0.086560  1.0  0.8437
  Zn  Zn18  1  0.149330  0.743830  0.188470  1.0  0.9422
  Zn  Zn19  1  0.353200  0.051450  0.071140  1.0  0.8908
  Zn  Zn20  1  0.143720  0.027860  0.913440  1.0  0.8436
  Zn  Zn21  1  0.350670  0.243830  0.811530  1.0  0.9411
  Zn  Zn22  1  0.646800  0.448550  0.571140  1.0  0.8898
  Zn  Zn23  1  0.856280  0.472140  0.413440  1.0  0.8447
  Zn  Zn24  1  0.649330  0.256170  0.311530  1.0  0.9427
  H  H25  1  0.492800  0.050600  0.463100  1.0  0.0922
  H  H26  1  0.649000  0.080000  0.470600  1.0  0.1171
  H  H27  1  0.514600  0.073900  0.379100  1.0  0.084
  H  H28  1  0.670300  0.104200  0.384200  1.0  0.1271
  H  H29  1  0.937900  0.227000  0.328300  1.0  0.0886
  H  H30  1  0.848800  0.193200  0.366000  1.0  0.1195
  H  H31  1  0.184700  0.187300  0.365200  1.0  0.1017
  H  H32  1  0.101200  0.152300  0.403600  1.0  0.1222
  H  H33  1  0.182000  0.106700  0.515000  1.0  0.0935
  H  H34  1  0.097100  0.134100  0.474700  1.0  0.1183
  H  H35  1  0.954000  0.033100  0.542900  1.0  0.0913
  H  H36  1  0.864000  0.057900  0.503000  1.0  0.1252
  H  H37  1  0.080100  0.080600  0.631300  1.0  0.0982
  H  H38  1  0.056300  0.149300  0.659400  1.0  0.1242
  H  H39  1  0.148400  0.160000  0.563100  1.0  0.0905
  H  H40  1  0.124700  0.231900  0.588800  1.0  0.1242
  H  H41  1  0.110100  0.422800  0.570500  1.0  0.0892
  H  H42  1  0.090600  0.347200  0.592200  1.0  0.1221
  H  H43  1  0.096900  0.488600  0.646700  1.0  0.0956
  H  H44  1  0.072400  0.415300  0.670500  1.0  0.1217
  H  H45  1  0.911400  0.335500  0.771700  1.0  0.0954
  H  H46  1  0.973600  0.346100  0.724700  1.0  0.12
  H  H47  1  0.966600  0.194600  0.769000  1.0  0.0868
  H  H48  1  0.027900  0.201300  0.722000  1.0  0.1134
  H  H49  1  0.507200  0.449400  0.963100  1.0  0.0925
  H  H50  1  0.351000  0.420000  0.970600  1.0  0.1165
  H  H51  1  0.485400  0.426100  0.879100  1.0  0.0843
  H  H52  1  0.329700  0.395800  0.884200  1.0  0.1273
  H  H53  1  0.062100  0.273000  0.828300  1.0  0.0889
  H  H54  1  0.151200  0.306800  0.866000  1.0  0.1183
  H  H55  1  0.815300  0.312700  0.865200  1.0  0.1033
  H  H56  1  0.898800  0.347700  0.903600  1.0  0.1218
  H  H57  1  0.818000  0.393300  0.015000  1.0  0.0928
  H  H58  1  0.902900  0.365900  0.974700  1.0  0.1181
  H  H59  1  0.046000  0.466900  0.042900  1.0  0.0915
  H  H60  1  0.136000  0.442100  0.003000  1.0  0.1252
  H  H61  1  0.919900  0.419400  0.131300  1.0  0.0972
  H  H62  1  0.943700  0.350700  0.159400  1.0  0.1239
  H  H63  1  0.851600  0.340000  0.063100  1.0  0.0907
  H  H64  1  0.875300  0.268100  0.088800  1.0  0.124
  H  H65  1  0.889900  0.077200  0.070500  1.0  0.0886
  H  H66  1  0.909400  0.152800  0.092200  1.0  0.1223
  H  H67  1  0.903100  0.011400  0.146700  1.0  0.0958
  H  H68  1  0.927600  0.084700  0.170500  1.0  0.122
  H  H69  1  0.088600  0.164500  0.271700  1.0  0.0951
  H  H70  1  0.026400  0.153900  0.224700  1.0  0.1193
  H  H71  1  0.033400  0.305400  0.269000  1.0  0.0852
  H  H72  1  0.972100  0.298700  0.222000  1.0  0.1143
  H  H73  1  0.992800  0.949400  0.036900  1.0  0.0905
  H  H74  1  0.149000  0.920000  0.029400  1.0  0.117
  H  H75  1  0.014600  0.926100  0.120900  1.0  0.0847
  H  H76  1  0.170300  0.895800  0.115800  1.0  0.1276
  H  H77  1  0.437900  0.773000  0.171700  1.0  0.0884
  H  H78  1  0.348800  0.806800  0.134000  1.0  0.1196
  H  H79  1  0.684700  0.812700  0.134800  1.0  0.1019
  H  H80  1  0.601200  0.847700  0.096400  1.0  0.1216
  H  H81  1  0.682000  0.893300  0.985000  1.0  0.0933
  H  H82  1  0.597100  0.865900  0.025300  1.0  0.1178
  H  H83  1  0.454000  0.966900  0.957100  1.0  0.0912
  H  H84  1  0.364000  0.942100  0.997000  1.0  0.1249
  H  H85  1  0.580100  0.919400  0.868700  1.0  0.0974
  H  H86  1  0.556300  0.850700  0.840600  1.0  0.1236
  H  H87  1  0.648400  0.840000  0.936900  1.0  0.0901
  H  H88  1  0.624700  0.768100  0.911200  1.0  0.1243
  H  H89  1  0.610100  0.577200  0.929500  1.0  0.0901
  H  H90  1  0.590600  0.652800  0.907800  1.0  0.1224
  H  H91  1  0.596900  0.511400  0.853300  1.0  0.0949
  H  H92  1  0.572400  0.584700  0.829500  1.0  0.1224
  H  H93  1  0.411400  0.664500  0.728300  1.0  0.0952
  H  H94  1  0.473600  0.653900  0.775300  1.0  0.1192
  H  H95  1  0.466600  0.805400  0.731000  1.0  0.085
  H  H96  1  0.527900  0.798700  0.778000  1.0  0.1139
  H  H97  1  0.007200  0.550600  0.536900  1.0  0.0913
  H  H98  1  0.851000  0.580000  0.529400  1.0  0.1169
  H  H99  1  0.985400  0.573900  0.620900  1.0  0.0847
  H  H100  1  0.829700  0.604200  0.615800  1.0  0.1275
  H  H101  1  0.562100  0.727000  0.671700  1.0  0.0887
  H  H102  1  0.651200  0.693200  0.634000  1.0  0.1182
  H  H103  1  0.315300  0.687300  0.634800  1.0  0.1035
  H  H104  1  0.398800  0.652300  0.596400  1.0  0.1215
  H  H105  1  0.318000  0.606700  0.485000  1.0  0.0924
  H  H106  1  0.402900  0.634100  0.525300  1.0  0.1179
  H  H107  1  0.546000  0.533100  0.457100  1.0  0.0913
  H  H108  1  0.636000  0.557900  0.497000  1.0  0.1251
  H  H109  1  0.419900  0.580600  0.368700  1.0  0.0981
  H  H110  1  0.443700  0.649300  0.340600  1.0  0.1235
  H  H111  1  0.351600  0.660000  0.436900  1.0  0.0902
  H  H112  1  0.375300  0.731900  0.411200  1.0  0.1244
  H  H113  1  0.389900  0.922800  0.429500  1.0  0.0902
  H  H114  1  0.409400  0.847200  0.407800  1.0  0.1228
  H  H115  1  0.403100  0.988600  0.353300  1.0  0.095
  H  H116  1  0.427600  0.915300  0.329500  1.0  0.1218
  H  H117  1  0.588600  0.835500  0.228300  1.0  0.0954
  H  H118  1  0.526400  0.846100  0.275300  1.0  0.1195
  H  H119  1  0.533400  0.694600  0.231000  1.0  0.0869
  H  H120  1  0.472100  0.701300  0.278000  1.0  0.1136
  H  H121  1  0.507200  0.949400  0.536900  1.0  0.0912
  H  H122  1  0.351000  0.920000  0.529400  1.0  0.1166
  H  H123  1  0.485400  0.926100  0.620900  1.0  0.0849
  H  H124  1  0.329700  0.895800  0.615800  1.0  0.1276
  H  H125  1  0.062100  0.773000  0.671700  1.0  0.0879
  H  H126  1  0.151200  0.806800  0.634000  1.0  0.1183
  H  H127  1  0.815300  0.812700  0.634800  1.0  0.1037
  H  H128  1  0.898800  0.847700  0.596400  1.0  0.1214
  H  H129  1  0.818000  0.893300  0.485000  1.0  0.0927
  H  H130  1  0.902900  0.865900  0.525300  1.0  0.1182
  H  H131  1  0.046000  0.966900  0.457100  1.0  0.0917
  H  H132  1  0.136000  0.942100  0.497000  1.0  0.1249
  H  H133  1  0.919900  0.919400  0.368700  1.0  0.0973
  H  H134  1  0.943700  0.850700  0.340600  1.0  0.1237
  H  H135  1  0.851600  0.840000  0.436900  1.0  0.0901
  H  H136  1  0.875300  0.768100  0.411200  1.0  0.1243
  H  H137  1  0.889900  0.577200  0.429500  1.0  0.09
  H  H138  1  0.909400  0.652800  0.407800  1.0  0.1225
  H  H139  1  0.903100  0.511400  0.353300  1.0  0.0949
  H  H140  1  0.927600  0.584700  0.329500  1.0  0.1221
  H  H141  1  0.088600  0.664500  0.228300  1.0  0.0951
  H  H142  1  0.026400  0.653900  0.275300  1.0  0.1191
  H  H143  1  0.033400  0.805400  0.231000  1.0  0.0851
  H  H144  1  0.972100  0.798700  0.278000  1.0  0.114
  H  H145  1  0.492800  0.550600  0.036900  1.0  0.0904
  H  H146  1  0.649000  0.580000  0.029400  1.0  0.1171
  H  H147  1  0.514600  0.573900  0.120900  1.0  0.0846
  H  H148  1  0.670300  0.604200  0.115800  1.0  0.1274
  H  H149  1  0.937900  0.727000  0.171700  1.0  0.0888
  H  H150  1  0.848800  0.693200  0.134000  1.0  0.1194
  H  H151  1  0.184700  0.687300  0.134800  1.0  0.1017
  H  H152  1  0.101200  0.652300  0.096400  1.0  0.1216
  H  H153  1  0.182000  0.606700  0.985000  1.0  0.0934
  H  H154  1  0.097100  0.634100  0.025300  1.0  0.1175
  H  H155  1  0.954000  0.533100  0.957100  1.0  0.0907
  H  H156  1  0.864000  0.557900  0.997000  1.0  0.125
  H  H157  1  0.080100  0.580600  0.868700  1.0  0.0981
  H  H158  1  0.056300  0.649300  0.840600  1.0  0.1236
  H  H159  1  0.148400  0.660000  0.936900  1.0  0.0903
  H  H160  1  0.124700  0.731900  0.911200  1.0  0.1243
  H  H161  1  0.110100  0.922800  0.929500  1.0  0.0904
  H  H162  1  0.090600  0.847200  0.907800  1.0  0.1226
  H  H163  1  0.096900  0.988600  0.853300  1.0  0.0951
  H  H164  1  0.072400  0.915300  0.829500  1.0  0.1222
  H  H165  1  0.911400  0.835500  0.728300  1.0  0.0954
  H  H166  1  0.973600  0.846100  0.775300  1.0  0.1195
  H  H167  1  0.966600  0.694600  0.731000  1.0  0.0867
  H  H168  1  0.027900  0.701300  0.778000  1.0  0.1135
  H  H169  1  0.007200  0.050600  0.963100  1.0  0.0927
  H  H170  1  0.851000  0.080000  0.970600  1.0  0.1165
  H  H171  1  0.985400  0.073900  0.879100  1.0  0.084
  H  H172  1  0.829700  0.104200  0.884200  1.0  0.1273
  H  H173  1  0.562100  0.227000  0.828300  1.0  0.0884
  H  H174  1  0.651200  0.193200  0.866000  1.0  0.1183
  H  H175  1  0.315300  0.187300  0.865200  1.0  0.1034
  H  H176  1  0.398800  0.152300  0.903600  1.0  0.1222
  H  H177  1  0.318000  0.106700  0.015000  1.0  0.0926
  H  H178  1  0.402900  0.134100  0.974700  1.0  0.1184
  H  H179  1  0.546000  0.033100  0.042900  1.0  0.0913
  H  H180  1  0.636000  0.057900  0.003000  1.0  0.1254
  H  H181  1  0.419900  0.080600  0.131300  1.0  0.098
  H  H182  1  0.443700  0.149300  0.159400  1.0  0.124
  H  H183  1  0.351600  0.160000  0.063100  1.0  0.0907
  H  H184  1  0.375300  0.231900  0.088800  1.0  0.1243
  H  H185  1  0.389900  0.422800  0.070500  1.0  0.0889
  H  H186  1  0.409400  0.347200  0.092200  1.0  0.1222
  H  H187  1  0.403100  0.488600  0.146700  1.0  0.0957
  H  H188  1  0.427600  0.415300  0.170500  1.0  0.1217
  H  H189  1  0.588600  0.335500  0.271700  1.0  0.0952
  H  H190  1  0.526400  0.346100  0.224700  1.0  0.1199
  H  H191  1  0.533400  0.194600  0.269000  1.0  0.087
  H  H192  1  0.472100  0.201300  0.222000  1.0  0.1135
  H  H193  1  0.992800  0.449400  0.463100  1.0  0.0923
  H  H194  1  0.149000  0.420000  0.470600  1.0  0.1172
  H  H195  1  0.014600  0.426100  0.379100  1.0  0.084
  H  H196  1  0.170300  0.395800  0.384200  1.0  0.1273
  H  H197  1  0.437900  0.273000  0.328300  1.0  0.0891
  H  H198  1  0.348800  0.306800  0.366000  1.0  0.1195
  H  H199  1  0.684700  0.312700  0.365200  1.0  0.1017
  H  H200  1  0.601200  0.347700  0.403600  1.0  0.1218
  H  H201  1  0.682000  0.393300  0.515000  1.0  0.0933
  H  H202  1  0.597100  0.365900  0.474700  1.0  0.1181
  H  H203  1  0.454000  0.466900  0.542900  1.0  0.0916
  H  H204  1  0.364000  0.442100  0.503000  1.0  0.1251
  H  H205  1  0.580100  0.419400  0.631300  1.0  0.0973
  H  H206  1  0.556300  0.350700  0.659400  1.0  0.1239
  H  H207  1  0.648400  0.340000  0.563100  1.0  0.0906
  H  H208  1  0.624700  0.268100  0.588800  1.0  0.1241
  H  H209  1  0.610100  0.077200  0.570500  1.0  0.0888
  H  H210  1  0.590600  0.152800  0.592200  1.0  0.1222
  H  H211  1  0.596900  0.011400  0.646700  1.0  0.0958
  H  H212  1  0.572400  0.084700  0.670500  1.0  0.1219
  H  H213  1  0.411400  0.164500  0.771700  1.0  0.0954
  H  H214  1  0.473600  0.153900  0.724700  1.0  0.1194
  H  H215  1  0.466600  0.305400  0.769000  1.0  0.085
  H  H216  1  0.527900  0.298700  0.722000  1.0  0.114
  C  C217  1  0.529400  0.061500  0.446880  1.0  0.1261
  C  C218  1  0.622600  0.079200  0.451470  1.0  -0.1087
  C  C219  1  0.542400  0.075200  0.398010  1.0  0.1475
  C  C220  1  0.635300  0.093400  0.400770  1.0  -0.1566
  C  C221  1  0.676200  0.095380  0.428230  1.0  -0.0757
  C  C222  1  0.777600  0.112530  0.431890  1.0  0.4321
  C  C223  1  0.971300  0.211600  0.343910  1.0  0.1423
  C  C224  1  0.917600  0.191700  0.366270  1.0  -0.1311
  C  C225  1  0.115900  0.188450  0.365390  1.0  0.1309
  C  C226  1  0.066600  0.167750  0.388330  1.0  -0.0973
  C  C227  1  0.965700  0.169660  0.388940  1.0  -0.091
  C  C228  1  0.913000  0.146870  0.413500  1.0  0.3879
  C  C229  1  0.116500  0.096900  0.512570  1.0  0.1402
  C  C230  1  0.066400  0.113300  0.488450  1.0  -0.1264
  C  C231  1  0.983300  0.053790  0.528790  1.0  0.1296
  C  C232  1  0.929200  0.068560  0.505230  1.0  -0.132
  C  C233  1  0.971300  0.099380  0.484570  1.0  -0.1086
  C  C234  1  0.914300  0.114540  0.458590  1.0  0.2855
  C  C235  1  0.089400  0.111780  0.622750  1.0  0.131
  C  C236  1  0.074900  0.152490  0.639600  1.0  -0.1259
  C  C237  1  0.129000  0.158140  0.582890  1.0  0.1494
  C  C238  1  0.115400  0.201260  0.598070  1.0  -0.1549
  C  C239  1  0.087600  0.198580  0.627250  1.0  -0.1152
  C  C240  1  0.073700  0.242760  0.644770  1.0  0.4305
  C  C241  1  0.103800  0.421060  0.591060  1.0  0.1366
  C  C242  1  0.091700  0.375840  0.603800  1.0  -0.1316
  C  C243  1  0.095400  0.459400  0.635550  1.0  0.1498
  C  C244  1  0.081500  0.415900  0.649950  1.0  -0.1515
  C  C245  1  0.081000  0.372750  0.633860  1.0  -0.114
  C  C246  1  0.070900  0.324680  0.648120  1.0  0.3868
  C  C247  1  0.934800  0.307900  0.761310  1.0  0.1301
  C  C248  1  0.971400  0.314600  0.733270  1.0  -0.14
  C  C249  1  0.966700  0.225570  0.759760  1.0  0.1342
  C  C250  1  0.003600  0.229320  0.731730  1.0  -0.1288
  C  C251  1  0.004500  0.274130  0.718270  1.0  -0.1125
  C  C252  1  0.036400  0.278820  0.687440  1.0  0.3884
  C  C253  1  0.470600  0.438500  0.946880  1.0  0.1262
  C  C254  1  0.377400  0.420800  0.951470  1.0  -0.1083
  C  C255  1  0.457600  0.424800  0.898010  1.0  0.1461
  C  C256  1  0.364700  0.406600  0.900770  1.0  -0.156
  C  C257  1  0.323800  0.404620  0.928230  1.0  -0.0764
  C  C258  1  0.222400  0.387470  0.931890  1.0  0.4305
  C  C259  1  0.028700  0.288400  0.843910  1.0  0.1411
  C  C260  1  0.082400  0.308300  0.866270  1.0  -0.1299
  C  C261  1  0.884100  0.311550  0.865390  1.0  0.1312
  C  C262  1  0.933400  0.332250  0.888330  1.0  -0.0985
  C  C263  1  0.034300  0.330340  0.888940  1.0  -0.0912
  C  C264  1  0.087000  0.353130  0.913500  1.0  0.3878
  C  C265  1  0.883500  0.403100  0.012570  1.0  0.1408
  C  C266  1  0.933600  0.386700  0.988450  1.0  -0.1265
  C  C267  1  0.016700  0.446210  0.028790  1.0  0.1304
  C  C268  1  0.070800  0.431440  0.005230  1.0  -0.1297
  C  C269  1  0.028700  0.400620  0.984570  1.0  -0.1079
  C  C270  1  0.085700  0.385460  0.958590  1.0  0.285
  C  C271  1  0.910600  0.388220  0.122750  1.0  0.132
  C  C272  1  0.925100  0.347510  0.139600  1.0  -0.1265
  C  C273  1  0.871000  0.341860  0.082890  1.0  0.1498
  C  C274  1  0.884600  0.298740  0.098070  1.0  -0.1536
  C  C275  1  0.912400  0.301420  0.127250  1.0  -0.1156
  C  C276  1  0.926300  0.257240  0.144770  1.0  0.4306
  C  C277  1  0.896200  0.078940  0.091060  1.0  0.1363
  C  C278  1  0.908300  0.124160  0.103800  1.0  -0.1303
  C  C279  1  0.904600  0.040600  0.135550  1.0  0.1496
  C  C280  1  0.918500  0.084100  0.149950  1.0  -0.1512
  C  C281  1  0.919000  0.127250  0.133860  1.0  -0.1132
  C  C282  1  0.929100  0.175320  0.148120  1.0  0.3869
  C  C283  1  0.065200  0.192100  0.261310  1.0  0.1308
  C  C284  1  0.028600  0.185400  0.233270  1.0  -0.1402
  C  C285  1  0.033300  0.274430  0.259760  1.0  0.1327
  C  C286  1  0.996400  0.270680  0.231730  1.0  -0.1295
  C  C287  1  0.995500  0.225870  0.218270  1.0  -0.1132
  C  C288  1  0.963600  0.221180  0.187440  1.0  0.3884
  C  C289  1  0.029400  0.938500  0.053120  1.0  0.1267
  C  C290  1  0.122600  0.920800  0.048530  1.0  -0.1068
  C  C291  1  0.042400  0.924800  0.101990  1.0  0.1471
  C  C292  1  0.135300  0.906600  0.099230  1.0  -0.1558
  C  C293  1  0.176200  0.904620  0.071770  1.0  -0.0759
  C  C294  1  0.277600  0.887470  0.068110  1.0  0.4311
  C  C295  1  0.471300  0.788400  0.156090  1.0  0.1424
  C  C296  1  0.417600  0.808300  0.133730  1.0  -0.1307
  C  C297  1  0.615900  0.811550  0.134610  1.0  0.13
  C  C298  1  0.566600  0.832250  0.111670  1.0  -0.0976
  C  C299  1  0.465700  0.830340  0.111060  1.0  -0.091
  C  C300  1  0.413000  0.853130  0.086500  1.0  0.388
  C  C301  1  0.616500  0.903100  0.987430  1.0  0.1399
  C  C302  1  0.566400  0.886700  0.011550  1.0  -0.126
  C  C303  1  0.483300  0.946210  0.971210  1.0  0.13
  C  C304  1  0.429200  0.931440  0.994770  1.0  -0.1318
  C  C305  1  0.471300  0.900620  0.015430  1.0  -0.1089
  C  C306  1  0.414300  0.885460  0.041410  1.0  0.2854
  C  C307  1  0.589400  0.888220  0.877250  1.0  0.131
  C  C308  1  0.574900  0.847510  0.860400  1.0  -0.1251
  C  C309  1  0.629000  0.841860  0.917110  1.0  0.1505
  C  C310  1  0.615400  0.798740  0.901930  1.0  -0.1538
  C  C311  1  0.587600  0.801420  0.872750  1.0  -0.1156
  C  C312  1  0.573700  0.757240  0.855230  1.0  0.4306
  C  C313  1  0.603800  0.578940  0.908940  1.0  0.1368
  C  C314  1  0.591700  0.624160  0.896200  1.0  -0.1303
  C  C315  1  0.595400  0.540600  0.864450  1.0  0.1493
  C  C316  1  0.581500  0.584100  0.850050  1.0  -0.1496
  C  C317  1  0.581000  0.627250  0.866140  1.0  -0.1128
  C  C318  1  0.570900  0.675320  0.851880  1.0  0.3873
  C  C319  1  0.434800  0.692100  0.738690  1.0  0.1309
  C  C320  1  0.471400  0.685400  0.766730  1.0  -0.1402
  C  C321  1  0.466700  0.774430  0.740240  1.0  0.1337
  C  C322  1  0.503600  0.770680  0.768270  1.0  -0.1291
  C  C323  1  0.504500  0.725870  0.781730  1.0  -0.1124
  C  C324  1  0.536400  0.721180  0.812560  1.0  0.3882
  C  C325  1  0.970600  0.561500  0.553120  1.0  0.1261
  C  C326  1  0.877400  0.579200  0.548530  1.0  -0.1075
  C  C327  1  0.957600  0.575200  0.601990  1.0  0.1471
  C  C328  1  0.864700  0.593400  0.599230  1.0  -0.1568
  C  C329  1  0.823800  0.595380  0.571770  1.0  -0.0757
  C  C330  1  0.722400  0.612530  0.568110  1.0  0.4306
  C  C331  1  0.528700  0.711600  0.656090  1.0  0.141
  C  C332  1  0.582400  0.691700  0.633730  1.0  -0.1296
  C  C333  1  0.384100  0.688450  0.634610  1.0  0.1311
  C  C334  1  0.433400  0.667750  0.611670  1.0  -0.0974
  C  C335  1  0.534300  0.669660  0.611060  1.0  -0.0914
  C  C336  1  0.587000  0.646870  0.586500  1.0  0.3882
  C  C337  1  0.383500  0.596900  0.487430  1.0  0.1411
  C  C338  1  0.433600  0.613300  0.511550  1.0  -0.1276
  C  C339  1  0.516700  0.553790  0.471210  1.0  0.1294
  C  C340  1  0.570800  0.568560  0.494770  1.0  -0.1292
  C  C341  1  0.528700  0.599380  0.515430  1.0  -0.1085
  C  C342  1  0.585700  0.614540  0.541410  1.0  0.2863
  C  C343  1  0.410600  0.611780  0.377250  1.0  0.1301
  C  C344  1  0.425100  0.652490  0.360400  1.0  -0.1261
  C  C345  1  0.371000  0.658140  0.417110  1.0  0.1497
  C  C346  1  0.384600  0.701260  0.401930  1.0  -0.1545
  C  C347  1  0.412400  0.698580  0.372750  1.0  -0.1146
  C  C348  1  0.426300  0.742760  0.355230  1.0  0.4305
  C  C349  1  0.396200  0.921060  0.408940  1.0  0.1354
  C  C350  1  0.408300  0.875840  0.396200  1.0  -0.131
  C  C351  1  0.404600  0.959400  0.364450  1.0  0.1491
  C  C352  1  0.418500  0.915900  0.350050  1.0  -0.1502
  C  C353  1  0.419000  0.872750  0.366140  1.0  -0.1141
  C  C354  1  0.429100  0.824680  0.351880  1.0  0.3867
  C  C355  1  0.565200  0.807900  0.238690  1.0  0.1304
  C  C356  1  0.528600  0.814600  0.266730  1.0  -0.1396
  C  C357  1  0.533300  0.725570  0.240240  1.0  0.1321
  C  C358  1  0.496400  0.729320  0.268270  1.0  -0.13
  C  C359  1  0.495500  0.774130  0.281730  1.0  -0.1125
  C  C360  1  0.463600  0.778820  0.312560  1.0  0.3883
  C  C361  1  0.470600  0.938500  0.553120  1.0  0.1265
  C  C362  1  0.377400  0.920800  0.548530  1.0  -0.107
  C  C363  1  0.457600  0.924800  0.601990  1.0  0.1472
  C  C364  1  0.364700  0.906600  0.599230  1.0  -0.1565
  C  C365  1  0.323800  0.904620  0.571770  1.0  -0.0765
  C  C366  1  0.222400  0.887470  0.568110  1.0  0.4303
  C  C367  1  0.028700  0.788400  0.656090  1.0  0.1415
  C  C368  1  0.082400  0.808300  0.633730  1.0  -0.1296
  C  C369  1  0.884100  0.811550  0.634610  1.0  0.1311
  C  C370  1  0.933400  0.832250  0.611670  1.0  -0.0974
  C  C371  1  0.034300  0.830340  0.611060  1.0  -0.0911
  C  C372  1  0.087000  0.853130  0.586500  1.0  0.3879
  C  C373  1  0.883500  0.903100  0.487430  1.0  0.1412
  C  C374  1  0.933600  0.886700  0.511550  1.0  -0.1262
  C  C375  1  0.016700  0.946210  0.471210  1.0  0.1298
  C  C376  1  0.070800  0.931440  0.494770  1.0  -0.129
  C  C377  1  0.028700  0.900620  0.515430  1.0  -0.1086
  C  C378  1  0.085700  0.885460  0.541410  1.0  0.2854
  C  C379  1  0.910600  0.888220  0.377250  1.0  0.1309
  C  C380  1  0.925100  0.847510  0.360400  1.0  -0.126
  C  C381  1  0.871000  0.841860  0.417110  1.0  0.1503
  C  C382  1  0.884600  0.798740  0.401930  1.0  -0.1536
  C  C383  1  0.912400  0.801420  0.372750  1.0  -0.1154
  C  C384  1  0.926300  0.757240  0.355230  1.0  0.4306
  C  C385  1  0.896200  0.578940  0.408940  1.0  0.1357
  C  C386  1  0.908300  0.624160  0.396200  1.0  -0.1299
  C  C387  1  0.904600  0.540600  0.364450  1.0  0.1495
  C  C388  1  0.918500  0.584100  0.350050  1.0  -0.1496
  C  C389  1  0.919000  0.627250  0.366140  1.0  -0.113
  C  C390  1  0.929100  0.675320  0.351880  1.0  0.387
  C  C391  1  0.065200  0.692100  0.238690  1.0  0.1294
  C  C392  1  0.028600  0.685400  0.266730  1.0  -0.1407
  C  C393  1  0.033300  0.774430  0.240240  1.0  0.1327
  C  C394  1  0.996400  0.770680  0.268270  1.0  -0.1299
  C  C395  1  0.995500  0.725870  0.281730  1.0  -0.1127
  C  C396  1  0.963600  0.721180  0.312560  1.0  0.3883
  C  C397  1  0.529400  0.561500  0.053120  1.0  0.1264
  C  C398  1  0.622600  0.579200  0.048530  1.0  -0.1074
  C  C399  1  0.542400  0.575200  0.101990  1.0  0.1468
  C  C400  1  0.635300  0.593400  0.099230  1.0  -0.1562
  C  C401  1  0.676200  0.595380  0.071770  1.0  -0.0758
  C  C402  1  0.777600  0.612530  0.068110  1.0  0.432
  C  C403  1  0.971300  0.711600  0.156090  1.0  0.1414
  C  C404  1  0.917600  0.691700  0.133730  1.0  -0.1308
  C  C405  1  0.115900  0.688450  0.134610  1.0  0.1305
  C  C406  1  0.066600  0.667750  0.111670  1.0  -0.0975
  C  C407  1  0.965700  0.669660  0.111060  1.0  -0.0912
  C  C408  1  0.913000  0.646870  0.086500  1.0  0.3881
  C  C409  1  0.116500  0.596900  0.987430  1.0  0.14
  C  C410  1  0.066400  0.613300  0.011550  1.0  -0.1269
  C  C411  1  0.983300  0.553790  0.971210  1.0  0.1299
  C  C412  1  0.929200  0.568560  0.994770  1.0  -0.1318
  C  C413  1  0.971300  0.599380  0.015430  1.0  -0.1086
  C  C414  1  0.914300  0.614540  0.041410  1.0  0.2861
  C  C415  1  0.089400  0.611780  0.877250  1.0  0.1305
  C  C416  1  0.074900  0.652490  0.860400  1.0  -0.1246
  C  C417  1  0.129000  0.658140  0.917110  1.0  0.1499
  C  C418  1  0.115400  0.701260  0.901930  1.0  -0.1539
  C  C419  1  0.087600  0.698580  0.872750  1.0  -0.115
  C  C420  1  0.073700  0.742760  0.855230  1.0  0.4305
  C  C421  1  0.103800  0.921060  0.908940  1.0  0.1369
  C  C422  1  0.091700  0.875840  0.896200  1.0  -0.1317
  C  C423  1  0.095400  0.959400  0.864450  1.0  0.1493
  C  C424  1  0.081500  0.915900  0.850050  1.0  -0.1502
  C  C425  1  0.081000  0.872750  0.866140  1.0  -0.114
  C  C426  1  0.070900  0.824680  0.851880  1.0  0.387
  C  C427  1  0.934800  0.807900  0.738690  1.0  0.1305
  C  C428  1  0.971400  0.814600  0.766730  1.0  -0.1398
  C  C429  1  0.966700  0.725570  0.740240  1.0  0.1334
  C  C430  1  0.003600  0.729320  0.768270  1.0  -0.1295
  C  C431  1  0.004500  0.774130  0.781730  1.0  -0.1122
  C  C432  1  0.036400  0.778820  0.812560  1.0  0.3882
  C  C433  1  0.970600  0.061500  0.946880  1.0  0.1265
  C  C434  1  0.877400  0.079200  0.951470  1.0  -0.1086
  C  C435  1  0.957600  0.075200  0.898010  1.0  0.1461
  C  C436  1  0.864700  0.093400  0.900770  1.0  -0.1564
  C  C437  1  0.823800  0.095380  0.928230  1.0  -0.0755
  C  C438  1  0.722400  0.112530  0.931890  1.0  0.4308
  C  C439  1  0.528700  0.211600  0.843910  1.0  0.1415
  C  C440  1  0.582400  0.191700  0.866270  1.0  -0.1297
  C  C441  1  0.384100  0.188450  0.865390  1.0  0.1311
  C  C442  1  0.433400  0.167750  0.888330  1.0  -0.098
  C  C443  1  0.534300  0.169660  0.888940  1.0  -0.0914
  C  C444  1  0.587000  0.146870  0.913500  1.0  0.3879
  C  C445  1  0.383500  0.096900  0.012570  1.0  0.1409
  C  C446  1  0.433600  0.113300  0.988450  1.0  -0.1271
  C  C447  1  0.516700  0.053790  0.028790  1.0  0.1304
  C  C448  1  0.570800  0.068560  0.005230  1.0  -0.1301
  C  C449  1  0.528700  0.099380  0.984570  1.0  -0.1086
  C  C450  1  0.585700  0.114540  0.958590  1.0  0.2857
  C  C451  1  0.410600  0.111780  0.122750  1.0  0.1308
  C  C452  1  0.425100  0.152490  0.139600  1.0  -0.1262
  C  C453  1  0.371000  0.158140  0.082890  1.0  0.1496
  C  C454  1  0.384600  0.201260  0.098070  1.0  -0.1545
  C  C455  1  0.412400  0.198580  0.127250  1.0  -0.1149
  C  C456  1  0.426300  0.242760  0.144770  1.0  0.4306
  C  C457  1  0.396200  0.421060  0.091060  1.0  0.1363
  C  C458  1  0.408300  0.375840  0.103800  1.0  -0.1308
  C  C459  1  0.404600  0.459400  0.135550  1.0  0.1489
  C  C460  1  0.418500  0.415900  0.149950  1.0  -0.1511
  C  C461  1  0.419000  0.372750  0.133860  1.0  -0.1142
  C  C462  1  0.429100  0.324680  0.148120  1.0  0.3866
  C  C463  1  0.565200  0.307900  0.261310  1.0  0.1304
  C  C464  1  0.528600  0.314600  0.233270  1.0  -0.1398
  C  C465  1  0.533300  0.225570  0.259760  1.0  0.133
  C  C466  1  0.496400  0.229320  0.231730  1.0  -0.1295
  C  C467  1  0.495500  0.274130  0.218270  1.0  -0.1129
  C  C468  1  0.463600  0.278820  0.187440  1.0  0.3884
  C  C469  1  0.029400  0.438500  0.446880  1.0  0.1258
  C  C470  1  0.122600  0.420800  0.451470  1.0  -0.1083
  C  C471  1  0.042400  0.424800  0.398010  1.0  0.1475
  C  C472  1  0.135300  0.406600  0.400770  1.0  -0.1562
  C  C473  1  0.176200  0.404620  0.428230  1.0  -0.0758
  C  C474  1  0.277600  0.387470  0.431890  1.0  0.4313
  C  C475  1  0.471300  0.288400  0.343910  1.0  0.1422
  C  C476  1  0.417600  0.308300  0.366270  1.0  -0.1311
  C  C477  1  0.615900  0.311550  0.365390  1.0  0.1305
  C  C478  1  0.566600  0.332250  0.388330  1.0  -0.0979
  C  C479  1  0.465700  0.330340  0.388940  1.0  -0.0909
  C  C480  1  0.413000  0.353130  0.413500  1.0  0.3878
  C  C481  1  0.616500  0.403100  0.512570  1.0  0.1399
  C  C482  1  0.566400  0.386700  0.488450  1.0  -0.1264
  C  C483  1  0.483300  0.446210  0.528790  1.0  0.1295
  C  C484  1  0.429200  0.431440  0.505230  1.0  -0.1318
  C  C485  1  0.471300  0.400620  0.484570  1.0  -0.1082
  C  C486  1  0.414300  0.385460  0.458590  1.0  0.2849
  C  C487  1  0.589400  0.388220  0.622750  1.0  0.1319
  C  C488  1  0.574900  0.347510  0.639600  1.0  -0.1266
  C  C489  1  0.629000  0.341860  0.582890  1.0  0.1497
  C  C490  1  0.615400  0.298740  0.598070  1.0  -0.1546
  C  C491  1  0.587600  0.301420  0.627250  1.0  -0.1156
  C  C492  1  0.573700  0.257240  0.644770  1.0  0.4306
  C  C493  1  0.603800  0.078940  0.591060  1.0  0.1364
  C  C494  1  0.591700  0.124160  0.603800  1.0  -0.131
  C  C495  1  0.595400  0.040600  0.635550  1.0  0.1499
  C  C496  1  0.581500  0.084100  0.649950  1.0  -0.1516
  C  C497  1  0.581000  0.127250  0.633860  1.0  -0.113
  C  C498  1  0.570900  0.175320  0.648120  1.0  0.3871
  C  C499  1  0.434800  0.192100  0.761310  1.0  0.1317
  C  C500  1  0.471400  0.185400  0.733270  1.0  -0.1398
  C  C501  1  0.466700  0.274430  0.759760  1.0  0.1336
  C  C502  1  0.503600  0.270680  0.731730  1.0  -0.1287
  C  C503  1  0.504500  0.225870  0.718270  1.0  -0.1128
  C  C504  1  0.536400  0.221180  0.687440  1.0  0.3884
  I  I505  1  0.053450  0.983940  0.596930  1.0  -0.425
  I  I506  1  0.330000  0.053790  0.564290  1.0  -0.3592
  I  I507  1  0.282300  0.008380  0.463070  1.0  -0.4164
  I  I508  1  0.264590  0.073530  0.373910  1.0  -0.3585
  I  I509  1  0.164720  0.334480  0.322850  1.0  -0.3214
  I  I510  1  0.303230  0.192500  0.304870  1.0  -0.3781
  I  I511  1  0.946550  0.516060  0.096930  1.0  -0.4265
  I  I512  1  0.670000  0.446210  0.064290  1.0  -0.3586
  I  I513  1  0.717700  0.491620  0.963070  1.0  -0.4159
  I  I514  1  0.735410  0.426470  0.873910  1.0  -0.3592
  I  I515  1  0.835280  0.165520  0.822850  1.0  -0.3215
  I  I516  1  0.696770  0.307500  0.804870  1.0  -0.3788
  I  I517  1  0.553450  0.016060  0.903070  1.0  -0.4271
  I  I518  1  0.830000  0.946210  0.935710  1.0  -0.3597
  I  I519  1  0.782300  0.991620  0.036930  1.0  -0.4152
  I  I520  1  0.764590  0.926470  0.126090  1.0  -0.358
  I  I521  1  0.664720  0.665520  0.177150  1.0  -0.3214
  I  I522  1  0.803230  0.807500  0.195130  1.0  -0.3785
  I  I523  1  0.446550  0.483940  0.403070  1.0  -0.4282
  I  I524  1  0.170000  0.553790  0.435710  1.0  -0.359
  I  I525  1  0.217700  0.508380  0.536930  1.0  -0.4145
  I  I526  1  0.235410  0.573530  0.626090  1.0  -0.3584
  I  I527  1  0.335280  0.834480  0.677150  1.0  -0.3222
  I  I528  1  0.196770  0.692500  0.695130  1.0  -0.3786
  I  I529  1  0.946550  0.016060  0.403070  1.0  -0.4284
  I  I530  1  0.670000  0.946210  0.435710  1.0  -0.359
  I  I531  1  0.717700  0.991620  0.536930  1.0  -0.4154
  I  I532  1  0.735410  0.926470  0.626090  1.0  -0.3585
  I  I533  1  0.835280  0.665520  0.677150  1.0  -0.3218
  I  I534  1  0.696770  0.807500  0.695130  1.0  -0.3793
  I  I535  1  0.053450  0.483940  0.903070  1.0  -0.427
  I  I536  1  0.330000  0.553790  0.935710  1.0  -0.3597
  I  I537  1  0.282300  0.508380  0.036930  1.0  -0.4157
  I  I538  1  0.264590  0.573530  0.126090  1.0  -0.3579
  I  I539  1  0.164720  0.834480  0.177150  1.0  -0.3222
  I  I540  1  0.303230  0.692500  0.195130  1.0  -0.3785
  I  I541  1  0.446550  0.983940  0.096930  1.0  -0.4263
  I  I542  1  0.170000  0.053790  0.064290  1.0  -0.3585
  I  I543  1  0.217700  0.008380  0.963070  1.0  -0.4152
  I  I544  1  0.235410  0.073530  0.873910  1.0  -0.3588
  I  I545  1  0.335280  0.334480  0.822850  1.0  -0.3215
  I  I546  1  0.196770  0.192500  0.804870  1.0  -0.3787
  I  I547  1  0.553450  0.516060  0.596930  1.0  -0.4252
  I  I548  1  0.830000  0.446210  0.564290  1.0  -0.3593
  I  I549  1  0.782300  0.491620  0.463070  1.0  -0.4156
  I  I550  1  0.764590  0.426470  0.373910  1.0  -0.3589
  I  I551  1  0.664720  0.165520  0.322850  1.0  -0.3212
  I  I552  1  0.803230  0.307500  0.304870  1.0  -0.378
  N  N553  1  0.489500  0.059420  0.420310  1.0  -0.3037
  N  N554  1  0.069100  0.210270  0.343130  1.0  -0.3374
  N  N555  1  0.076500  0.067570  0.532630  1.0  -0.3096
  N  N556  1  0.819500  0.135100  0.409250  1.0  -0.4435
  N  N557  1  0.963700  0.137870  0.437740  1.0  -0.4743
  N  N558  1  0.821500  0.101840  0.457100  1.0  -0.3899
  N  N559  1  0.116500  0.114350  0.594550  1.0  -0.3044
  N  N560  1  0.106900  0.462640  0.606530  1.0  -0.3449
  N  N561  1  0.931300  0.263990  0.774250  1.0  -0.3202
  N  N562  1  0.085700  0.285800  0.631460  1.0  -0.484
  N  N563  1  0.046400  0.323710  0.676370  1.0  -0.4653
  N  N564  1  0.049400  0.237310  0.672760  1.0  -0.556
  N  N565  1  0.510500  0.440580  0.920310  1.0  -0.3018
  N  N566  1  0.930900  0.289730  0.843130  1.0  -0.3386
  N  N567  1  0.923500  0.432430  0.032630  1.0  -0.3093
  N  N568  1  0.180500  0.364900  0.909250  1.0  -0.4437
  N  N569  1  0.036300  0.362130  0.937740  1.0  -0.4734
  N  N570  1  0.178500  0.398160  0.957100  1.0  -0.3901
  N  N571  1  0.883500  0.385650  0.094550  1.0  -0.3047
  N  N572  1  0.893100  0.037360  0.106530  1.0  -0.345
  N  N573  1  0.068700  0.236010  0.274250  1.0  -0.3202
  N  N574  1  0.914300  0.214200  0.131460  1.0  -0.4838
  N  N575  1  0.953600  0.176290  0.176370  1.0  -0.4657
  N  N576  1  0.950600  0.262690  0.172760  1.0  -0.5569
  N  N577  1  0.989500  0.940580  0.079690  1.0  -0.3033
  N  N578  1  0.569100  0.789730  0.156870  1.0  -0.3376
  N  N579  1  0.576500  0.932430  0.967370  1.0  -0.3094
  N  N580  1  0.319500  0.864900  0.090750  1.0  -0.4427
  N  N581  1  0.463700  0.862130  0.062260  1.0  -0.4735
  N  N582  1  0.321500  0.898160  0.042900  1.0  -0.3906
  N  N583  1  0.616500  0.885650  0.905450  1.0  -0.3057
  N  N584  1  0.606900  0.537360  0.893470  1.0  -0.3447
  N  N585  1  0.431300  0.736010  0.725750  1.0  -0.321
  N  N586  1  0.585700  0.714200  0.868540  1.0  -0.4845
  N  N587  1  0.546400  0.676290  0.823630  1.0  -0.4663
  N  N588  1  0.549400  0.762690  0.827240  1.0  -0.5568
  N  N589  1  0.010500  0.559420  0.579690  1.0  -0.3018
  N  N590  1  0.430900  0.710270  0.656870  1.0  -0.3389
  N  N591  1  0.423500  0.567570  0.467370  1.0  -0.3114
  N  N592  1  0.680500  0.635100  0.590750  1.0  -0.4428
  N  N593  1  0.536300  0.637870  0.562260  1.0  -0.4734
  N  N594  1  0.678500  0.601840  0.542900  1.0  -0.3904
  N  N595  1  0.383500  0.614350  0.405450  1.0  -0.3052
  N  N596  1  0.393100  0.962640  0.393470  1.0  -0.3461
  N  N597  1  0.568700  0.763990  0.225750  1.0  -0.3217
  N  N598  1  0.414300  0.785800  0.368540  1.0  -0.4836
  N  N599  1  0.453600  0.823710  0.323630  1.0  -0.4651
  N  N600  1  0.450600  0.737310  0.327240  1.0  -0.556
  N  N601  1  0.510500  0.940580  0.579690  1.0  -0.3016
  N  N602  1  0.930900  0.789730  0.656870  1.0  -0.3383
  N  N603  1  0.923500  0.932430  0.467370  1.0  -0.3093
  N  N604  1  0.180500  0.864900  0.590750  1.0  -0.4423
  N  N605  1  0.036300  0.862130  0.562260  1.0  -0.4732
  N  N606  1  0.178500  0.898160  0.542900  1.0  -0.3904
  N  N607  1  0.883500  0.885650  0.405450  1.0  -0.3057
  N  N608  1  0.893100  0.537360  0.393470  1.0  -0.3452
  N  N609  1  0.068700  0.736010  0.225750  1.0  -0.3219
  N  N610  1  0.914300  0.714200  0.368540  1.0  -0.4837
  N  N611  1  0.953600  0.676290  0.323630  1.0  -0.4661
  N  N612  1  0.950600  0.762690  0.327240  1.0  -0.5563
  N  N613  1  0.489500  0.559420  0.079690  1.0  -0.3037
  N  N614  1  0.069100  0.710270  0.156870  1.0  -0.3383
  N  N615  1  0.076500  0.567570  0.967370  1.0  -0.3108
  N  N616  1  0.819500  0.635100  0.090750  1.0  -0.4429
  N  N617  1  0.963700  0.637870  0.062260  1.0  -0.474
  N  N618  1  0.821500  0.601840  0.042900  1.0  -0.3905
  N  N619  1  0.116500  0.614350  0.905450  1.0  -0.3047
  N  N620  1  0.106900  0.962640  0.893470  1.0  -0.346
  N  N621  1  0.931300  0.763990  0.725750  1.0  -0.3216
  N  N622  1  0.085700  0.785800  0.868540  1.0  -0.4845
  N  N623  1  0.046400  0.823710  0.823630  1.0  -0.4651
  N  N624  1  0.049400  0.737310  0.827240  1.0  -0.5567
  N  N625  1  0.010500  0.059420  0.920310  1.0  -0.3021
  N  N626  1  0.430900  0.210270  0.843130  1.0  -0.3373
  N  N627  1  0.423500  0.067570  0.032630  1.0  -0.3094
  N  N628  1  0.680500  0.135100  0.909250  1.0  -0.4432
  N  N629  1  0.536300  0.137870  0.937740  1.0  -0.4737
  N  N630  1  0.678500  0.101840  0.957100  1.0  -0.39
  N  N631  1  0.383500  0.114350  0.094550  1.0  -0.3051
  N  N632  1  0.393100  0.462640  0.106530  1.0  -0.3446
  N  N633  1  0.568700  0.263990  0.274250  1.0  -0.32
  N  N634  1  0.414300  0.285800  0.131460  1.0  -0.4835
  N  N635  1  0.453600  0.323710  0.176370  1.0  -0.4654
  N  N636  1  0.450600  0.237310  0.172760  1.0  -0.5556
  N  N637  1  0.989500  0.440580  0.420310  1.0  -0.3034
  N  N638  1  0.569100  0.289730  0.343130  1.0  -0.3379
  N  N639  1  0.576500  0.432430  0.532630  1.0  -0.3097
  N  N640  1  0.319500  0.364900  0.409250  1.0  -0.444
  N  N641  1  0.463700  0.362130  0.437740  1.0  -0.4736
  N  N642  1  0.321500  0.398160  0.457100  1.0  -0.3903
  N  N643  1  0.616500  0.385650  0.594550  1.0  -0.3048
  N  N644  1  0.606900  0.037360  0.606530  1.0  -0.3444
  N  N645  1  0.431300  0.236010  0.774250  1.0  -0.3201
  N  N646  1  0.585700  0.214200  0.631460  1.0  -0.4842
  N  N647  1  0.546400  0.176290  0.676370  1.0  -0.4657
  N  N648  1  0.549400  0.262690  0.672760  1.0  -0.5573
