# generated using pymatgen
data_ZnH8C12(IN2)2
_symmetry_space_group_name_H-M   'P 1'
_cell_length_a   13.70700000
_cell_length_b   27.44900000
_cell_length_c   45.24800000
_cell_angle_alpha   90.00000000
_cell_angle_beta   90.00000000
_cell_angle_gamma   90.00000000
_symmetry_Int_Tables_number   1
_chemical_formula_structural   ZnH8C12(IN2)2
_chemical_formula_sum   'Zn24 H192 C288 I48 N96'
_cell_volume   17024.26330886
_cell_formula_units_Z   24
loop_
 _symmetry_equiv_pos_site_id
 _symmetry_equiv_pos_as_xyz
  1  'x, y, z'
loop_
 _atom_site_type_symbol
 _atom_site_label
 _atom_site_symmetry_multiplicity
 _atom_site_fract_x
 _atom_site_fract_y
 _atom_site_fract_z
 _atom_site_occupancy
 _atom_site_charge
  Zn  Zn1  1  0.345170  0.256360  0.814690  1.0  0.8995
  Zn  Zn2  1  0.135770  0.471710  0.915830  1.0  0.8387
  Zn  Zn3  1  0.337090  0.446100  0.077030  1.0  0.8265
  Zn  Zn4  1  0.654830  0.243640  0.314690  1.0  0.9005
  Zn  Zn5  1  0.864230  0.028290  0.415830  1.0  0.8382
  Zn  Zn6  1  0.662910  0.053900  0.577030  1.0  0.8291
  Zn  Zn7  1  0.845170  0.743640  0.685310  1.0  0.8995
  Zn  Zn8  1  0.635770  0.528290  0.584170  1.0  0.8377
  Zn  Zn9  1  0.837090  0.553900  0.422970  1.0  0.8276
  Zn  Zn10  1  0.154830  0.756360  0.185310  1.0  0.9002
  Zn  Zn11  1  0.364230  0.971710  0.084170  1.0  0.8385
  Zn  Zn12  1  0.162910  0.946100  0.922970  1.0  0.828
  Zn  Zn13  1  0.654830  0.743640  0.185310  1.0  0.9005
  Zn  Zn14  1  0.864230  0.528290  0.084170  1.0  0.8376
  Zn  Zn15  1  0.662910  0.553900  0.922970  1.0  0.8283
  Zn  Zn16  1  0.345170  0.756360  0.685310  1.0  0.8993
  Zn  Zn17  1  0.135770  0.971710  0.584170  1.0  0.8382
  Zn  Zn18  1  0.337090  0.946100  0.422970  1.0  0.8266
  Zn  Zn19  1  0.154830  0.256360  0.314690  1.0  0.9004
  Zn  Zn20  1  0.364230  0.471710  0.415830  1.0  0.8391
  Zn  Zn21  1  0.162910  0.446100  0.577030  1.0  0.8283
  Zn  Zn22  1  0.845170  0.243640  0.814690  1.0  0.8995
  Zn  Zn23  1  0.635770  0.028290  0.915830  1.0  0.8382
  Zn  Zn24  1  0.837090  0.053900  0.077030  1.0  0.8283
  H  H25  1  0.985300  0.412500  0.884000  1.0  0.0924
  H  H26  1  0.831000  0.382000  0.890700  1.0  0.124
  H  H27  1  0.989200  0.464600  0.965300  1.0  0.0911
  H  H28  1  0.833200  0.436200  0.973700  1.0  0.1134
  H  H29  1  0.535500  0.460700  0.052200  1.0  0.0855
  H  H30  1  0.626700  0.440500  0.010500  1.0  0.1166
  H  H31  1  0.299400  0.406400  0.016000  1.0  0.0896
  H  H32  1  0.383600  0.384100  0.973900  1.0  0.1257
  H  H33  1  0.308600  0.310500  0.869200  1.0  0.0844
  H  H34  1  0.388200  0.344100  0.908500  1.0  0.1228
  H  H35  1  0.555400  0.284900  0.828900  1.0  0.0872
  H  H36  1  0.640500  0.324200  0.865900  1.0  0.117
  H  H37  1  0.461700  0.198400  0.771200  1.0  0.0899
  H  H38  1  0.521700  0.206100  0.723600  1.0  0.122
  H  H39  1  0.402700  0.337800  0.774900  1.0  0.0818
  H  H40  1  0.465900  0.350300  0.728500  1.0  0.1193
  H  H41  1  0.578600  0.491700  0.644400  1.0  0.083
  H  H42  1  0.553600  0.420100  0.669700  1.0  0.1217
  H  H43  1  0.623500  0.422500  0.570300  1.0  0.084
  H  H44  1  0.600600  0.348300  0.593100  1.0  0.1197
  H  H45  1  0.654300  0.161000  0.566200  1.0  0.0935
  H  H46  1  0.626400  0.232700  0.590800  1.0  0.1224
  H  H47  1  0.576000  0.083900  0.635600  1.0  0.101
  H  H48  1  0.545100  0.153900  0.662600  1.0  0.1195
  H  H49  1  0.014700  0.087500  0.384000  1.0  0.092
  H  H50  1  0.169000  0.118000  0.390700  1.0  0.1236
  H  H51  1  0.010800  0.035400  0.465300  1.0  0.0928
  H  H52  1  0.166800  0.063800  0.473700  1.0  0.1134
  H  H53  1  0.464500  0.039300  0.552200  1.0  0.0852
  H  H54  1  0.373300  0.059500  0.510500  1.0  0.1161
  H  H55  1  0.700600  0.093600  0.516000  1.0  0.0898
  H  H56  1  0.616400  0.115900  0.473900  1.0  0.1258
  H  H57  1  0.691400  0.189500  0.369200  1.0  0.0831
  H  H58  1  0.611800  0.155900  0.408500  1.0  0.1228
  H  H59  1  0.444600  0.215100  0.328900  1.0  0.0855
  H  H60  1  0.359500  0.175800  0.365900  1.0  0.118
  H  H61  1  0.538300  0.301600  0.271200  1.0  0.088
  H  H62  1  0.478300  0.293900  0.223600  1.0  0.1228
  H  H63  1  0.597300  0.162200  0.274900  1.0  0.0826
  H  H64  1  0.534100  0.149700  0.228500  1.0  0.1188
  H  H65  1  0.421400  0.008300  0.144400  1.0  0.0832
  H  H66  1  0.446400  0.079900  0.169700  1.0  0.1219
  H  H67  1  0.376500  0.077500  0.070300  1.0  0.0857
  H  H68  1  0.399400  0.151700  0.093100  1.0  0.1197
  H  H69  1  0.345700  0.339000  0.066200  1.0  0.0937
  H  H70  1  0.373600  0.267300  0.090800  1.0  0.1222
  H  H71  1  0.424000  0.416100  0.135600  1.0  0.1012
  H  H72  1  0.454900  0.346100  0.162600  1.0  0.1193
  H  H73  1  0.485300  0.587500  0.616000  1.0  0.0925
  H  H74  1  0.331000  0.618000  0.609300  1.0  0.1241
  H  H75  1  0.489200  0.535400  0.534700  1.0  0.091
  H  H76  1  0.333200  0.563800  0.526300  1.0  0.1133
  H  H77  1  0.035500  0.539300  0.447800  1.0  0.0841
  H  H78  1  0.126700  0.559500  0.489500  1.0  0.1169
  H  H79  1  0.799400  0.593600  0.484000  1.0  0.0892
  H  H80  1  0.883600  0.615900  0.526100  1.0  0.1257
  H  H81  1  0.808600  0.689500  0.630800  1.0  0.0843
  H  H82  1  0.888200  0.655900  0.591500  1.0  0.1224
  H  H83  1  0.055400  0.715100  0.671100  1.0  0.0876
  H  H84  1  0.140500  0.675800  0.634100  1.0  0.1169
  H  H85  1  0.961700  0.801600  0.728800  1.0  0.0897
  H  H86  1  0.021700  0.793900  0.776400  1.0  0.1227
  H  H87  1  0.902700  0.662200  0.725100  1.0  0.0827
  H  H88  1  0.965900  0.649700  0.771500  1.0  0.1188
  H  H89  1  0.078600  0.508300  0.855600  1.0  0.0829
  H  H90  1  0.053600  0.579900  0.830300  1.0  0.1219
  H  H91  1  0.123500  0.577500  0.929700  1.0  0.0864
  H  H92  1  0.100600  0.651700  0.906900  1.0  0.1196
  H  H93  1  0.154300  0.839000  0.933800  1.0  0.0932
  H  H94  1  0.126400  0.767300  0.909200  1.0  0.1223
  H  H95  1  0.076000  0.916100  0.864400  1.0  0.1005
  H  H96  1  0.045100  0.846100  0.837400  1.0  0.1195
  H  H97  1  0.514700  0.912500  0.116000  1.0  0.0929
  H  H98  1  0.669000  0.882000  0.109300  1.0  0.1237
  H  H99  1  0.510800  0.964600  0.034700  1.0  0.0927
  H  H100  1  0.666800  0.936200  0.026300  1.0  0.1132
  H  H101  1  0.964500  0.960700  0.947800  1.0  0.085
  H  H102  1  0.873300  0.940500  0.989500  1.0  0.1159
  H  H103  1  0.200600  0.906400  0.984000  1.0  0.0897
  H  H104  1  0.116400  0.884100  0.026100  1.0  0.1259
  H  H105  1  0.191400  0.810500  0.130800  1.0  0.0829
  H  H106  1  0.111800  0.844100  0.091500  1.0  0.1226
  H  H107  1  0.944600  0.784900  0.171100  1.0  0.0882
  H  H108  1  0.859500  0.824200  0.134100  1.0  0.1178
  H  H109  1  0.038300  0.698400  0.228800  1.0  0.0897
  H  H110  1  0.978300  0.706100  0.276400  1.0  0.122
  H  H111  1  0.097300  0.837800  0.225100  1.0  0.0823
  H  H112  1  0.034100  0.850300  0.271500  1.0  0.119
  H  H113  1  0.921400  0.991700  0.355600  1.0  0.0826
  H  H114  1  0.946400  0.920100  0.330300  1.0  0.1218
  H  H115  1  0.876500  0.922500  0.429700  1.0  0.0856
  H  H116  1  0.899400  0.848300  0.406900  1.0  0.1197
  H  H117  1  0.845700  0.661000  0.433800  1.0  0.0938
  H  H118  1  0.873600  0.732700  0.409200  1.0  0.1224
  H  H119  1  0.924000  0.583900  0.364400  1.0  0.1003
  H  H120  1  0.954900  0.653900  0.337400  1.0  0.1196
  H  H121  1  0.014700  0.587500  0.116000  1.0  0.0924
  H  H122  1  0.169000  0.618000  0.109300  1.0  0.1235
  H  H123  1  0.010800  0.535400  0.034700  1.0  0.0924
  H  H124  1  0.166800  0.563800  0.026300  1.0  0.1133
  H  H125  1  0.464500  0.539300  0.947800  1.0  0.0851
  H  H126  1  0.373300  0.559500  0.989500  1.0  0.1162
  H  H127  1  0.700600  0.593600  0.984000  1.0  0.0901
  H  H128  1  0.616400  0.615900  0.026100  1.0  0.1256
  H  H129  1  0.691400  0.689500  0.130800  1.0  0.083
  H  H130  1  0.611800  0.655900  0.091500  1.0  0.1226
  H  H131  1  0.444600  0.715100  0.171100  1.0  0.0863
  H  H132  1  0.359500  0.675800  0.134100  1.0  0.118
  H  H133  1  0.538300  0.801600  0.228800  1.0  0.0885
  H  H134  1  0.478300  0.793900  0.276400  1.0  0.1228
  H  H135  1  0.597300  0.662200  0.225100  1.0  0.0828
  H  H136  1  0.534100  0.649700  0.271500  1.0  0.1187
  H  H137  1  0.421400  0.508300  0.355600  1.0  0.0829
  H  H138  1  0.446400  0.579900  0.330300  1.0  0.1218
  H  H139  1  0.376500  0.577500  0.429700  1.0  0.0868
  H  H140  1  0.399400  0.651700  0.406900  1.0  0.1193
  H  H141  1  0.345700  0.839000  0.433800  1.0  0.094
  H  H142  1  0.373600  0.767300  0.409200  1.0  0.1224
  H  H143  1  0.424000  0.916100  0.364400  1.0  0.1008
  H  H144  1  0.454900  0.846100  0.337400  1.0  0.1198
  H  H145  1  0.985300  0.912500  0.616000  1.0  0.0929
  H  H146  1  0.831000  0.882000  0.609300  1.0  0.1239
  H  H147  1  0.989200  0.964600  0.534700  1.0  0.0909
  H  H148  1  0.833200  0.936200  0.526300  1.0  0.1133
  H  H149  1  0.535500  0.960700  0.447800  1.0  0.085
  H  H150  1  0.626700  0.940500  0.489500  1.0  0.1167
  H  H151  1  0.299400  0.906400  0.484000  1.0  0.0892
  H  H152  1  0.383600  0.884100  0.526100  1.0  0.1262
  H  H153  1  0.308600  0.810500  0.630800  1.0  0.0844
  H  H154  1  0.388200  0.844100  0.591500  1.0  0.1224
  H  H155  1  0.555400  0.784900  0.671100  1.0  0.0879
  H  H156  1  0.640500  0.824200  0.634100  1.0  0.1168
  H  H157  1  0.461700  0.698400  0.728800  1.0  0.0908
  H  H158  1  0.521700  0.706100  0.776400  1.0  0.1223
  H  H159  1  0.402700  0.837800  0.725100  1.0  0.0823
  H  H160  1  0.465900  0.850300  0.771500  1.0  0.119
  H  H161  1  0.578600  0.991700  0.855600  1.0  0.0826
  H  H162  1  0.553600  0.920100  0.830300  1.0  0.1219
  H  H163  1  0.623500  0.922500  0.929700  1.0  0.085
  H  H164  1  0.600600  0.848300  0.906900  1.0  0.1199
  H  H165  1  0.654300  0.661000  0.933800  1.0  0.0936
  H  H166  1  0.626400  0.732700  0.909200  1.0  0.1223
  H  H167  1  0.576000  0.583900  0.864400  1.0  0.1004
  H  H168  1  0.545100  0.653900  0.837400  1.0  0.1194
  H  H169  1  0.514700  0.412500  0.384000  1.0  0.0923
  H  H170  1  0.669000  0.382000  0.390700  1.0  0.1239
  H  H171  1  0.510800  0.464600  0.465300  1.0  0.0928
  H  H172  1  0.666800  0.436200  0.473700  1.0  0.1133
  H  H173  1  0.964500  0.460700  0.552200  1.0  0.086
  H  H174  1  0.873300  0.440500  0.510500  1.0  0.1158
  H  H175  1  0.200600  0.406400  0.516000  1.0  0.0901
  H  H176  1  0.116400  0.384100  0.473900  1.0  0.1256
  H  H177  1  0.191400  0.310500  0.369200  1.0  0.083
  H  H178  1  0.111800  0.344100  0.408500  1.0  0.1229
  H  H179  1  0.944600  0.284900  0.328900  1.0  0.087
  H  H180  1  0.859500  0.324200  0.365900  1.0  0.1178
  H  H181  1  0.038300  0.198400  0.271200  1.0  0.0899
  H  H182  1  0.978300  0.206100  0.223600  1.0  0.1218
  H  H183  1  0.097300  0.337800  0.274900  1.0  0.081
  H  H184  1  0.034100  0.350300  0.228500  1.0  0.1194
  H  H185  1  0.921400  0.491700  0.144400  1.0  0.0831
  H  H186  1  0.946400  0.420100  0.169700  1.0  0.1218
  H  H187  1  0.876500  0.422500  0.070300  1.0  0.0845
  H  H188  1  0.899400  0.348300  0.093100  1.0  0.1198
  H  H189  1  0.845700  0.161000  0.066200  1.0  0.0935
  H  H190  1  0.873600  0.232700  0.090800  1.0  0.1225
  H  H191  1  0.924000  0.083900  0.135600  1.0  0.1011
  H  H192  1  0.954900  0.153900  0.162600  1.0  0.1194
  H  H193  1  0.485300  0.087500  0.884000  1.0  0.0923
  H  H194  1  0.331000  0.118000  0.890700  1.0  0.1242
  H  H195  1  0.489200  0.035400  0.965300  1.0  0.0909
  H  H196  1  0.333200  0.063800  0.973700  1.0  0.1133
  H  H197  1  0.035500  0.039300  0.052200  1.0  0.0842
  H  H198  1  0.126700  0.059500  0.010500  1.0  0.1167
  H  H199  1  0.799400  0.093600  0.016000  1.0  0.0894
  H  H200  1  0.883600  0.115900  0.973900  1.0  0.1256
  H  H201  1  0.808600  0.189500  0.869200  1.0  0.0844
  H  H202  1  0.888200  0.155900  0.908500  1.0  0.1228
  H  H203  1  0.055400  0.215100  0.828900  1.0  0.0871
  H  H204  1  0.140500  0.175800  0.865900  1.0  0.1171
  H  H205  1  0.961700  0.301600  0.771200  1.0  0.0894
  H  H206  1  0.021700  0.293900  0.723600  1.0  0.1226
  H  H207  1  0.902700  0.162200  0.774900  1.0  0.0825
  H  H208  1  0.965900  0.149700  0.728500  1.0  0.1189
  H  H209  1  0.078600  0.008300  0.644400  1.0  0.0832
  H  H210  1  0.053600  0.079900  0.669700  1.0  0.1218
  H  H211  1  0.123500  0.077500  0.570300  1.0  0.0846
  H  H212  1  0.100600  0.151700  0.593100  1.0  0.1198
  H  H213  1  0.154300  0.339000  0.566200  1.0  0.0932
  H  H214  1  0.126400  0.267300  0.590800  1.0  0.1225
  H  H215  1  0.076000  0.416100  0.635600  1.0  0.1011
  H  H216  1  0.045100  0.346100  0.662600  1.0  0.1192
  C  C217  1  0.953900  0.417400  0.902530  1.0  0.1493
  C  C218  1  0.862200  0.399200  0.906280  1.0  -0.1361
  C  C219  1  0.956100  0.447900  0.949880  1.0  0.1362
  C  C220  1  0.863500  0.430900  0.955090  1.0  -0.1278
  C  C221  1  0.814700  0.406100  0.933170  1.0  -0.1156
  C  C222  1  0.712500  0.390800  0.936230  1.0  0.3833
  C  C223  1  0.504300  0.444800  0.036080  1.0  0.1172
  C  C224  1  0.559400  0.432400  0.011410  1.0  -0.1216
  C  C225  1  0.367300  0.413100  0.014950  1.0  0.157
  C  C226  1  0.416700  0.399400  0.989860  1.0  -0.1489
  C  C227  1  0.515600  0.408500  0.988420  1.0  -0.1083
  C  C228  1  0.571500  0.393800  0.961740  1.0  0.4211
  C  C229  1  0.377900  0.311700  0.868830  1.0  0.1378
  C  C230  1  0.424400  0.332300  0.892100  1.0  -0.1419
  C  C231  1  0.520500  0.297700  0.845310  1.0  0.1377
  C  C232  1  0.571900  0.320000  0.867470  1.0  -0.134
  C  C233  1  0.523200  0.336100  0.891830  1.0  -0.0851
  C  C234  1  0.575300  0.358500  0.917070  1.0  0.3723
  C  C235  1  0.460600  0.229500  0.761930  1.0  0.1312
  C  C236  1  0.497300  0.233800  0.733780  1.0  -0.1279
  C  C237  1  0.427100  0.310600  0.764170  1.0  0.1451
  C  C238  1  0.463800  0.318300  0.736600  1.0  -0.1554
  C  C239  1  0.498000  0.279000  0.720550  1.0  -0.1103
  C  C240  1  0.528800  0.283300  0.689160  1.0  0.356
  C  C241  1  0.583800  0.461800  0.633930  1.0  0.1506
  C  C242  1  0.568600  0.419300  0.649210  1.0  -0.16
  C  C243  1  0.610000  0.421800  0.590860  1.0  0.1346
  C  C244  1  0.596100  0.377500  0.604300  1.0  -0.1529
  C  C245  1  0.575500  0.375500  0.634330  1.0  -0.0672
  C  C246  1  0.563700  0.328100  0.649080  1.0  0.3954
  C  C247  1  0.632400  0.159800  0.586160  1.0  0.1468
  C  C248  1  0.615800  0.202500  0.600500  1.0  -0.1416
  C  C249  1  0.586700  0.114700  0.626660  1.0  0.1362
  C  C250  1  0.567900  0.156100  0.642790  1.0  -0.1311
  C  C251  1  0.583200  0.201500  0.629540  1.0  -0.1055
  C  C252  1  0.565800  0.246600  0.646840  1.0  0.3729
  C  C253  1  0.046100  0.082600  0.402530  1.0  0.1441
  C  C254  1  0.137800  0.100800  0.406280  1.0  -0.1337
  C  C255  1  0.043900  0.052100  0.449880  1.0  0.1423
  C  C256  1  0.136500  0.069100  0.455090  1.0  -0.1272
  C  C257  1  0.185300  0.093900  0.433170  1.0  -0.1154
  C  C258  1  0.287500  0.109200  0.436230  1.0  0.3829
  C  C259  1  0.495700  0.055200  0.536080  1.0  0.1239
  C  C260  1  0.440600  0.067600  0.511410  1.0  -0.1273
  C  C261  1  0.632700  0.086900  0.514950  1.0  0.1494
  C  C262  1  0.583300  0.100600  0.489860  1.0  -0.1471
  C  C263  1  0.484400  0.091500  0.488420  1.0  -0.1083
  C  C264  1  0.428500  0.106200  0.461740  1.0  0.4205
  C  C265  1  0.622100  0.188300  0.368830  1.0  0.1366
  C  C266  1  0.575600  0.167700  0.392100  1.0  -0.1461
  C  C267  1  0.479500  0.202300  0.345310  1.0  0.1436
  C  C268  1  0.428100  0.180000  0.367470  1.0  -0.1383
  C  C269  1  0.476800  0.163900  0.391830  1.0  -0.0856
  C  C270  1  0.424700  0.141500  0.417070  1.0  0.3728
  C  C271  1  0.539400  0.270500  0.261930  1.0  0.1403
  C  C272  1  0.502700  0.266200  0.233780  1.0  -0.1253
  C  C273  1  0.572900  0.189400  0.264170  1.0  0.1499
  C  C274  1  0.536200  0.181700  0.236600  1.0  -0.1568
  C  C275  1  0.502000  0.221000  0.220550  1.0  -0.1117
  C  C276  1  0.471200  0.216700  0.189160  1.0  0.356
  C  C277  1  0.416200  0.038200  0.133930  1.0  0.1451
  C  C278  1  0.431400  0.080700  0.149210  1.0  -0.1548
  C  C279  1  0.390000  0.078200  0.090860  1.0  0.1339
  C  C280  1  0.403900  0.122500  0.104300  1.0  -0.1522
  C  C281  1  0.424500  0.124500  0.134330  1.0  -0.0675
  C  C282  1  0.436300  0.171900  0.149080  1.0  0.3959
  C  C283  1  0.367600  0.340200  0.086160  1.0  0.1528
  C  C284  1  0.384200  0.297500  0.100500  1.0  -0.1414
  C  C285  1  0.413300  0.385300  0.126660  1.0  0.1299
  C  C286  1  0.432100  0.343900  0.142790  1.0  -0.1342
  C  C287  1  0.416800  0.298500  0.129540  1.0  -0.1053
  C  C288  1  0.434200  0.253400  0.146840  1.0  0.3726
  C  C289  1  0.453900  0.582600  0.597470  1.0  0.1478
  C  C290  1  0.362200  0.600800  0.593720  1.0  -0.1362
  C  C291  1  0.456100  0.552100  0.550120  1.0  0.1433
  C  C292  1  0.363500  0.569100  0.544910  1.0  -0.1289
  C  C293  1  0.314700  0.593900  0.566830  1.0  -0.1147
  C  C294  1  0.212500  0.609200  0.563770  1.0  0.3841
  C  C295  1  0.004300  0.555200  0.463920  1.0  0.1174
  C  C296  1  0.059400  0.567600  0.488590  1.0  -0.1218
  C  C297  1  0.867300  0.586900  0.485050  1.0  0.152
  C  C298  1  0.916700  0.600600  0.510140  1.0  -0.15
  C  C299  1  0.015600  0.591500  0.511580  1.0  -0.1087
  C  C300  1  0.071500  0.606200  0.538260  1.0  0.4201
  C  C301  1  0.877900  0.688300  0.631170  1.0  0.138
  C  C302  1  0.924400  0.667700  0.607900  1.0  -0.1428
  C  C303  1  0.020500  0.702300  0.654690  1.0  0.1384
  C  C304  1  0.071900  0.680000  0.632530  1.0  -0.1347
  C  C305  1  0.023200  0.663900  0.608170  1.0  -0.0858
  C  C306  1  0.075300  0.641500  0.582930  1.0  0.3731
  C  C307  1  0.960600  0.770500  0.738070  1.0  0.1317
  C  C308  1  0.997300  0.766200  0.766220  1.0  -0.1252
  C  C309  1  0.927100  0.689400  0.735830  1.0  0.1498
  C  C310  1  0.963800  0.681700  0.763400  1.0  -0.156
  C  C311  1  0.998000  0.721000  0.779450  1.0  -0.1116
  C  C312  1  0.028800  0.716700  0.810840  1.0  0.3559
  C  C313  1  0.083800  0.538200  0.866070  1.0  0.1496
  C  C314  1  0.068600  0.580700  0.850790  1.0  -0.1582
  C  C315  1  0.110000  0.578200  0.909140  1.0  0.1302
  C  C316  1  0.096100  0.622500  0.895700  1.0  -0.1526
  C  C317  1  0.075500  0.624500  0.865670  1.0  -0.0673
  C  C318  1  0.063700  0.671900  0.850920  1.0  0.3962
  C  C319  1  0.132400  0.840200  0.913840  1.0  0.1531
  C  C320  1  0.115800  0.797500  0.899500  1.0  -0.1419
  C  C321  1  0.086700  0.885300  0.873340  1.0  0.1355
  C  C322  1  0.067900  0.843900  0.857210  1.0  -0.137
  C  C323  1  0.083200  0.798500  0.870460  1.0  -0.1055
  C  C324  1  0.065800  0.753400  0.853160  1.0  0.3727
  C  C325  1  0.546100  0.917400  0.097470  1.0  0.1494
  C  C326  1  0.637800  0.899200  0.093720  1.0  -0.1324
  C  C327  1  0.543900  0.947900  0.050120  1.0  0.144
  C  C328  1  0.636500  0.930900  0.044910  1.0  -0.1259
  C  C329  1  0.685300  0.906100  0.066830  1.0  -0.1159
  C  C330  1  0.787500  0.890800  0.063770  1.0  0.3828
  C  C331  1  0.995700  0.944800  0.963920  1.0  0.1239
  C  C332  1  0.940600  0.932400  0.988590  1.0  -0.1288
  C  C333  1  0.132700  0.913100  0.985050  1.0  0.1532
  C  C334  1  0.083300  0.899400  0.010140  1.0  -0.1477
  C  C335  1  0.984400  0.908500  0.011580  1.0  -0.1085
  C  C336  1  0.928500  0.893800  0.038260  1.0  0.4203
  C  C337  1  0.122100  0.811700  0.131170  1.0  0.1365
  C  C338  1  0.075600  0.832300  0.107900  1.0  -0.1417
  C  C339  1  0.979500  0.797700  0.154690  1.0  0.1439
  C  C340  1  0.928100  0.820000  0.132530  1.0  -0.1361
  C  C341  1  0.976800  0.836100  0.108170  1.0  -0.0853
  C  C342  1  0.924700  0.858500  0.082930  1.0  0.3731
  C  C343  1  0.039400  0.729500  0.238070  1.0  0.1377
  C  C344  1  0.002700  0.733800  0.266220  1.0  -0.1285
  C  C345  1  0.072900  0.810600  0.235830  1.0  0.1454
  C  C346  1  0.036200  0.818300  0.263400  1.0  -0.156
  C  C347  1  0.002000  0.779000  0.279450  1.0  -0.1126
  C  C348  1  0.971200  0.783300  0.310840  1.0  0.3562
  C  C349  1  0.916200  0.961800  0.366070  1.0  0.1452
  C  C350  1  0.931400  0.919300  0.350790  1.0  -0.1531
  C  C351  1  0.890000  0.921800  0.409140  1.0  0.136
  C  C352  1  0.903900  0.877500  0.395700  1.0  -0.1532
  C  C353  1  0.924500  0.875500  0.365670  1.0  -0.0669
  C  C354  1  0.936300  0.828100  0.350920  1.0  0.3954
  C  C355  1  0.867600  0.659800  0.413840  1.0  0.1524
  C  C356  1  0.884200  0.702500  0.399500  1.0  -0.1412
  C  C357  1  0.913300  0.614700  0.373340  1.0  0.1293
  C  C358  1  0.932100  0.656100  0.357210  1.0  -0.136
  C  C359  1  0.916800  0.701500  0.370460  1.0  -0.1048
  C  C360  1  0.934200  0.746600  0.353160  1.0  0.373
  C  C361  1  0.046100  0.582600  0.097470  1.0  0.1426
  C  C362  1  0.137800  0.600800  0.093720  1.0  -0.1324
  C  C363  1  0.043900  0.552100  0.050120  1.0  0.1446
  C  C364  1  0.136500  0.569100  0.044910  1.0  -0.1263
  C  C365  1  0.185300  0.593900  0.066830  1.0  -0.1151
  C  C366  1  0.287500  0.609200  0.063770  1.0  0.3833
  C  C367  1  0.495700  0.555200  0.963920  1.0  0.1247
  C  C368  1  0.440600  0.567600  0.988590  1.0  -0.1289
  C  C369  1  0.632700  0.586900  0.985050  1.0  0.149
  C  C370  1  0.583300  0.600600  0.010140  1.0  -0.1484
  C  C371  1  0.484400  0.591500  0.011580  1.0  -0.108
  C  C372  1  0.428500  0.606200  0.038260  1.0  0.4197
  C  C373  1  0.622100  0.688300  0.131170  1.0  0.1369
  C  C374  1  0.575600  0.667700  0.107900  1.0  -0.1437
  C  C375  1  0.479500  0.702300  0.154690  1.0  0.144
  C  C376  1  0.428100  0.680000  0.132530  1.0  -0.1385
  C  C377  1  0.476800  0.663900  0.108170  1.0  -0.0859
  C  C378  1  0.424700  0.641500  0.082930  1.0  0.3733
  C  C379  1  0.539400  0.770500  0.238070  1.0  0.1401
  C  C380  1  0.502700  0.766200  0.266220  1.0  -0.1258
  C  C381  1  0.572900  0.689400  0.235830  1.0  0.1482
  C  C382  1  0.536200  0.681700  0.263400  1.0  -0.1575
  C  C383  1  0.502000  0.721000  0.279450  1.0  -0.1125
  C  C384  1  0.471200  0.716700  0.310840  1.0  0.356
  C  C385  1  0.416200  0.538200  0.366070  1.0  0.1449
  C  C386  1  0.431400  0.580700  0.350790  1.0  -0.1528
  C  C387  1  0.390000  0.578200  0.409140  1.0  0.1335
  C  C388  1  0.403900  0.622500  0.395700  1.0  -0.1524
  C  C389  1  0.424500  0.624500  0.365670  1.0  -0.0671
  C  C390  1  0.436300  0.671900  0.350920  1.0  0.396
  C  C391  1  0.367600  0.840200  0.413840  1.0  0.1546
  C  C392  1  0.384200  0.797500  0.399500  1.0  -0.1417
  C  C393  1  0.413300  0.885300  0.373340  1.0  0.1292
  C  C394  1  0.432100  0.843900  0.357210  1.0  -0.1344
  C  C395  1  0.416800  0.798500  0.370460  1.0  -0.1053
  C  C396  1  0.434200  0.753400  0.353160  1.0  0.3726
  C  C397  1  0.953900  0.917400  0.597470  1.0  0.1499
  C  C398  1  0.862200  0.899200  0.593720  1.0  -0.1362
  C  C399  1  0.956100  0.947900  0.550120  1.0  0.1416
  C  C400  1  0.863500  0.930900  0.544910  1.0  -0.1268
  C  C401  1  0.814700  0.906100  0.566830  1.0  -0.1154
  C  C402  1  0.712500  0.890800  0.563770  1.0  0.3838
  C  C403  1  0.504300  0.944800  0.463920  1.0  0.1166
  C  C404  1  0.559400  0.932400  0.488590  1.0  -0.1224
  C  C405  1  0.367300  0.913100  0.485050  1.0  0.1559
  C  C406  1  0.416700  0.899400  0.510140  1.0  -0.1494
  C  C407  1  0.515600  0.908500  0.511580  1.0  -0.109
  C  C408  1  0.571500  0.893800  0.538260  1.0  0.4205
  C  C409  1  0.377900  0.811700  0.631170  1.0  0.1359
  C  C410  1  0.424400  0.832300  0.607900  1.0  -0.1407
  C  C411  1  0.520500  0.797700  0.654690  1.0  0.1411
  C  C412  1  0.571900  0.820000  0.632530  1.0  -0.1346
  C  C413  1  0.523200  0.836100  0.608170  1.0  -0.0852
  C  C414  1  0.575300  0.858500  0.582930  1.0  0.3728
  C  C415  1  0.460600  0.729500  0.738070  1.0  0.1303
  C  C416  1  0.497300  0.733800  0.766220  1.0  -0.1285
  C  C417  1  0.427100  0.810600  0.735830  1.0  0.1451
  C  C418  1  0.463800  0.818300  0.763400  1.0  -0.1555
  C  C419  1  0.498000  0.779000  0.779450  1.0  -0.1117
  C  C420  1  0.528800  0.783300  0.810840  1.0  0.3561
  C  C421  1  0.583800  0.961800  0.866070  1.0  0.1507
  C  C422  1  0.568600  0.919300  0.850790  1.0  -0.1583
  C  C423  1  0.610000  0.921800  0.909140  1.0  0.1345
  C  C424  1  0.596100  0.877500  0.895700  1.0  -0.1537
  C  C425  1  0.575500  0.875500  0.865670  1.0  -0.067
  C  C426  1  0.563700  0.828100  0.850920  1.0  0.3956
  C  C427  1  0.632400  0.659800  0.913840  1.0  0.1482
  C  C428  1  0.615800  0.702500  0.899500  1.0  -0.1411
  C  C429  1  0.586700  0.614700  0.873340  1.0  0.1359
  C  C430  1  0.567900  0.656100  0.857210  1.0  -0.131
  C  C431  1  0.583200  0.701500  0.870460  1.0  -0.105
  C  C432  1  0.565800  0.746600  0.853160  1.0  0.3731
  C  C433  1  0.546100  0.417400  0.402530  1.0  0.1466
  C  C434  1  0.637800  0.399200  0.406280  1.0  -0.1322
  C  C435  1  0.543900  0.447900  0.449880  1.0  0.1389
  C  C436  1  0.636500  0.430900  0.455090  1.0  -0.1266
  C  C437  1  0.685300  0.406100  0.433170  1.0  -0.1162
  C  C438  1  0.787500  0.390800  0.436230  1.0  0.3823
  C  C439  1  0.995700  0.444800  0.536080  1.0  0.1237
  C  C440  1  0.940600  0.432400  0.511410  1.0  -0.1278
  C  C441  1  0.132700  0.413100  0.514950  1.0  0.1545
  C  C442  1  0.083300  0.399400  0.489860  1.0  -0.147
  C  C443  1  0.984400  0.408500  0.488420  1.0  -0.1082
  C  C444  1  0.928500  0.393800  0.461740  1.0  0.4208
  C  C445  1  0.122100  0.311700  0.368830  1.0  0.1359
  C  C446  1  0.075600  0.332300  0.392100  1.0  -0.1432
  C  C447  1  0.979500  0.297700  0.345310  1.0  0.1429
  C  C448  1  0.928100  0.320000  0.367470  1.0  -0.1383
  C  C449  1  0.976800  0.336100  0.391830  1.0  -0.085
  C  C450  1  0.924700  0.358500  0.417070  1.0  0.3725
  C  C451  1  0.039400  0.229500  0.261930  1.0  0.1383
  C  C452  1  0.002700  0.233800  0.233780  1.0  -0.1281
  C  C453  1  0.072900  0.310600  0.264170  1.0  0.1456
  C  C454  1  0.036200  0.318300  0.236600  1.0  -0.1558
  C  C455  1  0.002000  0.279000  0.220550  1.0  -0.1113
  C  C456  1  0.971200  0.283300  0.189160  1.0  0.3562
  C  C457  1  0.916200  0.461800  0.133930  1.0  0.1449
  C  C458  1  0.931400  0.419300  0.149210  1.0  -0.1547
  C  C459  1  0.890000  0.421800  0.090860  1.0  0.1365
  C  C460  1  0.903900  0.377500  0.104300  1.0  -0.1514
  C  C461  1  0.924500  0.375500  0.134330  1.0  -0.0671
  C  C462  1  0.936300  0.328100  0.149080  1.0  0.3953
  C  C463  1  0.867600  0.159800  0.086160  1.0  0.151
  C  C464  1  0.884200  0.202500  0.100500  1.0  -0.1406
  C  C465  1  0.913300  0.114700  0.126660  1.0  0.1298
  C  C466  1  0.932100  0.156100  0.142790  1.0  -0.135
  C  C467  1  0.916800  0.201500  0.129540  1.0  -0.1052
  C  C468  1  0.934200  0.246600  0.146840  1.0  0.3729
  C  C469  1  0.453900  0.082600  0.902530  1.0  0.147
  C  C470  1  0.362200  0.100800  0.906280  1.0  -0.136
  C  C471  1  0.456100  0.052100  0.949880  1.0  0.1402
  C  C472  1  0.363500  0.069100  0.955090  1.0  -0.1313
  C  C473  1  0.314700  0.093900  0.933170  1.0  -0.1149
  C  C474  1  0.212500  0.109200  0.936230  1.0  0.3838
  C  C475  1  0.004300  0.055200  0.036080  1.0  0.1216
  C  C476  1  0.059400  0.067600  0.011410  1.0  -0.1233
  C  C477  1  0.867300  0.086900  0.014950  1.0  0.1543
  C  C478  1  0.916700  0.100600  0.989860  1.0  -0.1488
  C  C479  1  0.015600  0.091500  0.988420  1.0  -0.1085
  C  C480  1  0.071500  0.106200  0.961740  1.0  0.4209
  C  C481  1  0.877900  0.188300  0.868830  1.0  0.1367
  C  C482  1  0.924400  0.167700  0.892100  1.0  -0.1449
  C  C483  1  0.020500  0.202300  0.845310  1.0  0.138
  C  C484  1  0.071900  0.180000  0.867470  1.0  -0.134
  C  C485  1  0.023200  0.163900  0.891830  1.0  -0.0857
  C  C486  1  0.075300  0.141500  0.917070  1.0  0.3725
  C  C487  1  0.960600  0.270500  0.761930  1.0  0.1326
  C  C488  1  0.997300  0.266200  0.733780  1.0  -0.1246
  C  C489  1  0.927100  0.189400  0.764170  1.0  0.151
  C  C490  1  0.963800  0.181700  0.736600  1.0  -0.1554
  C  C491  1  0.998000  0.221000  0.720550  1.0  -0.1106
  C  C492  1  0.028800  0.216700  0.689160  1.0  0.3559
  C  C493  1  0.083800  0.038200  0.633930  1.0  0.1499
  C  C494  1  0.068600  0.080700  0.649210  1.0  -0.1601
  C  C495  1  0.110000  0.078200  0.590860  1.0  0.1307
  C  C496  1  0.096100  0.122500  0.604300  1.0  -0.1534
  C  C497  1  0.075500  0.124500  0.634330  1.0  -0.0678
  C  C498  1  0.063700  0.171900  0.649080  1.0  0.3961
  C  C499  1  0.132400  0.340200  0.586160  1.0  0.1515
  C  C500  1  0.115800  0.297500  0.600500  1.0  -0.1422
  C  C501  1  0.086700  0.385300  0.626660  1.0  0.1359
  C  C502  1  0.067900  0.343900  0.642790  1.0  -0.1378
  C  C503  1  0.083200  0.298500  0.629540  1.0  -0.1055
  C  C504  1  0.065800  0.253400  0.646840  1.0  0.3727
  I  I505  1  0.342650  0.166680  0.827870  1.0  -0.3227
  I  I506  1  0.184770  0.301110  0.807190  1.0  -0.3819
  I  I507  1  0.219700  0.420000  0.877400  1.0  -0.3391
  I  I508  1  0.211650  0.491630  0.965810  1.0  -0.3956
  I  I509  1  0.155510  0.433150  0.068720  1.0  -0.3945
  I  I510  1  0.418350  0.515640  0.104390  1.0  -0.3615
  I  I511  1  0.657350  0.333333  0.327870  1.0  -0.3192
  I  I512  1  0.815230  0.198890  0.307190  1.0  -0.3809
  I  I513  1  0.780300  0.080000  0.377400  1.0  -0.3386
  I  I514  1  0.788350  0.008370  0.465810  1.0  -0.3966
  I  I515  1  0.844490  0.066850  0.568720  1.0  -0.3947
  I  I516  1  0.581650  0.984360  0.604390  1.0  -0.3607
  I  I517  1  0.842650  0.833320  0.672130  1.0  -0.3199
  I  I518  1  0.684770  0.698890  0.692810  1.0  -0.3816
  I  I519  1  0.719700  0.580000  0.622600  1.0  -0.3412
  I  I520  1  0.711650  0.508370  0.534190  1.0  -0.3955
  I  I521  1  0.655510  0.566850  0.431280  1.0  -0.3944
  I  I522  1  0.918350  0.484360  0.395610  1.0  -0.3615
  I  I523  1  0.157350  0.666667  0.172130  1.0  -0.3231
  I  I524  1  0.315230  0.801110  0.192810  1.0  -0.3818
  I  I525  1  0.280300  0.920000  0.122600  1.0  -0.3382
  I  I526  1  0.288350  0.991630  0.034190  1.0  -0.3968
  I  I527  1  0.344490  0.933150  0.931280  1.0  -0.3947
  I  I528  1  0.081650  0.015640  0.895610  1.0  -0.3604
  I  I529  1  0.657350  0.833320  0.172130  1.0  -0.3194
  I  I530  1  0.815230  0.698890  0.192810  1.0  -0.3812
  I  I531  1  0.780300  0.580000  0.122600  1.0  -0.3385
  I  I532  1  0.788350  0.508370  0.034190  1.0  -0.3966
  I  I533  1  0.844490  0.566850  0.931280  1.0  -0.3947
  I  I534  1  0.581650  0.484360  0.895610  1.0  -0.3608
  I  I535  1  0.342650  0.666667  0.672130  1.0  -0.3232
  I  I536  1  0.184770  0.801110  0.692810  1.0  -0.3822
  I  I537  1  0.219700  0.920000  0.622600  1.0  -0.3408
  I  I538  1  0.211650  0.991630  0.534190  1.0  -0.3956
  I  I539  1  0.155510  0.933150  0.431280  1.0  -0.3943
  I  I540  1  0.418350  0.015640  0.395610  1.0  -0.3611
  I  I541  1  0.157350  0.166680  0.327870  1.0  -0.3226
  I  I542  1  0.315230  0.301110  0.307190  1.0  -0.3815
  I  I543  1  0.280300  0.420000  0.377400  1.0  -0.339
  I  I544  1  0.288350  0.491630  0.465810  1.0  -0.3967
  I  I545  1  0.344490  0.433150  0.568720  1.0  -0.3948
  I  I546  1  0.081650  0.515640  0.604390  1.0  -0.3611
  I  I547  1  0.842650  0.333333  0.827870  1.0  -0.3199
  I  I548  1  0.684770  0.198890  0.807190  1.0  -0.3813
  I  I549  1  0.719700  0.080000  0.877400  1.0  -0.3404
  I  I550  1  0.711650  0.008370  0.965810  1.0  -0.3955
  I  I551  1  0.655510  0.066850  0.068720  1.0  -0.3943
  I  I552  1  0.918350  0.984360  0.104390  1.0  -0.3611
  N  N553  1  0.001800  0.441800  0.923820  1.0  -0.35
  N  N554  1  0.409600  0.435200  0.037920  1.0  -0.2888
  N  N555  1  0.423600  0.293200  0.845700  1.0  -0.3068
  N  N556  1  0.665800  0.404900  0.960900  1.0  -0.4901
  N  N557  1  0.522600  0.371200  0.940570  1.0  -0.3534
  N  N558  1  0.671700  0.366800  0.914040  1.0  -0.5128
  N  N559  1  0.423700  0.267000  0.776740  1.0  -0.3051
  N  N560  1  0.605400  0.463500  0.605420  1.0  -0.3058
  N  N561  1  0.619500  0.116300  0.598680  1.0  -0.3195
  N  N562  1  0.539300  0.327700  0.677970  1.0  -0.4566
  N  N563  1  0.577300  0.288700  0.632620  1.0  -0.4472
  N  N564  1  0.541900  0.241700  0.674830  1.0  -0.4622
  N  N565  1  0.998200  0.058200  0.423820  1.0  -0.35
  N  N566  1  0.590400  0.064800  0.537920  1.0  -0.29
  N  N567  1  0.576400  0.206800  0.345700  1.0  -0.3063
  N  N568  1  0.334200  0.095100  0.460900  1.0  -0.4927
  N  N569  1  0.477400  0.128800  0.440570  1.0  -0.3479
  N  N570  1  0.328300  0.133200  0.414040  1.0  -0.5126
  N  N571  1  0.576300  0.233000  0.276740  1.0  -0.3039
  N  N572  1  0.394600  0.036500  0.105420  1.0  -0.3057
  N  N573  1  0.380500  0.383700  0.098680  1.0  -0.3204
  N  N574  1  0.460700  0.172300  0.177970  1.0  -0.4563
  N  N575  1  0.422700  0.211300  0.132620  1.0  -0.4492
  N  N576  1  0.458100  0.258300  0.174830  1.0  -0.4616
  N  N577  1  0.501800  0.558200  0.576180  1.0  -0.3515
  N  N578  1  0.909600  0.564800  0.462080  1.0  -0.2916
  N  N579  1  0.923600  0.706800  0.654300  1.0  -0.3078
  N  N580  1  0.165800  0.595100  0.539100  1.0  -0.4908
  N  N581  1  0.022600  0.628800  0.559430  1.0  -0.3529
  N  N582  1  0.171700  0.633200  0.585960  1.0  -0.4951
  N  N583  1  0.923700  0.733000  0.723260  1.0  -0.3039
  N  N584  1  0.105400  0.536500  0.894580  1.0  -0.3051
  N  N585  1  0.119500  0.883700  0.901320  1.0  -0.3211
  N  N586  1  0.039300  0.672300  0.822030  1.0  -0.4562
  N  N587  1  0.077300  0.711300  0.867380  1.0  -0.4481
  N  N588  1  0.041900  0.758300  0.825170  1.0  -0.4618
  N  N589  1  0.498200  0.941800  0.076180  1.0  -0.3488
  N  N590  1  0.090400  0.935200  0.962080  1.0  -0.2895
  N  N591  1  0.076400  0.793200  0.154300  1.0  -0.3079
  N  N592  1  0.834200  0.904900  0.039100  1.0  -0.4903
  N  N593  1  0.977400  0.871200  0.059430  1.0  -0.3488
  N  N594  1  0.828300  0.866800  0.085960  1.0  -0.5114
  N  N595  1  0.076300  0.767000  0.223260  1.0  -0.3049
  N  N596  1  0.894600  0.963500  0.394580  1.0  -0.3082
  N  N597  1  0.880500  0.616300  0.401320  1.0  -0.3192
  N  N598  1  0.960700  0.827700  0.322030  1.0  -0.4555
  N  N599  1  0.922700  0.788700  0.367380  1.0  -0.4493
  N  N600  1  0.958100  0.741700  0.325170  1.0  -0.4618
  N  N601  1  0.998200  0.558200  0.076180  1.0  -0.3502
  N  N602  1  0.590400  0.564800  0.962080  1.0  -0.2908
  N  N603  1  0.576400  0.706800  0.154300  1.0  -0.3069
  N  N604  1  0.334200  0.595100  0.039100  1.0  -0.4913
  N  N605  1  0.477400  0.628800  0.059430  1.0  -0.3475
  N  N606  1  0.328300  0.633200  0.085960  1.0  -0.5015
  N  N607  1  0.576300  0.733000  0.223260  1.0  -0.305
  N  N608  1  0.394600  0.536500  0.394580  1.0  -0.3059
  N  N609  1  0.380500  0.883700  0.401320  1.0  -0.3206
  N  N610  1  0.460700  0.672300  0.322030  1.0  -0.456
  N  N611  1  0.422700  0.711300  0.367380  1.0  -0.4492
  N  N612  1  0.458100  0.758300  0.325170  1.0  -0.4616
  N  N613  1  0.001800  0.941800  0.576180  1.0  -0.3496
  N  N614  1  0.409600  0.935200  0.462080  1.0  -0.2891
  N  N615  1  0.423600  0.793200  0.654300  1.0  -0.3087
  N  N616  1  0.665800  0.904900  0.539100  1.0  -0.4898
  N  N617  1  0.522600  0.871200  0.559430  1.0  -0.3532
  N  N618  1  0.671700  0.866800  0.585960  1.0  -0.5007
  N  N619  1  0.423700  0.767000  0.723260  1.0  -0.3058
  N  N620  1  0.605400  0.963500  0.894580  1.0  -0.3078
  N  N621  1  0.619500  0.616300  0.901320  1.0  -0.3196
  N  N622  1  0.539300  0.827700  0.822030  1.0  -0.4554
  N  N623  1  0.577300  0.788700  0.867380  1.0  -0.4476
  N  N624  1  0.541900  0.741700  0.825170  1.0  -0.4628
  N  N625  1  0.498200  0.441800  0.423820  1.0  -0.3482
  N  N626  1  0.090400  0.435200  0.537920  1.0  -0.2895
  N  N627  1  0.076400  0.293200  0.345700  1.0  -0.3083
  N  N628  1  0.834200  0.404900  0.460900  1.0  -0.4906
  N  N629  1  0.977400  0.371200  0.440570  1.0  -0.3491
  N  N630  1  0.828300  0.366800  0.414040  1.0  -0.5131
  N  N631  1  0.076300  0.267000  0.276740  1.0  -0.3035
  N  N632  1  0.894600  0.463500  0.105420  1.0  -0.3064
  N  N633  1  0.880500  0.116300  0.098680  1.0  -0.3197
  N  N634  1  0.960700  0.327700  0.177970  1.0  -0.4568
  N  N635  1  0.922700  0.288700  0.132620  1.0  -0.4492
  N  N636  1  0.958100  0.241700  0.174830  1.0  -0.4615
  N  N637  1  0.501800  0.058200  0.923820  1.0  -0.3553
  N  N638  1  0.909600  0.064800  0.037920  1.0  -0.2895
  N  N639  1  0.923600  0.206800  0.845700  1.0  -0.3065
  N  N640  1  0.165800  0.095100  0.960900  1.0  -0.4923
  N  N641  1  0.022600  0.128800  0.940570  1.0  -0.3532
  N  N642  1  0.171700  0.133200  0.914040  1.0  -0.5113
  N  N643  1  0.923700  0.233000  0.776740  1.0  -0.3037
  N  N644  1  0.105400  0.036500  0.605420  1.0  -0.3045
  N  N645  1  0.119500  0.383700  0.598680  1.0  -0.3205
  N  N646  1  0.039300  0.172300  0.677970  1.0  -0.4564
  N  N647  1  0.077300  0.211300  0.632620  1.0  -0.4477
  N  N648  1  0.041900  0.258300  0.674830  1.0  -0.4618
