# generated using pymatgen
data_ZnH8C12(IN2)2
_symmetry_space_group_name_H-M   'P 1'
_cell_length_a   27.12200000
_cell_length_b   13.69200000
_cell_length_c   45.96300000
_cell_angle_alpha   90.00000000
_cell_angle_beta   90.00000000
_cell_angle_gamma   90.00000000
_symmetry_Int_Tables_number   1
_chemical_formula_structural   ZnH8C12(IN2)2
_chemical_formula_sum   'Zn24 H192 C288 I48 N96'
_cell_volume   17068.56339031
_cell_formula_units_Z   24
loop_
 _symmetry_equiv_pos_site_id
 _symmetry_equiv_pos_as_xyz
  1  'x, y, z'
loop_
 _atom_site_type_symbol
 _atom_site_label
 _atom_site_symmetry_multiplicity
 _atom_site_fract_x
 _atom_site_fract_y
 _atom_site_fract_z
 _atom_site_occupancy
 _atom_site_charge
  Zn  Zn1  1  0.450690  0.361110  0.068580  1.0  0.8652
  Zn  Zn2  1  0.252540  0.350770  0.809850  1.0  0.8709
  Zn  Zn3  1  0.467190  0.150110  0.907290  1.0  0.822
  Zn  Zn4  1  0.049310  0.638890  0.568580  1.0  0.8626
  Zn  Zn5  1  0.247460  0.649230  0.309850  1.0  0.87
  Zn  Zn6  1  0.032810  0.849890  0.407290  1.0  0.8223
  Zn  Zn7  1  0.549310  0.861110  0.431410  1.0  0.8613
  Zn  Zn8  1  0.747460  0.850770  0.690150  1.0  0.8705
  Zn  Zn9  1  0.532810  0.650110  0.592710  1.0  0.8221
  Zn  Zn10  1  0.950690  0.138890  0.931410  1.0  0.8639
  Zn  Zn11  1  0.752540  0.149230  0.190150  1.0  0.8697
  Zn  Zn12  1  0.967190  0.349890  0.092710  1.0  0.8225
  Zn  Zn13  1  0.549310  0.638890  0.931410  1.0  0.8614
  Zn  Zn14  1  0.747460  0.649230  0.190150  1.0  0.8697
  Zn  Zn15  1  0.532810  0.849890  0.092710  1.0  0.8223
  Zn  Zn16  1  0.950690  0.361110  0.431410  1.0  0.8643
  Zn  Zn17  1  0.752540  0.350770  0.690150  1.0  0.8704
  Zn  Zn18  1  0.967190  0.150110  0.592710  1.0  0.822
  Zn  Zn19  1  0.450690  0.138890  0.568580  1.0  0.8646
  Zn  Zn20  1  0.252540  0.149230  0.309850  1.0  0.87
  Zn  Zn21  1  0.467190  0.349890  0.407290  1.0  0.8227
  Zn  Zn22  1  0.049310  0.861110  0.068580  1.0  0.8626
  Zn  Zn23  1  0.247460  0.850770  0.809850  1.0  0.8711
  Zn  Zn24  1  0.032810  0.650110  0.907290  1.0  0.8219
  H  H25  1  0.308000  0.313500  0.864300  1.0  0.0874
  H  H26  1  0.342300  0.397300  0.902800  1.0  0.1211
  H  H27  1  0.273100  0.559200  0.825800  1.0  0.0769
  H  H28  1  0.307400  0.649700  0.862900  1.0  0.1159
  H  H29  1  0.435700  0.976500  0.873900  1.0  0.0886
  H  H30  1  0.405100  0.820900  0.880000  1.0  0.1176
  H  H31  1  0.431200  0.025500  0.957400  1.0  0.0847
  H  H32  1  0.403400  0.869900  0.966300  1.0  0.1204
  H  H33  1  0.467100  0.556200  0.039800  1.0  0.0778
  H  H34  1  0.441100  0.644700  0.000400  1.0  0.122
  H  H35  1  0.394600  0.323000  0.013500  1.0  0.1022
  H  H36  1  0.365100  0.408500  0.973200  1.0  0.1135
  H  H37  1  0.340400  0.354800  0.061200  1.0  0.086
  H  H38  1  0.268900  0.380700  0.087300  1.0  0.1242
  H  H39  1  0.422200  0.420400  0.129000  1.0  0.0941
  H  H40  1  0.353000  0.446300  0.157200  1.0  0.1184
  H  H41  1  0.310300  0.542000  0.266200  1.0  0.089
  H  H42  1  0.303500  0.483700  0.219200  1.0  0.1153
  H  H43  1  0.167600  0.580200  0.271300  1.0  0.0788
  H  H44  1  0.156200  0.520500  0.224700  1.0  0.1216
  H  H45  1  0.011800  0.398400  0.151100  1.0  0.0965
  H  H46  1  0.087900  0.431100  0.171900  1.0  0.1176
  H  H47  1  0.070800  0.383800  0.073300  1.0  0.0849
  H  H48  1  0.148600  0.410200  0.092000  1.0  0.1195
  H  H49  1  0.192000  0.686500  0.364300  1.0  0.0873
  H  H50  1  0.157700  0.602700  0.402800  1.0  0.1213
  H  H51  1  0.226900  0.440800  0.325800  1.0  0.0767
  H  H52  1  0.192600  0.350300  0.362900  1.0  0.115
  H  H53  1  0.064300  0.023500  0.373900  1.0  0.0888
  H  H54  1  0.094900  0.179100  0.380000  1.0  0.1176
  H  H55  1  0.068800  0.974500  0.457400  1.0  0.0856
  H  H56  1  0.096600  0.130100  0.466300  1.0  0.1201
  H  H57  1  0.032900  0.443800  0.539800  1.0  0.078
  H  H58  1  0.058900  0.355300  0.500400  1.0  0.1222
  H  H59  1  0.105400  0.677000  0.513500  1.0  0.1019
  H  H60  1  0.134900  0.591500  0.473200  1.0  0.1143
  H  H61  1  0.159600  0.645200  0.561200  1.0  0.0858
  H  H62  1  0.231100  0.619300  0.587300  1.0  0.1238
  H  H63  1  0.077800  0.579600  0.629000  1.0  0.0955
  H  H64  1  0.147000  0.553700  0.657200  1.0  0.1193
  H  H65  1  0.189700  0.458000  0.766200  1.0  0.0903
  H  H66  1  0.196500  0.516300  0.719200  1.0  0.1157
  H  H67  1  0.332400  0.419800  0.771300  1.0  0.0792
  H  H68  1  0.343800  0.479500  0.724700  1.0  0.1219
  H  H69  1  0.488200  0.601600  0.651100  1.0  0.0965
  H  H70  1  0.412100  0.568900  0.671900  1.0  0.1176
  H  H71  1  0.429200  0.616200  0.573300  1.0  0.0844
  H  H72  1  0.351400  0.589800  0.592000  1.0  0.1193
  H  H73  1  0.692000  0.813500  0.635700  1.0  0.0875
  H  H74  1  0.657700  0.897300  0.597200  1.0  0.1207
  H  H75  1  0.726900  0.059200  0.674200  1.0  0.0759
  H  H76  1  0.692600  0.149700  0.637100  1.0  0.1155
  H  H77  1  0.564300  0.476500  0.626100  1.0  0.0882
  H  H78  1  0.594900  0.320900  0.620000  1.0  0.1173
  H  H79  1  0.568800  0.525500  0.542600  1.0  0.0842
  H  H80  1  0.596600  0.369900  0.533700  1.0  0.1199
  H  H81  1  0.532900  0.056200  0.460200  1.0  0.0779
  H  H82  1  0.558900  0.144700  0.499600  1.0  0.1225
  H  H83  1  0.605400  0.823000  0.486500  1.0  0.1023
  H  H84  1  0.634900  0.908500  0.526800  1.0  0.1135
  H  H85  1  0.659600  0.854800  0.438800  1.0  0.085
  H  H86  1  0.731100  0.880700  0.412700  1.0  0.1238
  H  H87  1  0.577800  0.920400  0.371000  1.0  0.0915
  H  H88  1  0.647000  0.946300  0.342800  1.0  0.1189
  H  H89  1  0.689700  0.042000  0.233800  1.0  0.0901
  H  H90  1  0.696500  0.983700  0.280800  1.0  0.1158
  H  H91  1  0.832400  0.080200  0.228700  1.0  0.0795
  H  H92  1  0.843800  0.020500  0.275300  1.0  0.1213
  H  H93  1  0.988200  0.898400  0.348900  1.0  0.0967
  H  H94  1  0.912100  0.931100  0.328100  1.0  0.1174
  H  H95  1  0.929200  0.883800  0.426700  1.0  0.0858
  H  H96  1  0.851400  0.910200  0.408000  1.0  0.1197
  H  H97  1  0.808000  0.186500  0.135700  1.0  0.0874
  H  H98  1  0.842300  0.102700  0.097200  1.0  0.1208
  H  H99  1  0.773100  0.940800  0.174200  1.0  0.0764
  H  H100  1  0.807400  0.850300  0.137100  1.0  0.1152
  H  H101  1  0.935700  0.523500  0.126100  1.0  0.0884
  H  H102  1  0.905100  0.679100  0.120000  1.0  0.1171
  H  H103  1  0.931200  0.474500  0.042600  1.0  0.0843
  H  H104  1  0.903400  0.630100  0.033700  1.0  0.1201
  H  H105  1  0.967100  0.943800  0.960200  1.0  0.0777
  H  H106  1  0.941100  0.855300  0.999600  1.0  0.1221
  H  H107  1  0.894600  0.177000  0.986500  1.0  0.1015
  H  H108  1  0.865100  0.091500  0.026800  1.0  0.1137
  H  H109  1  0.840400  0.145200  0.938800  1.0  0.0852
  H  H110  1  0.768900  0.119300  0.912700  1.0  0.1242
  H  H111  1  0.922200  0.079600  0.871000  1.0  0.0915
  H  H112  1  0.853000  0.053700  0.842800  1.0  0.1188
  H  H113  1  0.810300  0.958000  0.733800  1.0  0.0889
  H  H114  1  0.803500  0.016300  0.780800  1.0  0.1154
  H  H115  1  0.667600  0.919800  0.728700  1.0  0.079
  H  H116  1  0.656200  0.979500  0.775300  1.0  0.1212
  H  H117  1  0.511800  0.101600  0.848900  1.0  0.0962
  H  H118  1  0.587900  0.068900  0.828100  1.0  0.1173
  H  H119  1  0.570800  0.116200  0.926700  1.0  0.0853
  H  H120  1  0.648600  0.089800  0.908000  1.0  0.1196
  H  H121  1  0.692000  0.686500  0.135700  1.0  0.0873
  H  H122  1  0.657700  0.602700  0.097200  1.0  0.121
  H  H123  1  0.726900  0.440800  0.174200  1.0  0.0759
  H  H124  1  0.692600  0.350300  0.137100  1.0  0.1151
  H  H125  1  0.564300  0.023500  0.126100  1.0  0.0885
  H  H126  1  0.594900  0.179100  0.120000  1.0  0.1173
  H  H127  1  0.568800  0.974500  0.042600  1.0  0.0847
  H  H128  1  0.596600  0.130100  0.033700  1.0  0.1201
  H  H129  1  0.532900  0.443800  0.960200  1.0  0.0778
  H  H130  1  0.558900  0.355300  0.999600  1.0  0.1222
  H  H131  1  0.605400  0.677000  0.986500  1.0  0.1018
  H  H132  1  0.634900  0.591500  0.026800  1.0  0.1137
  H  H133  1  0.659600  0.645200  0.938800  1.0  0.0853
  H  H134  1  0.731100  0.619300  0.912700  1.0  0.1236
  H  H135  1  0.577800  0.579600  0.871000  1.0  0.0917
  H  H136  1  0.647000  0.553700  0.842800  1.0  0.1189
  H  H137  1  0.689700  0.458000  0.733800  1.0  0.0901
  H  H138  1  0.696500  0.516300  0.780800  1.0  0.1156
  H  H139  1  0.832400  0.419800  0.728700  1.0  0.0793
  H  H140  1  0.843800  0.479500  0.775300  1.0  0.1215
  H  H141  1  0.988200  0.601600  0.848900  1.0  0.0967
  H  H142  1  0.912100  0.568900  0.828100  1.0  0.1172
  H  H143  1  0.929200  0.616200  0.926700  1.0  0.0855
  H  H144  1  0.851400  0.589800  0.908000  1.0  0.1194
  H  H145  1  0.808000  0.313500  0.635700  1.0  0.0876
  H  H146  1  0.842300  0.397300  0.597200  1.0  0.1208
  H  H147  1  0.773100  0.559200  0.674200  1.0  0.0762
  H  H148  1  0.807400  0.649700  0.637100  1.0  0.1156
  H  H149  1  0.935700  0.976500  0.626100  1.0  0.0883
  H  H150  1  0.905100  0.820900  0.620000  1.0  0.1173
  H  H151  1  0.931200  0.025500  0.542600  1.0  0.0839
  H  H152  1  0.903400  0.869900  0.533700  1.0  0.12
  H  H153  1  0.967100  0.556200  0.460200  1.0  0.0775
  H  H154  1  0.941100  0.644700  0.499600  1.0  0.1221
  H  H155  1  0.894600  0.323000  0.486500  1.0  0.1021
  H  H156  1  0.865100  0.408500  0.526800  1.0  0.1134
  H  H157  1  0.840400  0.354800  0.438800  1.0  0.0854
  H  H158  1  0.768900  0.380700  0.412700  1.0  0.1244
  H  H159  1  0.922200  0.420400  0.371000  1.0  0.0913
  H  H160  1  0.853000  0.446300  0.342800  1.0  0.1188
  H  H161  1  0.810300  0.542000  0.233800  1.0  0.0889
  H  H162  1  0.803500  0.483700  0.280800  1.0  0.1156
  H  H163  1  0.667600  0.580200  0.228700  1.0  0.079
  H  H164  1  0.656200  0.520500  0.275300  1.0  0.1212
  H  H165  1  0.511800  0.398400  0.348900  1.0  0.0962
  H  H166  1  0.587900  0.431100  0.328100  1.0  0.1173
  H  H167  1  0.570800  0.383800  0.426700  1.0  0.0856
  H  H168  1  0.648600  0.410200  0.408000  1.0  0.1197
  H  H169  1  0.308000  0.186500  0.364300  1.0  0.0873
  H  H170  1  0.342300  0.102700  0.402800  1.0  0.1212
  H  H171  1  0.273100  0.940800  0.325800  1.0  0.0768
  H  H172  1  0.307400  0.850300  0.362900  1.0  0.115
  H  H173  1  0.435700  0.523500  0.373900  1.0  0.0887
  H  H174  1  0.405100  0.679100  0.380000  1.0  0.1174
  H  H175  1  0.431200  0.474500  0.457400  1.0  0.0853
  H  H176  1  0.403400  0.630100  0.466300  1.0  0.1205
  H  H177  1  0.467100  0.943800  0.539800  1.0  0.0779
  H  H178  1  0.441100  0.855300  0.500400  1.0  0.122
  H  H179  1  0.394600  0.177000  0.513500  1.0  0.1015
  H  H180  1  0.365100  0.091500  0.473200  1.0  0.1142
  H  H181  1  0.340400  0.145200  0.561200  1.0  0.086
  H  H182  1  0.268900  0.119300  0.587300  1.0  0.1242
  H  H183  1  0.422200  0.079600  0.629000  1.0  0.0944
  H  H184  1  0.353000  0.053700  0.657200  1.0  0.1186
  H  H185  1  0.310300  0.958000  0.766200  1.0  0.0892
  H  H186  1  0.303500  0.016300  0.719200  1.0  0.1155
  H  H187  1  0.167600  0.919800  0.771300  1.0  0.0791
  H  H188  1  0.156200  0.979500  0.724700  1.0  0.1217
  H  H189  1  0.011800  0.101600  0.651100  1.0  0.0965
  H  H190  1  0.087900  0.068900  0.671900  1.0  0.1177
  H  H191  1  0.070800  0.116200  0.573300  1.0  0.0848
  H  H192  1  0.148600  0.089800  0.592000  1.0  0.1193
  H  H193  1  0.192000  0.813500  0.864300  1.0  0.0874
  H  H194  1  0.157700  0.897300  0.902800  1.0  0.1211
  H  H195  1  0.226900  0.059200  0.825800  1.0  0.0769
  H  H196  1  0.192600  0.149700  0.862900  1.0  0.1159
  H  H197  1  0.064300  0.476500  0.873900  1.0  0.0887
  H  H198  1  0.094900  0.320900  0.880000  1.0  0.1176
  H  H199  1  0.068800  0.525500  0.957400  1.0  0.0848
  H  H200  1  0.096600  0.369900  0.966300  1.0  0.12
  H  H201  1  0.032900  0.056200  0.039800  1.0  0.0781
  H  H202  1  0.058900  0.144700  0.000400  1.0  0.1225
  H  H203  1  0.105400  0.823000  0.013500  1.0  0.1022
  H  H204  1  0.134900  0.908500  0.973200  1.0  0.1138
  H  H205  1  0.159600  0.854800  0.061200  1.0  0.0856
  H  H206  1  0.231100  0.880700  0.087300  1.0  0.1238
  H  H207  1  0.077800  0.920400  0.129000  1.0  0.0953
  H  H208  1  0.147000  0.946300  0.157200  1.0  0.1191
  H  H209  1  0.189700  0.042000  0.266200  1.0  0.0901
  H  H210  1  0.196500  0.983700  0.219200  1.0  0.1157
  H  H211  1  0.332400  0.080200  0.271300  1.0  0.079
  H  H212  1  0.343800  0.020500  0.224700  1.0  0.1216
  H  H213  1  0.488200  0.898400  0.151100  1.0  0.0965
  H  H214  1  0.412100  0.931100  0.171900  1.0  0.1175
  H  H215  1  0.429200  0.883800  0.073300  1.0  0.0844
  H  H216  1  0.351400  0.910200  0.092000  1.0  0.1196
  C  C217  1  0.307800  0.382900  0.864080  1.0  0.1288
  C  C218  1  0.328300  0.432300  0.886990  1.0  -0.128
  C  C219  1  0.287700  0.525900  0.841690  1.0  0.1561
  C  C220  1  0.307800  0.580300  0.863670  1.0  -0.1575
  C  C221  1  0.328600  0.532200  0.886930  1.0  -0.0627
  C  C222  1  0.351300  0.587400  0.911340  1.0  0.3796
  C  C223  1  0.428800  0.954000  0.893050  1.0  0.1434
  C  C224  1  0.411000  0.861200  0.896420  1.0  -0.1579
  C  C225  1  0.426700  0.982400  0.941430  1.0  0.1366
  C  C226  1  0.409600  0.890100  0.946900  1.0  -0.1623
  C  C227  1  0.401500  0.827000  0.924240  1.0  -0.0374
  C  C228  1  0.385300  0.724900  0.928720  1.0  0.4032
  C  C229  1  0.446000  0.525800  0.025990  1.0  0.1368
  C  C230  1  0.430700  0.578900  0.002770  1.0  -0.163
  C  C231  1  0.403700  0.389500  0.010920  1.0  0.1215
  C  C232  1  0.386200  0.440100  0.986720  1.0  -0.0939
  C  C233  1  0.399600  0.535700  0.982410  1.0  -0.1265
  C  C234  1  0.383200  0.590100  0.956300  1.0  0.2986
  C  C235  1  0.342900  0.374300  0.080960  1.0  0.1434
  C  C236  1  0.300100  0.389200  0.096330  1.0  -0.1488
  C  C237  1  0.390500  0.412300  0.120510  1.0  0.136
  C  C238  1  0.349600  0.428000  0.137410  1.0  -0.1358
  C  C239  1  0.303400  0.416700  0.125310  1.0  -0.1234
  C  C240  1  0.258500  0.431600  0.142780  1.0  0.4126
  C  C241  1  0.278700  0.539100  0.257390  1.0  0.135
  C  C242  1  0.274800  0.504000  0.229420  1.0  -0.1238
  C  C243  1  0.195700  0.561000  0.260400  1.0  0.1498
  C  C244  1  0.188400  0.525900  0.232560  1.0  -0.1602
  C  C245  1  0.229100  0.498600  0.216400  1.0  -0.0997
  C  C246  1  0.223700  0.468600  0.185690  1.0  0.4078
  C  C247  1  0.040100  0.401300  0.138950  1.0  0.1476
  C  C248  1  0.085400  0.419400  0.151550  1.0  -0.124
  C  C249  1  0.074500  0.392000  0.093720  1.0  0.1441
  C  C250  1  0.120900  0.407900  0.104620  1.0  -0.156
  C  C251  1  0.126900  0.420400  0.134300  1.0  -0.1034
  C  C252  1  0.176200  0.433700  0.147090  1.0  0.3834
  C  C253  1  0.192200  0.617100  0.364080  1.0  0.1298
  C  C254  1  0.171700  0.567700  0.386990  1.0  -0.1287
  C  C255  1  0.212300  0.474100  0.341690  1.0  0.1555
  C  C256  1  0.192200  0.419700  0.363670  1.0  -0.1569
  C  C257  1  0.171400  0.467800  0.386930  1.0  -0.0633
  C  C258  1  0.148700  0.412600  0.411340  1.0  0.3798
  C  C259  1  0.071200  0.046000  0.393050  1.0  0.1428
  C  C260  1  0.089000  0.138800  0.396420  1.0  -0.1586
  C  C261  1  0.073300  0.017600  0.441430  1.0  0.1365
  C  C262  1  0.090400  0.109900  0.446900  1.0  -0.1618
  C  C263  1  0.098500  0.173000  0.424240  1.0  -0.0388
  C  C264  1  0.114700  0.275100  0.428720  1.0  0.4035
  C  C265  1  0.054000  0.474200  0.525990  1.0  0.1367
  C  C266  1  0.069300  0.421100  0.502770  1.0  -0.1647
  C  C267  1  0.096300  0.610500  0.510920  1.0  0.1222
  C  C268  1  0.113800  0.559900  0.486720  1.0  -0.0943
  C  C269  1  0.100400  0.464300  0.482410  1.0  -0.125
  C  C270  1  0.116800  0.409900  0.456300  1.0  0.2985
  C  C271  1  0.157100  0.625700  0.580960  1.0  0.1432
  C  C272  1  0.199900  0.610800  0.596330  1.0  -0.1483
  C  C273  1  0.109500  0.587700  0.620510  1.0  0.1364
  C  C274  1  0.150400  0.572000  0.637410  1.0  -0.136
  C  C275  1  0.196600  0.583300  0.625310  1.0  -0.1239
  C  C276  1  0.241500  0.568400  0.642780  1.0  0.413
  C  C277  1  0.221300  0.460900  0.757390  1.0  0.1364
  C  C278  1  0.225200  0.496000  0.729420  1.0  -0.1254
  C  C279  1  0.304300  0.439000  0.760400  1.0  0.1494
  C  C280  1  0.311600  0.474100  0.732560  1.0  -0.1586
  C  C281  1  0.270900  0.501400  0.716400  1.0  -0.0993
  C  C282  1  0.276300  0.531400  0.685690  1.0  0.4078
  C  C283  1  0.459900  0.598700  0.638950  1.0  0.1476
  C  C284  1  0.414600  0.580600  0.651550  1.0  -0.1238
  C  C285  1  0.425500  0.608000  0.593720  1.0  0.1449
  C  C286  1  0.379100  0.592100  0.604620  1.0  -0.1558
  C  C287  1  0.373100  0.579600  0.634300  1.0  -0.1035
  C  C288  1  0.323800  0.566300  0.647090  1.0  0.3843
  C  C289  1  0.692200  0.882900  0.635920  1.0  0.1295
  C  C290  1  0.671700  0.932300  0.613010  1.0  -0.1277
  C  C291  1  0.712300  0.025900  0.658310  1.0  0.1555
  C  C292  1  0.692200  0.080300  0.636330  1.0  -0.158
  C  C293  1  0.671400  0.032200  0.613070  1.0  -0.0636
  C  C294  1  0.648700  0.087400  0.588660  1.0  0.3797
  C  C295  1  0.571200  0.454000  0.606950  1.0  0.143
  C  C296  1  0.589000  0.361200  0.603580  1.0  -0.1585
  C  C297  1  0.573300  0.482400  0.558570  1.0  0.137
  C  C298  1  0.590400  0.390100  0.553100  1.0  -0.1601
  C  C299  1  0.598500  0.327000  0.575760  1.0  -0.0376
  C  C300  1  0.614700  0.224900  0.571280  1.0  0.4034
  C  C301  1  0.554000  0.025800  0.474010  1.0  0.1379
  C  C302  1  0.569300  0.078900  0.497230  1.0  -0.1629
  C  C303  1  0.596300  0.889500  0.489080  1.0  0.1224
  C  C304  1  0.613800  0.940100  0.513280  1.0  -0.0928
  C  C305  1  0.600400  0.035700  0.517590  1.0  -0.1261
  C  C306  1  0.616800  0.090100  0.543700  1.0  0.2997
  C  C307  1  0.657100  0.874300  0.419040  1.0  0.1442
  C  C308  1  0.699900  0.889200  0.403670  1.0  -0.1488
  C  C309  1  0.609500  0.912300  0.379490  1.0  0.1364
  C  C310  1  0.650400  0.928000  0.362590  1.0  -0.1351
  C  C311  1  0.696600  0.916700  0.374690  1.0  -0.1239
  C  C312  1  0.741500  0.931600  0.357220  1.0  0.4133
  C  C313  1  0.721300  0.039100  0.242610  1.0  0.1353
  C  C314  1  0.725200  0.004000  0.270580  1.0  -0.126
  C  C315  1  0.804300  0.061000  0.239600  1.0  0.1488
  C  C316  1  0.811600  0.025900  0.267440  1.0  -0.1586
  C  C317  1  0.770900  0.998600  0.283600  1.0  -0.1003
  C  C318  1  0.776300  0.968600  0.314310  1.0  0.4073
  C  C319  1  0.959900  0.901300  0.361050  1.0  0.147
  C  C320  1  0.914600  0.919400  0.348450  1.0  -0.1208
  C  C321  1  0.925500  0.892000  0.406280  1.0  0.1434
  C  C322  1  0.879100  0.907900  0.395380  1.0  -0.1579
  C  C323  1  0.873100  0.920400  0.365700  1.0  -0.1031
  C  C324  1  0.823800  0.933700  0.352910  1.0  0.3842
  C  C325  1  0.807800  0.117100  0.135920  1.0  0.1295
  C  C326  1  0.828300  0.067700  0.113010  1.0  -0.127
  C  C327  1  0.787700  0.974100  0.158310  1.0  0.1565
  C  C328  1  0.807800  0.919700  0.136330  1.0  -0.1558
  C  C329  1  0.828600  0.967800  0.113070  1.0  -0.063
  C  C330  1  0.851300  0.912600  0.088660  1.0  0.3798
  C  C331  1  0.928800  0.546000  0.106950  1.0  0.1441
  C  C332  1  0.911000  0.638800  0.103580  1.0  -0.16
  C  C333  1  0.926700  0.517600  0.058570  1.0  0.1375
  C  C334  1  0.909600  0.609900  0.053100  1.0  -0.159
  C  C335  1  0.901500  0.673000  0.075760  1.0  -0.0383
  C  C336  1  0.885300  0.775100  0.071280  1.0  0.4035
  C  C337  1  0.946000  0.974200  0.974010  1.0  0.1372
  C  C338  1  0.930700  0.921100  0.997230  1.0  -0.1626
  C  C339  1  0.903700  0.110500  0.989080  1.0  0.122
  C  C340  1  0.886200  0.059900  0.013280  1.0  -0.0953
  C  C341  1  0.899600  0.964300  0.017590  1.0  -0.1259
  C  C342  1  0.883200  0.909900  0.043700  1.0  0.2997
  C  C343  1  0.842900  0.125700  0.919040  1.0  0.1444
  C  C344  1  0.800100  0.110800  0.903670  1.0  -0.1504
  C  C345  1  0.890500  0.087700  0.879490  1.0  0.135
  C  C346  1  0.849600  0.072000  0.862590  1.0  -0.1359
  C  C347  1  0.803400  0.083300  0.874690  1.0  -0.1232
  C  C348  1  0.758500  0.068400  0.857220  1.0  0.4131
  C  C349  1  0.778700  0.960900  0.742610  1.0  0.1351
  C  C350  1  0.774800  0.996000  0.770580  1.0  -0.1245
  C  C351  1  0.695700  0.939000  0.739600  1.0  0.1499
  C  C352  1  0.688400  0.974100  0.767440  1.0  -0.1608
  C  C353  1  0.729100  0.001400  0.783600  1.0  -0.1003
  C  C354  1  0.723700  0.031400  0.814310  1.0  0.4073
  C  C355  1  0.540100  0.098700  0.861050  1.0  0.1481
  C  C356  1  0.585400  0.080600  0.848450  1.0  -0.1203
  C  C357  1  0.574500  0.108000  0.906280  1.0  0.1428
  C  C358  1  0.620900  0.092100  0.895380  1.0  -0.1569
  C  C359  1  0.626900  0.079600  0.865700  1.0  -0.1032
  C  C360  1  0.676200  0.066300  0.852910  1.0  0.3835
  C  C361  1  0.692200  0.617100  0.135920  1.0  0.1298
  C  C362  1  0.671700  0.567700  0.113010  1.0  -0.1274
  C  C363  1  0.712300  0.474100  0.158310  1.0  0.1561
  C  C364  1  0.692200  0.419700  0.136330  1.0  -0.1565
  C  C365  1  0.671400  0.467800  0.113070  1.0  -0.0636
  C  C366  1  0.648700  0.412600  0.088660  1.0  0.3797
  C  C367  1  0.571200  0.046000  0.106950  1.0  0.1436
  C  C368  1  0.589000  0.138800  0.103580  1.0  -0.159
  C  C369  1  0.573300  0.017600  0.058570  1.0  0.1364
  C  C370  1  0.590400  0.109900  0.053100  1.0  -0.1596
  C  C371  1  0.598500  0.173000  0.075760  1.0  -0.0388
  C  C372  1  0.614700  0.275100  0.071280  1.0  0.4035
  C  C373  1  0.554000  0.474200  0.974010  1.0  0.1374
  C  C374  1  0.569300  0.421100  0.997230  1.0  -0.1636
  C  C375  1  0.596300  0.610500  0.989080  1.0  0.1224
  C  C376  1  0.613800  0.559900  0.013280  1.0  -0.0948
  C  C377  1  0.600400  0.464300  0.017590  1.0  -0.1252
  C  C378  1  0.616800  0.409900  0.043700  1.0  0.2997
  C  C379  1  0.657100  0.625700  0.919040  1.0  0.1437
  C  C380  1  0.699900  0.610800  0.903670  1.0  -0.1489
  C  C381  1  0.609500  0.587700  0.879490  1.0  0.1363
  C  C382  1  0.650400  0.572000  0.862590  1.0  -0.1348
  C  C383  1  0.696600  0.583300  0.874690  1.0  -0.1237
  C  C384  1  0.741500  0.568400  0.857220  1.0  0.4134
  C  C385  1  0.721300  0.460900  0.742610  1.0  0.1357
  C  C386  1  0.725200  0.496000  0.770580  1.0  -0.1262
  C  C387  1  0.804300  0.439000  0.739600  1.0  0.1486
  C  C388  1  0.811600  0.474100  0.767440  1.0  -0.1586
  C  C389  1  0.770900  0.501400  0.783600  1.0  -0.1003
  C  C390  1  0.776300  0.531400  0.814310  1.0  0.4073
  C  C391  1  0.959900  0.598700  0.861050  1.0  0.1473
  C  C392  1  0.914600  0.580600  0.848450  1.0  -0.1208
  C  C393  1  0.925500  0.608000  0.906280  1.0  0.1433
  C  C394  1  0.879100  0.592100  0.895380  1.0  -0.1581
  C  C395  1  0.873100  0.579600  0.865700  1.0  -0.1032
  C  C396  1  0.823800  0.566300  0.852910  1.0  0.3844
  C  C397  1  0.807800  0.382900  0.635920  1.0  0.1286
  C  C398  1  0.828300  0.432300  0.613010  1.0  -0.1274
  C  C399  1  0.787700  0.525900  0.658310  1.0  0.1558
  C  C400  1  0.807800  0.580300  0.636330  1.0  -0.1574
  C  C401  1  0.828600  0.532200  0.613070  1.0  -0.0631
  C  C402  1  0.851300  0.587400  0.588660  1.0  0.3797
  C  C403  1  0.928800  0.954000  0.606950  1.0  0.1431
  C  C404  1  0.911000  0.861200  0.603580  1.0  -0.1594
  C  C405  1  0.926700  0.982400  0.558570  1.0  0.1382
  C  C406  1  0.909600  0.890100  0.553100  1.0  -0.1597
  C  C407  1  0.901500  0.827000  0.575760  1.0  -0.0374
  C  C408  1  0.885300  0.724900  0.571280  1.0  0.4033
  C  C409  1  0.946000  0.525800  0.474010  1.0  0.1376
  C  C410  1  0.930700  0.578900  0.497230  1.0  -0.1621
  C  C411  1  0.903700  0.389500  0.489080  1.0  0.1219
  C  C412  1  0.886200  0.440100  0.513280  1.0  -0.0938
  C  C413  1  0.899600  0.535700  0.517590  1.0  -0.1258
  C  C414  1  0.883200  0.590100  0.543700  1.0  0.2998
  C  C415  1  0.842900  0.374300  0.419040  1.0  0.1449
  C  C416  1  0.800100  0.389200  0.403670  1.0  -0.1503
  C  C417  1  0.890500  0.412300  0.379490  1.0  0.1349
  C  C418  1  0.849600  0.428000  0.362590  1.0  -0.136
  C  C419  1  0.803400  0.416700  0.374690  1.0  -0.1234
  C  C420  1  0.758500  0.431600  0.357220  1.0  0.4131
  C  C421  1  0.778700  0.539100  0.242610  1.0  0.1347
  C  C422  1  0.774800  0.504000  0.270580  1.0  -0.124
  C  C423  1  0.695700  0.561000  0.239600  1.0  0.1501
  C  C424  1  0.688400  0.525900  0.267440  1.0  -0.1607
  C  C425  1  0.729100  0.498600  0.283600  1.0  -0.1003
  C  C426  1  0.723700  0.468600  0.314310  1.0  0.4073
  C  C427  1  0.540100  0.401300  0.361050  1.0  0.1479
  C  C428  1  0.585400  0.419400  0.348450  1.0  -0.1204
  C  C429  1  0.574500  0.392000  0.406280  1.0  0.1427
  C  C430  1  0.620900  0.407900  0.395380  1.0  -0.1567
  C  C431  1  0.626900  0.420400  0.365700  1.0  -0.1031
  C  C432  1  0.676200  0.433700  0.352910  1.0  0.3834
  C  C433  1  0.307800  0.117100  0.364080  1.0  0.1295
  C  C434  1  0.328300  0.067700  0.386990  1.0  -0.1283
  C  C435  1  0.287700  0.974100  0.341690  1.0  0.1562
  C  C436  1  0.307800  0.919700  0.363670  1.0  -0.1562
  C  C437  1  0.328600  0.967800  0.386930  1.0  -0.0627
  C  C438  1  0.351300  0.912600  0.411340  1.0  0.3797
  C  C439  1  0.428800  0.546000  0.393050  1.0  0.1433
  C  C440  1  0.411000  0.638800  0.396420  1.0  -0.1588
  C  C441  1  0.426700  0.517600  0.441430  1.0  0.1368
  C  C442  1  0.409600  0.609900  0.446900  1.0  -0.1627
  C  C443  1  0.401500  0.673000  0.424240  1.0  -0.0384
  C  C444  1  0.385300  0.775100  0.428720  1.0  0.4035
  C  C445  1  0.446000  0.974200  0.525990  1.0  0.1368
  C  C446  1  0.430700  0.921100  0.502770  1.0  -0.1636
  C  C447  1  0.403700  0.110500  0.510920  1.0  0.1217
  C  C448  1  0.386200  0.059900  0.486720  1.0  -0.0943
  C  C449  1  0.399600  0.964300  0.482410  1.0  -0.1267
  C  C450  1  0.383200  0.909900  0.456300  1.0  0.2986
  C  C451  1  0.342900  0.125700  0.580960  1.0  0.1435
  C  C452  1  0.300100  0.110800  0.596330  1.0  -0.149
  C  C453  1  0.390500  0.087700  0.620510  1.0  0.1358
  C  C454  1  0.349600  0.072000  0.637410  1.0  -0.1359
  C  C455  1  0.303400  0.083300  0.625310  1.0  -0.1233
  C  C456  1  0.258500  0.068400  0.642780  1.0  0.4126
  C  C457  1  0.278700  0.960900  0.757390  1.0  0.1355
  C  C458  1  0.274800  0.996000  0.729420  1.0  -0.1242
  C  C459  1  0.195700  0.939000  0.760400  1.0  0.1505
  C  C460  1  0.188400  0.974100  0.732560  1.0  -0.1603
  C  C461  1  0.229100  0.001400  0.716400  1.0  -0.0994
  C  C462  1  0.223700  0.031400  0.685690  1.0  0.4078
  C  C463  1  0.040100  0.098700  0.638950  1.0  0.1475
  C  C464  1  0.085400  0.080600  0.651550  1.0  -0.1239
  C  C465  1  0.074500  0.108000  0.593720  1.0  0.1442
  C  C466  1  0.120900  0.092100  0.604620  1.0  -0.1562
  C  C467  1  0.126900  0.079600  0.634300  1.0  -0.1036
  C  C468  1  0.176200  0.066300  0.647090  1.0  0.3836
  C  C469  1  0.192200  0.882900  0.864080  1.0  0.1297
  C  C470  1  0.171700  0.932300  0.886990  1.0  -0.1281
  C  C471  1  0.212300  0.025900  0.841690  1.0  0.1555
  C  C472  1  0.192200  0.080300  0.863670  1.0  -0.158
  C  C473  1  0.171400  0.032200  0.886930  1.0  -0.0632
  C  C474  1  0.148700  0.087400  0.911340  1.0  0.3798
  C  C475  1  0.071200  0.454000  0.893050  1.0  0.143
  C  C476  1  0.089000  0.361200  0.896420  1.0  -0.158
  C  C477  1  0.073300  0.482400  0.941430  1.0  0.1364
  C  C478  1  0.090400  0.390100  0.946900  1.0  -0.1616
  C  C479  1  0.098500  0.327000  0.924240  1.0  -0.0377
  C  C480  1  0.114700  0.224900  0.928720  1.0  0.4033
  C  C481  1  0.054000  0.025800  0.025990  1.0  0.1367
  C  C482  1  0.069300  0.078900  0.002770  1.0  -0.1638
  C  C483  1  0.096300  0.889500  0.010920  1.0  0.1221
  C  C484  1  0.113800  0.940100  0.986720  1.0  -0.0934
  C  C485  1  0.100400  0.035700  0.982410  1.0  -0.1257
  C  C486  1  0.116800  0.090100  0.956300  1.0  0.2985
  C  C487  1  0.157100  0.874300  0.080960  1.0  0.1432
  C  C488  1  0.199900  0.889200  0.096330  1.0  -0.1482
  C  C489  1  0.109500  0.912300  0.120510  1.0  0.1365
  C  C490  1  0.150400  0.928000  0.137410  1.0  -0.136
  C  C491  1  0.196600  0.916700  0.125310  1.0  -0.1241
  C  C492  1  0.241500  0.931600  0.142780  1.0  0.4129
  C  C493  1  0.221300  0.039100  0.257390  1.0  0.1357
  C  C494  1  0.225200  0.004000  0.229420  1.0  -0.1254
  C  C495  1  0.304300  0.061000  0.260400  1.0  0.1487
  C  C496  1  0.311600  0.025900  0.232560  1.0  -0.1586
  C  C497  1  0.270900  0.998600  0.216400  1.0  -0.0995
  C  C498  1  0.276300  0.968600  0.185690  1.0  0.4078
  C  C499  1  0.459900  0.901300  0.138950  1.0  0.1476
  C  C500  1  0.414600  0.919400  0.151550  1.0  -0.1239
  C  C501  1  0.425500  0.892000  0.093720  1.0  0.145
  C  C502  1  0.379100  0.907900  0.104620  1.0  -0.1556
  C  C503  1  0.373100  0.920400  0.134300  1.0  -0.1034
  C  C504  1  0.323800  0.933700  0.147090  1.0  0.3842
  I  I505  1  0.517540  0.456820  0.094570  1.0  -0.3757
  I  I506  1  0.454680  0.178780  0.057600  1.0  -0.3883
  I  I507  1  0.161290  0.338330  0.822070  1.0  -0.3266
  I  I508  1  0.303940  0.195880  0.802550  1.0  -0.3984
  I  I509  1  0.420380  0.228880  0.865890  1.0  -0.3334
  I  I510  1  0.479760  0.232750  0.956240  1.0  -0.415
  I  I511  1  0.982460  0.543180  0.594570  1.0  -0.3768
  I  I512  1  0.045320  0.821220  0.557600  1.0  -0.3889
  I  I513  1  0.338710  0.661670  0.322070  1.0  -0.3272
  I  I514  1  0.196060  0.804120  0.302550  1.0  -0.3981
  I  I515  1  0.079620  0.771120  0.365890  1.0  -0.3332
  I  I516  1  0.020240  0.767250  0.456240  1.0  -0.4159
  I  I517  1  0.482460  0.956820  0.405420  1.0  -0.3776
  I  I518  1  0.545320  0.678780  0.442400  1.0  -0.3893
  I  I519  1  0.838710  0.838330  0.677930  1.0  -0.3283
  I  I520  1  0.696060  0.695880  0.697450  1.0  -0.3989
  I  I521  1  0.579620  0.728880  0.634110  1.0  -0.3335
  I  I522  1  0.520240  0.732750  0.543760  1.0  -0.4153
  I  I523  1  0.017540  0.043180  0.905420  1.0  -0.3763
  I  I524  1  0.954680  0.321220  0.942400  1.0  -0.3883
  I  I525  1  0.661290  0.161670  0.177930  1.0  -0.3275
  I  I526  1  0.803940  0.304120  0.197450  1.0  -0.3985
  I  I527  1  0.920380  0.271120  0.134110  1.0  -0.3331
  I  I528  1  0.979760  0.267250  0.043760  1.0  -0.4153
  I  I529  1  0.482460  0.543180  0.905420  1.0  -0.3774
  I  I530  1  0.545320  0.821220  0.942400  1.0  -0.3892
  I  I531  1  0.838710  0.661670  0.177930  1.0  -0.3283
  I  I532  1  0.696060  0.804120  0.197450  1.0  -0.3984
  I  I533  1  0.579620  0.771120  0.134110  1.0  -0.333
  I  I534  1  0.520240  0.767250  0.043760  1.0  -0.4157
  I  I535  1  0.017540  0.456820  0.405420  1.0  -0.3766
  I  I536  1  0.954680  0.178780  0.442400  1.0  -0.3884
  I  I537  1  0.661290  0.338330  0.677930  1.0  -0.3275
  I  I538  1  0.803940  0.195880  0.697450  1.0  -0.3988
  I  I539  1  0.920380  0.228880  0.634110  1.0  -0.3336
  I  I540  1  0.979760  0.232750  0.543760  1.0  -0.415
  I  I541  1  0.517540  0.043180  0.594570  1.0  -0.3758
  I  I542  1  0.454680  0.321220  0.557600  1.0  -0.388
  I  I543  1  0.161290  0.161670  0.322070  1.0  -0.3267
  I  I544  1  0.303940  0.304120  0.302550  1.0  -0.398
  I  I545  1  0.420380  0.271120  0.365890  1.0  -0.3334
  I  I546  1  0.479760  0.267250  0.456240  1.0  -0.4155
  I  I547  1  0.982460  0.956820  0.094570  1.0  -0.3765
  I  I548  1  0.045320  0.678780  0.057600  1.0  -0.3892
  I  I549  1  0.338710  0.838330  0.822070  1.0  -0.3271
  I  I550  1  0.196060  0.695880  0.802550  1.0  -0.3987
  I  I551  1  0.079620  0.728880  0.865890  1.0  -0.3331
  I  I552  1  0.020240  0.732750  0.956240  1.0  -0.4153
  N  N553  1  0.287500  0.428400  0.841480  1.0  -0.3173
  N  N554  1  0.437000  0.014200  0.915210  1.0  -0.2922
  N  N555  1  0.432740  0.432300  0.030490  1.0  -0.2946
  N  N556  1  0.363300  0.680700  0.906410  1.0  -0.4367
  N  N557  1  0.395480  0.684000  0.954360  1.0  -0.3148
  N  N558  1  0.360010  0.538200  0.935970  1.0  -0.4726
  N  N559  1  0.387650  0.386000  0.092420  1.0  -0.3258
  N  N560  1  0.239500  0.569400  0.272620  1.0  -0.3077
  N  N561  1  0.034590  0.387600  0.110370  1.0  -0.2976
  N  N562  1  0.265180  0.455000  0.170760  1.0  -0.4922
  N  N563  1  0.178290  0.458700  0.175380  1.0  -0.4808
  N  N564  1  0.214930  0.420700  0.130030  1.0  -0.4632
  N  N565  1  0.212500  0.571600  0.341480  1.0  -0.3161
  N  N566  1  0.063000  0.985800  0.415210  1.0  -0.2902
  N  N567  1  0.067260  0.567700  0.530490  1.0  -0.2952
  N  N568  1  0.136700  0.319300  0.406410  1.0  -0.4371
  N  N569  1  0.104520  0.316000  0.454360  1.0  -0.3139
  N  N570  1  0.139990  0.461800  0.435970  1.0  -0.4726
  N  N571  1  0.112350  0.614000  0.592420  1.0  -0.3248
  N  N572  1  0.260500  0.430600  0.772620  1.0  -0.3075
  N  N573  1  0.465410  0.612400  0.610370  1.0  -0.2964
  N  N574  1  0.234820  0.545000  0.670760  1.0  -0.4915
  N  N575  1  0.321710  0.541300  0.675380  1.0  -0.4789
  N  N576  1  0.285070  0.579300  0.630030  1.0  -0.4625
  N  N577  1  0.712500  0.928400  0.658520  1.0  -0.3155
  N  N578  1  0.563000  0.514200  0.584790  1.0  -0.2924
  N  N579  1  0.567260  0.932300  0.469510  1.0  -0.2968
  N  N580  1  0.636700  0.180700  0.593590  1.0  -0.4372
  N  N581  1  0.604520  0.184000  0.545640  1.0  -0.3149
  N  N582  1  0.639990  0.038200  0.564030  1.0  -0.4725
  N  N583  1  0.612350  0.886000  0.407580  1.0  -0.3265
  N  N584  1  0.760500  0.069400  0.227380  1.0  -0.309
  N  N585  1  0.965410  0.887600  0.389630  1.0  -0.2965
  N  N586  1  0.734820  0.955000  0.329240  1.0  -0.491
  N  N587  1  0.821710  0.958700  0.324620  1.0  -0.4783
  N  N588  1  0.785070  0.920700  0.369970  1.0  -0.4631
  N  N589  1  0.787500  0.071600  0.158520  1.0  -0.3172
  N  N590  1  0.937000  0.485800  0.084790  1.0  -0.2899
  N  N591  1  0.932740  0.067700  0.969510  1.0  -0.2953
  N  N592  1  0.863300  0.819300  0.093590  1.0  -0.4362
  N  N593  1  0.895480  0.816000  0.045640  1.0  -0.3137
  N  N594  1  0.860010  0.961800  0.064030  1.0  -0.4728
  N  N595  1  0.887650  0.114000  0.907580  1.0  -0.3258
  N  N596  1  0.739500  0.930600  0.727380  1.0  -0.3079
  N  N597  1  0.534590  0.112400  0.889630  1.0  -0.2991
  N  N598  1  0.765180  0.045000  0.829240  1.0  -0.4919
  N  N599  1  0.678290  0.041300  0.824620  1.0  -0.4795
  N  N600  1  0.714930  0.079300  0.869970  1.0  -0.4634
  N  N601  1  0.712500  0.571600  0.158520  1.0  -0.3166
  N  N602  1  0.563000  0.985800  0.084790  1.0  -0.2905
  N  N603  1  0.567260  0.567700  0.969510  1.0  -0.2956
  N  N604  1  0.636700  0.319300  0.093590  1.0  -0.4365
  N  N605  1  0.604520  0.316000  0.045640  1.0  -0.3147
  N  N606  1  0.639990  0.461800  0.064030  1.0  -0.4725
  N  N607  1  0.612350  0.614000  0.907580  1.0  -0.3266
  N  N608  1  0.760500  0.430600  0.727380  1.0  -0.3088
  N  N609  1  0.965410  0.612400  0.889630  1.0  -0.2972
  N  N610  1  0.734820  0.545000  0.829240  1.0  -0.4911
  N  N611  1  0.821710  0.541300  0.824620  1.0  -0.4786
  N  N612  1  0.785070  0.579300  0.869970  1.0  -0.4631
  N  N613  1  0.787500  0.428400  0.658520  1.0  -0.316
  N  N614  1  0.937000  0.014200  0.584790  1.0  -0.2928
  N  N615  1  0.932740  0.432300  0.469510  1.0  -0.2963
  N  N616  1  0.863300  0.680700  0.593590  1.0  -0.4368
  N  N617  1  0.895480  0.684000  0.545640  1.0  -0.3146
  N  N618  1  0.860010  0.538200  0.564030  1.0  -0.4731
  N  N619  1  0.887650  0.386000  0.407580  1.0  -0.3256
  N  N620  1  0.739500  0.569400  0.227380  1.0  -0.3086
  N  N621  1  0.534590  0.387600  0.389630  1.0  -0.2986
  N  N622  1  0.765180  0.455000  0.329240  1.0  -0.4918
  N  N623  1  0.678290  0.458700  0.324620  1.0  -0.4792
  N  N624  1  0.714930  0.420700  0.369970  1.0  -0.4635
  N  N625  1  0.287500  0.071600  0.341480  1.0  -0.3165
  N  N626  1  0.437000  0.485800  0.415210  1.0  -0.2897
  N  N627  1  0.432740  0.067700  0.530490  1.0  -0.2956
  N  N628  1  0.363300  0.819300  0.406410  1.0  -0.4376
  N  N629  1  0.395480  0.816000  0.454360  1.0  -0.3129
  N  N630  1  0.360010  0.961800  0.435970  1.0  -0.4727
  N  N631  1  0.387650  0.114000  0.592420  1.0  -0.3257
  N  N632  1  0.239500  0.930600  0.772620  1.0  -0.3067
  N  N633  1  0.034590  0.112400  0.610370  1.0  -0.2975
  N  N634  1  0.265180  0.045000  0.670760  1.0  -0.4921
  N  N635  1  0.178290  0.041300  0.675380  1.0  -0.4806
  N  N636  1  0.214930  0.079300  0.630030  1.0  -0.4627
  N  N637  1  0.212500  0.928400  0.841480  1.0  -0.3168
  N  N638  1  0.063000  0.514200  0.915210  1.0  -0.292
  N  N639  1  0.067260  0.932300  0.030490  1.0  -0.2944
  N  N640  1  0.136700  0.180700  0.906410  1.0  -0.4362
  N  N641  1  0.104520  0.184000  0.954360  1.0  -0.3151
  N  N642  1  0.139990  0.038200  0.935970  1.0  -0.4724
  N  N643  1  0.112350  0.886000  0.092420  1.0  -0.3251
  N  N644  1  0.260500  0.069400  0.272620  1.0  -0.3083
  N  N645  1  0.465410  0.887600  0.110370  1.0  -0.296
  N  N646  1  0.234820  0.955000  0.170760  1.0  -0.4915
  N  N647  1  0.321710  0.958700  0.175380  1.0  -0.479
  N  N648  1  0.285070  0.920700  0.130030  1.0  -0.4629
