# generated using pymatgen
data_ZnH8C12(IN2)2
_symmetry_space_group_name_H-M   'P 1'
_cell_length_a   13.68170000
_cell_length_b   27.12300000
_cell_length_c   45.99500000
_cell_angle_alpha   90.00000000
_cell_angle_beta   90.00000000
_cell_angle_gamma   90.00000000
_symmetry_Int_Tables_number   1
_chemical_formula_structural   ZnH8C12(IN2)2
_chemical_formula_sum   'Zn24 H192 C288 I48 N96'
_cell_volume   17068.22701485
_cell_formula_units_Z   24
loop_
 _symmetry_equiv_pos_site_id
 _symmetry_equiv_pos_as_xyz
  1  'x, y, z'
loop_
 _atom_site_type_symbol
 _atom_site_label
 _atom_site_symmetry_multiplicity
 _atom_site_fract_x
 _atom_site_fract_y
 _atom_site_fract_z
 _atom_site_occupancy
 _atom_site_charge
  Zn  Zn1  1  0.859340  0.951800  0.929640  1.0  0.8568
  Zn  Zn2  1  0.645660  0.966720  0.093700  1.0  0.8351
  Zn  Zn3  1  0.844030  0.750900  0.189020  1.0  0.8735
  Zn  Zn4  1  0.140660  0.548200  0.429640  1.0  0.8593
  Zn  Zn5  1  0.354340  0.533280  0.593700  1.0  0.8343
  Zn  Zn6  1  0.155970  0.749100  0.689020  1.0  0.8735
  Zn  Zn7  1  0.359340  0.048200  0.570360  1.0  0.8608
  Zn  Zn8  1  0.145660  0.033280  0.406300  1.0  0.8349
  Zn  Zn9  1  0.344030  0.249100  0.310980  1.0  0.8728
  Zn  Zn10  1  0.640660  0.451800  0.070360  1.0  0.8582
  Zn  Zn11  1  0.854340  0.466720  0.906300  1.0  0.8353
  Zn  Zn12  1  0.655970  0.250900  0.810980  1.0  0.8745
  Zn  Zn13  1  0.140660  0.048200  0.070360  1.0  0.8607
  Zn  Zn14  1  0.354340  0.033280  0.906300  1.0  0.8342
  Zn  Zn15  1  0.155970  0.249100  0.810980  1.0  0.8738
  Zn  Zn16  1  0.859340  0.451800  0.570360  1.0  0.857
  Zn  Zn17  1  0.645660  0.466720  0.406300  1.0  0.8353
  Zn  Zn18  1  0.844030  0.250900  0.310980  1.0  0.874
  Zn  Zn19  1  0.640660  0.951800  0.429640  1.0  0.8577
  Zn  Zn20  1  0.854340  0.966720  0.593700  1.0  0.8351
  Zn  Zn21  1  0.655970  0.750900  0.689020  1.0  0.874
  Zn  Zn22  1  0.359340  0.548200  0.929640  1.0  0.8594
  Zn  Zn23  1  0.145660  0.533280  0.093700  1.0  0.835
  Zn  Zn24  1  0.344030  0.749100  0.189020  1.0  0.8726
  H  H25  1  0.806700  0.806500  0.134100  1.0  0.0914
  H  H26  1  0.890500  0.841900  0.095900  1.0  0.1209
  H  H27  1  0.053900  0.771700  0.173300  1.0  0.0851
  H  H28  1  0.144200  0.806700  0.136000  1.0  0.1116
  H  H29  1  0.470700  0.935500  0.127100  1.0  0.1057
  H  H30  1  0.313400  0.906100  0.120100  1.0  0.1117
  H  H31  1  0.523000  0.930800  0.042900  1.0  0.0903
  H  H32  1  0.365400  0.903400  0.033600  1.0  0.1172
  H  H33  1  0.053600  0.969700  0.959200  1.0  0.086
  H  H34  1  0.141600  0.943400  0.999200  1.0  0.1277
  H  H35  1  0.820500  0.896300  0.984900  1.0  0.0907
  H  H36  1  0.902900  0.866400  0.025600  1.0  0.1191
  H  H37  1  0.927100  0.922600  0.869800  1.0  0.0969
  H  H38  1  0.949900  0.853300  0.841600  1.0  0.1188
  H  H39  1  0.858100  0.841000  0.937800  1.0  0.0968
  H  H40  1  0.884200  0.769400  0.911800  1.0  0.1235
  H  H41  1  0.882200  0.571100  0.925900  1.0  0.0917
  H  H42  1  0.908100  0.649100  0.907100  1.0  0.125
  H  H43  1  0.916200  0.510700  0.848800  1.0  0.0967
  H  H44  1  0.944800  0.586500  0.827700  1.0  0.1193
  H  H45  1  0.086500  0.667600  0.727100  1.0  0.0926
  H  H46  1  0.028000  0.655900  0.774000  1.0  0.1202
  H  H47  1  0.043200  0.810800  0.732400  1.0  0.0873
  H  H48  1  0.985300  0.803200  0.779500  1.0  0.1224
  H  H49  1  0.193300  0.693500  0.634100  1.0  0.091
  H  H50  1  0.109500  0.658100  0.595900  1.0  0.1214
  H  H51  1  0.946100  0.728300  0.673300  1.0  0.0857
  H  H52  1  0.855800  0.693300  0.636000  1.0  0.1124
  H  H53  1  0.529300  0.564500  0.627100  1.0  0.1056
  H  H54  1  0.686600  0.593900  0.620100  1.0  0.1112
  H  H55  1  0.477000  0.569200  0.542900  1.0  0.0901
  H  H56  1  0.634600  0.596600  0.533600  1.0  0.117
  H  H57  1  0.946400  0.530300  0.459200  1.0  0.0856
  H  H58  1  0.858400  0.556600  0.499200  1.0  0.1276
  H  H59  1  0.179500  0.603700  0.484900  1.0  0.0915
  H  H60  1  0.097100  0.633600  0.525600  1.0  0.1185
  H  H61  1  0.072900  0.577400  0.369800  1.0  0.0978
  H  H62  1  0.050100  0.646700  0.341600  1.0  0.1183
  H  H63  1  0.141900  0.659000  0.437800  1.0  0.0972
  H  H64  1  0.115800  0.730600  0.411800  1.0  0.1232
  H  H65  1  0.117800  0.928900  0.425900  1.0  0.0918
  H  H66  1  0.091900  0.850900  0.407100  1.0  0.1252
  H  H67  1  0.083800  0.989300  0.348800  1.0  0.0967
  H  H68  1  0.055200  0.913500  0.327700  1.0  0.1196
  H  H69  1  0.913500  0.832400  0.227100  1.0  0.0926
  H  H70  1  0.972000  0.844100  0.274000  1.0  0.1199
  H  H71  1  0.956800  0.689200  0.232400  1.0  0.0872
  H  H72  1  0.014700  0.696800  0.279500  1.0  0.1221
  H  H73  1  0.306700  0.193500  0.365900  1.0  0.0916
  H  H74  1  0.390500  0.158100  0.404100  1.0  0.1216
  H  H75  1  0.553900  0.228300  0.326700  1.0  0.0864
  H  H76  1  0.644200  0.193300  0.364000  1.0  0.1115
  H  H77  1  0.970700  0.064500  0.372900  1.0  0.1056
  H  H78  1  0.813400  0.093900  0.379900  1.0  0.1115
  H  H79  1  0.023000  0.069200  0.457100  1.0  0.091
  H  H80  1  0.865400  0.096600  0.466400  1.0  0.1171
  H  H81  1  0.553600  0.030300  0.540800  1.0  0.0863
  H  H82  1  0.641600  0.056600  0.500800  1.0  0.1278
  H  H83  1  0.320500  0.103700  0.515100  1.0  0.0907
  H  H84  1  0.402900  0.133600  0.474400  1.0  0.1196
  H  H85  1  0.427100  0.077400  0.630200  1.0  0.0983
  H  H86  1  0.449900  0.146700  0.658400  1.0  0.1181
  H  H87  1  0.358100  0.159000  0.562200  1.0  0.0973
  H  H88  1  0.384200  0.230600  0.588200  1.0  0.1234
  H  H89  1  0.382200  0.428900  0.574100  1.0  0.0909
  H  H90  1  0.408100  0.350900  0.592900  1.0  0.125
  H  H91  1  0.416200  0.489300  0.651200  1.0  0.0966
  H  H92  1  0.444800  0.413500  0.672300  1.0  0.1191
  H  H93  1  0.586500  0.332400  0.772900  1.0  0.0923
  H  H94  1  0.528000  0.344100  0.726000  1.0  0.1203
  H  H95  1  0.543200  0.189200  0.767600  1.0  0.0876
  H  H96  1  0.485300  0.196800  0.720500  1.0  0.1216
  H  H97  1  0.693300  0.306500  0.865900  1.0  0.0907
  H  H98  1  0.609500  0.341900  0.904100  1.0  0.1214
  H  H99  1  0.446100  0.271700  0.826700  1.0  0.0873
  H  H100  1  0.355800  0.306700  0.864000  1.0  0.1126
  H  H101  1  0.029300  0.435500  0.872900  1.0  0.1058
  H  H102  1  0.186600  0.406100  0.879900  1.0  0.1112
  H  H103  1  0.977000  0.430800  0.957100  1.0  0.0906
  H  H104  1  0.134600  0.403400  0.966400  1.0  0.1172
  H  H105  1  0.446400  0.469700  0.040800  1.0  0.0867
  H  H106  1  0.358400  0.443400  0.000800  1.0  0.1274
  H  H107  1  0.679500  0.396300  0.015100  1.0  0.0912
  H  H108  1  0.597100  0.366400  0.974400  1.0  0.1189
  H  H109  1  0.572900  0.422600  0.130200  1.0  0.0977
  H  H110  1  0.550100  0.353300  0.158400  1.0  0.1181
  H  H111  1  0.641900  0.341000  0.062200  1.0  0.0968
  H  H112  1  0.615800  0.269400  0.088200  1.0  0.1233
  H  H113  1  0.617800  0.071100  0.074100  1.0  0.0911
  H  H114  1  0.591900  0.149100  0.092900  1.0  0.1253
  H  H115  1  0.583800  0.010700  0.151200  1.0  0.0968
  H  H116  1  0.555200  0.086500  0.172300  1.0  0.1193
  H  H117  1  0.413500  0.167600  0.272900  1.0  0.0931
  H  H118  1  0.472000  0.155900  0.226000  1.0  0.1202
  H  H119  1  0.456800  0.310800  0.267600  1.0  0.087
  H  H120  1  0.514700  0.303200  0.220500  1.0  0.1228
  H  H121  1  0.193300  0.193500  0.865900  1.0  0.0911
  H  H122  1  0.109500  0.158100  0.904100  1.0  0.1217
  H  H123  1  0.946100  0.228300  0.826700  1.0  0.0865
  H  H124  1  0.855800  0.193300  0.864000  1.0  0.1126
  H  H125  1  0.529300  0.064500  0.872900  1.0  0.1056
  H  H126  1  0.686600  0.093900  0.879900  1.0  0.1112
  H  H127  1  0.477000  0.069200  0.957100  1.0  0.0909
  H  H128  1  0.634600  0.096600  0.966400  1.0  0.117
  H  H129  1  0.946400  0.030300  0.040800  1.0  0.0865
  H  H130  1  0.858400  0.056600  0.000800  1.0  0.1276
  H  H131  1  0.179500  0.103700  0.015100  1.0  0.0915
  H  H132  1  0.097100  0.133600  0.974400  1.0  0.1193
  H  H133  1  0.072900  0.077400  0.130200  1.0  0.0987
  H  H134  1  0.050100  0.146700  0.158400  1.0  0.118
  H  H135  1  0.141900  0.159000  0.062200  1.0  0.0971
  H  H136  1  0.115800  0.230600  0.088200  1.0  0.1233
  H  H137  1  0.117800  0.428900  0.074100  1.0  0.0912
  H  H138  1  0.091900  0.350900  0.092900  1.0  0.1252
  H  H139  1  0.083800  0.489300  0.151200  1.0  0.0966
  H  H140  1  0.055200  0.413500  0.172300  1.0  0.1193
  H  H141  1  0.913500  0.332400  0.272900  1.0  0.0925
  H  H142  1  0.972000  0.344100  0.226000  1.0  0.1203
  H  H143  1  0.956800  0.189200  0.267600  1.0  0.0873
  H  H144  1  0.014700  0.196800  0.220500  1.0  0.1221
  H  H145  1  0.806700  0.306500  0.365900  1.0  0.0915
  H  H146  1  0.890500  0.341900  0.404100  1.0  0.1214
  H  H147  1  0.053900  0.271700  0.326700  1.0  0.0871
  H  H148  1  0.144200  0.306700  0.364000  1.0  0.1116
  H  H149  1  0.470700  0.435500  0.372900  1.0  0.1058
  H  H150  1  0.313400  0.406100  0.379900  1.0  0.1115
  H  H151  1  0.523000  0.430800  0.457100  1.0  0.0909
  H  H152  1  0.365400  0.403400  0.466400  1.0  0.1172
  H  H153  1  0.053600  0.469700  0.540800  1.0  0.086
  H  H154  1  0.141600  0.443400  0.500800  1.0  0.1276
  H  H155  1  0.820500  0.396300  0.515100  1.0  0.091
  H  H156  1  0.902900  0.366400  0.474400  1.0  0.119
  H  H157  1  0.927100  0.422600  0.630200  1.0  0.0976
  H  H158  1  0.949900  0.353300  0.658400  1.0  0.1182
  H  H159  1  0.858100  0.341000  0.562200  1.0  0.097
  H  H160  1  0.884200  0.269400  0.588200  1.0  0.1236
  H  H161  1  0.882200  0.071100  0.574100  1.0  0.0909
  H  H162  1  0.908100  0.149100  0.592900  1.0  0.1252
  H  H163  1  0.916200  0.010700  0.651200  1.0  0.097
  H  H164  1  0.944800  0.086500  0.672300  1.0  0.1193
  H  H165  1  0.086500  0.167600  0.772900  1.0  0.0928
  H  H166  1  0.028000  0.155900  0.726000  1.0  0.1205
  H  H167  1  0.043200  0.310800  0.767600  1.0  0.0873
  H  H168  1  0.985300  0.303200  0.720500  1.0  0.1224
  H  H169  1  0.693300  0.806500  0.634100  1.0  0.0907
  H  H170  1  0.609500  0.841900  0.595900  1.0  0.1211
  H  H171  1  0.446100  0.771700  0.673300  1.0  0.0855
  H  H172  1  0.355800  0.806700  0.636000  1.0  0.1127
  H  H173  1  0.029300  0.935500  0.627100  1.0  0.1058
  H  H174  1  0.186600  0.906100  0.620100  1.0  0.1111
  H  H175  1  0.977000  0.930800  0.542900  1.0  0.0899
  H  H176  1  0.134600  0.903400  0.533600  1.0  0.117
  H  H177  1  0.446400  0.969700  0.459200  1.0  0.0862
  H  H178  1  0.358400  0.943400  0.499200  1.0  0.1274
  H  H179  1  0.679500  0.896300  0.484900  1.0  0.0912
  H  H180  1  0.597100  0.866400  0.525600  1.0  0.1185
  H  H181  1  0.572900  0.922600  0.369800  1.0  0.0969
  H  H182  1  0.550100  0.853300  0.341600  1.0  0.1187
  H  H183  1  0.641900  0.841000  0.437800  1.0  0.0967
  H  H184  1  0.615800  0.769400  0.411800  1.0  0.1232
  H  H185  1  0.617800  0.571100  0.425900  1.0  0.0919
  H  H186  1  0.591900  0.649100  0.407100  1.0  0.125
  H  H187  1  0.583800  0.510700  0.348800  1.0  0.0968
  H  H188  1  0.555200  0.586500  0.327700  1.0  0.1195
  H  H189  1  0.413500  0.667600  0.227100  1.0  0.0927
  H  H190  1  0.472000  0.655900  0.274000  1.0  0.1199
  H  H191  1  0.456800  0.810800  0.232400  1.0  0.0871
  H  H192  1  0.514700  0.803200  0.279500  1.0  0.1228
  H  H193  1  0.306700  0.693500  0.134100  1.0  0.0915
  H  H194  1  0.390500  0.658100  0.095900  1.0  0.121
  H  H195  1  0.553900  0.728300  0.173300  1.0  0.0854
  H  H196  1  0.644200  0.693300  0.136000  1.0  0.1114
  H  H197  1  0.970700  0.564500  0.127100  1.0  0.1055
  H  H198  1  0.813400  0.593900  0.120100  1.0  0.1119
  H  H199  1  0.023000  0.569200  0.042900  1.0  0.0903
  H  H200  1  0.865400  0.596600  0.033600  1.0  0.1173
  H  H201  1  0.553600  0.530300  0.959200  1.0  0.086
  H  H202  1  0.641600  0.556600  0.999200  1.0  0.1279
  H  H203  1  0.320500  0.603700  0.984900  1.0  0.0906
  H  H204  1  0.402900  0.633600  0.025600  1.0  0.1192
  H  H205  1  0.427100  0.577400  0.869800  1.0  0.0977
  H  H206  1  0.449900  0.646700  0.841600  1.0  0.1187
  H  H207  1  0.358100  0.659000  0.937800  1.0  0.0973
  H  H208  1  0.384200  0.730600  0.911800  1.0  0.1234
  H  H209  1  0.382200  0.928900  0.925900  1.0  0.0915
  H  H210  1  0.408100  0.850900  0.907100  1.0  0.1251
  H  H211  1  0.416200  0.989300  0.848800  1.0  0.0965
  H  H212  1  0.444800  0.913500  0.827700  1.0  0.1193
  H  H213  1  0.586500  0.832400  0.727100  1.0  0.0925
  H  H214  1  0.528000  0.844100  0.774000  1.0  0.1198
  H  H215  1  0.543200  0.689200  0.732400  1.0  0.0875
  H  H216  1  0.485300  0.696800  0.779500  1.0  0.1218
  C  C217  1  0.876100  0.806380  0.134380  1.0  0.1333
  C  C218  1  0.925500  0.827560  0.111580  1.0  -0.1281
  C  C219  1  0.020600  0.786090  0.157280  1.0  0.1466
  C  C220  1  0.074800  0.806820  0.135180  1.0  -0.125
  C  C221  1  0.026900  0.827830  0.111660  1.0  -0.116
  C  C222  1  0.082300  0.850880  0.087670  1.0  0.382
  C  C223  1  0.448800  0.928750  0.107870  1.0  0.1436
  C  C224  1  0.355000  0.911410  0.103850  1.0  -0.1416
  C  C225  1  0.479100  0.926310  0.058690  1.0  0.1351
  C  C226  1  0.385700  0.909570  0.053010  1.0  -0.1476
  C  C227  1  0.322000  0.901830  0.075890  1.0  -0.1019
  C  C228  1  0.220300  0.885600  0.070880  1.0  0.4154
  C  C229  1  0.023000  0.948390  0.972820  1.0  0.1356
  C  C230  1  0.076000  0.932800  0.996510  1.0  -0.1451
  C  C231  1  0.886900  0.905390  0.987780  1.0  0.1402
  C  C232  1  0.935300  0.887530  0.012170  1.0  -0.1369
  C  C233  1  0.031700  0.901120  0.016520  1.0  -0.1066
  C  C234  1  0.085700  0.884410  0.042890  1.0  0.3439
  C  C235  1  0.917000  0.891030  0.878220  1.0  0.131
  C  C236  1  0.931700  0.849910  0.861390  1.0  -0.1105
  C  C237  1  0.877400  0.843270  0.917980  1.0  0.1379
  C  C238  1  0.892500  0.800490  0.902610  1.0  -0.1339
  C  C239  1  0.919900  0.803220  0.873540  1.0  -0.0985
  C  C240  1  0.935600  0.758500  0.855940  1.0  0.4099
  C  C241  1  0.893700  0.574650  0.905620  1.0  0.1318
  C  C242  1  0.909300  0.621190  0.894650  1.0  -0.1451
  C  C243  1  0.913800  0.539370  0.860580  1.0  0.152
  C  C244  1  0.930700  0.584250  0.847900  1.0  -0.1396
  C  C245  1  0.927000  0.626640  0.865000  1.0  -0.0999
  C  C246  1  0.939100  0.676000  0.851900  1.0  0.3965
  C  C247  1  0.066700  0.695430  0.738140  1.0  0.1307
  C  C248  1  0.032000  0.688120  0.766060  1.0  -0.1447
  C  C249  1  0.041700  0.779110  0.741240  1.0  0.1341
  C  C250  1  0.006800  0.774880  0.769210  1.0  -0.1258
  C  C251  1  0.003300  0.728840  0.782170  1.0  -0.1069
  C  C252  1  0.973200  0.723370  0.812940  1.0  0.3999
  C  C253  1  0.123900  0.693620  0.634380  1.0  0.1322
  C  C254  1  0.074500  0.672440  0.611580  1.0  -0.1273
  C  C255  1  0.979400  0.713910  0.657280  1.0  0.1462
  C  C256  1  0.925200  0.693180  0.635180  1.0  -0.1263
  C  C257  1  0.973100  0.672170  0.611660  1.0  -0.1162
  C  C258  1  0.917700  0.649120  0.587670  1.0  0.3825
  C  C259  1  0.551200  0.571250  0.607870  1.0  0.1426
  C  C260  1  0.645000  0.588590  0.603850  1.0  -0.1406
  C  C261  1  0.520900  0.573690  0.558690  1.0  0.1367
  C  C262  1  0.614300  0.590430  0.553010  1.0  -0.1483
  C  C263  1  0.678000  0.598170  0.575890  1.0  -0.1007
  C  C264  1  0.779700  0.614400  0.570880  1.0  0.415
  C  C265  1  0.977000  0.551610  0.472820  1.0  0.1365
  C  C266  1  0.924000  0.567200  0.496510  1.0  -0.1478
  C  C267  1  0.113100  0.594610  0.487780  1.0  0.1408
  C  C268  1  0.064700  0.612470  0.512170  1.0  -0.1375
  C  C269  1  0.968300  0.598880  0.516520  1.0  -0.1063
  C  C270  1  0.914300  0.615590  0.542890  1.0  0.345
  C  C271  1  0.083000  0.608970  0.378220  1.0  0.1318
  C  C272  1  0.068300  0.650090  0.361390  1.0  -0.1094
  C  C273  1  0.122600  0.656730  0.417980  1.0  0.1372
  C  C274  1  0.107500  0.699510  0.402610  1.0  -0.1333
  C  C275  1  0.080100  0.696780  0.373540  1.0  -0.0981
  C  C276  1  0.064400  0.741500  0.355940  1.0  0.4096
  C  C277  1  0.106300  0.925350  0.405620  1.0  0.133
  C  C278  1  0.090700  0.878810  0.394650  1.0  -0.144
  C  C279  1  0.086200  0.960630  0.360580  1.0  0.1515
  C  C280  1  0.069300  0.915750  0.347900  1.0  -0.1397
  C  C281  1  0.073000  0.873360  0.365000  1.0  -0.1006
  C  C282  1  0.060900  0.824000  0.351900  1.0  0.3965
  C  C283  1  0.933300  0.804570  0.238140  1.0  0.1318
  C  C284  1  0.968000  0.811880  0.266060  1.0  -0.144
  C  C285  1  0.958300  0.720890  0.241240  1.0  0.135
  C  C286  1  0.993200  0.725120  0.269210  1.0  -0.1266
  C  C287  1  0.996700  0.771160  0.282170  1.0  -0.1068
  C  C288  1  0.026800  0.776630  0.312940  1.0  0.3999
  C  C289  1  0.376100  0.193620  0.365620  1.0  0.133
  C  C290  1  0.425500  0.172440  0.388420  1.0  -0.1295
  C  C291  1  0.520600  0.213910  0.342720  1.0  0.1459
  C  C292  1  0.574800  0.193180  0.364820  1.0  -0.1247
  C  C293  1  0.526900  0.172170  0.388340  1.0  -0.1169
  C  C294  1  0.582300  0.149120  0.412330  1.0  0.3818
  C  C295  1  0.948800  0.071250  0.392130  1.0  0.1433
  C  C296  1  0.855000  0.088590  0.396150  1.0  -0.1412
  C  C297  1  0.979100  0.073690  0.441310  1.0  0.1354
  C  C298  1  0.885700  0.090430  0.446990  1.0  -0.151
  C  C299  1  0.822000  0.098170  0.424110  1.0  -0.101
  C  C300  1  0.720300  0.114400  0.429120  1.0  0.415
  C  C301  1  0.523000  0.051610  0.527180  1.0  0.1362
  C  C302  1  0.576000  0.067200  0.503490  1.0  -0.1469
  C  C303  1  0.386900  0.094610  0.512220  1.0  0.1396
  C  C304  1  0.435300  0.112470  0.487830  1.0  -0.1373
  C  C305  1  0.531700  0.098880  0.483480  1.0  -0.1066
  C  C306  1  0.585700  0.115590  0.457110  1.0  0.3443
  C  C307  1  0.417000  0.108970  0.621780  1.0  0.1323
  C  C308  1  0.431700  0.150090  0.638610  1.0  -0.1122
  C  C309  1  0.377400  0.156730  0.582020  1.0  0.138
  C  C310  1  0.392500  0.199510  0.597390  1.0  -0.1345
  C  C311  1  0.419900  0.196780  0.626460  1.0  -0.0979
  C  C312  1  0.435600  0.241500  0.644060  1.0  0.4091
  C  C313  1  0.393700  0.425350  0.594380  1.0  0.1331
  C  C314  1  0.409300  0.378810  0.605350  1.0  -0.1433
  C  C315  1  0.413800  0.460630  0.639420  1.0  0.1504
  C  C316  1  0.430700  0.415750  0.652100  1.0  -0.1426
  C  C317  1  0.427000  0.373360  0.635000  1.0  -0.1009
  C  C318  1  0.439100  0.324000  0.648100  1.0  0.3962
  C  C319  1  0.566700  0.304570  0.761860  1.0  0.1315
  C  C320  1  0.532000  0.311880  0.733940  1.0  -0.144
  C  C321  1  0.541700  0.220890  0.758760  1.0  0.1348
  C  C322  1  0.506800  0.225120  0.730790  1.0  -0.126
  C  C323  1  0.503300  0.271160  0.717830  1.0  -0.1065
  C  C324  1  0.473200  0.276630  0.687060  1.0  0.4005
  C  C325  1  0.623900  0.306380  0.865620  1.0  0.1319
  C  C326  1  0.574500  0.327560  0.888420  1.0  -0.1282
  C  C327  1  0.479400  0.286090  0.842720  1.0  0.1459
  C  C328  1  0.425200  0.306820  0.864820  1.0  -0.1266
  C  C329  1  0.473100  0.327830  0.888340  1.0  -0.1164
  C  C330  1  0.417700  0.350880  0.912330  1.0  0.3821
  C  C331  1  0.051200  0.428750  0.892130  1.0  0.1434
  C  C332  1  0.145000  0.411410  0.896150  1.0  -0.1416
  C  C333  1  0.020900  0.426310  0.941310  1.0  0.1348
  C  C334  1  0.114300  0.409570  0.946990  1.0  -0.1507
  C  C335  1  0.178000  0.401830  0.924110  1.0  -0.1014
  C  C336  1  0.279700  0.385600  0.929120  1.0  0.4143
  C  C337  1  0.477000  0.448390  0.027180  1.0  0.1364
  C  C338  1  0.424000  0.432800  0.003490  1.0  -0.1487
  C  C339  1  0.613100  0.405390  0.012220  1.0  0.1407
  C  C340  1  0.564700  0.387530  0.987830  1.0  -0.1377
  C  C341  1  0.468300  0.401120  0.983480  1.0  -0.1066
  C  C342  1  0.414300  0.384410  0.957110  1.0  0.3439
  C  C343  1  0.583000  0.391030  0.121780  1.0  0.1316
  C  C344  1  0.568300  0.349910  0.138610  1.0  -0.1122
  C  C345  1  0.622600  0.343270  0.082020  1.0  0.1378
  C  C346  1  0.607500  0.300490  0.097390  1.0  -0.1343
  C  C347  1  0.580100  0.303220  0.126460  1.0  -0.0984
  C  C348  1  0.564400  0.258500  0.144060  1.0  0.4094
  C  C349  1  0.606300  0.074650  0.094380  1.0  0.1329
  C  C350  1  0.590700  0.121190  0.105350  1.0  -0.1442
  C  C351  1  0.586200  0.039370  0.139420  1.0  0.1522
  C  C352  1  0.569300  0.084250  0.152100  1.0  -0.1431
  C  C353  1  0.573000  0.126640  0.135000  1.0  -0.1003
  C  C354  1  0.560900  0.176000  0.148100  1.0  0.3967
  C  C355  1  0.433300  0.195430  0.261860  1.0  0.1316
  C  C356  1  0.468000  0.188120  0.233940  1.0  -0.144
  C  C357  1  0.458300  0.279110  0.258760  1.0  0.1342
  C  C358  1  0.493200  0.274880  0.230790  1.0  -0.1252
  C  C359  1  0.496700  0.228840  0.217830  1.0  -0.1066
  C  C360  1  0.526800  0.223370  0.187060  1.0  0.4004
  C  C361  1  0.123900  0.193620  0.865620  1.0  0.1321
  C  C362  1  0.074500  0.172440  0.888420  1.0  -0.1282
  C  C363  1  0.979400  0.213910  0.842720  1.0  0.1461
  C  C364  1  0.925200  0.193180  0.864820  1.0  -0.1266
  C  C365  1  0.973100  0.172170  0.888340  1.0  -0.1166
  C  C366  1  0.917700  0.149120  0.912330  1.0  0.3822
  C  C367  1  0.551200  0.071250  0.892130  1.0  0.1435
  C  C368  1  0.645000  0.088590  0.896150  1.0  -0.1414
  C  C369  1  0.520900  0.073690  0.941310  1.0  0.1352
  C  C370  1  0.614300  0.090430  0.946990  1.0  -0.1509
  C  C371  1  0.678000  0.098170  0.924110  1.0  -0.1008
  C  C372  1  0.779700  0.114400  0.929120  1.0  0.4145
  C  C373  1  0.977000  0.051610  0.027180  1.0  0.136
  C  C374  1  0.924000  0.067200  0.003490  1.0  -0.1491
  C  C375  1  0.113100  0.094610  0.012220  1.0  0.1409
  C  C376  1  0.064700  0.112470  0.987830  1.0  -0.1369
  C  C377  1  0.968300  0.098880  0.983480  1.0  -0.1066
  C  C378  1  0.914300  0.115590  0.957110  1.0  0.3445
  C  C379  1  0.083000  0.108970  0.121780  1.0  0.1324
  C  C380  1  0.068300  0.150090  0.138610  1.0  -0.1121
  C  C381  1  0.122600  0.156730  0.082020  1.0  0.1377
  C  C382  1  0.107500  0.199510  0.097390  1.0  -0.135
  C  C383  1  0.080100  0.196780  0.126460  1.0  -0.0983
  C  C384  1  0.064400  0.241500  0.144060  1.0  0.409
  C  C385  1  0.106300  0.425350  0.094380  1.0  0.1332
  C  C386  1  0.090700  0.378810  0.105350  1.0  -0.1442
  C  C387  1  0.086200  0.460630  0.139420  1.0  0.1511
  C  C388  1  0.069300  0.415750  0.152100  1.0  -0.1428
  C  C389  1  0.073000  0.373360  0.135000  1.0  -0.1008
  C  C390  1  0.060900  0.324000  0.148100  1.0  0.3964
  C  C391  1  0.933300  0.304570  0.261860  1.0  0.1309
  C  C392  1  0.968000  0.311880  0.233940  1.0  -0.1442
  C  C393  1  0.958300  0.220890  0.258760  1.0  0.1355
  C  C394  1  0.993200  0.225120  0.230790  1.0  -0.1261
  C  C395  1  0.996700  0.271160  0.217830  1.0  -0.1064
  C  C396  1  0.026800  0.276630  0.187060  1.0  0.4004
  C  C397  1  0.876100  0.306380  0.365620  1.0  0.1332
  C  C398  1  0.925500  0.327560  0.388420  1.0  -0.1295
  C  C399  1  0.020600  0.286090  0.342720  1.0  0.1455
  C  C400  1  0.074800  0.306820  0.364820  1.0  -0.1251
  C  C401  1  0.026900  0.327830  0.388340  1.0  -0.1166
  C  C402  1  0.082300  0.350880  0.412330  1.0  0.3817
  C  C403  1  0.448800  0.428750  0.392130  1.0  0.1433
  C  C404  1  0.355000  0.411410  0.396150  1.0  -0.1416
  C  C405  1  0.479100  0.426310  0.441310  1.0  0.1349
  C  C406  1  0.385700  0.409570  0.446990  1.0  -0.1508
  C  C407  1  0.322000  0.401830  0.424110  1.0  -0.102
  C  C408  1  0.220300  0.385600  0.429120  1.0  0.4149
  C  C409  1  0.023000  0.448390  0.527180  1.0  0.1365
  C  C410  1  0.076000  0.432800  0.503490  1.0  -0.1462
  C  C411  1  0.886900  0.405390  0.512220  1.0  0.1398
  C  C412  1  0.935300  0.387530  0.487830  1.0  -0.1373
  C  C413  1  0.031700  0.401120  0.483480  1.0  -0.1061
  C  C414  1  0.085700  0.384410  0.457110  1.0  0.3436
  C  C415  1  0.917000  0.391030  0.621780  1.0  0.1319
  C  C416  1  0.931700  0.349910  0.638610  1.0  -0.1119
  C  C417  1  0.877400  0.343270  0.582020  1.0  0.1379
  C  C418  1  0.892500  0.300490  0.597390  1.0  -0.1334
  C  C419  1  0.919900  0.303220  0.626460  1.0  -0.0983
  C  C420  1  0.935600  0.258500  0.644060  1.0  0.4094
  C  C421  1  0.893700  0.074650  0.594380  1.0  0.133
  C  C422  1  0.909300  0.121190  0.605350  1.0  -0.1437
  C  C423  1  0.913800  0.039370  0.639420  1.0  0.1521
  C  C424  1  0.930700  0.084250  0.652100  1.0  -0.1429
  C  C425  1  0.927000  0.126640  0.635000  1.0  -0.1004
  C  C426  1  0.939100  0.176000  0.648100  1.0  0.3964
  C  C427  1  0.066700  0.195430  0.761860  1.0  0.1316
  C  C428  1  0.032000  0.188120  0.733940  1.0  -0.1441
  C  C429  1  0.041700  0.279110  0.758760  1.0  0.134
  C  C430  1  0.006800  0.274880  0.730790  1.0  -0.1256
  C  C431  1  0.003300  0.228840  0.717830  1.0  -0.1068
  C  C432  1  0.973200  0.223370  0.687060  1.0  0.4005
  C  C433  1  0.623900  0.806380  0.634380  1.0  0.1319
  C  C434  1  0.574500  0.827560  0.611580  1.0  -0.1269
  C  C435  1  0.479400  0.786090  0.657280  1.0  0.147
  C  C436  1  0.425200  0.806820  0.635180  1.0  -0.1264
  C  C437  1  0.473100  0.827830  0.611660  1.0  -0.116
  C  C438  1  0.417700  0.850880  0.587670  1.0  0.3824
  C  C439  1  0.051200  0.928750  0.607870  1.0  0.1425
  C  C440  1  0.145000  0.911410  0.603850  1.0  -0.1405
  C  C441  1  0.020900  0.926310  0.558690  1.0  0.1362
  C  C442  1  0.114300  0.909570  0.553010  1.0  -0.1474
  C  C443  1  0.178000  0.901830  0.575890  1.0  -0.1011
  C  C444  1  0.279700  0.885600  0.570880  1.0  0.4148
  C  C445  1  0.477000  0.948390  0.472820  1.0  0.1366
  C  C446  1  0.424000  0.932800  0.496510  1.0  -0.1477
  C  C447  1  0.613100  0.905390  0.487780  1.0  0.1406
  C  C448  1  0.564700  0.887530  0.512170  1.0  -0.1374
  C  C449  1  0.468300  0.901120  0.516520  1.0  -0.1069
  C  C450  1  0.414300  0.884410  0.542890  1.0  0.3442
  C  C451  1  0.583000  0.891030  0.378220  1.0  0.1311
  C  C452  1  0.568300  0.849910  0.361390  1.0  -0.1098
  C  C453  1  0.622600  0.843270  0.417980  1.0  0.1378
  C  C454  1  0.607500  0.800490  0.402610  1.0  -0.1338
  C  C455  1  0.580100  0.803220  0.373540  1.0  -0.0986
  C  C456  1  0.564400  0.758500  0.355940  1.0  0.4098
  C  C457  1  0.606300  0.574650  0.405620  1.0  0.133
  C  C458  1  0.590700  0.621190  0.394650  1.0  -0.145
  C  C459  1  0.586200  0.539370  0.360580  1.0  0.1517
  C  C460  1  0.569300  0.584250  0.347900  1.0  -0.1395
  C  C461  1  0.573000  0.626640  0.365000  1.0  -0.0998
  C  C462  1  0.560900  0.676000  0.351900  1.0  0.3967
  C  C463  1  0.433300  0.695430  0.238140  1.0  0.1312
  C  C464  1  0.468000  0.688120  0.266060  1.0  -0.1445
  C  C465  1  0.458300  0.779110  0.241240  1.0  0.1346
  C  C466  1  0.493200  0.774880  0.269210  1.0  -0.1255
  C  C467  1  0.496700  0.728840  0.282170  1.0  -0.1071
  C  C468  1  0.526800  0.723370  0.312940  1.0  0.3999
  C  C469  1  0.376100  0.693620  0.134380  1.0  0.1332
  C  C470  1  0.425500  0.672440  0.111580  1.0  -0.1286
  C  C471  1  0.520600  0.713910  0.157280  1.0  0.146
  C  C472  1  0.574800  0.693180  0.135180  1.0  -0.1247
  C  C473  1  0.526900  0.672170  0.111660  1.0  -0.1163
  C  C474  1  0.582300  0.649120  0.087670  1.0  0.3822
  C  C475  1  0.948800  0.571250  0.107870  1.0  0.1437
  C  C476  1  0.855000  0.588590  0.103850  1.0  -0.1415
  C  C477  1  0.979100  0.573690  0.058690  1.0  0.1355
  C  C478  1  0.885700  0.590430  0.053010  1.0  -0.1484
  C  C479  1  0.822000  0.598170  0.075890  1.0  -0.101
  C  C480  1  0.720300  0.614400  0.070880  1.0  0.4154
  C  C481  1  0.523000  0.551610  0.972820  1.0  0.1354
  C  C482  1  0.576000  0.567200  0.996510  1.0  -0.1454
  C  C483  1  0.386900  0.594610  0.987780  1.0  0.1399
  C  C484  1  0.435300  0.612470  0.012170  1.0  -0.138
  C  C485  1  0.531700  0.598880  0.016520  1.0  -0.1064
  C  C486  1  0.585700  0.615590  0.042890  1.0  0.3449
  C  C487  1  0.417000  0.608970  0.878220  1.0  0.1317
  C  C488  1  0.431700  0.650090  0.861390  1.0  -0.1107
  C  C489  1  0.377400  0.656730  0.917980  1.0  0.1375
  C  C490  1  0.392500  0.699510  0.902610  1.0  -0.1342
  C  C491  1  0.419900  0.696780  0.873540  1.0  -0.0978
  C  C492  1  0.435600  0.741500  0.855940  1.0  0.4096
  C  C493  1  0.393700  0.925350  0.905620  1.0  0.1316
  C  C494  1  0.409300  0.878810  0.894650  1.0  -0.1437
  C  C495  1  0.413800  0.960630  0.860580  1.0  0.1512
  C  C496  1  0.430700  0.915750  0.847900  1.0  -0.1397
  C  C497  1  0.427000  0.873360  0.865000  1.0  -0.1007
  C  C498  1  0.439100  0.824000  0.851900  1.0  0.3963
  C  C499  1  0.566700  0.804570  0.738140  1.0  0.132
  C  C500  1  0.532000  0.811880  0.766060  1.0  -0.1439
  C  C501  1  0.541700  0.720890  0.741240  1.0  0.1342
  C  C502  1  0.506800  0.725120  0.769210  1.0  -0.1263
  C  C503  1  0.503300  0.771160  0.782170  1.0  -0.1067
  C  C504  1  0.473200  0.776630  0.812940  1.0  0.3999
  I  I505  1  0.954220  0.018740  0.903120  1.0  -0.423
  I  I506  1  0.675750  0.952330  0.938880  1.0  -0.3667
  I  I507  1  0.732330  0.978520  0.045060  1.0  -0.3994
  I  I508  1  0.724600  0.921200  0.135790  1.0  -0.3178
  I  I509  1  0.691530  0.804050  0.196220  1.0  -0.4196
  I  I510  1  0.831510  0.658900  0.178330  1.0  -0.2862
  I  I511  1  0.045780  0.481260  0.403120  1.0  -0.4221
  I  I512  1  0.324250  0.547670  0.438880  1.0  -0.3692
  I  I513  1  0.267670  0.521480  0.545060  1.0  -0.3999
  I  I514  1  0.275400  0.578800  0.635790  1.0  -0.3178
  I  I515  1  0.308470  0.695950  0.696220  1.0  -0.4215
  I  I516  1  0.168490  0.841100  0.678330  1.0  -0.2871
  I  I517  1  0.454220  0.981260  0.596880  1.0  -0.4216
  I  I518  1  0.175750  0.047670  0.561120  1.0  -0.3668
  I  I519  1  0.232330  0.021480  0.454940  1.0  -0.3998
  I  I520  1  0.224600  0.078800  0.364210  1.0  -0.3185
  I  I521  1  0.191530  0.195950  0.303780  1.0  -0.421
  I  I522  1  0.331510  0.341100  0.321670  1.0  -0.2864
  I  I523  1  0.545780  0.518740  0.096880  1.0  -0.4203
  I  I524  1  0.824250  0.452330  0.061120  1.0  -0.3684
  I  I525  1  0.767670  0.478520  0.954940  1.0  -0.3999
  I  I526  1  0.775400  0.421200  0.864210  1.0  -0.3185
  I  I527  1  0.808470  0.304050  0.803780  1.0  -0.4204
  I  I528  1  0.668490  0.158900  0.821670  1.0  -0.2859
  I  I529  1  0.045780  0.981260  0.096880  1.0  -0.4203
  I  I530  1  0.324250  0.047670  0.061120  1.0  -0.3688
  I  I531  1  0.267670  0.021480  0.954940  1.0  -0.4001
  I  I532  1  0.275400  0.078800  0.864210  1.0  -0.3183
  I  I533  1  0.308470  0.195950  0.803780  1.0  -0.4215
  I  I534  1  0.168490  0.341100  0.821670  1.0  -0.2864
  I  I535  1  0.954220  0.518740  0.596880  1.0  -0.4216
  I  I536  1  0.675750  0.452330  0.561120  1.0  -0.3666
  I  I537  1  0.732330  0.478520  0.454940  1.0  -0.3996
  I  I538  1  0.724600  0.421200  0.364210  1.0  -0.3189
  I  I539  1  0.691530  0.304050  0.303780  1.0  -0.4199
  I  I540  1  0.831510  0.158900  0.321670  1.0  -0.2859
  I  I541  1  0.545780  0.018740  0.403120  1.0  -0.4219
  I  I542  1  0.824250  0.952330  0.438880  1.0  -0.3685
  I  I543  1  0.767670  0.978520  0.545060  1.0  -0.3997
  I  I544  1  0.775400  0.921200  0.635790  1.0  -0.3178
  I  I545  1  0.808470  0.804050  0.696220  1.0  -0.4202
  I  I546  1  0.668490  0.658900  0.678330  1.0  -0.2864
  I  I547  1  0.454220  0.481260  0.903120  1.0  -0.4231
  I  I548  1  0.175750  0.547670  0.938880  1.0  -0.3671
  I  I549  1  0.232330  0.521480  0.045060  1.0  -0.3996
  I  I550  1  0.224600  0.578800  0.135790  1.0  -0.3178
  I  I551  1  0.191530  0.695950  0.196220  1.0  -0.4208
  I  I552  1  0.331510  0.841100  0.178330  1.0  -0.287
  N  N553  1  0.922300  0.785430  0.157060  1.0  -0.3423
  N  N554  1  0.510000  0.936410  0.085590  1.0  -0.3
  N  N555  1  0.929800  0.934860  0.968130  1.0  -0.3133
  N  N556  1  0.175200  0.863020  0.092870  1.0  -0.4364
  N  N557  1  0.180000  0.896640  0.045100  1.0  -0.3243
  N  N558  1  0.033600  0.860550  0.062960  1.0  -0.4767
  N  N559  1  0.889000  0.888280  0.906130  1.0  -0.3728
  N  N560  1  0.893900  0.534170  0.888900  1.0  -0.3175
  N  N561  1  0.073500  0.740410  0.725990  1.0  -0.3238
  N  N562  1  0.924200  0.714870  0.868960  1.0  -0.4721
  N  N563  1  0.963900  0.677970  0.823440  1.0  -0.4751
  N  N564  1  0.959300  0.765140  0.828010  1.0  -0.4917
  N  N565  1  0.077700  0.714570  0.657060  1.0  -0.3423
  N  N566  1  0.490000  0.563590  0.585590  1.0  -0.3004
  N  N567  1  0.070200  0.565140  0.468130  1.0  -0.3135
  N  N568  1  0.824800  0.636980  0.592870  1.0  -0.4371
  N  N569  1  0.820000  0.603360  0.545100  1.0  -0.3248
  N  N570  1  0.966400  0.639450  0.562960  1.0  -0.4763
  N  N571  1  0.111000  0.611720  0.406130  1.0  -0.3708
  N  N572  1  0.106100  0.965830  0.388900  1.0  -0.3185
  N  N573  1  0.926500  0.759590  0.225990  1.0  -0.3235
  N  N574  1  0.075800  0.785130  0.368960  1.0  -0.4724
  N  N575  1  0.036100  0.822030  0.323440  1.0  -0.4746
  N  N576  1  0.040700  0.734860  0.328010  1.0  -0.4932
  N  N577  1  0.422300  0.214570  0.342940  1.0  -0.3415
  N  N578  1  0.010000  0.063590  0.414410  1.0  -0.2997
  N  N579  1  0.429800  0.065140  0.531870  1.0  -0.3131
  N  N580  1  0.675200  0.136980  0.407130  1.0  -0.4362
  N  N581  1  0.680000  0.103360  0.454900  1.0  -0.3236
  N  N582  1  0.533600  0.139450  0.437040  1.0  -0.4773
  N  N583  1  0.389000  0.111720  0.593870  1.0  -0.3715
  N  N584  1  0.393900  0.465830  0.611100  1.0  -0.3165
  N  N585  1  0.573500  0.259590  0.774010  1.0  -0.3227
  N  N586  1  0.424200  0.285130  0.631040  1.0  -0.4713
  N  N587  1  0.463900  0.322030  0.676560  1.0  -0.4762
  N  N588  1  0.459300  0.234860  0.671990  1.0  -0.4925
  N  N589  1  0.577700  0.285430  0.842940  1.0  -0.3419
  N  N590  1  0.990000  0.436410  0.914410  1.0  -0.2996
  N  N591  1  0.570200  0.434860  0.031870  1.0  -0.3131
  N  N592  1  0.324800  0.363020  0.907130  1.0  -0.4378
  N  N593  1  0.320000  0.396640  0.954900  1.0  -0.325
  N  N594  1  0.466400  0.360550  0.937040  1.0  -0.4758
  N  N595  1  0.611000  0.388280  0.093870  1.0  -0.372
  N  N596  1  0.606100  0.034170  0.111100  1.0  -0.3163
  N  N597  1  0.426500  0.240410  0.274010  1.0  -0.3233
  N  N598  1  0.575800  0.214870  0.131040  1.0  -0.4714
  N  N599  1  0.536100  0.177970  0.176560  1.0  -0.4755
  N  N600  1  0.540700  0.265140  0.171990  1.0  -0.4931
  N  N601  1  0.077700  0.214570  0.842940  1.0  -0.3417
  N  N602  1  0.490000  0.063590  0.914410  1.0  -0.3003
  N  N603  1  0.070200  0.065140  0.031870  1.0  -0.3131
  N  N604  1  0.824800  0.136980  0.907130  1.0  -0.4365
  N  N605  1  0.820000  0.103360  0.954900  1.0  -0.3242
  N  N606  1  0.966400  0.139450  0.937040  1.0  -0.4767
  N  N607  1  0.111000  0.111720  0.093870  1.0  -0.371
  N  N608  1  0.106100  0.465830  0.111100  1.0  -0.3168
  N  N609  1  0.926500  0.259590  0.274010  1.0  -0.323
  N  N610  1  0.075800  0.285130  0.131040  1.0  -0.4713
  N  N611  1  0.036100  0.322030  0.176560  1.0  -0.4761
  N  N612  1  0.040700  0.234860  0.171990  1.0  -0.4931
  N  N613  1  0.922300  0.285430  0.342940  1.0  -0.3424
  N  N614  1  0.510000  0.436410  0.414410  1.0  -0.2998
  N  N615  1  0.929800  0.434860  0.531870  1.0  -0.3136
  N  N616  1  0.175200  0.363020  0.407130  1.0  -0.4373
  N  N617  1  0.180000  0.396640  0.454900  1.0  -0.3241
  N  N618  1  0.033600  0.360550  0.437040  1.0  -0.477
  N  N619  1  0.889000  0.388280  0.593870  1.0  -0.3719
  N  N620  1  0.893900  0.034170  0.611100  1.0  -0.3167
  N  N621  1  0.073500  0.240410  0.774010  1.0  -0.3231
  N  N622  1  0.924200  0.214870  0.631040  1.0  -0.4716
  N  N623  1  0.963900  0.177970  0.676560  1.0  -0.4756
  N  N624  1  0.959300  0.265140  0.671990  1.0  -0.4925
  N  N625  1  0.577700  0.785430  0.657060  1.0  -0.3409
  N  N626  1  0.990000  0.936410  0.585590  1.0  -0.3
  N  N627  1  0.570200  0.934860  0.468130  1.0  -0.3122
  N  N628  1  0.324800  0.863020  0.592870  1.0  -0.437
  N  N629  1  0.320000  0.896640  0.545100  1.0  -0.3242
  N  N630  1  0.466400  0.860550  0.562960  1.0  -0.4756
  N  N631  1  0.611000  0.888280  0.406130  1.0  -0.3728
  N  N632  1  0.606100  0.534170  0.388900  1.0  -0.3172
  N  N633  1  0.426500  0.740410  0.225990  1.0  -0.3233
  N  N634  1  0.575800  0.714870  0.368960  1.0  -0.4722
  N  N635  1  0.536100  0.677970  0.323440  1.0  -0.4752
  N  N636  1  0.540700  0.765140  0.328010  1.0  -0.4923
  N  N637  1  0.422300  0.714570  0.157060  1.0  -0.3432
  N  N638  1  0.010000  0.563590  0.085590  1.0  -0.2998
  N  N639  1  0.429800  0.565140  0.968130  1.0  -0.3149
  N  N640  1  0.675200  0.636980  0.092870  1.0  -0.4367
  N  N641  1  0.680000  0.603360  0.045100  1.0  -0.3247
  N  N642  1  0.533600  0.639450  0.062960  1.0  -0.4768
  N  N643  1  0.389000  0.611720  0.906130  1.0  -0.3713
  N  N644  1  0.393900  0.965830  0.888900  1.0  -0.3186
  N  N645  1  0.573500  0.759590  0.725990  1.0  -0.3238
  N  N646  1  0.424200  0.785130  0.868960  1.0  -0.4722
  N  N647  1  0.463900  0.822030  0.823440  1.0  -0.4747
  N  N648  1  0.459300  0.734860  0.828010  1.0  -0.4924
