# generated using pymatgen
data_ZnH8C12(IN2)2
_symmetry_space_group_name_H-M   'P 1'
_cell_length_a   13.67300000
_cell_length_b   27.59000000
_cell_length_c   45.60600000
_cell_angle_alpha   90.00000000
_cell_angle_beta   90.00000000
_cell_angle_gamma   90.00000000
_symmetry_Int_Tables_number   1
_chemical_formula_structural   ZnH8C12(IN2)2
_chemical_formula_sum   'Zn24 H192 C288 I48 N96'
_cell_volume   17204.31942042
_cell_formula_units_Z   24
loop_
 _symmetry_equiv_pos_site_id
 _symmetry_equiv_pos_as_xyz
  1  'x, y, z'
loop_
 _atom_site_type_symbol
 _atom_site_label
 _atom_site_symmetry_multiplicity
 _atom_site_fract_x
 _atom_site_fract_y
 _atom_site_fract_z
 _atom_site_occupancy
 _atom_site_charge
  Zn  Zn1  1  0.348960  0.256090  0.687560  1.0  0.8962
  Zn  Zn2  1  0.342460  0.443400  0.426500  1.0  0.8497
  Zn  Zn3  1  0.146970  0.469530  0.586120  1.0  0.8391
  Zn  Zn4  1  0.651040  0.243910  0.187560  1.0  0.8976
  Zn  Zn5  1  0.657540  0.056600  0.926500  1.0  0.8539
  Zn  Zn6  1  0.853030  0.030470  0.086120  1.0  0.838
  Zn  Zn7  1  0.848960  0.743910  0.812440  1.0  0.8959
  Zn  Zn8  1  0.842460  0.556600  0.073500  1.0  0.8545
  Zn  Zn9  1  0.646970  0.530470  0.913880  1.0  0.8393
  Zn  Zn10  1  0.151040  0.756090  0.312440  1.0  0.8976
  Zn  Zn11  1  0.157540  0.943400  0.573500  1.0  0.8522
  Zn  Zn12  1  0.353030  0.969530  0.413880  1.0  0.8393
  Zn  Zn13  1  0.651040  0.743910  0.312440  1.0  0.8975
  Zn  Zn14  1  0.657540  0.556600  0.573500  1.0  0.8558
  Zn  Zn15  1  0.853030  0.530470  0.413880  1.0  0.8386
  Zn  Zn16  1  0.348960  0.756090  0.812440  1.0  0.8961
  Zn  Zn17  1  0.342460  0.943400  0.073500  1.0  0.8498
  Zn  Zn18  1  0.146970  0.969530  0.913880  1.0  0.8393
  Zn  Zn19  1  0.151040  0.256090  0.187560  1.0  0.8976
  Zn  Zn20  1  0.157540  0.443400  0.926500  1.0  0.8518
  Zn  Zn21  1  0.353030  0.469530  0.086120  1.0  0.8385
  Zn  Zn22  1  0.848960  0.243910  0.687560  1.0  0.8959
  Zn  Zn23  1  0.842460  0.056600  0.426500  1.0  0.8525
  Zn  Zn24  1  0.646970  0.030470  0.586120  1.0  0.8394
  H  H25  1  0.307500  0.398500  0.485500  1.0  0.091
  H  H26  1  0.393100  0.375700  0.527300  1.0  0.1176
  H  H27  1  0.540600  0.461500  0.452700  1.0  0.0805
  H  H28  1  0.631800  0.441200  0.493800  1.0  0.1158
  H  H29  1  0.998700  0.461600  0.537400  1.0  0.0926
  H  H30  1  0.840400  0.434300  0.529600  1.0  0.1186
  H  H31  1  0.995800  0.412000  0.618300  1.0  0.0853
  H  H32  1  0.838400  0.382500  0.612500  1.0  0.1172
  H  H33  1  0.558100  0.289900  0.675800  1.0  0.0936
  H  H34  1  0.645700  0.326800  0.638300  1.0  0.1109
  H  H35  1  0.313500  0.302700  0.631400  1.0  0.0934
  H  H36  1  0.395200  0.338600  0.592400  1.0  0.1212
  H  H37  1  0.396500  0.337700  0.728400  1.0  0.0902
  H  H38  1  0.460300  0.350000  0.774900  1.0  0.1173
  H  H39  1  0.467400  0.199600  0.730800  1.0  0.0881
  H  H40  1  0.525900  0.207500  0.778200  1.0  0.1146
  H  H41  1  0.584600  0.086500  0.866600  1.0  0.0953
  H  H42  1  0.556800  0.155700  0.839400  1.0  0.1168
  H  H43  1  0.649600  0.164400  0.936300  1.0  0.0922
  H  H44  1  0.620100  0.235600  0.911200  1.0  0.122
  H  H45  1  0.614300  0.426600  0.929500  1.0  0.0802
  H  H46  1  0.589000  0.352200  0.907900  1.0  0.1201
  H  H47  1  0.607000  0.491600  0.853100  1.0  0.0879
  H  H48  1  0.580900  0.418500  0.829400  1.0  0.1149
  H  H49  1  0.692500  0.101500  0.985500  1.0  0.0917
  H  H50  1  0.606900  0.124300  0.027300  1.0  0.117
  H  H51  1  0.459400  0.038500  0.952700  1.0  0.0804
  H  H52  1  0.368200  0.058800  0.993800  1.0  0.1155
  H  H53  1  0.001300  0.038400  0.037400  1.0  0.0926
  H  H54  1  0.159600  0.065700  0.029600  1.0  0.1188
  H  H55  1  0.004200  0.088000  0.118300  1.0  0.0852
  H  H56  1  0.161600  0.117500  0.112500  1.0  0.117
  H  H57  1  0.441900  0.210100  0.175800  1.0  0.0941
  H  H58  1  0.354300  0.173200  0.138300  1.0  0.1117
  H  H59  1  0.686500  0.197300  0.131400  1.0  0.0939
  H  H60  1  0.604800  0.161400  0.092400  1.0  0.1217
  H  H61  1  0.603500  0.162300  0.228400  1.0  0.0902
  H  H62  1  0.539700  0.150000  0.274900  1.0  0.1172
  H  H63  1  0.532600  0.300400  0.230800  1.0  0.0871
  H  H64  1  0.474100  0.292500  0.278200  1.0  0.1152
  H  H65  1  0.415400  0.413500  0.366600  1.0  0.0947
  H  H66  1  0.443200  0.344300  0.339400  1.0  0.1173
  H  H67  1  0.350400  0.335600  0.436300  1.0  0.0926
  H  H68  1  0.379900  0.264400  0.411200  1.0  0.1219
  H  H69  1  0.385700  0.073400  0.429500  1.0  0.0799
  H  H70  1  0.411000  0.147800  0.407900  1.0  0.1202
  H  H71  1  0.393000  0.008400  0.353100  1.0  0.0876
  H  H72  1  0.419100  0.081500  0.329400  1.0  0.1149
  H  H73  1  0.807500  0.601500  0.014500  1.0  0.0913
  H  H74  1  0.893100  0.624300  0.972700  1.0  0.1182
  H  H75  1  0.040600  0.538500  0.047300  1.0  0.0805
  H  H76  1  0.131800  0.558800  0.006200  1.0  0.116
  H  H77  1  0.498700  0.538400  0.962600  1.0  0.0936
  H  H78  1  0.340400  0.565700  0.970400  1.0  0.1186
  H  H79  1  0.495800  0.588000  0.881700  1.0  0.0855
  H  H80  1  0.338400  0.617500  0.887500  1.0  0.1172
  H  H81  1  0.058100  0.710100  0.824200  1.0  0.0932
  H  H82  1  0.145700  0.673200  0.861700  1.0  0.111
  H  H83  1  0.813500  0.697300  0.868600  1.0  0.0933
  H  H84  1  0.895200  0.661400  0.907600  1.0  0.1217
  H  H85  1  0.896500  0.662300  0.771600  1.0  0.0899
  H  H86  1  0.960300  0.650000  0.725100  1.0  0.1172
  H  H87  1  0.967400  0.800400  0.769200  1.0  0.0874
  H  H88  1  0.025900  0.792500  0.721800  1.0  0.1148
  H  H89  1  0.084600  0.913500  0.633400  1.0  0.0953
  H  H90  1  0.056800  0.844300  0.660600  1.0  0.1171
  H  H91  1  0.149600  0.835600  0.563700  1.0  0.0922
  H  H92  1  0.120100  0.764400  0.588800  1.0  0.122
  H  H93  1  0.114300  0.573400  0.570500  1.0  0.0785
  H  H94  1  0.089000  0.647800  0.592100  1.0  0.1207
  H  H95  1  0.107000  0.508400  0.646900  1.0  0.0888
  H  H96  1  0.080900  0.581500  0.670600  1.0  0.1152
  H  H97  1  0.192500  0.898500  0.514500  1.0  0.0912
  H  H98  1  0.106900  0.875700  0.472700  1.0  0.1176
  H  H99  1  0.959400  0.961500  0.547300  1.0  0.0805
  H  H100  1  0.868200  0.941200  0.506200  1.0  0.1153
  H  H101  1  0.501300  0.961600  0.462600  1.0  0.0933
  H  H102  1  0.659600  0.934300  0.470400  1.0  0.1186
  H  H103  1  0.504200  0.912000  0.381700  1.0  0.0851
  H  H104  1  0.661600  0.882500  0.387500  1.0  0.1173
  H  H105  1  0.941900  0.789900  0.324200  1.0  0.0933
  H  H106  1  0.854300  0.826800  0.361700  1.0  0.1118
  H  H107  1  0.186500  0.802700  0.368600  1.0  0.094
  H  H108  1  0.104800  0.838600  0.407600  1.0  0.1217
  H  H109  1  0.103500  0.837700  0.271600  1.0  0.0902
  H  H110  1  0.039700  0.850000  0.225100  1.0  0.1175
  H  H111  1  0.032600  0.699600  0.269200  1.0  0.088
  H  H112  1  0.974100  0.707500  0.221800  1.0  0.1142
  H  H113  1  0.915400  0.586500  0.133400  1.0  0.0958
  H  H114  1  0.943200  0.655700  0.160600  1.0  0.1174
  H  H115  1  0.850400  0.664400  0.063700  1.0  0.0924
  H  H116  1  0.879900  0.735600  0.088800  1.0  0.1218
  H  H117  1  0.885700  0.926600  0.070500  1.0  0.0785
  H  H118  1  0.911000  0.852200  0.092100  1.0  0.1201
  H  H119  1  0.893000  0.991600  0.146900  1.0  0.0881
  H  H120  1  0.919100  0.918500  0.170600  1.0  0.1147
  H  H121  1  0.692500  0.601500  0.514500  1.0  0.0916
  H  H122  1  0.606900  0.624300  0.472700  1.0  0.1182
  H  H123  1  0.459400  0.538500  0.547300  1.0  0.0808
  H  H124  1  0.368200  0.558800  0.506200  1.0  0.1157
  H  H125  1  0.001300  0.538400  0.462600  1.0  0.0934
  H  H126  1  0.159600  0.565700  0.470400  1.0  0.1188
  H  H127  1  0.004200  0.588000  0.381700  1.0  0.085
  H  H128  1  0.161600  0.617500  0.387500  1.0  0.117
  H  H129  1  0.441900  0.710100  0.324200  1.0  0.0932
  H  H130  1  0.354300  0.673200  0.361700  1.0  0.1119
  H  H131  1  0.686500  0.697300  0.368600  1.0  0.0936
  H  H132  1  0.604800  0.661400  0.407600  1.0  0.1218
  H  H133  1  0.603500  0.662300  0.271600  1.0  0.0898
  H  H134  1  0.539700  0.650000  0.225100  1.0  0.1173
  H  H135  1  0.532600  0.800400  0.269200  1.0  0.087
  H  H136  1  0.474100  0.792500  0.221800  1.0  0.1151
  H  H137  1  0.415400  0.913500  0.133400  1.0  0.0951
  H  H138  1  0.443200  0.844300  0.160600  1.0  0.1174
  H  H139  1  0.350400  0.835600  0.063700  1.0  0.0926
  H  H140  1  0.379900  0.764400  0.088800  1.0  0.1219
  H  H141  1  0.385700  0.573400  0.070500  1.0  0.0784
  H  H142  1  0.411000  0.647800  0.092100  1.0  0.1205
  H  H143  1  0.393000  0.508400  0.146900  1.0  0.0887
  H  H144  1  0.419100  0.581500  0.170600  1.0  0.1153
  H  H145  1  0.307500  0.898500  0.014500  1.0  0.0913
  H  H146  1  0.393100  0.875700  0.972700  1.0  0.1178
  H  H147  1  0.540600  0.961500  0.047300  1.0  0.0801
  H  H148  1  0.631800  0.941200  0.006200  1.0  0.1156
  H  H149  1  0.998700  0.961600  0.962600  1.0  0.0934
  H  H150  1  0.840400  0.934300  0.970400  1.0  0.1184
  H  H151  1  0.995800  0.912000  0.881700  1.0  0.0854
  H  H152  1  0.838400  0.882500  0.887500  1.0  0.1172
  H  H153  1  0.558100  0.789900  0.824200  1.0  0.0933
  H  H154  1  0.645700  0.826800  0.861700  1.0  0.111
  H  H155  1  0.313500  0.802700  0.868600  1.0  0.0935
  H  H156  1  0.395200  0.838600  0.907600  1.0  0.1217
  H  H157  1  0.396500  0.837700  0.771600  1.0  0.09
  H  H158  1  0.460300  0.850000  0.725100  1.0  0.1174
  H  H159  1  0.467400  0.699600  0.769200  1.0  0.0879
  H  H160  1  0.525900  0.707500  0.721800  1.0  0.1141
  H  H161  1  0.584600  0.586500  0.633400  1.0  0.096
  H  H162  1  0.556800  0.655700  0.660600  1.0  0.1174
  H  H163  1  0.649600  0.664400  0.563700  1.0  0.0922
  H  H164  1  0.620100  0.735600  0.588800  1.0  0.122
  H  H165  1  0.614300  0.926600  0.570500  1.0  0.0787
  H  H166  1  0.589000  0.852200  0.592100  1.0  0.1202
  H  H167  1  0.607000  0.991600  0.646900  1.0  0.0887
  H  H168  1  0.580900  0.918500  0.670600  1.0  0.1148
  H  H169  1  0.192500  0.398500  0.985500  1.0  0.0913
  H  H170  1  0.106900  0.375700  0.027300  1.0  0.117
  H  H171  1  0.959400  0.461500  0.952700  1.0  0.0802
  H  H172  1  0.868200  0.441200  0.993800  1.0  0.1155
  H  H173  1  0.501300  0.461600  0.037400  1.0  0.0924
  H  H174  1  0.659600  0.434300  0.029600  1.0  0.1188
  H  H175  1  0.504200  0.412000  0.118300  1.0  0.0854
  H  H176  1  0.661600  0.382500  0.112500  1.0  0.1172
  H  H177  1  0.941900  0.289900  0.175800  1.0  0.0942
  H  H178  1  0.854300  0.326800  0.138300  1.0  0.1116
  H  H179  1  0.186500  0.302700  0.131400  1.0  0.094
  H  H180  1  0.104800  0.338600  0.092400  1.0  0.1216
  H  H181  1  0.103500  0.337700  0.228400  1.0  0.0904
  H  H182  1  0.039700  0.350000  0.274900  1.0  0.1173
  H  H183  1  0.032600  0.199600  0.230800  1.0  0.088
  H  H184  1  0.974100  0.207500  0.278200  1.0  0.1147
  H  H185  1  0.915400  0.086500  0.366600  1.0  0.095
  H  H186  1  0.943200  0.155700  0.339400  1.0  0.1169
  H  H187  1  0.850400  0.164400  0.436300  1.0  0.0924
  H  H188  1  0.879900  0.235600  0.411200  1.0  0.1218
  H  H189  1  0.885700  0.426600  0.429500  1.0  0.08
  H  H190  1  0.911000  0.352200  0.407900  1.0  0.1202
  H  H191  1  0.893000  0.491600  0.353100  1.0  0.0876
  H  H192  1  0.919100  0.418500  0.329400  1.0  0.1145
  H  H193  1  0.807500  0.101500  0.485500  1.0  0.0911
  H  H194  1  0.893100  0.124300  0.527300  1.0  0.1174
  H  H195  1  0.040600  0.038500  0.452700  1.0  0.0807
  H  H196  1  0.131800  0.058800  0.493800  1.0  0.1159
  H  H197  1  0.498700  0.038400  0.537400  1.0  0.0929
  H  H198  1  0.340400  0.065700  0.529600  1.0  0.1186
  H  H199  1  0.495800  0.088000  0.618300  1.0  0.0853
  H  H200  1  0.338400  0.117500  0.612500  1.0  0.1173
  H  H201  1  0.058100  0.210100  0.675800  1.0  0.0935
  H  H202  1  0.145700  0.173200  0.638300  1.0  0.111
  H  H203  1  0.813500  0.197300  0.631400  1.0  0.0931
  H  H204  1  0.895200  0.161400  0.592400  1.0  0.1213
  H  H205  1  0.896500  0.162300  0.728400  1.0  0.09
  H  H206  1  0.960300  0.150000  0.774900  1.0  0.1172
  H  H207  1  0.967400  0.300400  0.730800  1.0  0.0877
  H  H208  1  0.025900  0.292500  0.778200  1.0  0.115
  H  H209  1  0.084600  0.413500  0.866600  1.0  0.095
  H  H210  1  0.056800  0.344300  0.839400  1.0  0.117
  H  H211  1  0.149600  0.335600  0.936300  1.0  0.0922
  H  H212  1  0.120100  0.264400  0.911200  1.0  0.1219
  H  H213  1  0.114300  0.073400  0.929500  1.0  0.08
  H  H214  1  0.089000  0.147800  0.907900  1.0  0.12
  H  H215  1  0.107000  0.008400  0.853100  1.0  0.0877
  H  H216  1  0.080900  0.081500  0.829400  1.0  0.1151
  C  C217  1  0.374700  0.406770  0.487140  1.0  0.136
  C  C218  1  0.425200  0.393090  0.512150  1.0  -0.1378
  C  C219  1  0.510500  0.443560  0.468060  1.0  0.1361
  C  C220  1  0.565300  0.431450  0.492380  1.0  -0.1368
  C  C221  1  0.522800  0.405070  0.514630  1.0  -0.1092
  C  C222  1  0.579300  0.391100  0.541110  1.0  0.3927
  C  C223  1  0.965100  0.445820  0.552940  1.0  0.1413
  C  C224  1  0.871200  0.429420  0.548080  1.0  -0.1308
  C  C225  1  0.963500  0.416740  0.600120  1.0  0.1393
  C  C226  1  0.869700  0.399040  0.596810  1.0  -0.1288
  C  C227  1  0.822400  0.405730  0.570520  1.0  -0.1225
  C  C228  1  0.718600  0.390560  0.566900  1.0  0.4156
  C  C229  1  0.524600  0.299700  0.658530  1.0  0.1435
  C  C230  1  0.577300  0.321640  0.636200  1.0  -0.1298
  C  C231  1  0.382400  0.307040  0.632610  1.0  0.1447
  C  C232  1  0.430500  0.328720  0.609370  1.0  -0.1083
  C  C233  1  0.529800  0.335840  0.611040  1.0  -0.1104
  C  C234  1  0.582400  0.358390  0.586380  1.0  0.3956
  C  C235  1  0.423600  0.310930  0.738720  1.0  0.1347
  C  C236  1  0.460600  0.318510  0.766510  1.0  -0.1451
  C  C237  1  0.464000  0.230280  0.740170  1.0  0.1307
  C  C238  1  0.499900  0.234870  0.768220  1.0  -0.1059
  C  C239  1  0.497900  0.279670  0.781830  1.0  -0.1257
  C  C240  1  0.530900  0.284220  0.812390  1.0  0.3906
  C  C241  1  0.592800  0.117240  0.875640  1.0  0.1223
  C  C242  1  0.575800  0.158250  0.859380  1.0  -0.1204
  C  C243  1  0.630200  0.162770  0.916310  1.0  0.1467
  C  C244  1  0.613400  0.205270  0.901540  1.0  -0.1328
  C  C245  1  0.586500  0.203250  0.872240  1.0  -0.1091
  C  C246  1  0.570100  0.248250  0.855180  1.0  0.4169
  C  C247  1  0.607900  0.424960  0.908750  1.0  0.1358
  C  C248  1  0.592700  0.380460  0.896030  1.0  -0.1361
  C  C249  1  0.603500  0.462730  0.864440  1.0  0.133
  C  C250  1  0.587900  0.419230  0.850120  1.0  -0.1385
  C  C251  1  0.582600  0.377010  0.866060  1.0  -0.0952
  C  C252  1  0.569300  0.329530  0.851970  1.0  0.3962
  C  C253  1  0.625300  0.093230  0.987140  1.0  0.1359
  C  C254  1  0.574800  0.106910  0.012150  1.0  -0.1381
  C  C255  1  0.489500  0.056440  0.968060  1.0  0.1367
  C  C256  1  0.434700  0.068550  0.992380  1.0  -0.1405
  C  C257  1  0.477200  0.094930  0.014630  1.0  -0.1105
  C  C258  1  0.420700  0.108900  0.041110  1.0  0.393
  C  C259  1  0.034900  0.054180  0.052940  1.0  0.1431
  C  C260  1  0.128800  0.070580  0.048080  1.0  -0.1303
  C  C261  1  0.036500  0.083260  0.100120  1.0  0.139
  C  C262  1  0.130300  0.100960  0.096810  1.0  -0.1284
  C  C263  1  0.177600  0.094270  0.070520  1.0  -0.122
  C  C264  1  0.281400  0.109440  0.066900  1.0  0.4167
  C  C265  1  0.475400  0.200300  0.158530  1.0  0.1427
  C  C266  1  0.422700  0.178360  0.136200  1.0  -0.1313
  C  C267  1  0.617600  0.192960  0.132610  1.0  0.1433
  C  C268  1  0.569500  0.171280  0.109370  1.0  -0.1071
  C  C269  1  0.470200  0.164160  0.111040  1.0  -0.1106
  C  C270  1  0.417600  0.141610  0.086380  1.0  0.3959
  C  C271  1  0.576400  0.189070  0.238720  1.0  0.1329
  C  C272  1  0.539400  0.181490  0.266510  1.0  -0.1458
  C  C273  1  0.536000  0.269720  0.240170  1.0  0.1307
  C  C274  1  0.500100  0.265130  0.268220  1.0  -0.1042
  C  C275  1  0.502100  0.220330  0.281830  1.0  -0.1255
  C  C276  1  0.469100  0.215780  0.312390  1.0  0.3905
  C  C277  1  0.407200  0.382760  0.375640  1.0  0.1223
  C  C278  1  0.424200  0.341750  0.359380  1.0  -0.121
  C  C279  1  0.369800  0.337230  0.416310  1.0  0.1461
  C  C280  1  0.386600  0.294730  0.401540  1.0  -0.1323
  C  C281  1  0.413500  0.296750  0.372240  1.0  -0.1089
  C  C282  1  0.429900  0.251750  0.355180  1.0  0.4168
  C  C283  1  0.392100  0.075040  0.408750  1.0  0.1355
  C  C284  1  0.407300  0.119540  0.396030  1.0  -0.1368
  C  C285  1  0.396500  0.037270  0.364440  1.0  0.1335
  C  C286  1  0.412100  0.080770  0.350120  1.0  -0.1373
  C  C287  1  0.417400  0.122990  0.366060  1.0  -0.0966
  C  C288  1  0.430700  0.170470  0.351970  1.0  0.3962
  C  C289  1  0.874700  0.593230  0.012860  1.0  0.136
  C  C290  1  0.925200  0.606910  0.987850  1.0  -0.1376
  C  C291  1  0.010500  0.556440  0.031940  1.0  0.1369
  C  C292  1  0.065300  0.568550  0.007620  1.0  -0.1375
  C  C293  1  0.022800  0.594930  0.985370  1.0  -0.1095
  C  C294  1  0.079300  0.608900  0.958890  1.0  0.393
  C  C295  1  0.465100  0.554180  0.947060  1.0  0.1432
  C  C296  1  0.371200  0.570580  0.951920  1.0  -0.1318
  C  C297  1  0.463500  0.583260  0.899880  1.0  0.1383
  C  C298  1  0.369700  0.600960  0.903190  1.0  -0.1293
  C  C299  1  0.322400  0.594270  0.929480  1.0  -0.121
  C  C300  1  0.218600  0.609440  0.933100  1.0  0.4159
  C  C301  1  0.024600  0.700300  0.841470  1.0  0.143
  C  C302  1  0.077300  0.678360  0.863800  1.0  -0.1303
  C  C303  1  0.882400  0.692960  0.867390  1.0  0.1448
  C  C304  1  0.930500  0.671280  0.890630  1.0  -0.108
  C  C305  1  0.029800  0.664160  0.888960  1.0  -0.1105
  C  C306  1  0.082400  0.641610  0.913620  1.0  0.3955
  C  C307  1  0.923600  0.689070  0.761280  1.0  0.1348
  C  C308  1  0.960600  0.681490  0.733490  1.0  -0.1448
  C  C309  1  0.964000  0.769720  0.759830  1.0  0.1311
  C  C310  1  0.999900  0.765130  0.731780  1.0  -0.1034
  C  C311  1  0.997900  0.720330  0.718170  1.0  -0.125
  C  C312  1  0.030900  0.715780  0.687610  1.0  0.3905
  C  C313  1  0.092800  0.882760  0.624360  1.0  0.1229
  C  C314  1  0.075800  0.841750  0.640620  1.0  -0.122
  C  C315  1  0.130200  0.837230  0.583690  1.0  0.1469
  C  C316  1  0.113400  0.794730  0.598460  1.0  -0.1338
  C  C317  1  0.086500  0.796750  0.627760  1.0  -0.109
  C  C318  1  0.070100  0.751750  0.644820  1.0  0.4167
  C  C319  1  0.107900  0.575040  0.591250  1.0  0.1364
  C  C320  1  0.092700  0.619540  0.603970  1.0  -0.1367
  C  C321  1  0.103500  0.537270  0.635560  1.0  0.1333
  C  C322  1  0.087900  0.580770  0.649880  1.0  -0.1406
  C  C323  1  0.082600  0.622990  0.633940  1.0  -0.0958
  C  C324  1  0.069300  0.670470  0.648030  1.0  0.3965
  C  C325  1  0.125300  0.906770  0.512860  1.0  0.1355
  C  C326  1  0.074800  0.893090  0.487850  1.0  -0.1381
  C  C327  1  0.989500  0.943560  0.531940  1.0  0.1369
  C  C328  1  0.934700  0.931450  0.507620  1.0  -0.1401
  C  C329  1  0.977200  0.905070  0.485370  1.0  -0.1098
  C  C330  1  0.920700  0.891100  0.458890  1.0  0.393
  C  C331  1  0.534900  0.945820  0.447060  1.0  0.1424
  C  C332  1  0.628800  0.929420  0.451920  1.0  -0.1313
  C  C333  1  0.536500  0.916740  0.399880  1.0  0.1392
  C  C334  1  0.630300  0.899040  0.403190  1.0  -0.1289
  C  C335  1  0.677600  0.905730  0.429480  1.0  -0.1237
  C  C336  1  0.781400  0.890560  0.433100  1.0  0.4163
  C  C337  1  0.975400  0.799700  0.341470  1.0  0.1424
  C  C338  1  0.922700  0.821640  0.363800  1.0  -0.1309
  C  C339  1  0.117600  0.807040  0.367390  1.0  0.1432
  C  C340  1  0.069500  0.828720  0.390630  1.0  -0.1069
  C  C341  1  0.970200  0.835840  0.388960  1.0  -0.1106
  C  C342  1  0.917600  0.858390  0.413620  1.0  0.3959
  C  C343  1  0.076400  0.810930  0.261280  1.0  0.1343
  C  C344  1  0.039400  0.818510  0.233490  1.0  -0.1448
  C  C345  1  0.036000  0.730280  0.259830  1.0  0.1311
  C  C346  1  0.000100  0.734870  0.231780  1.0  -0.1052
  C  C347  1  0.002100  0.779670  0.218170  1.0  -0.125
  C  C348  1  0.969100  0.784220  0.187610  1.0  0.3908
  C  C349  1  0.907200  0.617240  0.124360  1.0  0.1224
  C  C350  1  0.924200  0.658250  0.140620  1.0  -0.1216
  C  C351  1  0.869800  0.662770  0.083690  1.0  0.1464
  C  C352  1  0.886600  0.705270  0.098460  1.0  -0.1337
  C  C353  1  0.913500  0.703250  0.127760  1.0  -0.1086
  C  C354  1  0.929900  0.748250  0.144820  1.0  0.4166
  C  C355  1  0.892100  0.924960  0.091250  1.0  0.1374
  C  C356  1  0.907300  0.880460  0.103970  1.0  -0.1351
  C  C357  1  0.896500  0.962730  0.135560  1.0  0.1334
  C  C358  1  0.912100  0.919230  0.149880  1.0  -0.14
  C  C359  1  0.917400  0.877010  0.133940  1.0  -0.0962
  C  C360  1  0.930700  0.829530  0.148030  1.0  0.3959
  C  C361  1  0.625300  0.593230  0.512860  1.0  0.1359
  C  C362  1  0.574800  0.606910  0.487850  1.0  -0.1377
  C  C363  1  0.489500  0.556440  0.531940  1.0  0.1364
  C  C364  1  0.434700  0.568550  0.507620  1.0  -0.1406
  C  C365  1  0.477200  0.594930  0.485370  1.0  -0.1104
  C  C366  1  0.420700  0.608900  0.458890  1.0  0.3931
  C  C367  1  0.034900  0.554180  0.447060  1.0  0.1432
  C  C368  1  0.128800  0.570580  0.451920  1.0  -0.1313
  C  C369  1  0.036500  0.583260  0.399880  1.0  0.1392
  C  C370  1  0.130300  0.600960  0.403190  1.0  -0.1287
  C  C371  1  0.177600  0.594270  0.429480  1.0  -0.1223
  C  C372  1  0.281400  0.609440  0.433100  1.0  0.4167
  C  C373  1  0.475400  0.700300  0.341470  1.0  0.1429
  C  C374  1  0.422700  0.678360  0.363800  1.0  -0.1311
  C  C375  1  0.617600  0.692960  0.367390  1.0  0.1433
  C  C376  1  0.569500  0.671280  0.390630  1.0  -0.1068
  C  C377  1  0.470200  0.664160  0.388960  1.0  -0.1104
  C  C378  1  0.417600  0.641610  0.413620  1.0  0.3958
  C  C379  1  0.576400  0.689070  0.261280  1.0  0.1343
  C  C380  1  0.539400  0.681490  0.233490  1.0  -0.1453
  C  C381  1  0.536000  0.769720  0.259830  1.0  0.1307
  C  C382  1  0.500100  0.765130  0.231780  1.0  -0.1036
  C  C383  1  0.502100  0.720330  0.218170  1.0  -0.1251
  C  C384  1  0.469100  0.715780  0.187610  1.0  0.3906
  C  C385  1  0.407200  0.882760  0.124360  1.0  0.1226
  C  C386  1  0.424200  0.841750  0.140620  1.0  -0.1217
  C  C387  1  0.369800  0.837230  0.083690  1.0  0.1464
  C  C388  1  0.386600  0.794730  0.098460  1.0  -0.1325
  C  C389  1  0.413500  0.796750  0.127760  1.0  -0.1086
  C  C390  1  0.429900  0.751750  0.144820  1.0  0.4167
  C  C391  1  0.392100  0.575040  0.091250  1.0  0.1373
  C  C392  1  0.407300  0.619540  0.103970  1.0  -0.1361
  C  C393  1  0.396500  0.537270  0.135560  1.0  0.1334
  C  C394  1  0.412100  0.580770  0.149880  1.0  -0.1402
  C  C395  1  0.417400  0.622990  0.133940  1.0  -0.0968
  C  C396  1  0.430700  0.670470  0.148030  1.0  0.3962
  C  C397  1  0.374700  0.906770  0.012860  1.0  0.1359
  C  C398  1  0.425200  0.893090  0.987850  1.0  -0.1381
  C  C399  1  0.510500  0.943560  0.031940  1.0  0.1372
  C  C400  1  0.565300  0.931450  0.007620  1.0  -0.1371
  C  C401  1  0.522800  0.905070  0.985370  1.0  -0.1088
  C  C402  1  0.579300  0.891100  0.958890  1.0  0.3928
  C  C403  1  0.965100  0.945820  0.947060  1.0  0.1426
  C  C404  1  0.871200  0.929420  0.951920  1.0  -0.1319
  C  C405  1  0.963500  0.916740  0.899880  1.0  0.1384
  C  C406  1  0.869700  0.899040  0.903190  1.0  -0.1298
  C  C407  1  0.822400  0.905730  0.929480  1.0  -0.1228
  C  C408  1  0.718600  0.890560  0.933100  1.0  0.4156
  C  C409  1  0.524600  0.799700  0.841470  1.0  0.1425
  C  C410  1  0.577300  0.821640  0.863800  1.0  -0.1298
  C  C411  1  0.382400  0.807040  0.867390  1.0  0.145
  C  C412  1  0.430500  0.828720  0.890630  1.0  -0.1081
  C  C413  1  0.529800  0.835840  0.888960  1.0  -0.1106
  C  C414  1  0.582400  0.858390  0.913620  1.0  0.3955
  C  C415  1  0.423600  0.810930  0.761280  1.0  0.1346
  C  C416  1  0.460600  0.818510  0.733490  1.0  -0.1451
  C  C417  1  0.464000  0.730280  0.759830  1.0  0.1317
  C  C418  1  0.499900  0.734870  0.731780  1.0  -0.1054
  C  C419  1  0.497900  0.779670  0.718170  1.0  -0.1249
  C  C420  1  0.530900  0.784220  0.687610  1.0  0.3907
  C  C421  1  0.592800  0.617240  0.624360  1.0  0.1229
  C  C422  1  0.575800  0.658250  0.640620  1.0  -0.1215
  C  C423  1  0.630200  0.662770  0.583690  1.0  0.1467
  C  C424  1  0.613400  0.705270  0.598460  1.0  -0.1344
  C  C425  1  0.586500  0.703250  0.627760  1.0  -0.1091
  C  C426  1  0.570100  0.748250  0.644820  1.0  0.4167
  C  C427  1  0.607900  0.924960  0.591250  1.0  0.1367
  C  C428  1  0.592700  0.880460  0.603970  1.0  -0.1362
  C  C429  1  0.603500  0.962730  0.635560  1.0  0.1338
  C  C430  1  0.587900  0.919230  0.649880  1.0  -0.1404
  C  C431  1  0.582600  0.877010  0.633940  1.0  -0.0951
  C  C432  1  0.569300  0.829530  0.648030  1.0  0.3962
  C  C433  1  0.125300  0.406770  0.987140  1.0  0.1354
  C  C434  1  0.074800  0.393090  0.012150  1.0  -0.1379
  C  C435  1  0.989500  0.443560  0.968060  1.0  0.1369
  C  C436  1  0.934700  0.431450  0.992380  1.0  -0.1401
  C  C437  1  0.977200  0.405070  0.014630  1.0  -0.1101
  C  C438  1  0.920700  0.391100  0.041110  1.0  0.393
  C  C439  1  0.534900  0.445820  0.052940  1.0  0.1428
  C  C440  1  0.628800  0.429420  0.048080  1.0  -0.1302
  C  C441  1  0.536500  0.416740  0.100120  1.0  0.1393
  C  C442  1  0.630300  0.399040  0.096810  1.0  -0.1279
  C  C443  1  0.677600  0.405730  0.070520  1.0  -0.1233
  C  C444  1  0.781400  0.390560  0.066900  1.0  0.4163
  C  C445  1  0.975400  0.299700  0.158530  1.0  0.1432
  C  C446  1  0.922700  0.321640  0.136200  1.0  -0.1311
  C  C447  1  0.117600  0.307040  0.132610  1.0  0.1431
  C  C448  1  0.069500  0.328720  0.109370  1.0  -0.1072
  C  C449  1  0.970200  0.335840  0.111040  1.0  -0.1108
  C  C450  1  0.917600  0.358390  0.086380  1.0  0.396
  C  C451  1  0.076400  0.310930  0.238720  1.0  0.1344
  C  C452  1  0.039400  0.318510  0.266510  1.0  -0.1449
  C  C453  1  0.036000  0.230280  0.240170  1.0  0.1301
  C  C454  1  0.000100  0.234870  0.268220  1.0  -0.1054
  C  C455  1  0.002100  0.279670  0.281830  1.0  -0.1256
  C  C456  1  0.969100  0.284220  0.312390  1.0  0.3907
  C  C457  1  0.907200  0.117240  0.375640  1.0  0.1217
  C  C458  1  0.924200  0.158250  0.359380  1.0  -0.1216
  C  C459  1  0.869800  0.162770  0.416310  1.0  0.1457
  C  C460  1  0.886600  0.205270  0.401540  1.0  -0.1332
  C  C461  1  0.913500  0.203250  0.372240  1.0  -0.1085
  C  C462  1  0.929900  0.248250  0.355180  1.0  0.4169
  C  C463  1  0.892100  0.424960  0.408750  1.0  0.1355
  C  C464  1  0.907300  0.380460  0.396030  1.0  -0.1356
  C  C465  1  0.896500  0.462730  0.364440  1.0  0.1334
  C  C466  1  0.912100  0.419230  0.350120  1.0  -0.138
  C  C467  1  0.917400  0.377010  0.366060  1.0  -0.0961
  C  C468  1  0.930700  0.329530  0.351970  1.0  0.3959
  C  C469  1  0.874700  0.093230  0.487140  1.0  0.136
  C  C470  1  0.925200  0.106910  0.512150  1.0  -0.138
  C  C471  1  0.010500  0.056440  0.468060  1.0  0.1361
  C  C472  1  0.065300  0.068550  0.492380  1.0  -0.137
  C  C473  1  0.022800  0.094930  0.514630  1.0  -0.1094
  C  C474  1  0.079300  0.108900  0.541110  1.0  0.3929
  C  C475  1  0.465100  0.054180  0.552940  1.0  0.1416
  C  C476  1  0.371200  0.070580  0.548080  1.0  -0.1309
  C  C477  1  0.463500  0.083260  0.600120  1.0  0.139
  C  C478  1  0.369700  0.100960  0.596810  1.0  -0.1287
  C  C479  1  0.322400  0.094270  0.570520  1.0  -0.1207
  C  C480  1  0.218600  0.109440  0.566900  1.0  0.4158
  C  C481  1  0.024600  0.200300  0.658530  1.0  0.1432
  C  C482  1  0.077300  0.178360  0.636200  1.0  -0.1302
  C  C483  1  0.882400  0.192960  0.632610  1.0  0.1446
  C  C484  1  0.930500  0.171280  0.609370  1.0  -0.1084
  C  C485  1  0.029800  0.164160  0.611040  1.0  -0.1104
  C  C486  1  0.082400  0.141610  0.586380  1.0  0.3956
  C  C487  1  0.923600  0.189070  0.738720  1.0  0.1338
  C  C488  1  0.960600  0.181490  0.766510  1.0  -0.1453
  C  C489  1  0.964000  0.269720  0.740170  1.0  0.1311
  C  C490  1  0.999900  0.265130  0.768220  1.0  -0.1041
  C  C491  1  0.997900  0.220330  0.781830  1.0  -0.1255
  C  C492  1  0.030900  0.215780  0.812390  1.0  0.3904
  C  C493  1  0.092800  0.382760  0.875640  1.0  0.1225
  C  C494  1  0.075800  0.341750  0.859380  1.0  -0.1202
  C  C495  1  0.130200  0.337230  0.916310  1.0  0.1471
  C  C496  1  0.113400  0.294730  0.901540  1.0  -0.1328
  C  C497  1  0.086500  0.296750  0.872240  1.0  -0.1093
  C  C498  1  0.070100  0.251750  0.855180  1.0  0.4169
  C  C499  1  0.107900  0.075040  0.908750  1.0  0.1356
  C  C500  1  0.092700  0.119540  0.896030  1.0  -0.1369
  C  C501  1  0.103500  0.037270  0.864440  1.0  0.1329
  C  C502  1  0.087900  0.080770  0.850120  1.0  -0.1378
  C  C503  1  0.082600  0.122990  0.866060  1.0  -0.0957
  C  C504  1  0.069300  0.170470  0.851970  1.0  0.3965
  I  I505  1  0.185910  0.301150  0.690940  1.0  -0.3564
  I  I506  1  0.343970  0.165770  0.676540  1.0  -0.3085
  I  I507  1  0.425870  0.511930  0.399370  1.0  -0.3761
  I  I508  1  0.160640  0.436080  0.437440  1.0  -0.3722
  I  I509  1  0.221990  0.488480  0.536320  1.0  -0.4021
  I  I510  1  0.231690  0.418330  0.624390  1.0  -0.3372
  I  I511  1  0.814090  0.198850  0.190940  1.0  -0.3572
  I  I512  1  0.656030  0.334230  0.176540  1.0  -0.3088
  I  I513  1  0.574130  0.988070  0.899370  1.0  -0.3745
  I  I514  1  0.839360  0.063920  0.937440  1.0  -0.3737
  I  I515  1  0.778010  0.011520  0.036320  1.0  -0.4025
  I  I516  1  0.768310  0.081670  0.124390  1.0  -0.337
  I  I517  1  0.685910  0.698850  0.809060  1.0  -0.3571
  I  I518  1  0.843970  0.834230  0.823460  1.0  -0.3089
  I  I519  1  0.925870  0.488070  0.100630  1.0  -0.3763
  I  I520  1  0.660640  0.563920  0.062560  1.0  -0.3728
  I  I521  1  0.721990  0.511520  0.963680  1.0  -0.4018
  I  I522  1  0.731690  0.581670  0.875610  1.0  -0.3374
  I  I523  1  0.314090  0.801150  0.309060  1.0  -0.3567
  I  I524  1  0.156030  0.665770  0.323460  1.0  -0.3089
  I  I525  1  0.074130  0.011930  0.600630  1.0  -0.3757
  I  I526  1  0.339360  0.936080  0.562560  1.0  -0.3736
  I  I527  1  0.278010  0.988480  0.463680  1.0  -0.4023
  I  I528  1  0.268310  0.918330  0.375610  1.0  -0.3372
  I  I529  1  0.814090  0.698850  0.309060  1.0  -0.3583
  I  I530  1  0.656030  0.834230  0.323460  1.0  -0.3087
  I  I531  1  0.574130  0.488070  0.600630  1.0  -0.3752
  I  I532  1  0.839360  0.563920  0.562560  1.0  -0.3738
  I  I533  1  0.778010  0.511520  0.463680  1.0  -0.4023
  I  I534  1  0.768310  0.581670  0.375610  1.0  -0.3368
  I  I535  1  0.185910  0.801150  0.809060  1.0  -0.3575
  I  I536  1  0.343970  0.665770  0.823460  1.0  -0.3087
  I  I537  1  0.425870  0.011930  0.100630  1.0  -0.377
  I  I538  1  0.160640  0.936080  0.062560  1.0  -0.3725
  I  I539  1  0.221990  0.988480  0.963680  1.0  -0.4018
  I  I540  1  0.231690  0.918330  0.875610  1.0  -0.3378
  I  I541  1  0.314090  0.301150  0.190940  1.0  -0.358
  I  I542  1  0.156030  0.165770  0.176540  1.0  -0.3087
  I  I543  1  0.074130  0.511930  0.899370  1.0  -0.3744
  I  I544  1  0.339360  0.436080  0.937440  1.0  -0.3734
  I  I545  1  0.278010  0.488480  0.036320  1.0  -0.4025
  I  I546  1  0.268310  0.418330  0.124390  1.0  -0.337
  I  I547  1  0.685910  0.198850  0.690940  1.0  -0.3583
  I  I548  1  0.843970  0.334230  0.676540  1.0  -0.309
  I  I549  1  0.925870  0.988070  0.399370  1.0  -0.3762
  I  I550  1  0.660640  0.063920  0.437440  1.0  -0.3726
  I  I551  1  0.721990  0.011520  0.536320  1.0  -0.402
  I  I552  1  0.731690  0.081670  0.624390  1.0  -0.3373
  N  N553  1  0.416800  0.431010  0.465280  1.0  -0.294
  N  N554  1  0.010800  0.440300  0.578720  1.0  -0.3333
  N  N555  1  0.428900  0.291970  0.656600  1.0  -0.3013
  N  N556  1  0.673400  0.402800  0.541980  1.0  -0.4702
  N  N557  1  0.677400  0.367790  0.589570  1.0  -0.4763
  N  N558  1  0.529700  0.368650  0.562380  1.0  -0.4936
  N  N559  1  0.424300  0.267630  0.725710  1.0  -0.3127
  N  N560  1  0.620500  0.119020  0.903760  1.0  -0.333
  N  N561  1  0.614000  0.465800  0.893440  1.0  -0.2984
  N  N562  1  0.544400  0.242800  0.827160  1.0  -0.4998
  N  N563  1  0.583400  0.290440  0.868610  1.0  -0.4717
  N  N564  1  0.543400  0.328710  0.823620  1.0  -0.4539
  N  N565  1  0.583200  0.068990  0.965280  1.0  -0.2961
  N  N566  1  0.989200  0.059700  0.078720  1.0  -0.3344
  N  N567  1  0.571100  0.208030  0.156600  1.0  -0.3006
  N  N568  1  0.326600  0.097200  0.041980  1.0  -0.4694
  N  N569  1  0.322600  0.132210  0.089570  1.0  -0.4766
  N  N570  1  0.470300  0.131350  0.062380  1.0  -0.4953
  N  N571  1  0.575700  0.232370  0.225710  1.0  -0.3129
  N  N572  1  0.379500  0.380980  0.403760  1.0  -0.3352
  N  N573  1  0.386000  0.034200  0.393440  1.0  -0.2968
  N  N574  1  0.455600  0.257200  0.327160  1.0  -0.5001
  N  N575  1  0.416600  0.209560  0.368610  1.0  -0.4716
  N  N576  1  0.456600  0.171290  0.323620  1.0  -0.4544
  N  N577  1  0.916800  0.568990  0.034720  1.0  -0.2935
  N  N578  1  0.510800  0.559700  0.921280  1.0  -0.3331
  N  N579  1  0.928900  0.708030  0.843400  1.0  -0.3015
  N  N580  1  0.173400  0.597200  0.958020  1.0  -0.4698
  N  N581  1  0.177400  0.632210  0.910430  1.0  -0.4749
  N  N582  1  0.029700  0.631350  0.937620  1.0  -0.494
  N  N583  1  0.924300  0.732370  0.774290  1.0  -0.3123
  N  N584  1  0.120500  0.880980  0.596240  1.0  -0.3342
  N  N585  1  0.114000  0.534200  0.606560  1.0  -0.2966
  N  N586  1  0.044400  0.757200  0.672840  1.0  -0.5002
  N  N587  1  0.083400  0.709560  0.631390  1.0  -0.4704
  N  N588  1  0.043400  0.671290  0.676380  1.0  -0.4551
  N  N589  1  0.083200  0.931010  0.534720  1.0  -0.2946
  N  N590  1  0.489200  0.940300  0.421280  1.0  -0.3332
  N  N591  1  0.071100  0.791970  0.343400  1.0  -0.3021
  N  N592  1  0.826600  0.902800  0.458020  1.0  -0.47
  N  N593  1  0.822600  0.867790  0.410430  1.0  -0.4767
  N  N594  1  0.970300  0.868650  0.437620  1.0  -0.4954
  N  N595  1  0.075700  0.767630  0.274290  1.0  -0.312
  N  N596  1  0.879500  0.619020  0.096240  1.0  -0.3327
  N  N597  1  0.886000  0.965800  0.106560  1.0  -0.2957
  N  N598  1  0.955600  0.742800  0.172840  1.0  -0.4983
  N  N599  1  0.916600  0.790440  0.131390  1.0  -0.4702
  N  N600  1  0.956600  0.828710  0.176380  1.0  -0.4549
  N  N601  1  0.583200  0.568990  0.534720  1.0  -0.2939
  N  N602  1  0.989200  0.559700  0.421280  1.0  -0.3342
  N  N603  1  0.571100  0.708030  0.343400  1.0  -0.3012
  N  N604  1  0.326600  0.597200  0.458020  1.0  -0.4696
  N  N605  1  0.322600  0.632210  0.410430  1.0  -0.4753
  N  N606  1  0.470300  0.631350  0.437620  1.0  -0.4956
  N  N607  1  0.575700  0.732370  0.274290  1.0  -0.312
  N  N608  1  0.379500  0.880980  0.096240  1.0  -0.334
  N  N609  1  0.386000  0.534200  0.106560  1.0  -0.2965
  N  N610  1  0.455600  0.757200  0.172840  1.0  -0.5001
  N  N611  1  0.416600  0.709560  0.131390  1.0  -0.4706
  N  N612  1  0.456600  0.671290  0.176380  1.0  -0.4547
  N  N613  1  0.416800  0.931010  0.034720  1.0  -0.294
  N  N614  1  0.010800  0.940300  0.921280  1.0  -0.333
  N  N615  1  0.428900  0.791970  0.843400  1.0  -0.3024
  N  N616  1  0.673400  0.902800  0.958020  1.0  -0.47
  N  N617  1  0.677400  0.867790  0.910430  1.0  -0.4763
  N  N618  1  0.529700  0.868650  0.937620  1.0  -0.4941
  N  N619  1  0.424300  0.767630  0.774290  1.0  -0.3123
  N  N620  1  0.620500  0.619020  0.596240  1.0  -0.3321
  N  N621  1  0.614000  0.965800  0.606560  1.0  -0.297
  N  N622  1  0.544400  0.742800  0.672840  1.0  -0.4988
  N  N623  1  0.583400  0.790440  0.631390  1.0  -0.4701
  N  N624  1  0.543400  0.828710  0.676380  1.0  -0.4551
  N  N625  1  0.083200  0.431010  0.965280  1.0  -0.2949
  N  N626  1  0.489200  0.440300  0.078720  1.0  -0.3335
  N  N627  1  0.071100  0.291970  0.156600  1.0  -0.301
  N  N628  1  0.826600  0.402800  0.041980  1.0  -0.4697
  N  N629  1  0.822600  0.367790  0.089570  1.0  -0.4766
  N  N630  1  0.970300  0.368650  0.062380  1.0  -0.495
  N  N631  1  0.075700  0.267630  0.225710  1.0  -0.313
  N  N632  1  0.879500  0.119020  0.403760  1.0  -0.3332
  N  N633  1  0.886000  0.465800  0.393440  1.0  -0.2971
  N  N634  1  0.955600  0.242800  0.327160  1.0  -0.4991
  N  N635  1  0.916600  0.290440  0.368610  1.0  -0.4716
  N  N636  1  0.956600  0.328710  0.323620  1.0  -0.4539
  N  N637  1  0.916800  0.068990  0.465280  1.0  -0.2959
  N  N638  1  0.510800  0.059700  0.578720  1.0  -0.3332
  N  N639  1  0.928900  0.208030  0.656600  1.0  -0.3013
  N  N640  1  0.173400  0.097200  0.541980  1.0  -0.4702
  N  N641  1  0.177400  0.132210  0.589570  1.0  -0.4764
  N  N642  1  0.029700  0.131350  0.562380  1.0  -0.4936
  N  N643  1  0.924300  0.232370  0.725710  1.0  -0.3123
  N  N644  1  0.120500  0.380980  0.903760  1.0  -0.3352
  N  N645  1  0.114000  0.034200  0.893440  1.0  -0.2972
  N  N646  1  0.044400  0.257200  0.827160  1.0  -0.5004
  N  N647  1  0.083400  0.209560  0.868610  1.0  -0.4716
  N  N648  1  0.043400  0.171290  0.823620  1.0  -0.4549
