# generated using pymatgen
data_Co3H6C14(NO5)2
_symmetry_space_group_name_H-M   'P 1'
_cell_length_a   11.13890000
_cell_length_b   11.26520000
_cell_length_c   11.41390000
_cell_angle_alpha   76.38000000
_cell_angle_beta   66.36900000
_cell_angle_gamma   78.96400000
_symmetry_Int_Tables_number   1
_chemical_formula_structural   Co3H6C14(NO5)2
_chemical_formula_sum   'Co6 H12 C28 N4 O20'
_cell_volume   1267.64503517
_cell_formula_units_Z   2
loop_
 _symmetry_equiv_pos_site_id
 _symmetry_equiv_pos_as_xyz
  1  'x, y, z'
loop_
 _atom_site_type_symbol
 _atom_site_label
 _atom_site_symmetry_multiplicity
 _atom_site_fract_x
 _atom_site_fract_y
 _atom_site_fract_z
 _atom_site_occupancy
 _atom_site_charge
  Co  Co1  1  0.470580  0.429020  0.289810  1.0  1.2
  Co  Co2  1  0.606240  0.390830  0.499590  1.0  0.9976
  Co  Co3  1  0.495220  0.358960  0.009240  1.0  1.1792
  Co  Co4  1  0.529420  0.570980  0.710190  1.0  1.2052
  Co  Co5  1  0.393760  0.609170  0.500410  1.0  0.9979
  Co  Co6  1  0.504780  0.641040  0.990760  1.0  1.1799
  H  H7  1  0.044900  0.417100  0.139500  1.0  0.1285
  H  H8  1  0.077100  0.358600  0.491300  1.0  0.1324
  H  H9  1  0.853400  0.338900  0.588100  1.0  0.0921
  H  H10  1  0.324200  0.870100  0.588500  1.0  0.0935
  H  H11  1  0.361400  0.072900  0.491900  1.0  0.1288
  H  H12  1  0.528900  0.964900  0.142600  1.0  0.129
  H  H13  1  0.955100  0.582900  0.860500  1.0  0.1281
  H  H14  1  0.922900  0.641400  0.508700  1.0  0.1321
  H  H15  1  0.146600  0.661100  0.411900  1.0  0.0924
  H  H16  1  0.675800  0.129900  0.411500  1.0  0.0939
  H  H17  1  0.638600  0.927100  0.508100  1.0  0.1287
  H  H18  1  0.471100  0.035100  0.857400  1.0  0.1287
  C  C19  1  0.780700  0.414100  0.225800  1.0  0.6629
  C  C20  1  0.873400  0.394700  0.296900  1.0  0.1081
  C  C21  1  0.007400  0.402300  0.231700  1.0  -0.0769
  C  C22  1  0.086300  0.387700  0.304700  1.0  -0.0301
  C  C23  1  0.026600  0.366700  0.439100  1.0  -0.1645
  C  C24  1  0.892700  0.357700  0.496100  1.0  0.1515
  C  C25  1  0.231300  0.400700  0.238900  1.0  0.6935
  C  C26  1  0.366300  0.889800  0.496700  1.0  0.1481
  C  C27  1  0.389100  0.010800  0.440000  1.0  -0.1407
  C  C28  1  0.452800  0.039600  0.306800  1.0  -0.0823
  C  C29  1  0.485400  0.169900  0.242400  1.0  0.6945
  C  C30  1  0.487300  0.947200  0.234500  1.0  -0.0641
  C  C31  1  0.460400  0.827100  0.298100  1.0  0.1097
  C  C32  1  0.489500  0.724000  0.226400  1.0  0.6676
  C  C33  1  0.219300  0.585900  0.774200  1.0  0.6601
  C  C34  1  0.126600  0.605300  0.703100  1.0  0.1099
  C  C35  1  0.992600  0.597700  0.768300  1.0  -0.0793
  C  C36  1  0.913700  0.612300  0.695300  1.0  -0.0304
  C  C37  1  0.973400  0.633300  0.560900  1.0  -0.1648
  C  C38  1  0.107300  0.642300  0.503900  1.0  0.1508
  C  C39  1  0.768700  0.599300  0.761100  1.0  0.6947
  C  C40  1  0.633700  0.110200  0.503300  1.0  0.1475
  C  C41  1  0.610900  0.989200  0.560000  1.0  -0.1398
  C  C42  1  0.547200  0.960400  0.693200  1.0  -0.0928
  C  C43  1  0.514600  0.830100  0.757600  1.0  0.6933
  C  C44  1  0.512700  0.052800  0.765500  1.0  -0.0655
  C  C45  1  0.539600  0.172900  0.701900  1.0  0.1112
  C  C46  1  0.510500  0.276000  0.773600  1.0  0.6675
  N  N47  1  0.815900  0.374100  0.427500  1.0  -0.2979
  N  N48  1  0.401300  0.800500  0.427400  1.0  -0.2934
  N  N49  1  0.184100  0.625900  0.572500  1.0  -0.2973
  N  N50  1  0.598700  0.199500  0.572600  1.0  -0.2913
  O  O51  1  0.659500  0.405100  0.301200  1.0  -0.6238
  O  O52  1  0.821500  0.434200  0.107500  1.0  -0.4809
  O  O53  1  0.293000  0.360600  0.134800  1.0  -0.5734
  O  O54  1  0.276800  0.453200  0.295900  1.0  -0.605
  O  O55  1  0.529000  0.192100  0.121200  1.0  -0.6138
  O  O56  1  0.463200  0.242600  0.317500  1.0  -0.6008
  O  O57  1  0.542500  0.742400  0.105100  1.0  -0.5544
  O  O58  1  0.454500  0.622800  0.298600  1.0  -0.5992
  O  O59  1  0.418300  0.424900  0.488300  1.0  -0.7236
  O  O60  1  0.549400  0.470500  0.094700  1.0  -0.7904
  O  O61  1  0.340500  0.594900  0.698800  1.0  -0.6257
  O  O62  1  0.178500  0.565800  0.892500  1.0  -0.4849
  O  O63  1  0.707000  0.639400  0.865200  1.0  -0.5733
  O  O64  1  0.723200  0.546800  0.704100  1.0  -0.6057
  O  O65  1  0.471000  0.807900  0.878800  1.0  -0.6151
  O  O66  1  0.536800  0.757400  0.682500  1.0  -0.5991
  O  O67  1  0.457500  0.257600  0.894900  1.0  -0.5505
  O  O68  1  0.545500  0.377200  0.701400  1.0  -0.598
  O  O69  1  0.581700  0.575100  0.511700  1.0  -0.7235
  O  O70  1  0.450600  0.529500  0.905300  1.0  -0.7868
