# generated using pymatgen
data_ZnH8C12(IN2)2
_symmetry_space_group_name_H-M   'P 1'
_cell_length_a   27.28600000
_cell_length_b   13.69970000
_cell_length_c   45.82900000
_cell_angle_alpha   90.00000000
_cell_angle_beta   90.00000000
_cell_angle_gamma   90.00000000
_symmetry_Int_Tables_number   1
_chemical_formula_structural   ZnH8C12(IN2)2
_chemical_formula_sum   'Zn24 H192 C288 I48 N96'
_cell_volume   17131.33914077
_cell_formula_units_Z   24
loop_
 _symmetry_equiv_pos_site_id
 _symmetry_equiv_pos_as_xyz
  1  'x, y, z'
loop_
 _atom_site_type_symbol
 _atom_site_label
 _atom_site_symmetry_multiplicity
 _atom_site_fract_x
 _atom_site_fract_y
 _atom_site_fract_z
 _atom_site_occupancy
 _atom_site_charge
  Zn  Zn1  1  0.246330  0.843400  0.311440  1.0  0.8617
  Zn  Zn2  1  0.030190  0.641590  0.409310  1.0  0.8435
  Zn  Zn3  1  0.048820  0.860300  0.571990  1.0  0.8696
  Zn  Zn4  1  0.253670  0.156600  0.811440  1.0  0.8624
  Zn  Zn5  1  0.469810  0.358410  0.909310  1.0  0.8434
  Zn  Zn6  1  0.451180  0.139700  0.071990  1.0  0.87
  Zn  Zn7  1  0.753670  0.343400  0.188560  1.0  0.861
  Zn  Zn8  1  0.969810  0.141590  0.090690  1.0  0.8432
  Zn  Zn9  1  0.951180  0.360300  0.928010  1.0  0.8699
  Zn  Zn10  1  0.746330  0.656600  0.688560  1.0  0.8624
  Zn  Zn11  1  0.530190  0.858410  0.590690  1.0  0.843
  Zn  Zn12  1  0.548820  0.639700  0.428010  1.0  0.8685
  Zn  Zn13  1  0.753670  0.156600  0.688560  1.0  0.8622
  Zn  Zn14  1  0.969810  0.358410  0.590690  1.0  0.8431
  Zn  Zn15  1  0.951180  0.139700  0.428010  1.0  0.8698
  Zn  Zn16  1  0.746330  0.843400  0.188560  1.0  0.8612
  Zn  Zn17  1  0.530190  0.641590  0.090690  1.0  0.8436
  Zn  Zn18  1  0.548820  0.860300  0.928010  1.0  0.8689
  Zn  Zn19  1  0.246330  0.656600  0.811440  1.0  0.8626
  Zn  Zn20  1  0.030190  0.858410  0.909310  1.0  0.843
  Zn  Zn21  1  0.048820  0.639700  0.071990  1.0  0.8687
  Zn  Zn22  1  0.253670  0.343400  0.311440  1.0  0.8614
  Zn  Zn23  1  0.469810  0.141590  0.409310  1.0  0.8433
  Zn  Zn24  1  0.451180  0.360300  0.571990  1.0  0.8707
  H  H25  1  0.068100  0.475100  0.374800  1.0  0.0987
  H  H26  1  0.097000  0.317600  0.380900  1.0  0.1115
  H  H27  1  0.062600  0.515200  0.459800  1.0  0.0978
  H  H28  1  0.089100  0.356000  0.468000  1.0  0.1145
  H  H29  1  0.032500  0.054900  0.542800  1.0  0.0876
  H  H30  1  0.058100  0.140000  0.502400  1.0  0.1126
  H  H31  1  0.097800  0.816400  0.514600  1.0  0.0908
  H  H32  1  0.127100  0.897400  0.473600  1.0  0.1181
  H  H33  1  0.189600  0.806800  0.365700  1.0  0.0905
  H  H34  1  0.156100  0.891100  0.404600  1.0  0.1187
  H  H35  1  0.227700  0.053000  0.327600  1.0  0.0808
  H  H36  1  0.192500  0.143200  0.364800  1.0  0.1146
  H  H37  1  0.308500  0.953300  0.267900  1.0  0.0855
  H  H38  1  0.301800  0.010800  0.220400  1.0  0.1177
  H  H39  1  0.166100  0.914400  0.273300  1.0  0.0857
  H  H40  1  0.155200  0.973500  0.226200  1.0  0.1155
  H  H41  1  0.011800  0.091100  0.149600  1.0  0.0927
  H  H42  1  0.086900  0.059400  0.171700  1.0  0.1154
  H  H43  1  0.073300  0.107800  0.072500  1.0  0.0792
  H  H44  1  0.150500  0.085800  0.092300  1.0  0.1168
  H  H45  1  0.341500  0.135700  0.062400  1.0  0.0913
  H  H46  1  0.269900  0.107900  0.087700  1.0  0.1216
  H  H47  1  0.420900  0.071700  0.131400  1.0  0.0973
  H  H48  1  0.351300  0.047900  0.159300  1.0  0.1171
  H  H49  1  0.431900  0.524900  0.874800  1.0  0.0985
  H  H50  1  0.403000  0.682400  0.880900  1.0  0.1115
  H  H51  1  0.437400  0.484800  0.959800  1.0  0.0974
  H  H52  1  0.410900  0.644000  0.968000  1.0  0.1149
  H  H53  1  0.467500  0.945100  0.042800  1.0  0.0877
  H  H54  1  0.441900  0.860000  0.002400  1.0  0.1125
  H  H55  1  0.402200  0.183600  0.014600  1.0  0.0896
  H  H56  1  0.372900  0.102600  0.973600  1.0  0.118
  H  H57  1  0.310400  0.193200  0.865700  1.0  0.0905
  H  H58  1  0.343900  0.108900  0.904600  1.0  0.1187
  H  H59  1  0.272300  0.947000  0.827600  1.0  0.0808
  H  H60  1  0.307500  0.856800  0.864800  1.0  0.114
  H  H61  1  0.191500  0.046700  0.767900  1.0  0.0857
  H  H62  1  0.198200  0.989200  0.720400  1.0  0.1174
  H  H63  1  0.333900  0.085600  0.773300  1.0  0.0855
  H  H64  1  0.344800  0.026500  0.726200  1.0  0.1157
  H  H65  1  0.488200  0.908900  0.649600  1.0  0.0926
  H  H66  1  0.413100  0.940600  0.671700  1.0  0.1149
  H  H67  1  0.426700  0.892200  0.572500  1.0  0.0789
  H  H68  1  0.349500  0.914200  0.592300  1.0  0.1168
  H  H69  1  0.158500  0.864300  0.562400  1.0  0.0912
  H  H70  1  0.230100  0.892100  0.587700  1.0  0.1213
  H  H71  1  0.079100  0.928300  0.631400  1.0  0.0979
  H  H72  1  0.148700  0.952100  0.659300  1.0  0.1174
  H  H73  1  0.931900  0.975100  0.125200  1.0  0.0978
  H  H74  1  0.903000  0.817600  0.119100  1.0  0.1118
  H  H75  1  0.937400  0.015200  0.040200  1.0  0.0967
  H  H76  1  0.910900  0.856000  0.032000  1.0  0.1148
  H  H77  1  0.967500  0.554900  0.957200  1.0  0.0869
  H  H78  1  0.941900  0.640000  0.997600  1.0  0.1125
  H  H79  1  0.902200  0.316400  0.985400  1.0  0.0902
  H  H80  1  0.872900  0.397400  0.026400  1.0  0.118
  H  H81  1  0.810400  0.306800  0.134300  1.0  0.0906
  H  H82  1  0.843900  0.391100  0.095400  1.0  0.1184
  H  H83  1  0.772300  0.553000  0.172400  1.0  0.0797
  H  H84  1  0.807500  0.643200  0.135200  1.0  0.1145
  H  H85  1  0.691500  0.453300  0.232100  1.0  0.0857
  H  H86  1  0.698200  0.510800  0.279600  1.0  0.1172
  H  H87  1  0.833900  0.414400  0.226700  1.0  0.086
  H  H88  1  0.844800  0.473500  0.273800  1.0  0.1154
  H  H89  1  0.988200  0.591100  0.350400  1.0  0.0923
  H  H90  1  0.913100  0.559400  0.328300  1.0  0.1151
  H  H91  1  0.926700  0.607800  0.427500  1.0  0.0806
  H  H92  1  0.849500  0.585800  0.407700  1.0  0.1167
  H  H93  1  0.658500  0.635700  0.437600  1.0  0.0915
  H  H94  1  0.730100  0.607900  0.412300  1.0  0.121
  H  H95  1  0.579100  0.571700  0.368600  1.0  0.0974
  H  H96  1  0.648700  0.547900  0.340700  1.0  0.1181
  H  H97  1  0.568100  0.024900  0.625200  1.0  0.0982
  H  H98  1  0.597000  0.182400  0.619100  1.0  0.1118
  H  H99  1  0.562600  0.984800  0.540200  1.0  0.0968
  H  H100  1  0.589100  0.144000  0.532000  1.0  0.1151
  H  H101  1  0.532500  0.445100  0.457200  1.0  0.087
  H  H102  1  0.558100  0.360000  0.497600  1.0  0.1126
  H  H103  1  0.597800  0.683600  0.485400  1.0  0.0902
  H  H104  1  0.627100  0.602600  0.526400  1.0  0.1174
  H  H105  1  0.689600  0.693200  0.634300  1.0  0.0905
  H  H106  1  0.656100  0.608900  0.595400  1.0  0.1186
  H  H107  1  0.727700  0.447000  0.672400  1.0  0.0797
  H  H108  1  0.692500  0.356800  0.635200  1.0  0.1144
  H  H109  1  0.808500  0.546700  0.732100  1.0  0.0853
  H  H110  1  0.801800  0.489200  0.779600  1.0  0.1177
  H  H111  1  0.666100  0.585600  0.726700  1.0  0.0855
  H  H112  1  0.655200  0.526500  0.773800  1.0  0.1151
  H  H113  1  0.511800  0.408900  0.850400  1.0  0.0921
  H  H114  1  0.586900  0.440600  0.828300  1.0  0.1152
  H  H115  1  0.573300  0.392200  0.927500  1.0  0.0806
  H  H116  1  0.650500  0.414200  0.907700  1.0  0.1168
  H  H117  1  0.841500  0.364300  0.937600  1.0  0.0913
  H  H118  1  0.769900  0.392100  0.912300  1.0  0.1219
  H  H119  1  0.920900  0.428300  0.868600  1.0  0.0967
  H  H120  1  0.851300  0.452100  0.840700  1.0  0.1181
  H  H121  1  0.931900  0.524900  0.625200  1.0  0.0982
  H  H122  1  0.903000  0.682400  0.619100  1.0  0.1116
  H  H123  1  0.937400  0.484800  0.540200  1.0  0.0966
  H  H124  1  0.910900  0.644000  0.532000  1.0  0.1149
  H  H125  1  0.967500  0.945100  0.457200  1.0  0.0871
  H  H126  1  0.941900  0.860000  0.497600  1.0  0.1126
  H  H127  1  0.902200  0.183600  0.485400  1.0  0.0895
  H  H128  1  0.872900  0.102600  0.526400  1.0  0.1177
  H  H129  1  0.810400  0.193200  0.634300  1.0  0.0905
  H  H130  1  0.843900  0.108900  0.595400  1.0  0.1185
  H  H131  1  0.772300  0.947000  0.672400  1.0  0.0801
  H  H132  1  0.807500  0.856800  0.635200  1.0  0.1142
  H  H133  1  0.691500  0.046700  0.732100  1.0  0.0857
  H  H134  1  0.698200  0.989200  0.779600  1.0  0.1174
  H  H135  1  0.833900  0.085600  0.726700  1.0  0.086
  H  H136  1  0.844800  0.026500  0.773800  1.0  0.1153
  H  H137  1  0.988200  0.908900  0.850400  1.0  0.0922
  H  H138  1  0.913100  0.940600  0.828300  1.0  0.1151
  H  H139  1  0.926700  0.892200  0.927500  1.0  0.0807
  H  H140  1  0.849500  0.914200  0.907700  1.0  0.1168
  H  H141  1  0.658500  0.864300  0.937600  1.0  0.0911
  H  H142  1  0.730100  0.892100  0.912300  1.0  0.1213
  H  H143  1  0.579100  0.928300  0.868600  1.0  0.0971
  H  H144  1  0.648700  0.952100  0.840700  1.0  0.118
  H  H145  1  0.568100  0.475100  0.125200  1.0  0.0986
  H  H146  1  0.597000  0.317600  0.119100  1.0  0.1118
  H  H147  1  0.562600  0.515200  0.040200  1.0  0.0969
  H  H148  1  0.589100  0.356000  0.032000  1.0  0.1149
  H  H149  1  0.532500  0.054900  0.957200  1.0  0.0872
  H  H150  1  0.558100  0.140000  0.997600  1.0  0.1125
  H  H151  1  0.597800  0.816400  0.985400  1.0  0.0908
  H  H152  1  0.627100  0.897400  0.026400  1.0  0.1178
  H  H153  1  0.689600  0.806800  0.134300  1.0  0.0905
  H  H154  1  0.656100  0.891100  0.095400  1.0  0.1183
  H  H155  1  0.727700  0.053000  0.172400  1.0  0.0795
  H  H156  1  0.692500  0.143200  0.135200  1.0  0.1145
  H  H157  1  0.808500  0.953300  0.232100  1.0  0.0852
  H  H158  1  0.801800  0.010800  0.279600  1.0  0.1176
  H  H159  1  0.666100  0.914400  0.226700  1.0  0.0856
  H  H160  1  0.655200  0.973500  0.273800  1.0  0.1152
  H  H161  1  0.511800  0.091100  0.350400  1.0  0.0921
  H  H162  1  0.586900  0.059400  0.328300  1.0  0.1152
  H  H163  1  0.573300  0.107800  0.427500  1.0  0.0803
  H  H164  1  0.650500  0.085800  0.407700  1.0  0.1167
  H  H165  1  0.841500  0.135700  0.437600  1.0  0.091
  H  H166  1  0.769900  0.107900  0.412300  1.0  0.1217
  H  H167  1  0.920900  0.071700  0.368600  1.0  0.0973
  H  H168  1  0.851300  0.047900  0.340700  1.0  0.1182
  H  H169  1  0.068100  0.024900  0.874800  1.0  0.0983
  H  H170  1  0.097000  0.182400  0.880900  1.0  0.1115
  H  H171  1  0.062600  0.984800  0.959800  1.0  0.0976
  H  H172  1  0.089100  0.144000  0.968000  1.0  0.115
  H  H173  1  0.032500  0.445100  0.042800  1.0  0.0876
  H  H174  1  0.058100  0.360000  0.002400  1.0  0.1128
  H  H175  1  0.097800  0.683600  0.014600  1.0  0.0901
  H  H176  1  0.127100  0.602600  0.973600  1.0  0.118
  H  H177  1  0.189600  0.693200  0.865700  1.0  0.0905
  H  H178  1  0.156100  0.608900  0.904600  1.0  0.1188
  H  H179  1  0.227700  0.447000  0.827600  1.0  0.0807
  H  H180  1  0.192500  0.356800  0.864800  1.0  0.1143
  H  H181  1  0.308500  0.546700  0.767900  1.0  0.0855
  H  H182  1  0.301800  0.489200  0.720400  1.0  0.1176
  H  H183  1  0.166100  0.585600  0.773300  1.0  0.0853
  H  H184  1  0.155200  0.526500  0.726200  1.0  0.1153
  H  H185  1  0.011800  0.408900  0.649600  1.0  0.0929
  H  H186  1  0.086900  0.440600  0.671700  1.0  0.1153
  H  H187  1  0.073300  0.392200  0.572500  1.0  0.0793
  H  H188  1  0.150500  0.414200  0.592300  1.0  0.1167
  H  H189  1  0.341500  0.364300  0.562400  1.0  0.0913
  H  H190  1  0.269900  0.392100  0.587700  1.0  0.1218
  H  H191  1  0.420900  0.428300  0.631400  1.0  0.097
  H  H192  1  0.351300  0.452100  0.659300  1.0  0.1169
  H  H193  1  0.431900  0.975100  0.374800  1.0  0.098
  H  H194  1  0.403000  0.817600  0.380900  1.0  0.1118
  H  H195  1  0.437400  0.015200  0.459800  1.0  0.0976
  H  H196  1  0.410900  0.856000  0.468000  1.0  0.1147
  H  H197  1  0.467500  0.554900  0.542800  1.0  0.0875
  H  H198  1  0.441900  0.640000  0.502400  1.0  0.1123
  H  H199  1  0.402200  0.316400  0.514600  1.0  0.0903
  H  H200  1  0.372900  0.397400  0.473600  1.0  0.1177
  H  H201  1  0.310400  0.306800  0.365700  1.0  0.0906
  H  H202  1  0.343900  0.391100  0.404600  1.0  0.1186
  H  H203  1  0.272300  0.553000  0.327600  1.0  0.0808
  H  H204  1  0.307500  0.643200  0.364800  1.0  0.1146
  H  H205  1  0.191500  0.453300  0.267900  1.0  0.0858
  H  H206  1  0.198200  0.510800  0.220400  1.0  0.1174
  H  H207  1  0.333900  0.414400  0.273300  1.0  0.0858
  H  H208  1  0.344800  0.473500  0.226200  1.0  0.1159
  H  H209  1  0.488200  0.591100  0.149600  1.0  0.0926
  H  H210  1  0.413100  0.559400  0.171700  1.0  0.115
  H  H211  1  0.426700  0.607800  0.072500  1.0  0.0788
  H  H212  1  0.349500  0.585800  0.092300  1.0  0.1169
  H  H213  1  0.158500  0.635700  0.062400  1.0  0.0914
  H  H214  1  0.230100  0.607900  0.087700  1.0  0.1213
  H  H215  1  0.079100  0.571700  0.131400  1.0  0.098
  H  H216  1  0.148700  0.547900  0.159300  1.0  0.1177
  C  C217  1  0.072500  0.450300  0.393930  1.0  0.1346
  C  C218  1  0.089900  0.356900  0.397460  1.0  -0.111
  C  C219  1  0.068900  0.473700  0.443640  1.0  0.1243
  C  C220  1  0.085600  0.379600  0.448630  1.0  -0.1258
  C  C221  1  0.097000  0.320500  0.425200  1.0  -0.1257
  C  C222  1  0.113200  0.218500  0.430150  1.0  0.4339
  C  C223  1  0.052100  0.022700  0.528650  1.0  0.129
  C  C224  1  0.067300  0.073600  0.504720  1.0  -0.1287
  C  C225  1  0.090500  0.883700  0.512200  1.0  0.1406
  C  C226  1  0.107700  0.931100  0.487590  1.0  -0.1298
  C  C227  1  0.096100  0.028800  0.483730  1.0  -0.1154
  C  C228  1  0.112700  0.082000  0.457290  1.0  0.3462
  C  C229  1  0.190800  0.876100  0.365740  1.0  0.1349
  C  C230  1  0.170300  0.925900  0.388810  1.0  -0.1218
  C  C231  1  0.212600  0.019700  0.343450  1.0  0.1496
  C  C232  1  0.191900  0.073900  0.365550  1.0  -0.1388
  C  C233  1  0.170400  0.026600  0.388780  1.0  -0.1272
  C  C234  1  0.146900  0.080900  0.412790  1.0  0.3974
  C  C235  1  0.277100  0.955300  0.258950  1.0  0.1336
  C  C236  1  0.273400  0.990300  0.230720  1.0  -0.1451
  C  C237  1  0.194000  0.932900  0.262270  1.0  0.1419
  C  C238  1  0.187300  0.968000  0.234120  1.0  -0.1149
  C  C239  1  0.227600  0.994800  0.217880  1.0  -0.1073
  C  C240  1  0.222500  0.025600  0.187120  1.0  0.3989
  C  C241  1  0.040500  0.089100  0.137830  1.0  0.1501
  C  C242  1  0.085200  0.071400  0.151260  1.0  -0.1467
  C  C243  1  0.076400  0.100000  0.092980  1.0  0.1326
  C  C244  1  0.122500  0.085800  0.104620  1.0  -0.1415
  C  C245  1  0.127400  0.071500  0.134350  1.0  -0.1046
  C  C246  1  0.175900  0.059200  0.148020  1.0  0.397
  C  C247  1  0.343400  0.117000  0.082290  1.0  0.1392
  C  C248  1  0.300600  0.101200  0.097230  1.0  -0.1432
  C  C249  1  0.389700  0.080500  0.122650  1.0  0.1396
  C  C250  1  0.348600  0.065200  0.139320  1.0  -0.1086
  C  C251  1  0.303000  0.075500  0.126300  1.0  -0.1214
  C  C252  1  0.257800  0.060700  0.143820  1.0  0.4015
  C  C253  1  0.427500  0.549700  0.893930  1.0  0.1356
  C  C254  1  0.410100  0.643100  0.897460  1.0  -0.1104
  C  C255  1  0.431100  0.526300  0.943640  1.0  0.127
  C  C256  1  0.414400  0.620400  0.948630  1.0  -0.1269
  C  C257  1  0.403000  0.679500  0.925200  1.0  -0.1263
  C  C258  1  0.386800  0.781500  0.930150  1.0  0.4335
  C  C259  1  0.447900  0.977300  0.028650  1.0  0.1291
  C  C260  1  0.432700  0.926400  0.004720  1.0  -0.1285
  C  C261  1  0.409500  0.116300  0.012200  1.0  0.14
  C  C262  1  0.392300  0.068900  0.987590  1.0  -0.1301
  C  C263  1  0.403900  0.971200  0.983730  1.0  -0.1157
  C  C264  1  0.387300  0.918000  0.957290  1.0  0.3465
  C  C265  1  0.309200  0.123900  0.865740  1.0  0.1351
  C  C266  1  0.329700  0.074100  0.888810  1.0  -0.1214
  C  C267  1  0.287400  0.980300  0.843450  1.0  0.1493
  C  C268  1  0.308100  0.926100  0.865550  1.0  -0.137
  C  C269  1  0.329600  0.973400  0.888780  1.0  -0.1274
  C  C270  1  0.353100  0.919100  0.912790  1.0  0.3976
  C  C271  1  0.222900  0.044700  0.758950  1.0  0.1336
  C  C272  1  0.226600  0.009700  0.730720  1.0  -0.1459
  C  C273  1  0.306000  0.067100  0.762270  1.0  0.1403
  C  C274  1  0.312700  0.032000  0.734120  1.0  -0.1132
  C  C275  1  0.272400  0.005200  0.717880  1.0  -0.1076
  C  C276  1  0.277500  0.974400  0.687120  1.0  0.3988
  C  C277  1  0.459500  0.910900  0.637830  1.0  0.1498
  C  C278  1  0.414800  0.928600  0.651260  1.0  -0.146
  C  C279  1  0.423600  0.900000  0.592980  1.0  0.1334
  C  C280  1  0.377500  0.914200  0.604620  1.0  -0.1413
  C  C281  1  0.372600  0.928500  0.634350  1.0  -0.1041
  C  C282  1  0.324100  0.940800  0.648020  1.0  0.3972
  C  C283  1  0.156600  0.883000  0.582290  1.0  0.1388
  C  C284  1  0.199400  0.898800  0.597230  1.0  -0.1426
  C  C285  1  0.110300  0.919500  0.622650  1.0  0.1383
  C  C286  1  0.151400  0.934800  0.639320  1.0  -0.109
  C  C287  1  0.197000  0.924500  0.626300  1.0  -0.1212
  C  C288  1  0.242200  0.939300  0.643820  1.0  0.4021
  C  C289  1  0.927500  0.950300  0.106070  1.0  0.1338
  C  C290  1  0.910100  0.856900  0.102540  1.0  -0.111
  C  C291  1  0.931100  0.973700  0.056360  1.0  0.1266
  C  C292  1  0.914400  0.879600  0.051370  1.0  -0.1244
  C  C293  1  0.903000  0.820500  0.074800  1.0  -0.1255
  C  C294  1  0.886800  0.718500  0.069850  1.0  0.4349
  C  C295  1  0.947900  0.522700  0.971350  1.0  0.1299
  C  C296  1  0.932700  0.573600  0.995280  1.0  -0.1286
  C  C297  1  0.909500  0.383700  0.987800  1.0  0.1401
  C  C298  1  0.892300  0.431100  0.012410  1.0  -0.13
  C  C299  1  0.903900  0.528800  0.016270  1.0  -0.115
  C  C300  1  0.887300  0.582000  0.042710  1.0  0.3459
  C  C301  1  0.809200  0.376100  0.134260  1.0  0.1341
  C  C302  1  0.829700  0.425900  0.111190  1.0  -0.1207
  C  C303  1  0.787400  0.519700  0.156550  1.0  0.1495
  C  C304  1  0.808100  0.573900  0.134450  1.0  -0.1382
  C  C305  1  0.829600  0.526600  0.111220  1.0  -0.1278
  C  C306  1  0.853100  0.580900  0.087210  1.0  0.3976
  C  C307  1  0.722900  0.455300  0.241050  1.0  0.1331
  C  C308  1  0.726600  0.490300  0.269280  1.0  -0.1463
  C  C309  1  0.806000  0.432900  0.237730  1.0  0.1401
  C  C310  1  0.812700  0.468000  0.265880  1.0  -0.1133
  C  C311  1  0.772400  0.494800  0.282120  1.0  -0.1075
  C  C312  1  0.777500  0.525600  0.312880  1.0  0.398
  C  C313  1  0.959500  0.589100  0.362170  1.0  0.1492
  C  C314  1  0.914800  0.571400  0.348740  1.0  -0.1433
  C  C315  1  0.923600  0.600000  0.407020  1.0  0.1312
  C  C316  1  0.877500  0.585800  0.395380  1.0  -0.1428
  C  C317  1  0.872600  0.571500  0.365650  1.0  -0.1039
  C  C318  1  0.824100  0.559200  0.351980  1.0  0.3972
  C  C319  1  0.656600  0.617000  0.417710  1.0  0.1384
  C  C320  1  0.699400  0.601200  0.402770  1.0  -0.1407
  C  C321  1  0.610300  0.580500  0.377350  1.0  0.1384
  C  C322  1  0.651400  0.565200  0.360680  1.0  -0.1082
  C  C323  1  0.697000  0.575500  0.373700  1.0  -0.1212
  C  C324  1  0.742200  0.560700  0.356180  1.0  0.4022
  C  C325  1  0.572500  0.049700  0.606070  1.0  0.1353
  C  C326  1  0.589900  0.143100  0.602540  1.0  -0.1107
  C  C327  1  0.568900  0.026300  0.556360  1.0  0.1254
  C  C328  1  0.585600  0.120400  0.551370  1.0  -0.1245
  C  C329  1  0.597000  0.179500  0.574800  1.0  -0.1261
  C  C330  1  0.613200  0.281500  0.569850  1.0  0.4332
  C  C331  1  0.552100  0.477300  0.471350  1.0  0.1288
  C  C332  1  0.567300  0.426400  0.495280  1.0  -0.1289
  C  C333  1  0.590500  0.616300  0.487800  1.0  0.1408
  C  C334  1  0.607700  0.568900  0.512410  1.0  -0.1297
  C  C335  1  0.596100  0.471200  0.516270  1.0  -0.1165
  C  C336  1  0.612700  0.418000  0.542710  1.0  0.346
  C  C337  1  0.690800  0.623900  0.634260  1.0  0.1353
  C  C338  1  0.670300  0.574100  0.611190  1.0  -0.1209
  C  C339  1  0.712600  0.480300  0.656550  1.0  0.1505
  C  C340  1  0.691900  0.426100  0.634450  1.0  -0.1374
  C  C341  1  0.670400  0.473400  0.611220  1.0  -0.1265
  C  C342  1  0.646900  0.419100  0.587210  1.0  0.3975
  C  C343  1  0.777100  0.544700  0.741050  1.0  0.1325
  C  C344  1  0.773400  0.509700  0.769280  1.0  -0.1452
  C  C345  1  0.694000  0.567100  0.737730  1.0  0.141
  C  C346  1  0.687300  0.532000  0.765880  1.0  -0.1156
  C  C347  1  0.727600  0.505200  0.782120  1.0  -0.1078
  C  C348  1  0.722500  0.474400  0.812880  1.0  0.3982
  C  C349  1  0.540500  0.410900  0.862170  1.0  0.1499
  C  C350  1  0.585200  0.428600  0.848740  1.0  -0.1429
  C  C351  1  0.576400  0.400000  0.907020  1.0  0.1307
  C  C352  1  0.622500  0.414200  0.895380  1.0  -0.1403
  C  C353  1  0.627400  0.428500  0.865650  1.0  -0.1041
  C  C354  1  0.675900  0.440800  0.851980  1.0  0.3968
  C  C355  1  0.843400  0.383000  0.917710  1.0  0.1394
  C  C356  1  0.800600  0.398800  0.902770  1.0  -0.1428
  C  C357  1  0.889700  0.419500  0.877350  1.0  0.1384
  C  C358  1  0.848600  0.434800  0.860680  1.0  -0.1091
  C  C359  1  0.803000  0.424500  0.873700  1.0  -0.1217
  C  C360  1  0.757800  0.439300  0.856180  1.0  0.4017
  C  C361  1  0.927500  0.549700  0.606070  1.0  0.1353
  C  C362  1  0.910100  0.643100  0.602540  1.0  -0.1114
  C  C363  1  0.931100  0.526300  0.556360  1.0  0.1264
  C  C364  1  0.914400  0.620400  0.551370  1.0  -0.124
  C  C365  1  0.903000  0.679500  0.574800  1.0  -0.1261
  C  C366  1  0.886800  0.781500  0.569850  1.0  0.4335
  C  C367  1  0.947900  0.977300  0.471350  1.0  0.1291
  C  C368  1  0.932700  0.926400  0.495280  1.0  -0.1287
  C  C369  1  0.909500  0.116300  0.487800  1.0  0.1404
  C  C370  1  0.892300  0.068900  0.512410  1.0  -0.1306
  C  C371  1  0.903900  0.971200  0.516270  1.0  -0.1153
  C  C372  1  0.887300  0.918000  0.542710  1.0  0.346
  C  C373  1  0.809200  0.123900  0.634260  1.0  0.135
  C  C374  1  0.829700  0.074100  0.611190  1.0  -0.1204
  C  C375  1  0.787400  0.980300  0.656550  1.0  0.1503
  C  C376  1  0.808100  0.926100  0.634450  1.0  -0.1366
  C  C377  1  0.829600  0.973400  0.611220  1.0  -0.1276
  C  C378  1  0.853100  0.919100  0.587210  1.0  0.3978
  C  C379  1  0.722900  0.044700  0.741050  1.0  0.133
  C  C380  1  0.726600  0.009700  0.769280  1.0  -0.1461
  C  C381  1  0.806000  0.067100  0.737730  1.0  0.14
  C  C382  1  0.812700  0.032000  0.765880  1.0  -0.1133
  C  C383  1  0.772400  0.005200  0.782120  1.0  -0.1078
  C  C384  1  0.777500  0.974400  0.812880  1.0  0.3981
  C  C385  1  0.959500  0.910900  0.862170  1.0  0.149
  C  C386  1  0.914800  0.928600  0.848740  1.0  -0.1433
  C  C387  1  0.923600  0.900000  0.907020  1.0  0.1314
  C  C388  1  0.877500  0.914200  0.895380  1.0  -0.1427
  C  C389  1  0.872600  0.928500  0.865650  1.0  -0.104
  C  C390  1  0.824100  0.940800  0.851980  1.0  0.3972
  C  C391  1  0.656600  0.883000  0.917710  1.0  0.1387
  C  C392  1  0.699400  0.898800  0.902770  1.0  -0.1412
  C  C393  1  0.610300  0.919500  0.877350  1.0  0.1384
  C  C394  1  0.651400  0.934800  0.860680  1.0  -0.1086
  C  C395  1  0.697000  0.924500  0.873700  1.0  -0.1211
  C  C396  1  0.742200  0.939300  0.856180  1.0  0.4022
  C  C397  1  0.572500  0.450300  0.106070  1.0  0.1342
  C  C398  1  0.589900  0.356900  0.102540  1.0  -0.1107
  C  C399  1  0.568900  0.473700  0.056360  1.0  0.1257
  C  C400  1  0.585600  0.379600  0.051370  1.0  -0.1248
  C  C401  1  0.597000  0.320500  0.074800  1.0  -0.1254
  C  C402  1  0.613200  0.218500  0.069850  1.0  0.4339
  C  C403  1  0.552100  0.022700  0.971350  1.0  0.1297
  C  C404  1  0.567300  0.073600  0.995280  1.0  -0.1289
  C  C405  1  0.590500  0.883700  0.987800  1.0  0.1408
  C  C406  1  0.607700  0.931100  0.012410  1.0  -0.1291
  C  C407  1  0.596100  0.028800  0.016270  1.0  -0.1168
  C  C408  1  0.612700  0.082000  0.042710  1.0  0.3459
  C  C409  1  0.690800  0.876100  0.134260  1.0  0.1346
  C  C410  1  0.670300  0.925900  0.111190  1.0  -0.1213
  C  C411  1  0.712600  0.019700  0.156550  1.0  0.1501
  C  C412  1  0.691900  0.073900  0.134450  1.0  -0.1388
  C  C413  1  0.670400  0.026600  0.111220  1.0  -0.1267
  C  C414  1  0.646900  0.080900  0.087210  1.0  0.3974
  C  C415  1  0.777100  0.955300  0.241050  1.0  0.1326
  C  C416  1  0.773400  0.990300  0.269280  1.0  -0.1452
  C  C417  1  0.694000  0.932900  0.237730  1.0  0.1409
  C  C418  1  0.687300  0.968000  0.265880  1.0  -0.1158
  C  C419  1  0.727600  0.994800  0.282120  1.0  -0.1075
  C  C420  1  0.722500  0.025600  0.312880  1.0  0.3982
  C  C421  1  0.540500  0.089100  0.362170  1.0  0.1499
  C  C422  1  0.585200  0.071400  0.348740  1.0  -0.1429
  C  C423  1  0.576400  0.100000  0.407020  1.0  0.1305
  C  C424  1  0.622500  0.085800  0.395380  1.0  -0.1405
  C  C425  1  0.627400  0.071500  0.365650  1.0  -0.1041
  C  C426  1  0.675900  0.059200  0.351980  1.0  0.397
  C  C427  1  0.843400  0.117000  0.417710  1.0  0.139
  C  C428  1  0.800600  0.101200  0.402770  1.0  -0.1429
  C  C429  1  0.889700  0.080500  0.377350  1.0  0.1384
  C  C430  1  0.848600  0.065200  0.360680  1.0  -0.1091
  C  C431  1  0.803000  0.075500  0.373700  1.0  -0.1217
  C  C432  1  0.757800  0.060700  0.356180  1.0  0.4018
  C  C433  1  0.072500  0.049700  0.893930  1.0  0.135
  C  C434  1  0.089900  0.143100  0.897460  1.0  -0.1111
  C  C435  1  0.068900  0.026300  0.943640  1.0  0.1258
  C  C436  1  0.085600  0.120400  0.948630  1.0  -0.126
  C  C437  1  0.097000  0.179500  0.925200  1.0  -0.1264
  C  C438  1  0.113200  0.281500  0.930150  1.0  0.4332
  C  C439  1  0.052100  0.477300  0.028650  1.0  0.1285
  C  C440  1  0.067300  0.426400  0.004720  1.0  -0.129
  C  C441  1  0.090500  0.616300  0.012200  1.0  0.1409
  C  C442  1  0.107700  0.568900  0.987590  1.0  -0.1295
  C  C443  1  0.096100  0.471200  0.983730  1.0  -0.115
  C  C444  1  0.112700  0.418000  0.957290  1.0  0.3462
  C  C445  1  0.190800  0.623900  0.865740  1.0  0.1355
  C  C446  1  0.170300  0.574100  0.888810  1.0  -0.122
  C  C447  1  0.212600  0.480300  0.843450  1.0  0.1496
  C  C448  1  0.191900  0.426100  0.865550  1.0  -0.138
  C  C449  1  0.170400  0.473400  0.888780  1.0  -0.1266
  C  C450  1  0.146900  0.419100  0.912790  1.0  0.3975
  C  C451  1  0.277100  0.544700  0.758950  1.0  0.1332
  C  C452  1  0.273400  0.509700  0.730720  1.0  -0.1452
  C  C453  1  0.194000  0.567100  0.762270  1.0  0.1413
  C  C454  1  0.187300  0.532000  0.734120  1.0  -0.1147
  C  C455  1  0.227600  0.505200  0.717880  1.0  -0.1078
  C  C456  1  0.222500  0.474400  0.687120  1.0  0.399
  C  C457  1  0.040500  0.410900  0.637830  1.0  0.1502
  C  C458  1  0.085200  0.428600  0.651260  1.0  -0.1467
  C  C459  1  0.076400  0.400000  0.592980  1.0  0.1326
  C  C460  1  0.122500  0.414200  0.604620  1.0  -0.1412
  C  C461  1  0.127400  0.428500  0.634350  1.0  -0.1043
  C  C462  1  0.175900  0.440800  0.648020  1.0  0.3969
  C  C463  1  0.343400  0.383000  0.582290  1.0  0.1391
  C  C464  1  0.300600  0.398800  0.597230  1.0  -0.1433
  C  C465  1  0.389700  0.419500  0.622650  1.0  0.1394
  C  C466  1  0.348600  0.434800  0.639320  1.0  -0.1086
  C  C467  1  0.303000  0.424500  0.626300  1.0  -0.1214
  C  C468  1  0.257800  0.439300  0.643820  1.0  0.4015
  C  C469  1  0.427500  0.950300  0.393930  1.0  0.1353
  C  C470  1  0.410100  0.856900  0.397460  1.0  -0.11
  C  C471  1  0.431100  0.973700  0.443640  1.0  0.1251
  C  C472  1  0.414400  0.879600  0.448630  1.0  -0.1266
  C  C473  1  0.403000  0.820500  0.425200  1.0  -0.1257
  C  C474  1  0.386800  0.718500  0.430150  1.0  0.4348
  C  C475  1  0.447900  0.522700  0.528650  1.0  0.1296
  C  C476  1  0.432700  0.573600  0.504720  1.0  -0.1285
  C  C477  1  0.409500  0.383700  0.512200  1.0  0.14
  C  C478  1  0.392300  0.431100  0.487590  1.0  -0.1302
  C  C479  1  0.403900  0.528800  0.483730  1.0  -0.1153
  C  C480  1  0.387300  0.582000  0.457290  1.0  0.3465
  C  C481  1  0.309200  0.376100  0.365740  1.0  0.1343
  C  C482  1  0.329700  0.425900  0.388810  1.0  -0.1212
  C  C483  1  0.287400  0.519700  0.343450  1.0  0.1492
  C  C484  1  0.308100  0.573900  0.365550  1.0  -0.1382
  C  C485  1  0.329600  0.526600  0.388780  1.0  -0.128
  C  C486  1  0.353100  0.580900  0.412790  1.0  0.3975
  C  C487  1  0.222900  0.455300  0.258950  1.0  0.134
  C  C488  1  0.226600  0.490300  0.230720  1.0  -0.1459
  C  C489  1  0.306000  0.432900  0.262270  1.0  0.1411
  C  C490  1  0.312700  0.468000  0.234120  1.0  -0.1132
  C  C491  1  0.272400  0.494800  0.217880  1.0  -0.107
  C  C492  1  0.277500  0.525600  0.187120  1.0  0.3987
  C  C493  1  0.459500  0.589100  0.137830  1.0  0.1499
  C  C494  1  0.414800  0.571400  0.151260  1.0  -0.146
  C  C495  1  0.423600  0.600000  0.092980  1.0  0.1334
  C  C496  1  0.377500  0.585800  0.104620  1.0  -0.1414
  C  C497  1  0.372600  0.571500  0.134350  1.0  -0.1042
  C  C498  1  0.324100  0.559200  0.148020  1.0  0.3973
  C  C499  1  0.156600  0.617000  0.082290  1.0  0.139
  C  C500  1  0.199400  0.601200  0.097230  1.0  -0.1421
  C  C501  1  0.110300  0.580500  0.122650  1.0  0.1385
  C  C502  1  0.151400  0.565200  0.139320  1.0  -0.1089
  C  C503  1  0.197000  0.575500  0.126300  1.0  -0.1213
  C  C504  1  0.242200  0.560700  0.143820  1.0  0.4021
  I  I505  1  0.337270  0.828870  0.322770  1.0  -0.3465
  I  I506  1  0.194740  0.689530  0.304060  1.0  -0.3936
  I  I507  1  0.077700  0.725490  0.369020  1.0  -0.3139
  I  I508  1  0.014940  0.721110  0.458690  1.0  -0.3807
  I  I509  1  0.048890  0.676610  0.564240  1.0  -0.38
  I  I510  1  0.982320  0.955440  0.598310  1.0  -0.4018
  I  I511  1  0.162730  0.171130  0.822770  1.0  -0.3462
  I  I512  1  0.305260  0.310470  0.804060  1.0  -0.3923
  I  I513  1  0.422300  0.274510  0.869020  1.0  -0.3139
  I  I514  1  0.485060  0.278890  0.958690  1.0  -0.381
  I  I515  1  0.451110  0.323390  0.064240  1.0  -0.38
  I  I516  1  0.517680  0.044560  0.098310  1.0  -0.4013
  I  I517  1  0.662730  0.328870  0.177230  1.0  -0.3472
  I  I518  1  0.805260  0.189530  0.195940  1.0  -0.3924
  I  I519  1  0.922300  0.225490  0.130980  1.0  -0.3142
  I  I520  1  0.985060  0.221110  0.041310  1.0  -0.3806
  I  I521  1  0.951110  0.176610  0.935760  1.0  -0.3802
  I  I522  1  0.017680  0.455440  0.901690  1.0  -0.4037
  I  I523  1  0.837270  0.671130  0.677230  1.0  -0.3476
  I  I524  1  0.694740  0.810470  0.695940  1.0  -0.3933
  I  I525  1  0.577700  0.774510  0.630980  1.0  -0.3136
  I  I526  1  0.514940  0.778890  0.541310  1.0  -0.3808
  I  I527  1  0.548890  0.823390  0.435760  1.0  -0.3801
  I  I528  1  0.482320  0.544560  0.401690  1.0  -0.4036
  I  I529  1  0.662730  0.171130  0.677230  1.0  -0.3473
  I  I530  1  0.805260  0.310470  0.695940  1.0  -0.3923
  I  I531  1  0.922300  0.274510  0.630980  1.0  -0.3136
  I  I532  1  0.985060  0.278890  0.541310  1.0  -0.3808
  I  I533  1  0.951110  0.323390  0.435760  1.0  -0.3802
  I  I534  1  0.017680  0.044560  0.401690  1.0  -0.4036
  I  I535  1  0.837270  0.828870  0.177230  1.0  -0.3475
  I  I536  1  0.694740  0.689530  0.195940  1.0  -0.3934
  I  I537  1  0.577700  0.725490  0.130980  1.0  -0.3143
  I  I538  1  0.514940  0.721110  0.041310  1.0  -0.3805
  I  I539  1  0.548890  0.676610  0.935760  1.0  -0.38
  I  I540  1  0.482320  0.955440  0.901690  1.0  -0.4036
  I  I541  1  0.337270  0.671130  0.822770  1.0  -0.3466
  I  I542  1  0.194740  0.810470  0.804060  1.0  -0.3935
  I  I543  1  0.077700  0.774510  0.869020  1.0  -0.314
  I  I544  1  0.014940  0.778890  0.958690  1.0  -0.381
  I  I545  1  0.048890  0.823390  0.064240  1.0  -0.3799
  I  I546  1  0.982320  0.544560  0.098310  1.0  -0.4017
  I  I547  1  0.162730  0.328870  0.322770  1.0  -0.3461
  I  I548  1  0.305260  0.189530  0.304060  1.0  -0.3924
  I  I549  1  0.422300  0.225490  0.369020  1.0  -0.3138
  I  I550  1  0.485060  0.221110  0.458690  1.0  -0.3807
  I  I551  1  0.451110  0.176610  0.564240  1.0  -0.3802
  I  I552  1  0.517680  0.455440  0.598310  1.0  -0.4014
  N  N553  1  0.061560  0.507500  0.416820  1.0  -0.2918
  N  N554  1  0.063900  0.928600  0.532800  1.0  -0.3096
  N  N555  1  0.212400  0.922400  0.343290  1.0  -0.3157
  N  N556  1  0.101100  0.176900  0.455370  1.0  -0.3953
  N  N557  1  0.136500  0.031300  0.437270  1.0  -0.4611
  N  N558  1  0.135830  0.174100  0.408260  1.0  -0.4329
  N  N559  1  0.238250  0.924100  0.274320  1.0  -0.3242
  N  N560  1  0.035840  0.103300  0.109470  1.0  -0.2918
  N  N561  1  0.387730  0.107600  0.094340  1.0  -0.353
  N  N562  1  0.177270  0.035500  0.176270  1.0  -0.4778
  N  N563  1  0.214910  0.071800  0.130590  1.0  -0.4828
  N  N564  1  0.264120  0.037900  0.171910  1.0  -0.4621
  N  N565  1  0.438440  0.492500  0.916820  1.0  -0.2904
  N  N566  1  0.436100  0.071400  0.032800  1.0  -0.3109
  N  N567  1  0.287600  0.077600  0.843290  1.0  -0.3151
  N  N568  1  0.398900  0.823100  0.955370  1.0  -0.3932
  N  N569  1  0.363500  0.968700  0.937270  1.0  -0.4617
  N  N570  1  0.364170  0.825900  0.908260  1.0  -0.4341
  N  N571  1  0.261750  0.075900  0.774320  1.0  -0.3257
  N  N572  1  0.464160  0.896700  0.609470  1.0  -0.2899
  N  N573  1  0.112270  0.892400  0.594340  1.0  -0.3509
  N  N574  1  0.322730  0.964500  0.676270  1.0  -0.4775
  N  N575  1  0.285090  0.928200  0.630590  1.0  -0.4833
  N  N576  1  0.235880  0.962100  0.671910  1.0  -0.4619
  N  N577  1  0.938440  0.007500  0.083180  1.0  -0.2925
  N  N578  1  0.936100  0.428600  0.967200  1.0  -0.3116
  N  N579  1  0.787600  0.422400  0.156710  1.0  -0.3148
  N  N580  1  0.898900  0.676900  0.044630  1.0  -0.3965
  N  N581  1  0.863500  0.531300  0.062730  1.0  -0.4611
  N  N582  1  0.864170  0.674100  0.091740  1.0  -0.4344
  N  N583  1  0.761750  0.424100  0.225680  1.0  -0.3256
  N  N584  1  0.964160  0.603300  0.390530  1.0  -0.291
  N  N585  1  0.612270  0.607600  0.405660  1.0  -0.3504
  N  N586  1  0.822730  0.535500  0.323730  1.0  -0.477
  N  N587  1  0.785090  0.571800  0.369410  1.0  -0.4837
  N  N588  1  0.735880  0.537900  0.328090  1.0  -0.4619
  N  N589  1  0.561560  0.992500  0.583180  1.0  -0.2904
  N  N590  1  0.563900  0.571400  0.467200  1.0  -0.3096
  N  N591  1  0.712400  0.577600  0.656710  1.0  -0.3153
  N  N592  1  0.601100  0.323100  0.544630  1.0  -0.3963
  N  N593  1  0.636500  0.468700  0.562730  1.0  -0.4614
  N  N594  1  0.635830  0.325900  0.591740  1.0  -0.4338
  N  N595  1  0.738250  0.575900  0.725680  1.0  -0.3253
  N  N596  1  0.535840  0.396700  0.890530  1.0  -0.2923
  N  N597  1  0.887730  0.392400  0.905660  1.0  -0.3512
  N  N598  1  0.677270  0.464500  0.823730  1.0  -0.4766
  N  N599  1  0.714910  0.428200  0.869410  1.0  -0.4836
  N  N600  1  0.764120  0.462100  0.828090  1.0  -0.4621
  N  N601  1  0.938440  0.492500  0.583180  1.0  -0.2908
  N  N602  1  0.936100  0.071400  0.467200  1.0  -0.3101
  N  N603  1  0.787600  0.077600  0.656710  1.0  -0.3157
  N  N604  1  0.898900  0.823100  0.544630  1.0  -0.3954
  N  N605  1  0.863500  0.968700  0.562730  1.0  -0.4614
  N  N606  1  0.864170  0.825900  0.591740  1.0  -0.4338
  N  N607  1  0.761750  0.075900  0.725680  1.0  -0.3256
  N  N608  1  0.964160  0.896700  0.890530  1.0  -0.29
  N  N609  1  0.612270  0.892400  0.905660  1.0  -0.3505
  N  N610  1  0.822730  0.964500  0.823730  1.0  -0.4767
  N  N611  1  0.785090  0.928200  0.869410  1.0  -0.4836
  N  N612  1  0.735880  0.962100  0.828090  1.0  -0.4616
  N  N613  1  0.561560  0.507500  0.083180  1.0  -0.2922
  N  N614  1  0.563900  0.928600  0.967200  1.0  -0.3114
  N  N615  1  0.712400  0.922400  0.156710  1.0  -0.3142
  N  N616  1  0.601100  0.176900  0.044630  1.0  -0.3967
  N  N617  1  0.636500  0.031300  0.062730  1.0  -0.4611
  N  N618  1  0.635830  0.174100  0.091740  1.0  -0.4344
  N  N619  1  0.738250  0.924100  0.225680  1.0  -0.3249
  N  N620  1  0.535840  0.103300  0.390530  1.0  -0.2929
  N  N621  1  0.887730  0.107600  0.405660  1.0  -0.3516
  N  N622  1  0.677270  0.035500  0.323730  1.0  -0.4769
  N  N623  1  0.714910  0.071800  0.369410  1.0  -0.4837
  N  N624  1  0.764120  0.037900  0.328090  1.0  -0.4623
  N  N625  1  0.061560  0.992500  0.916820  1.0  -0.29
  N  N626  1  0.063900  0.571400  0.032800  1.0  -0.3097
  N  N627  1  0.212400  0.577600  0.843290  1.0  -0.3149
  N  N628  1  0.101100  0.323100  0.955370  1.0  -0.3945
  N  N629  1  0.136500  0.468700  0.937270  1.0  -0.4619
  N  N630  1  0.135830  0.325900  0.908260  1.0  -0.434
  N  N631  1  0.238250  0.575900  0.774320  1.0  -0.3254
  N  N632  1  0.035840  0.396700  0.609470  1.0  -0.2918
  N  N633  1  0.387730  0.392400  0.594340  1.0  -0.3531
  N  N634  1  0.177270  0.464500  0.676270  1.0  -0.478
  N  N635  1  0.214910  0.428200  0.630590  1.0  -0.4832
  N  N636  1  0.264120  0.462100  0.671910  1.0  -0.4622
  N  N637  1  0.438440  0.007500  0.416820  1.0  -0.292
  N  N638  1  0.436100  0.428600  0.532800  1.0  -0.3108
  N  N639  1  0.287600  0.422400  0.343290  1.0  -0.3159
  N  N640  1  0.398900  0.676900  0.455370  1.0  -0.3948
  N  N641  1  0.363500  0.531300  0.437270  1.0  -0.4608
  N  N642  1  0.364170  0.674100  0.408260  1.0  -0.4326
  N  N643  1  0.261750  0.424100  0.274320  1.0  -0.3249
  N  N644  1  0.464160  0.603300  0.109470  1.0  -0.2905
  N  N645  1  0.112270  0.607600  0.094340  1.0  -0.3503
  N  N646  1  0.322730  0.535500  0.176270  1.0  -0.4773
  N  N647  1  0.285090  0.571800  0.130590  1.0  -0.483
  N  N648  1  0.235880  0.537900  0.171910  1.0  -0.4619
