# generated using pymatgen
data_ZnH8C12(IN2)2
_symmetry_space_group_name_H-M   'P 1'
_cell_length_a   13.67500000
_cell_length_b   27.88100000
_cell_length_c   45.71400000
_cell_angle_alpha   90.00000000
_cell_angle_beta   90.00000000
_cell_angle_gamma   90.00000000
_symmetry_Int_Tables_number   1
_chemical_formula_structural   ZnH8C12(IN2)2
_chemical_formula_sum   'Zn24 H192 C288 I48 N96'
_cell_volume   17429.49906495
_cell_formula_units_Z   24
loop_
 _symmetry_equiv_pos_site_id
 _symmetry_equiv_pos_as_xyz
  1  'x, y, z'
loop_
 _atom_site_type_symbol
 _atom_site_label
 _atom_site_symmetry_multiplicity
 _atom_site_fract_x
 _atom_site_fract_y
 _atom_site_fract_z
 _atom_site_occupancy
 _atom_site_charge
  Zn  Zn1  1  0.144800  0.744040  0.188940  1.0  0.8918
  Zn  Zn2  1  0.160890  0.557250  0.929530  1.0  0.8505
  Zn  Zn3  1  0.350310  0.527770  0.087200  1.0  0.8605
  Zn  Zn4  1  0.855200  0.755960  0.688940  1.0  0.8914
  Zn  Zn5  1  0.839110  0.942750  0.429530  1.0  0.8467
  Zn  Zn6  1  0.649690  0.972230  0.587200  1.0  0.8572
  Zn  Zn7  1  0.644800  0.255960  0.311060  1.0  0.8926
  Zn  Zn8  1  0.660890  0.442750  0.570470  1.0  0.8488
  Zn  Zn9  1  0.850310  0.472230  0.412800  1.0  0.8613
  Zn  Zn10  1  0.355200  0.244040  0.811060  1.0  0.8903
  Zn  Zn11  1  0.339110  0.057250  0.070460  1.0  0.8523
  Zn  Zn12  1  0.149690  0.027770  0.912800  1.0  0.8571
  Zn  Zn13  1  0.855200  0.255960  0.811060  1.0  0.8914
  Zn  Zn14  1  0.839110  0.442750  0.070460  1.0  0.8473
  Zn  Zn15  1  0.649690  0.472230  0.912800  1.0  0.8573
  Zn  Zn16  1  0.144800  0.244040  0.311060  1.0  0.8919
  Zn  Zn17  1  0.160890  0.057250  0.570470  1.0  0.8525
  Zn  Zn18  1  0.350310  0.027770  0.412800  1.0  0.8608
  Zn  Zn19  1  0.355200  0.744040  0.688940  1.0  0.8902
  Zn  Zn20  1  0.339110  0.557250  0.429530  1.0  0.8497
  Zn  Zn21  1  0.149690  0.527770  0.587200  1.0  0.8572
  Zn  Zn22  1  0.644800  0.755960  0.188940  1.0  0.8926
  Zn  Zn23  1  0.660890  0.942750  0.929530  1.0  0.8484
  Zn  Zn24  1  0.850310  0.972230  0.087200  1.0  0.8607
  H  H25  1  0.182400  0.688900  0.135800  1.0  0.0927
  H  H26  1  0.100800  0.653500  0.096500  1.0  0.122
  H  H27  1  0.933100  0.718600  0.174500  1.0  0.0875
  H  H28  1  0.845000  0.682900  0.136900  1.0  0.1184
  H  H29  1  0.499200  0.587000  0.119400  1.0  0.0954
  H  H30  1  0.655000  0.617100  0.113600  1.0  0.1254
  H  H31  1  0.500000  0.535700  0.038900  1.0  0.0904
  H  H32  1  0.656400  0.564900  0.030900  1.0  0.1236
  H  H33  1  0.961600  0.537500  0.955400  1.0  0.0811
  H  H34  1  0.867200  0.557800  0.995400  1.0  0.1237
  H  H35  1  0.190800  0.603800  0.988200  1.0  0.0971
  H  H36  1  0.101800  0.627200  0.029000  1.0  0.1172
  H  H37  1  0.845800  0.835700  0.438500  1.0  0.0953
  H  H38  1  0.876700  0.765500  0.413100  1.0  0.1294
  H  H39  1  0.912400  0.913900  0.369700  1.0  0.0963
  H  H40  1  0.939500  0.846100  0.341700  1.0  0.1241
  H  H41  1  0.029500  0.803200  0.232100  1.0  0.0949
  H  H42  1  0.969700  0.795800  0.279600  1.0  0.1168
  H  H43  1  0.083500  0.664300  0.228400  1.0  0.097
  H  H44  1  0.021300  0.653300  0.275300  1.0  0.1163
  H  H45  1  0.893000  0.512700  0.352900  1.0  0.0894
  H  H46  1  0.921200  0.585800  0.330000  1.0  0.1149
  H  H47  1  0.882500  0.575300  0.430000  1.0  0.0928
  H  H48  1  0.906500  0.649700  0.408800  1.0  0.1154
  H  H49  1  0.817600  0.811100  0.635800  1.0  0.0949
  H  H50  1  0.899200  0.846500  0.596500  1.0  0.1216
  H  H51  1  0.066900  0.781400  0.674500  1.0  0.0878
  H  H52  1  0.155000  0.817100  0.636900  1.0  0.1172
  H  H53  1  0.500800  0.913000  0.619400  1.0  0.0956
  H  H54  1  0.345000  0.882900  0.613600  1.0  0.1253
  H  H55  1  0.500000  0.964300  0.538900  1.0  0.0902
  H  H56  1  0.343600  0.935100  0.530900  1.0  0.1235
  H  H57  1  0.038400  0.962500  0.455400  1.0  0.0813
  H  H58  1  0.132800  0.942200  0.495400  1.0  0.1237
  H  H59  1  0.809200  0.896200  0.488200  1.0  0.0961
  H  H60  1  0.898200  0.872800  0.529000  1.0  0.1179
  H  H61  1  0.154200  0.664300  0.938500  1.0  0.0947
  H  H62  1  0.123300  0.734500  0.913100  1.0  0.1293
  H  H63  1  0.087600  0.586100  0.869700  1.0  0.0974
  H  H64  1  0.060500  0.653900  0.841700  1.0  0.1239
  H  H65  1  0.970500  0.696800  0.732100  1.0  0.0959
  H  H66  1  0.030300  0.704200  0.779600  1.0  0.1164
  H  H67  1  0.916500  0.835700  0.728400  1.0  0.0972
  H  H68  1  0.978700  0.846700  0.775300  1.0  0.1163
  H  H69  1  0.107000  0.987300  0.852900  1.0  0.0894
  H  H70  1  0.078800  0.914200  0.830000  1.0  0.1147
  H  H71  1  0.117500  0.924700  0.930000  1.0  0.093
  H  H72  1  0.093500  0.850300  0.908800  1.0  0.1157
  H  H73  1  0.682400  0.311100  0.364200  1.0  0.093
  H  H74  1  0.600800  0.346500  0.403500  1.0  0.1223
  H  H75  1  0.433100  0.281400  0.325500  1.0  0.0878
  H  H76  1  0.345000  0.317100  0.363100  1.0  0.1182
  H  H77  1  0.999200  0.413000  0.380600  1.0  0.0948
  H  H78  1  0.155000  0.382900  0.386400  1.0  0.1254
  H  H79  1  0.000000  0.464300  0.461100  1.0  0.0911
  H  H80  1  0.156400  0.435100  0.469100  1.0  0.1235
  H  H81  1  0.461600  0.462500  0.544600  1.0  0.0811
  H  H82  1  0.367200  0.442200  0.504600  1.0  0.1237
  H  H83  1  0.690800  0.396200  0.511800  1.0  0.0967
  H  H84  1  0.601800  0.372800  0.471000  1.0  0.1182
  H  H85  1  0.345800  0.164300  0.061500  1.0  0.0945
  H  H86  1  0.376700  0.234500  0.086900  1.0  0.1292
  H  H87  1  0.412400  0.086100  0.130300  1.0  0.0978
  H  H88  1  0.439500  0.153900  0.158300  1.0  0.1244
  H  H89  1  0.529500  0.196800  0.267900  1.0  0.0963
  H  H90  1  0.469700  0.204200  0.220400  1.0  0.1164
  H  H91  1  0.583500  0.335700  0.271600  1.0  0.0968
  H  H92  1  0.521300  0.346700  0.224700  1.0  0.1164
  H  H93  1  0.393000  0.487300  0.147100  1.0  0.09
  H  H94  1  0.421200  0.414200  0.170000  1.0  0.1143
  H  H95  1  0.382500  0.424700  0.070000  1.0  0.092
  H  H96  1  0.406500  0.350300  0.091200  1.0  0.1157
  H  H97  1  0.317600  0.188900  0.864200  1.0  0.095
  H  H98  1  0.399200  0.153500  0.903500  1.0  0.1221
  H  H99  1  0.566900  0.218600  0.825500  1.0  0.0875
  H  H100  1  0.655000  0.182900  0.863100  1.0  0.1169
  H  H101  1  0.000800  0.087000  0.880600  1.0  0.0952
  H  H102  1  0.845000  0.117100  0.886400  1.0  0.1253
  H  H103  1  0.000000  0.035700  0.961100  1.0  0.0912
  H  H104  1  0.843600  0.064900  0.969100  1.0  0.1234
  H  H105  1  0.538400  0.037500  0.044600  1.0  0.0812
  H  H106  1  0.632800  0.057800  0.004600  1.0  0.1239
  H  H107  1  0.309200  0.103800  0.011800  1.0  0.0963
  H  H108  1  0.398200  0.127200  0.971000  1.0  0.1184
  H  H109  1  0.654200  0.335700  0.561500  1.0  0.0949
  H  H110  1  0.623300  0.265500  0.586900  1.0  0.129
  H  H111  1  0.587600  0.413900  0.630300  1.0  0.0976
  H  H112  1  0.560500  0.346100  0.658300  1.0  0.1242
  H  H113  1  0.470500  0.303200  0.767900  1.0  0.0948
  H  H114  1  0.530300  0.295800  0.720400  1.0  0.1169
  H  H115  1  0.416500  0.164300  0.771600  1.0  0.0971
  H  H116  1  0.478700  0.153300  0.724700  1.0  0.1161
  H  H117  1  0.607000  0.012700  0.647100  1.0  0.0901
  H  H118  1  0.578800  0.085800  0.670000  1.0  0.1141
  H  H119  1  0.617500  0.075300  0.570000  1.0  0.0916
  H  H120  1  0.593500  0.149700  0.591200  1.0  0.1158
  H  H121  1  0.817600  0.311100  0.864200  1.0  0.0949
  H  H122  1  0.899200  0.346500  0.903500  1.0  0.122
  H  H123  1  0.066900  0.281400  0.825500  1.0  0.0877
  H  H124  1  0.155000  0.317100  0.863100  1.0  0.117
  H  H125  1  0.500800  0.413000  0.880600  1.0  0.0952
  H  H126  1  0.345000  0.382900  0.886400  1.0  0.1252
  H  H127  1  0.500000  0.464300  0.961100  1.0  0.0909
  H  H128  1  0.343600  0.435100  0.969100  1.0  0.1232
  H  H129  1  0.038400  0.462500  0.044600  1.0  0.0809
  H  H130  1  0.132800  0.442200  0.004600  1.0  0.1238
  H  H131  1  0.809200  0.396200  0.011800  1.0  0.0962
  H  H132  1  0.898200  0.372800  0.971000  1.0  0.1182
  H  H133  1  0.154200  0.164300  0.561500  1.0  0.0945
  H  H134  1  0.123300  0.234500  0.586900  1.0  0.1291
  H  H135  1  0.087600  0.086100  0.630300  1.0  0.098
  H  H136  1  0.060500  0.153900  0.658300  1.0  0.1246
  H  H137  1  0.970500  0.196800  0.767900  1.0  0.0962
  H  H138  1  0.030300  0.204200  0.720400  1.0  0.1165
  H  H139  1  0.916500  0.335700  0.771600  1.0  0.097
  H  H140  1  0.978700  0.346700  0.724700  1.0  0.1163
  H  H141  1  0.107000  0.487300  0.647100  1.0  0.0901
  H  H142  1  0.078800  0.414200  0.670000  1.0  0.1139
  H  H143  1  0.117500  0.424700  0.570000  1.0  0.092
  H  H144  1  0.093500  0.350300  0.591200  1.0  0.1157
  H  H145  1  0.182400  0.188900  0.364200  1.0  0.0931
  H  H146  1  0.100800  0.153500  0.403500  1.0  0.1224
  H  H147  1  0.933100  0.218600  0.325500  1.0  0.0875
  H  H148  1  0.845000  0.182900  0.363100  1.0  0.1184
  H  H149  1  0.499200  0.087000  0.380600  1.0  0.0948
  H  H150  1  0.655000  0.117100  0.386400  1.0  0.1252
  H  H151  1  0.500000  0.035700  0.461100  1.0  0.0913
  H  H152  1  0.656400  0.064900  0.469100  1.0  0.1236
  H  H153  1  0.961600  0.037500  0.544600  1.0  0.0812
  H  H154  1  0.867200  0.057800  0.504600  1.0  0.1238
  H  H155  1  0.190800  0.103800  0.511800  1.0  0.0971
  H  H156  1  0.101800  0.127200  0.471000  1.0  0.1183
  H  H157  1  0.845800  0.335700  0.061500  1.0  0.0949
  H  H158  1  0.876700  0.265500  0.086900  1.0  0.1293
  H  H159  1  0.912400  0.413900  0.130300  1.0  0.0971
  H  H160  1  0.939500  0.346100  0.158300  1.0  0.1243
  H  H161  1  0.029500  0.303200  0.267900  1.0  0.0949
  H  H162  1  0.969700  0.295800  0.220400  1.0  0.117
  H  H163  1  0.083500  0.164300  0.271600  1.0  0.0971
  H  H164  1  0.021300  0.153300  0.224700  1.0  0.1162
  H  H165  1  0.893000  0.012700  0.147100  1.0  0.0901
  H  H166  1  0.921200  0.085800  0.170000  1.0  0.1144
  H  H167  1  0.882500  0.075300  0.070000  1.0  0.0916
  H  H168  1  0.906500  0.149700  0.091200  1.0  0.1157
  H  H169  1  0.317600  0.688900  0.635800  1.0  0.0949
  H  H170  1  0.399200  0.653500  0.596500  1.0  0.1216
  H  H171  1  0.566900  0.718600  0.674500  1.0  0.0872
  H  H172  1  0.655000  0.682900  0.636900  1.0  0.117
  H  H173  1  0.000800  0.587000  0.619400  1.0  0.0953
  H  H174  1  0.845000  0.617100  0.613600  1.0  0.1255
  H  H175  1  0.000000  0.535700  0.538900  1.0  0.0906
  H  H176  1  0.843600  0.564900  0.530900  1.0  0.1233
  H  H177  1  0.538400  0.537500  0.455400  1.0  0.0816
  H  H178  1  0.632800  0.557800  0.495400  1.0  0.1237
  H  H179  1  0.309200  0.603800  0.488200  1.0  0.0961
  H  H180  1  0.398200  0.627200  0.529000  1.0  0.1175
  H  H181  1  0.654200  0.835700  0.938500  1.0  0.0951
  H  H182  1  0.623300  0.765500  0.913100  1.0  0.1293
  H  H183  1  0.587600  0.913900  0.869700  1.0  0.0968
  H  H184  1  0.560500  0.846100  0.841700  1.0  0.1241
  H  H185  1  0.470500  0.803200  0.732100  1.0  0.0948
  H  H186  1  0.530300  0.795800  0.779600  1.0  0.1168
  H  H187  1  0.416500  0.664300  0.728400  1.0  0.0968
  H  H188  1  0.478700  0.653300  0.775300  1.0  0.1162
  H  H189  1  0.607000  0.512700  0.852900  1.0  0.0893
  H  H190  1  0.578800  0.585800  0.830000  1.0  0.1149
  H  H191  1  0.617500  0.575300  0.930000  1.0  0.0927
  H  H192  1  0.593500  0.649700  0.908800  1.0  0.1154
  H  H193  1  0.682400  0.811100  0.135800  1.0  0.0928
  H  H194  1  0.600800  0.846500  0.096500  1.0  0.1218
  H  H195  1  0.433100  0.781400  0.174500  1.0  0.0883
  H  H196  1  0.345000  0.817100  0.136900  1.0  0.1183
  H  H197  1  0.999200  0.913000  0.119400  1.0  0.0957
  H  H198  1  0.155000  0.882900  0.113600  1.0  0.1253
  H  H199  1  0.000000  0.964300  0.038900  1.0  0.0902
  H  H200  1  0.156400  0.935100  0.030900  1.0  0.1237
  H  H201  1  0.461600  0.962500  0.955400  1.0  0.0811
  H  H202  1  0.367200  0.942200  0.995400  1.0  0.1237
  H  H203  1  0.690800  0.896200  0.988200  1.0  0.0969
  H  H204  1  0.601800  0.872800  0.029000  1.0  0.1175
  H  H205  1  0.345800  0.664300  0.438500  1.0  0.0948
  H  H206  1  0.376700  0.734500  0.413100  1.0  0.1293
  H  H207  1  0.412400  0.586100  0.369700  1.0  0.0972
  H  H208  1  0.439500  0.653900  0.341700  1.0  0.1238
  H  H209  1  0.529500  0.696800  0.232100  1.0  0.096
  H  H210  1  0.469700  0.704200  0.279600  1.0  0.1164
  H  H211  1  0.583500  0.835700  0.228400  1.0  0.0971
  H  H212  1  0.521300  0.846700  0.275300  1.0  0.1164
  H  H213  1  0.393000  0.987300  0.352900  1.0  0.0895
  H  H214  1  0.421200  0.914200  0.330000  1.0  0.1147
  H  H215  1  0.382500  0.924700  0.430000  1.0  0.0929
  H  H216  1  0.406500  0.850300  0.408800  1.0  0.1158
  C  C217  1  0.113000  0.688300  0.135700  1.0  0.1402
  C  C218  1  0.064800  0.666770  0.112290  1.0  -0.0901
  C  C219  1  0.967400  0.705400  0.158300  1.0  0.1445
  C  C220  1  0.914300  0.684230  0.136010  1.0  -0.1381
  C  C221  1  0.964300  0.665010  0.112430  1.0  -0.1279
  C  C222  1  0.911600  0.642200  0.087620  1.0  0.4024
  C  C223  1  0.532100  0.582200  0.101300  1.0  0.136
  C  C224  1  0.624700  0.600200  0.098070  1.0  -0.1305
  C  C225  1  0.532600  0.552250  0.054210  1.0  0.1401
  C  C226  1  0.625500  0.569400  0.049290  1.0  -0.1359
  C  C227  1  0.673600  0.593460  0.071760  1.0  -0.1168
  C  C228  1  0.776600  0.609380  0.068280  1.0  0.4093
  C  C229  1  0.990000  0.556250  0.970490  1.0  0.1293
  C  C230  1  0.933200  0.568270  0.994190  1.0  -0.1405
  C  C231  1  0.123700  0.595100  0.989520  1.0  0.1452
  C  C232  1  0.071200  0.609000  0.013990  1.0  -0.1296
  C  C233  1  0.974000  0.596140  0.016420  1.0  -0.1032
  C  C234  1  0.916200  0.609810  0.042680  1.0  0.3552
  C  C235  1  0.865800  0.837600  0.418580  1.0  0.1413
  C  C236  1  0.882800  0.795610  0.403570  1.0  -0.1414
  C  C237  1  0.903900  0.883270  0.378390  1.0  0.1358
  C  C238  1  0.920500  0.843120  0.361570  1.0  -0.1363
  C  C239  1  0.909000  0.798180  0.374270  1.0  -0.1125
  C  C240  1  0.923900  0.753960  0.356780  1.0  0.4061
  C  C241  1  0.029400  0.772560  0.241270  1.0  0.1287
  C  C242  1  0.993200  0.768380  0.269460  1.0  -0.1354
  C  C243  1  0.060500  0.691280  0.239040  1.0  0.129
  C  C244  1  0.024000  0.684530  0.267010  1.0  -0.1339
  C  C245  1  0.991800  0.723790  0.282680  1.0  -0.1056
  C  C246  1  0.960500  0.719010  0.313720  1.0  0.3822
  C  C247  1  0.896000  0.540950  0.364460  1.0  0.1291
  C  C248  1  0.912000  0.584520  0.350570  1.0  -0.1445
  C  C249  1  0.889300  0.577370  0.409400  1.0  0.1319
  C  C250  1  0.903800  0.621880  0.396810  1.0  -0.1018
  C  C251  1  0.914200  0.625940  0.367150  1.0  -0.0699
  C  C252  1  0.926600  0.673290  0.353180  1.0  0.4093
  C  C253  1  0.887000  0.811700  0.635700  1.0  0.1421
  C  C254  1  0.935200  0.833230  0.612290  1.0  -0.0917
  C  C255  1  0.032600  0.794600  0.658300  1.0  0.1447
  C  C256  1  0.085700  0.815770  0.636010  1.0  -0.1379
  C  C257  1  0.035700  0.834990  0.612430  1.0  -0.1271
  C  C258  1  0.088400  0.857800  0.587620  1.0  0.4017
  C  C259  1  0.467900  0.917800  0.601300  1.0  0.1364
  C  C260  1  0.375300  0.899800  0.598070  1.0  -0.1304
  C  C261  1  0.467400  0.947750  0.554210  1.0  0.1393
  C  C262  1  0.374500  0.930600  0.549290  1.0  -0.1362
  C  C263  1  0.326400  0.906540  0.571760  1.0  -0.1184
  C  C264  1  0.223400  0.890620  0.568280  1.0  0.4093
  C  C265  1  0.010000  0.943750  0.470490  1.0  0.1284
  C  C266  1  0.066800  0.931730  0.494190  1.0  -0.1369
  C  C267  1  0.876300  0.904900  0.489520  1.0  0.145
  C  C268  1  0.928800  0.891000  0.513990  1.0  -0.1293
  C  C269  1  0.026000  0.903860  0.516420  1.0  -0.1027
  C  C270  1  0.083800  0.890190  0.542680  1.0  0.355
  C  C271  1  0.134200  0.662400  0.918580  1.0  0.1413
  C  C272  1  0.117200  0.704390  0.903570  1.0  -0.1418
  C  C273  1  0.096100  0.616730  0.878390  1.0  0.1351
  C  C274  1  0.079500  0.656880  0.861570  1.0  -0.1353
  C  C275  1  0.091000  0.701820  0.874270  1.0  -0.1114
  C  C276  1  0.076100  0.746040  0.856780  1.0  0.4066
  C  C277  1  0.970600  0.727440  0.741270  1.0  0.128
  C  C278  1  0.006800  0.731620  0.769460  1.0  -0.1358
  C  C279  1  0.939500  0.808720  0.739040  1.0  0.1301
  C  C280  1  0.976000  0.815470  0.767010  1.0  -0.1321
  C  C281  1  0.008200  0.776210  0.782680  1.0  -0.1054
  C  C282  1  0.039500  0.780990  0.813720  1.0  0.3821
  C  C283  1  0.104000  0.959050  0.864460  1.0  0.1288
  C  C284  1  0.088000  0.915480  0.850570  1.0  -0.1453
  C  C285  1  0.110700  0.922630  0.909400  1.0  0.1319
  C  C286  1  0.096200  0.878120  0.896810  1.0  -0.1018
  C  C287  1  0.085800  0.874060  0.867150  1.0  -0.0696
  C  C288  1  0.073400  0.826710  0.853180  1.0  0.4094
  C  C289  1  0.613000  0.311700  0.364300  1.0  0.1406
  C  C290  1  0.564800  0.333230  0.387710  1.0  -0.0906
  C  C291  1  0.467400  0.294600  0.341700  1.0  0.145
  C  C292  1  0.414300  0.315770  0.363990  1.0  -0.1381
  C  C293  1  0.464300  0.334990  0.387570  1.0  -0.127
  C  C294  1  0.411600  0.357800  0.412380  1.0  0.4017
  C  C295  1  0.032100  0.417800  0.398700  1.0  0.1361
  C  C296  1  0.124700  0.399800  0.401930  1.0  -0.1301
  C  C297  1  0.032600  0.447750  0.445790  1.0  0.1398
  C  C298  1  0.125500  0.430600  0.450710  1.0  -0.137
  C  C299  1  0.173600  0.406540  0.428240  1.0  -0.1181
  C  C300  1  0.276600  0.390620  0.431720  1.0  0.4093
  C  C301  1  0.490000  0.443750  0.529510  1.0  0.1281
  C  C302  1  0.433200  0.431730  0.505810  1.0  -0.1408
  C  C303  1  0.623700  0.404900  0.510480  1.0  0.145
  C  C304  1  0.571200  0.391000  0.486010  1.0  -0.1291
  C  C305  1  0.474000  0.403860  0.483580  1.0  -0.1034
  C  C306  1  0.416200  0.390190  0.457320  1.0  0.3558
  C  C307  1  0.365800  0.162400  0.081420  1.0  0.1417
  C  C308  1  0.382800  0.204390  0.096430  1.0  -0.1423
  C  C309  1  0.403900  0.116730  0.121610  1.0  0.1355
  C  C310  1  0.420500  0.156880  0.138430  1.0  -0.1358
  C  C311  1  0.409000  0.201820  0.125730  1.0  -0.1116
  C  C312  1  0.423900  0.246040  0.143220  1.0  0.4063
  C  C313  1  0.529400  0.227440  0.258730  1.0  0.128
  C  C314  1  0.493200  0.231620  0.230540  1.0  -0.1349
  C  C315  1  0.560500  0.308720  0.260960  1.0  0.13
  C  C316  1  0.524000  0.315470  0.232990  1.0  -0.1322
  C  C317  1  0.491800  0.276210  0.217320  1.0  -0.1053
  C  C318  1  0.460500  0.280990  0.186280  1.0  0.3823
  C  C319  1  0.396000  0.459050  0.135540  1.0  0.1291
  C  C320  1  0.412000  0.415480  0.149430  1.0  -0.1461
  C  C321  1  0.389300  0.422630  0.090600  1.0  0.1335
  C  C322  1  0.403800  0.378120  0.103190  1.0  -0.1011
  C  C323  1  0.414200  0.374060  0.132850  1.0  -0.0687
  C  C324  1  0.426600  0.326710  0.146820  1.0  0.4091
  C  C325  1  0.387000  0.188300  0.864300  1.0  0.1419
  C  C326  1  0.435200  0.166770  0.887710  1.0  -0.0921
  C  C327  1  0.532600  0.205400  0.841700  1.0  0.145
  C  C328  1  0.585700  0.184230  0.863990  1.0  -0.1387
  C  C329  1  0.535700  0.165010  0.887570  1.0  -0.127
  C  C330  1  0.588400  0.142200  0.912380  1.0  0.4015
  C  C331  1  0.967900  0.082200  0.898700  1.0  0.1355
  C  C332  1  0.875300  0.100200  0.901930  1.0  -0.1311
  C  C333  1  0.967400  0.052250  0.945790  1.0  0.1399
  C  C334  1  0.874500  0.069400  0.950710  1.0  -0.1371
  C  C335  1  0.826400  0.093460  0.928240  1.0  -0.1172
  C  C336  1  0.723400  0.109380  0.931720  1.0  0.4093
  C  C337  1  0.510000  0.056250  0.029510  1.0  0.1284
  C  C338  1  0.566800  0.068270  0.005810  1.0  -0.1388
  C  C339  1  0.376300  0.095100  0.010480  1.0  0.1452
  C  C340  1  0.428800  0.109000  0.986010  1.0  -0.1294
  C  C341  1  0.526000  0.096140  0.983580  1.0  -0.1024
  C  C342  1  0.583800  0.109810  0.957320  1.0  0.3558
  C  C343  1  0.634200  0.337600  0.581420  1.0  0.1415
  C  C344  1  0.617200  0.295610  0.596430  1.0  -0.1418
  C  C345  1  0.596100  0.383270  0.621610  1.0  0.136
  C  C346  1  0.579500  0.343120  0.638430  1.0  -0.136
  C  C347  1  0.591000  0.298180  0.625730  1.0  -0.1125
  C  C348  1  0.576100  0.253960  0.643220  1.0  0.4057
  C  C349  1  0.470600  0.272560  0.758730  1.0  0.129
  C  C350  1  0.506800  0.268380  0.730540  1.0  -0.1338
  C  C351  1  0.439500  0.191280  0.760960  1.0  0.1305
  C  C352  1  0.476000  0.184530  0.732990  1.0  -0.1323
  C  C353  1  0.508200  0.223790  0.717320  1.0  -0.1052
  C  C354  1  0.539500  0.219010  0.686280  1.0  0.3823
  C  C355  1  0.604000  0.040950  0.635540  1.0  0.1294
  C  C356  1  0.588000  0.084520  0.649430  1.0  -0.1464
  C  C357  1  0.610700  0.077370  0.590600  1.0  0.132
  C  C358  1  0.596200  0.121880  0.603190  1.0  -0.101
  C  C359  1  0.585800  0.125940  0.632850  1.0  -0.0699
  C  C360  1  0.573400  0.173290  0.646820  1.0  0.4095
  C  C361  1  0.887000  0.311700  0.864300  1.0  0.1421
  C  C362  1  0.935200  0.333230  0.887710  1.0  -0.0922
  C  C363  1  0.032600  0.294600  0.841700  1.0  0.1445
  C  C364  1  0.085700  0.315770  0.863990  1.0  -0.1383
  C  C365  1  0.035700  0.334990  0.887570  1.0  -0.1266
  C  C366  1  0.088400  0.357800  0.912380  1.0  0.4013
  C  C367  1  0.467900  0.417800  0.898700  1.0  0.1351
  C  C368  1  0.375300  0.399800  0.901930  1.0  -0.1311
  C  C369  1  0.467400  0.447750  0.945790  1.0  0.1396
  C  C370  1  0.374500  0.430600  0.950710  1.0  -0.137
  C  C371  1  0.326400  0.406540  0.928240  1.0  -0.1184
  C  C372  1  0.223400  0.390620  0.931720  1.0  0.4094
  C  C373  1  0.010000  0.443750  0.029510  1.0  0.1284
  C  C374  1  0.066800  0.431730  0.005810  1.0  -0.1379
  C  C375  1  0.876300  0.404900  0.010480  1.0  0.145
  C  C376  1  0.928800  0.391000  0.986010  1.0  -0.129
  C  C377  1  0.026000  0.403860  0.983580  1.0  -0.1022
  C  C378  1  0.083800  0.390190  0.957320  1.0  0.3556
  C  C379  1  0.134200  0.162400  0.581420  1.0  0.1411
  C  C380  1  0.117200  0.204390  0.596430  1.0  -0.1431
  C  C381  1  0.096100  0.116730  0.621610  1.0  0.1354
  C  C382  1  0.079500  0.156880  0.638430  1.0  -0.1357
  C  C383  1  0.091000  0.201820  0.625730  1.0  -0.1118
  C  C384  1  0.076100  0.246040  0.643220  1.0  0.4063
  C  C385  1  0.970600  0.227440  0.758730  1.0  0.1285
  C  C386  1  0.006800  0.231620  0.730540  1.0  -0.1348
  C  C387  1  0.939500  0.308720  0.760960  1.0  0.1295
  C  C388  1  0.976000  0.315470  0.732990  1.0  -0.1319
  C  C389  1  0.008200  0.276210  0.717320  1.0  -0.105
  C  C390  1  0.039500  0.280990  0.686280  1.0  0.3823
  C  C391  1  0.104000  0.459050  0.635540  1.0  0.1293
  C  C392  1  0.088000  0.415480  0.649430  1.0  -0.1463
  C  C393  1  0.110700  0.422630  0.590600  1.0  0.1324
  C  C394  1  0.096200  0.378120  0.603190  1.0  -0.1018
  C  C395  1  0.085800  0.374060  0.632850  1.0  -0.069
  C  C396  1  0.073400  0.326710  0.646820  1.0  0.4094
  C  C397  1  0.113000  0.188300  0.364300  1.0  0.1405
  C  C398  1  0.064800  0.166770  0.387710  1.0  -0.0902
  C  C399  1  0.967400  0.205400  0.341700  1.0  0.1456
  C  C400  1  0.914300  0.184230  0.363990  1.0  -0.1385
  C  C401  1  0.964300  0.165010  0.387570  1.0  -0.1273
  C  C402  1  0.911600  0.142200  0.412380  1.0  0.4019
  C  C403  1  0.532100  0.082200  0.398700  1.0  0.1365
  C  C404  1  0.624700  0.100200  0.401930  1.0  -0.1304
  C  C405  1  0.532600  0.052250  0.445790  1.0  0.1402
  C  C406  1  0.625500  0.069400  0.450710  1.0  -0.1371
  C  C407  1  0.673600  0.093460  0.428240  1.0  -0.117
  C  C408  1  0.776600  0.109380  0.431720  1.0  0.4093
  C  C409  1  0.990000  0.056250  0.529510  1.0  0.128
  C  C410  1  0.933200  0.068270  0.505810  1.0  -0.1415
  C  C411  1  0.123700  0.095100  0.510480  1.0  0.1452
  C  C412  1  0.071200  0.109000  0.486010  1.0  -0.1289
  C  C413  1  0.974000  0.096140  0.483580  1.0  -0.1033
  C  C414  1  0.916200  0.109810  0.457320  1.0  0.356
  C  C415  1  0.865800  0.337600  0.081420  1.0  0.1419
  C  C416  1  0.882800  0.295610  0.096430  1.0  -0.1404
  C  C417  1  0.903900  0.383270  0.121610  1.0  0.1363
  C  C418  1  0.920500  0.343120  0.138430  1.0  -0.136
  C  C419  1  0.909000  0.298180  0.125730  1.0  -0.1123
  C  C420  1  0.923900  0.253960  0.143220  1.0  0.4058
  C  C421  1  0.029400  0.272560  0.258730  1.0  0.1288
  C  C422  1  0.993200  0.268380  0.230540  1.0  -0.1346
  C  C423  1  0.060500  0.191280  0.260960  1.0  0.1299
  C  C424  1  0.024000  0.184530  0.232990  1.0  -0.1332
  C  C425  1  0.991800  0.223790  0.217320  1.0  -0.1055
  C  C426  1  0.960500  0.219010  0.186280  1.0  0.3824
  C  C427  1  0.896000  0.040950  0.135540  1.0  0.1299
  C  C428  1  0.912000  0.084520  0.149430  1.0  -0.1462
  C  C429  1  0.889300  0.077370  0.090600  1.0  0.1334
  C  C430  1  0.903800  0.121880  0.103190  1.0  -0.1006
  C  C431  1  0.914200  0.125940  0.132850  1.0  -0.0697
  C  C432  1  0.926600  0.173290  0.146820  1.0  0.4093
  C  C433  1  0.387000  0.688300  0.635700  1.0  0.1419
  C  C434  1  0.435200  0.666770  0.612290  1.0  -0.0917
  C  C435  1  0.532600  0.705400  0.658300  1.0  0.144
  C  C436  1  0.585700  0.684230  0.636010  1.0  -0.1382
  C  C437  1  0.535700  0.665010  0.612430  1.0  -0.1275
  C  C438  1  0.588400  0.642200  0.587620  1.0  0.402
  C  C439  1  0.967900  0.582200  0.601300  1.0  0.1365
  C  C440  1  0.875300  0.600200  0.598070  1.0  -0.1307
  C  C441  1  0.967400  0.552250  0.554210  1.0  0.139
  C  C442  1  0.874500  0.569400  0.549290  1.0  -0.1363
  C  C443  1  0.826400  0.593460  0.571760  1.0  -0.1172
  C  C444  1  0.723400  0.609380  0.568280  1.0  0.4092
  C  C445  1  0.510000  0.556250  0.470490  1.0  0.1285
  C  C446  1  0.566800  0.568270  0.494190  1.0  -0.1373
  C  C447  1  0.376300  0.595100  0.489520  1.0  0.145
  C  C448  1  0.428800  0.609000  0.513990  1.0  -0.1303
  C  C449  1  0.526000  0.596140  0.516420  1.0  -0.1024
  C  C450  1  0.583800  0.609810  0.542680  1.0  0.3552
  C  C451  1  0.634200  0.837600  0.918580  1.0  0.1415
  C  C452  1  0.617200  0.795610  0.903570  1.0  -0.1419
  C  C453  1  0.596100  0.883270  0.878390  1.0  0.1356
  C  C454  1  0.579500  0.843120  0.861570  1.0  -0.1355
  C  C455  1  0.591000  0.798180  0.874270  1.0  -0.1127
  C  C456  1  0.576100  0.753960  0.856780  1.0  0.406
  C  C457  1  0.470600  0.772560  0.741270  1.0  0.129
  C  C458  1  0.506800  0.768380  0.769460  1.0  -0.1348
  C  C459  1  0.439500  0.691280  0.739040  1.0  0.1298
  C  C460  1  0.476000  0.684530  0.767010  1.0  -0.133
  C  C461  1  0.508200  0.723790  0.782680  1.0  -0.1054
  C  C462  1  0.539500  0.719010  0.813720  1.0  0.3821
  C  C463  1  0.604000  0.540950  0.864460  1.0  0.1288
  C  C464  1  0.588000  0.584520  0.850570  1.0  -0.1444
  C  C465  1  0.610700  0.577370  0.909400  1.0  0.1319
  C  C466  1  0.596200  0.621880  0.896810  1.0  -0.1018
  C  C467  1  0.585800  0.625940  0.867150  1.0  -0.0702
  C  C468  1  0.573400  0.673290  0.853180  1.0  0.4095
  C  C469  1  0.613000  0.811700  0.135700  1.0  0.1402
  C  C470  1  0.564800  0.833230  0.112290  1.0  -0.0903
  C  C471  1  0.467400  0.794600  0.158300  1.0  0.1452
  C  C472  1  0.414300  0.815770  0.136010  1.0  -0.1378
  C  C473  1  0.464300  0.834990  0.112430  1.0  -0.1274
  C  C474  1  0.411600  0.857800  0.087620  1.0  0.4022
  C  C475  1  0.032100  0.917800  0.101300  1.0  0.1361
  C  C476  1  0.124700  0.899800  0.098070  1.0  -0.1297
  C  C477  1  0.032600  0.947750  0.054210  1.0  0.1404
  C  C478  1  0.125500  0.930600  0.049290  1.0  -0.1358
  C  C479  1  0.173600  0.906540  0.071760  1.0  -0.1179
  C  C480  1  0.276600  0.890620  0.068280  1.0  0.4092
  C  C481  1  0.490000  0.943750  0.970490  1.0  0.1292
  C  C482  1  0.433200  0.931730  0.994190  1.0  -0.1403
  C  C483  1  0.623700  0.904900  0.989520  1.0  0.145
  C  C484  1  0.571200  0.891000  0.013990  1.0  -0.1289
  C  C485  1  0.474000  0.903860  0.016420  1.0  -0.1038
  C  C486  1  0.416200  0.890190  0.042680  1.0  0.3552
  C  C487  1  0.365800  0.662400  0.418580  1.0  0.1412
  C  C488  1  0.382800  0.704390  0.403570  1.0  -0.142
  C  C489  1  0.403900  0.616730  0.378390  1.0  0.135
  C  C490  1  0.420500  0.656880  0.361570  1.0  -0.1363
  C  C491  1  0.409000  0.701820  0.374270  1.0  -0.1112
  C  C492  1  0.423900  0.746040  0.356780  1.0  0.4067
  C  C493  1  0.529400  0.727440  0.241270  1.0  0.1275
  C  C494  1  0.493200  0.731620  0.269460  1.0  -0.1356
  C  C495  1  0.560500  0.808720  0.239040  1.0  0.1303
  C  C496  1  0.524000  0.815470  0.267010  1.0  -0.1324
  C  C497  1  0.491800  0.776210  0.282680  1.0  -0.1056
  C  C498  1  0.460500  0.780990  0.313720  1.0  0.3821
  C  C499  1  0.396000  0.959050  0.364460  1.0  0.129
  C  C500  1  0.412000  0.915480  0.350570  1.0  -0.1454
  C  C501  1  0.389300  0.922630  0.409400  1.0  0.1317
  C  C502  1  0.403800  0.878120  0.396810  1.0  -0.1015
  C  C503  1  0.414200  0.874060  0.367150  1.0  -0.0692
  C  C504  1  0.426600  0.826710  0.353180  1.0  0.4091
  I  I505  1  0.303080  0.696520  0.195440  1.0  -0.3378
  I  I506  1  0.152940  0.833020  0.176840  1.0  -0.3376
  I  I507  1  0.341890  0.566530  0.941400  1.0  -0.3793
  I  I508  1  0.079020  0.489300  0.902040  1.0  -0.4119
  I  I509  1  0.274020  0.510720  0.037480  1.0  -0.4031
  I  I510  1  0.266020  0.576490  0.126910  1.0  -0.3343
  I  I511  1  0.696920  0.803480  0.695440  1.0  -0.3392
  I  I512  1  0.847060  0.666980  0.676840  1.0  -0.3371
  I  I513  1  0.658110  0.933470  0.441400  1.0  -0.3778
  I  I514  1  0.920980  0.010700  0.402040  1.0  -0.4138
  I  I515  1  0.725980  0.989280  0.537480  1.0  -0.4024
  I  I516  1  0.733980  0.923510  0.626910  1.0  -0.3345
  I  I517  1  0.803080  0.303480  0.304560  1.0  -0.338
  I  I518  1  0.652940  0.166980  0.323160  1.0  -0.3368
  I  I519  1  0.841890  0.433470  0.558600  1.0  -0.3792
  I  I520  1  0.579020  0.510700  0.597960  1.0  -0.4109
  I  I521  1  0.774020  0.489280  0.462520  1.0  -0.4027
  I  I522  1  0.766020  0.423510  0.373090  1.0  -0.3348
  I  I523  1  0.196920  0.196520  0.804560  1.0  -0.339
  I  I524  1  0.347060  0.333020  0.823160  1.0  -0.3376
  I  I525  1  0.158110  0.066530  0.058600  1.0  -0.3776
  I  I526  1  0.420980  0.989300  0.097960  1.0  -0.4126
  I  I527  1  0.225980  0.010720  0.962520  1.0  -0.4021
  I  I528  1  0.233980  0.076490  0.873090  1.0  -0.3351
  I  I529  1  0.696920  0.303480  0.804560  1.0  -0.3396
  I  I530  1  0.847060  0.166980  0.823160  1.0  -0.337
  I  I531  1  0.658110  0.433470  0.058600  1.0  -0.3778
  I  I532  1  0.920980  0.510700  0.097960  1.0  -0.4126
  I  I533  1  0.725980  0.489280  0.962520  1.0  -0.4024
  I  I534  1  0.733980  0.423510  0.873090  1.0  -0.3356
  I  I535  1  0.303080  0.196520  0.304560  1.0  -0.3381
  I  I536  1  0.152940  0.333020  0.323160  1.0  -0.3373
  I  I537  1  0.341890  0.066530  0.558600  1.0  -0.3792
  I  I538  1  0.079020  0.989300  0.597960  1.0  -0.411
  I  I539  1  0.274020  0.010720  0.462520  1.0  -0.4029
  I  I540  1  0.266020  0.076490  0.373090  1.0  -0.3344
  I  I541  1  0.196920  0.696520  0.695440  1.0  -0.3396
  I  I542  1  0.347060  0.833020  0.676840  1.0  -0.3379
  I  I543  1  0.158110  0.566530  0.441400  1.0  -0.3778
  I  I544  1  0.420980  0.489300  0.402040  1.0  -0.414
  I  I545  1  0.225980  0.510720  0.537480  1.0  -0.4025
  I  I546  1  0.233980  0.576490  0.626910  1.0  -0.3345
  I  I547  1  0.803080  0.803480  0.195440  1.0  -0.3385
  I  I548  1  0.652940  0.666980  0.176840  1.0  -0.337
  I  I549  1  0.841890  0.933470  0.941400  1.0  -0.3792
  I  I550  1  0.579020  0.010700  0.902040  1.0  -0.4117
  I  I551  1  0.774020  0.989280  0.037480  1.0  -0.4034
  I  I552  1  0.766020  0.923510  0.126910  1.0  -0.3343
  N  N553  1  0.064900  0.708010  0.157940  1.0  -0.3005
  N  N554  1  0.485900  0.557950  0.079910  1.0  -0.3432
  N  N555  1  0.083700  0.569850  0.967730  1.0  -0.311
  N  N556  1  0.816800  0.632300  0.090880  1.0  -0.5103
  N  N557  1  0.821900  0.597910  0.043410  1.0  -0.4601
  N  N558  1  0.964900  0.632080  0.063990  1.0  -0.3491
  N  N559  1  0.876100  0.880990  0.406500  1.0  -0.3304
  N  N560  1  0.064200  0.734780  0.226560  1.0  -0.3227
  N  N561  1  0.884500  0.537020  0.393460  1.0  -0.3367
  N  N562  1  0.947800  0.759820  0.328520  1.0  -0.5547
  N  N563  1  0.951200  0.674720  0.324830  1.0  -0.4568
  N  N564  1  0.912700  0.711920  0.370170  1.0  -0.4884
  N  N565  1  0.935100  0.791990  0.657940  1.0  -0.3003
  N  N566  1  0.514100  0.942050  0.579910  1.0  -0.3424
  N  N567  1  0.916300  0.930150  0.467730  1.0  -0.31
  N  N568  1  0.183200  0.867700  0.590880  1.0  -0.5092
  N  N569  1  0.178100  0.902090  0.543410  1.0  -0.4593
  N  N570  1  0.035100  0.867920  0.563990  1.0  -0.3487
  N  N571  1  0.123900  0.619010  0.906500  1.0  -0.3281
  N  N572  1  0.935800  0.765220  0.726560  1.0  -0.3223
  N  N573  1  0.115500  0.962980  0.893460  1.0  -0.3387
  N  N574  1  0.052200  0.740180  0.828520  1.0  -0.5549
  N  N575  1  0.048800  0.825280  0.824830  1.0  -0.456
  N  N576  1  0.087300  0.788080  0.870170  1.0  -0.4882
  N  N577  1  0.564900  0.291990  0.342060  1.0  -0.3003
  N  N578  1  0.985900  0.442050  0.420090  1.0  -0.3423
  N  N579  1  0.583700  0.430150  0.532270  1.0  -0.3098
  N  N580  1  0.316800  0.367700  0.409120  1.0  -0.5094
  N  N581  1  0.321900  0.402090  0.456590  1.0  -0.4614
  N  N582  1  0.464900  0.367920  0.436010  1.0  -0.3499
  N  N583  1  0.376100  0.119010  0.093500  1.0  -0.3279
  N  N584  1  0.564200  0.265220  0.273440  1.0  -0.3211
  N  N585  1  0.384500  0.462980  0.106540  1.0  -0.3375
  N  N586  1  0.447800  0.240180  0.171480  1.0  -0.5542
  N  N587  1  0.451200  0.325280  0.175170  1.0  -0.4571
  N  N588  1  0.412700  0.288080  0.129830  1.0  -0.4881
  N  N589  1  0.435100  0.208010  0.842060  1.0  -0.2994
  N  N590  1  0.014100  0.057950  0.920090  1.0  -0.3423
  N  N591  1  0.416300  0.069850  0.032270  1.0  -0.3104
  N  N592  1  0.683200  0.132300  0.909120  1.0  -0.5077
  N  N593  1  0.678100  0.097910  0.956590  1.0  -0.4601
  N  N594  1  0.535100  0.132080  0.936010  1.0  -0.3485
  N  N595  1  0.623900  0.380990  0.593500  1.0  -0.3299
  N  N596  1  0.435800  0.234780  0.773440  1.0  -0.3207
  N  N597  1  0.615500  0.037020  0.606540  1.0  -0.336
  N  N598  1  0.552200  0.259820  0.671480  1.0  -0.5558
  N  N599  1  0.548800  0.174720  0.675170  1.0  -0.4569
  N  N600  1  0.587300  0.211920  0.629830  1.0  -0.4877
  N  N601  1  0.935100  0.291990  0.842060  1.0  -0.3007
  N  N602  1  0.514100  0.442050  0.920090  1.0  -0.3423
  N  N603  1  0.916300  0.430150  0.032270  1.0  -0.3108
  N  N604  1  0.183200  0.367700  0.909120  1.0  -0.5087
  N  N605  1  0.178100  0.402090  0.956590  1.0  -0.4603
  N  N606  1  0.035100  0.367920  0.936010  1.0  -0.3491
  N  N607  1  0.123900  0.119010  0.593500  1.0  -0.3278
  N  N608  1  0.935800  0.265220  0.773440  1.0  -0.3209
  N  N609  1  0.115500  0.462980  0.606540  1.0  -0.3377
  N  N610  1  0.052200  0.240180  0.671480  1.0  -0.5546
  N  N611  1  0.048800  0.325280  0.675170  1.0  -0.4569
  N  N612  1  0.087300  0.288080  0.629830  1.0  -0.4876
  N  N613  1  0.064900  0.208010  0.342060  1.0  -0.2995
  N  N614  1  0.485900  0.057950  0.420090  1.0  -0.3433
  N  N615  1  0.083700  0.069850  0.532270  1.0  -0.3093
  N  N616  1  0.816800  0.132300  0.409120  1.0  -0.5083
  N  N617  1  0.821900  0.097910  0.456590  1.0  -0.4607
  N  N618  1  0.964900  0.132080  0.436010  1.0  -0.3496
  N  N619  1  0.876100  0.380990  0.093500  1.0  -0.3291
  N  N620  1  0.064200  0.234780  0.273440  1.0  -0.321
  N  N621  1  0.884500  0.037020  0.106540  1.0  -0.3369
  N  N622  1  0.947800  0.259820  0.171480  1.0  -0.5554
  N  N623  1  0.951200  0.174720  0.175170  1.0  -0.4568
  N  N624  1  0.912700  0.211920  0.129830  1.0  -0.4884
  N  N625  1  0.435100  0.708010  0.657940  1.0  -0.3003
  N  N626  1  0.014100  0.557950  0.579910  1.0  -0.3423
  N  N627  1  0.416300  0.569850  0.467730  1.0  -0.3114
  N  N628  1  0.683200  0.632300  0.590880  1.0  -0.5094
  N  N629  1  0.678100  0.597910  0.543410  1.0  -0.4594
  N  N630  1  0.535100  0.632080  0.563990  1.0  -0.3482
  N  N631  1  0.623900  0.880990  0.906500  1.0  -0.3305
  N  N632  1  0.435800  0.734780  0.726560  1.0  -0.3217
  N  N633  1  0.615500  0.537020  0.893460  1.0  -0.3357
  N  N634  1  0.552200  0.759820  0.828520  1.0  -0.5551
  N  N635  1  0.548800  0.674720  0.824830  1.0  -0.4571
  N  N636  1  0.587300  0.711920  0.870170  1.0  -0.488
  N  N637  1  0.564900  0.791990  0.157940  1.0  -0.3002
  N  N638  1  0.985900  0.942050  0.079910  1.0  -0.3423
  N  N639  1  0.583700  0.930150  0.967730  1.0  -0.3102
  N  N640  1  0.316800  0.867700  0.090880  1.0  -0.5103
  N  N641  1  0.321900  0.902090  0.043410  1.0  -0.4602
  N  N642  1  0.464900  0.867920  0.063990  1.0  -0.3495
  N  N643  1  0.376100  0.619010  0.406500  1.0  -0.3284
  N  N644  1  0.564200  0.765220  0.226560  1.0  -0.3229
  N  N645  1  0.384500  0.962980  0.393460  1.0  -0.3387
  N  N646  1  0.447800  0.740180  0.328520  1.0  -0.5544
  N  N647  1  0.451200  0.825280  0.324830  1.0  -0.4561
  N  N648  1  0.412700  0.788080  0.370170  1.0  -0.4884
