# generated using pymatgen
data_CuH28C28Br(N2O)4
_symmetry_space_group_name_H-M   'P 1'
_cell_length_a   17.31400000
_cell_length_b   5.36280000
_cell_length_c   23.92700000
_cell_angle_alpha   90.00000000
_cell_angle_beta   133.57700000
_cell_angle_gamma   90.00000000
_symmetry_Int_Tables_number   1
_chemical_formula_structural   CuH28C28Br(N2O)4
_chemical_formula_sum   'Cu2 H56 C56 Br2 N16 O8'
_cell_volume   1609.47732082
_cell_formula_units_Z   2
loop_
 _symmetry_equiv_pos_site_id
 _symmetry_equiv_pos_as_xyz
  1  'x, y, z'
loop_
 _atom_site_type_symbol
 _atom_site_label
 _atom_site_symmetry_multiplicity
 _atom_site_fract_x
 _atom_site_fract_y
 _atom_site_fract_z
 _atom_site_occupancy
 _atom_site_charge
  Cu  Cu1  1  0.000000  0.804310  0.750000  1.0  0.531
  Cu  Cu2  1  0.000000  0.195690  0.250000  1.0  0.5308
  H  H3  1  0.506900  0.924300  0.419700  1.0  0.1532
  H  H4  1  0.927300  0.298000  0.926300  1.0  0.2468
  H  H5  1  0.962900  0.538400  0.620100  1.0  0.0588
  H  H6  1  0.840200  0.516700  0.488200  1.0  0.0985
  H  H7  1  0.693300  0.781700  0.416100  1.0  0.1054
  H  H8  1  0.801600  0.068700  0.612500  1.0  0.0616
  H  H9  1  0.658600  0.282500  0.490700  1.0  0.0948
  H  H10  1  0.607300  0.153600  0.412800  1.0  0.092
  H  H11  1  0.790800  0.539400  0.662900  1.0  0.0607
  H  H12  1  0.649200  0.529000  0.653200  1.0  0.0988
  H  H13  1  0.648800  0.788800  0.730300  1.0  0.102
  H  H14  1  0.926200  0.068600  0.816700  1.0  0.0666
  H  H15  1  0.766200  0.292100  0.810200  1.0  0.0976
  H  H16  1  0.742700  0.065200  0.837800  1.0  0.0959
  H  H17  1  0.493100  0.924300  0.080300  1.0  0.1513
  H  H18  1  0.072700  0.298000  0.573700  1.0  0.2467
  H  H19  1  0.037100  0.538400  0.879900  1.0  0.059
  H  H20  1  0.159800  0.516700  0.011800  1.0  0.0984
  H  H21  1  0.306700  0.781700  0.083900  1.0  0.1062
  H  H22  1  0.198400  0.068700  0.887500  1.0  0.0619
  H  H23  1  0.341400  0.282500  0.009300  1.0  0.095
  H  H24  1  0.392700  0.153600  0.087200  1.0  0.0925
  H  H25  1  0.209200  0.539400  0.837100  1.0  0.0608
  H  H26  1  0.350800  0.529000  0.846800  1.0  0.0989
  H  H27  1  0.351200  0.788800  0.769700  1.0  0.102
  H  H28  1  0.073800  0.068600  0.683300  1.0  0.0663
  H  H29  1  0.233800  0.292100  0.689800  1.0  0.0969
  H  H30  1  0.257300  0.065200  0.662200  1.0  0.0945
  H  H31  1  0.493100  0.075700  0.580300  1.0  0.1515
  H  H32  1  0.072700  0.702000  0.073700  1.0  0.2463
  H  H33  1  0.037100  0.461600  0.379900  1.0  0.0591
  H  H34  1  0.159800  0.483300  0.511800  1.0  0.0981
  H  H35  1  0.306700  0.218300  0.583900  1.0  0.1062
  H  H36  1  0.198400  0.931300  0.387500  1.0  0.0613
  H  H37  1  0.341400  0.717500  0.509300  1.0  0.0952
  H  H38  1  0.392700  0.846400  0.587200  1.0  0.0926
  H  H39  1  0.209200  0.460600  0.337100  1.0  0.0604
  H  H40  1  0.350800  0.471000  0.346800  1.0  0.0983
  H  H41  1  0.351200  0.211200  0.269700  1.0  0.102
  H  H42  1  0.073800  0.931400  0.183300  1.0  0.0662
  H  H43  1  0.233800  0.707900  0.189800  1.0  0.098
  H  H44  1  0.257300  0.934800  0.162200  1.0  0.0944
  H  H45  1  0.506900  0.075700  0.919700  1.0  0.1537
  H  H46  1  0.927300  0.702000  0.426300  1.0  0.2462
  H  H47  1  0.962900  0.461600  0.120100  1.0  0.0586
  H  H48  1  0.840200  0.483300  0.988200  1.0  0.0985
  H  H49  1  0.693300  0.218300  0.916100  1.0  0.1056
  H  H50  1  0.801600  0.931300  0.112500  1.0  0.062
  H  H51  1  0.658600  0.717500  0.990700  1.0  0.0955
  H  H52  1  0.607300  0.846400  0.912800  1.0  0.0923
  H  H53  1  0.790800  0.460600  0.162900  1.0  0.0607
  H  H54  1  0.649200  0.471000  0.153200  1.0  0.0988
  H  H55  1  0.648800  0.211200  0.230300  1.0  0.1022
  H  H56  1  0.926200  0.931400  0.316700  1.0  0.0662
  H  H57  1  0.766200  0.707900  0.310200  1.0  0.0982
  H  H58  1  0.742700  0.934800  0.337800  1.0  0.0958
  C  C59  1  0.904200  0.644300  0.591800  1.0  0.1648
  C  C60  1  0.831100  0.630500  0.512600  1.0  -0.187
  C  C61  1  0.743500  0.788300  0.469700  1.0  -0.028
  C  C62  1  0.731900  0.954300  0.507100  1.0  0.0343
  C  C63  1  0.809200  0.956000  0.587000  1.0  0.1378
  C  C64  1  0.636200  0.123500  0.464200  1.0  -0.0999
  C  C65  1  0.547000  0.064700  0.508600  1.0  0.4925
  C  C66  1  0.790500  0.647000  0.693200  1.0  0.1294
  C  C67  1  0.705400  0.638500  0.687400  1.0  -0.1454
  C  C68  1  0.705000  0.793800  0.732900  1.0  -0.0741
  C  C69  1  0.788700  0.957200  0.782500  1.0  0.0646
  C  C70  1  0.870100  0.957000  0.784000  1.0  0.1461
  C  C71  1  0.791400  0.128600  0.834000  1.0  -0.0689
  C  C72  1  0.947100  0.964300  0.959500  1.0  0.4739
  C  C73  1  0.095800  0.644300  0.908200  1.0  0.1651
  C  C74  1  0.168900  0.630500  0.987400  1.0  -0.1852
  C  C75  1  0.256500  0.788300  0.030300  1.0  -0.028
  C  C76  1  0.268100  0.954300  0.992900  1.0  0.0359
  C  C77  1  0.190800  0.956000  0.913000  1.0  0.1371
  C  C78  1  0.363800  0.123500  0.035800  1.0  -0.0996
  C  C79  1  0.453000  0.064700  0.991400  1.0  0.4932
  C  C80  1  0.209500  0.647000  0.806800  1.0  0.1306
  C  C81  1  0.294600  0.638500  0.812600  1.0  -0.1437
  C  C82  1  0.295000  0.793800  0.767100  1.0  -0.0741
  C  C83  1  0.211300  0.957200  0.717500  1.0  0.065
  C  C84  1  0.129900  0.957000  0.716000  1.0  0.1465
  C  C85  1  0.208600  0.128600  0.666000  1.0  -0.0704
  C  C86  1  0.052900  0.964300  0.540500  1.0  0.4752
  C  C87  1  0.095800  0.355700  0.408200  1.0  0.1649
  C  C88  1  0.168900  0.369500  0.487400  1.0  -0.1848
  C  C89  1  0.256500  0.211700  0.530300  1.0  -0.0285
  C  C90  1  0.268100  0.045700  0.492900  1.0  0.0358
  C  C91  1  0.190800  0.044000  0.413000  1.0  0.1367
  C  C92  1  0.363800  0.876500  0.535800  1.0  -0.1009
  C  C93  1  0.453000  0.935300  0.491400  1.0  0.4931
  C  C94  1  0.209500  0.353000  0.306800  1.0  0.1303
  C  C95  1  0.294600  0.361500  0.312600  1.0  -0.1438
  C  C96  1  0.295000  0.206200  0.267100  1.0  -0.0744
  C  C97  1  0.211300  0.042800  0.217500  1.0  0.0651
  C  C98  1  0.129900  0.043000  0.216000  1.0  0.1468
  C  C99  1  0.208600  0.871400  0.166000  1.0  -0.0703
  C  C100  1  0.052900  0.035700  0.040500  1.0  0.4759
  C  C101  1  0.904200  0.355700  0.091800  1.0  0.1647
  C  C102  1  0.831100  0.369500  0.012600  1.0  -0.1857
  C  C103  1  0.743500  0.211700  0.969700  1.0  -0.0282
  C  C104  1  0.731900  0.045700  0.007100  1.0  0.0343
  C  C105  1  0.809200  0.044000  0.087000  1.0  0.138
  C  C106  1  0.636200  0.876500  0.964200  1.0  -0.1006
  C  C107  1  0.547000  0.935300  0.008600  1.0  0.4931
  C  C108  1  0.790500  0.353000  0.193200  1.0  0.1296
  C  C109  1  0.705400  0.361500  0.187400  1.0  -0.1446
  C  C110  1  0.705000  0.206200  0.232900  1.0  -0.0737
  C  C111  1  0.788700  0.042800  0.282500  1.0  0.0645
  C  C112  1  0.870100  0.043000  0.284000  1.0  0.1453
  C  C113  1  0.791400  0.871400  0.334000  1.0  -0.0695
  C  C114  1  0.947100  0.035700  0.459500  1.0  0.4745
  Br  Br115  1  0.000000  0.303290  0.750000  1.0  -0.2656
  Br  Br116  1  0.000000  0.696710  0.250000  1.0  -0.2671
  N  N117  1  0.894700  0.804000  0.630000  1.0  -0.3414
  N  N118  1  0.553800  0.020000  0.458200  1.0  -0.4007
  N  N119  1  0.872200  0.803600  0.740600  1.0  -0.3392
  N  N120  1  0.896900  0.154400  0.911400  1.0  -0.3912
  N  N121  1  0.105300  0.804000  0.870000  1.0  -0.3436
  N  N122  1  0.446200  0.020000  0.041800  1.0  -0.4007
  N  N123  1  0.127800  0.803600  0.759400  1.0  -0.3402
  N  N124  1  0.103100  0.154400  0.588600  1.0  -0.3912
  N  N125  1  0.105300  0.196000  0.370000  1.0  -0.3437
  N  N126  1  0.446200  0.980000  0.541800  1.0  -0.4008
  N  N127  1  0.127800  0.196400  0.259400  1.0  -0.3403
  N  N128  1  0.103100  0.845600  0.088600  1.0  -0.3926
  N  N129  1  0.894700  0.196000  0.130000  1.0  -0.3414
  N  N130  1  0.553800  0.980000  0.958200  1.0  -0.4013
  N  N131  1  0.872200  0.196400  0.240600  1.0  -0.3392
  N  N132  1  0.896900  0.845600  0.411400  1.0  -0.3926
  O  O133  1  0.607700  0.201400  0.565300  1.0  -0.5674
  O  O134  1  0.915300  0.746700  0.943400  1.0  -0.5656
  O  O135  1  0.392300  0.201400  0.934700  1.0  -0.5671
  O  O136  1  0.084700  0.746700  0.556600  1.0  -0.5644
  O  O137  1  0.392300  0.798600  0.434700  1.0  -0.5675
  O  O138  1  0.084700  0.253300  0.056600  1.0  -0.5652
  O  O139  1  0.607700  0.798600  0.065300  1.0  -0.5671
  O  O140  1  0.915300  0.253300  0.443400  1.0  -0.5665
