# generated using pymatgen
data_Cd3H5C11N5O9
_symmetry_space_group_name_H-M   'P 1'
_cell_length_a   6.59500000
_cell_length_b   9.16530000
_cell_length_c   14.19580000
_cell_angle_alpha   85.87300000
_cell_angle_beta   82.16600000
_cell_angle_gamma   74.73400000
_symmetry_Int_Tables_number   1
_chemical_formula_structural   Cd3H5C11N5O9
_chemical_formula_sum   'Cd6 H10 C22 N10 O18'
_cell_volume   819.47920492
_cell_formula_units_Z   2
loop_
 _symmetry_equiv_pos_site_id
 _symmetry_equiv_pos_as_xyz
  1  'x, y, z'
loop_
 _atom_site_type_symbol
 _atom_site_label
 _atom_site_symmetry_multiplicity
 _atom_site_fract_x
 _atom_site_fract_y
 _atom_site_fract_z
 _atom_site_occupancy
 _atom_site_charge
  Cd  Cd1  1  0.413060  0.385520  0.164680  1.0  0.9991
  Cd  Cd2  1  0.058510  0.111280  0.275400  1.0  1.0516
  Cd  Cd3  1  0.246040  0.877540  0.488550  1.0  1.1683
  Cd  Cd4  1  0.586940  0.614480  0.835320  1.0  0.9991
  Cd  Cd5  1  0.941490  0.888720  0.724600  1.0  1.0529
  Cd  Cd6  1  0.753960  0.122460  0.511450  1.0  1.1676
  H  H7  1  0.788900  0.637300  0.346500  1.0  0.1137
  H  H8  1  0.661700  0.862900  0.048400  1.0  0.1161
  H  H9  1  0.169600  0.886600  0.082000  1.0  0.3206
  H  H10  1  0.241000  0.719300  0.059500  1.0  0.3384
  H  H11  1  0.158300  0.164200  0.438600  1.0  0.4366
  H  H12  1  0.211100  0.362700  0.653500  1.0  0.1138
  H  H13  1  0.338300  0.137100  0.951600  1.0  0.1156
  H  H14  1  0.830400  0.113400  0.918000  1.0  0.3186
  H  H15  1  0.759000  0.280700  0.940500  1.0  0.3389
  H  H16  1  0.841700  0.835800  0.561400  1.0  0.4389
  C  C17  1  0.224600  0.755000  0.192900  1.0  0.6471
  C  C18  1  0.565000  0.074900  0.171700  1.0  0.692
  C  C19  1  0.653300  0.905400  0.187600  1.0  -0.0795
  C  C20  1  0.692400  0.839900  0.277200  1.0  -0.1247
  C  C21  1  0.673700  0.925900  0.364200  1.0  0.7174
  C  C22  1  0.757500  0.683200  0.286200  1.0  -0.102
  C  C23  1  0.777900  0.591700  0.210400  1.0  -0.0658
  C  C24  1  0.844500  0.423500  0.234800  1.0  0.7119
  C  C25  1  0.740100  0.656600  0.120800  1.0  -0.1126
  C  C26  1  0.735000  0.568100  0.036100  1.0  0.7
  C  C27  1  0.681600  0.816500  0.109700  1.0  -0.0357
  C  C28  1  0.775400  0.245000  0.807100  1.0  0.6472
  C  C29  1  0.435000  0.925100  0.828300  1.0  0.6927
  C  C30  1  0.346700  0.094600  0.812400  1.0  -0.0801
  C  C31  1  0.307600  0.160100  0.722800  1.0  -0.1263
  C  C32  1  0.326300  0.074100  0.635800  1.0  0.7169
  C  C33  1  0.242500  0.316800  0.713800  1.0  -0.1039
  C  C34  1  0.222100  0.408300  0.789600  1.0  -0.065
  C  C35  1  0.155500  0.576500  0.765200  1.0  0.7123
  C  C36  1  0.259900  0.343400  0.879200  1.0  -0.1132
  C  C37  1  0.265000  0.431900  0.963900  1.0  0.6988
  C  C38  1  0.318400  0.183500  0.890300  1.0  -0.0366
  N  N39  1  0.210100  0.791000  0.101100  1.0  -0.6868
  N  N40  1  0.181700  0.854300  0.263100  1.0  -0.3177
  N  N41  1  0.214700  0.768500  0.344800  1.0  -0.0565
  N  N42  1  0.273000  0.625600  0.325700  1.0  -0.0807
  N  N43  1  0.281800  0.612000  0.231100  1.0  -0.2809
  N  N44  1  0.789900  0.209000  0.898900  1.0  -0.6864
  N  N45  1  0.818300  0.145700  0.736900  1.0  -0.3183
  N  N46  1  0.785300  0.231500  0.655200  1.0  -0.0541
  N  N47  1  0.727000  0.374400  0.674300  1.0  -0.0816
  N  N48  1  0.718200  0.388000  0.768900  1.0  -0.2817
  O  O49  1  0.412000  0.143600  0.231400  1.0  -0.6714
  O  O50  1  0.640800  0.141800  0.101600  1.0  -0.5998
  O  O51  1  0.744300  0.042200  0.359300  1.0  -0.6632
  O  O52  1  0.594400  0.873300  0.441200  1.0  -0.69
  O  O53  1  0.705000  0.349300  0.251900  1.0  -0.6936
  O  O54  1  0.034000  0.364600  0.246100  1.0  -0.6368
  O  O55  1  0.686900  0.444600  0.050900  1.0  -0.5786
  O  O56  1  0.776700  0.626700  0.953900  1.0  -0.6051
  O  O57  1  0.083900  0.105900  0.429900  1.0  -0.9311
  O  O58  1  0.588000  0.856400  0.768600  1.0  -0.6704
  O  O59  1  0.359200  0.858200  0.898400  1.0  -0.5991
  O  O60  1  0.255700  0.957800  0.640700  1.0  -0.6632
  O  O61  1  0.405600  0.126700  0.558800  1.0  -0.6905
  O  O62  1  0.295000  0.650700  0.748100  1.0  -0.6921
  O  O63  1  0.966000  0.635400  0.753900  1.0  -0.6354
  O  O64  1  0.313100  0.555400  0.949100  1.0  -0.5788
  O  O65  1  0.223300  0.373300  0.046100  1.0  -0.6057
  O  O66  1  0.916100  0.894100  0.570100  1.0  -0.9312
