# generated using pymatgen
data_ZnH12(C5N2)3
_symmetry_space_group_name_H-M   'P 1'
_cell_length_a   7.54810000
_cell_length_b   10.88780000
_cell_length_c   19.04600000
_cell_angle_alpha   79.94800000
_cell_angle_beta   79.57000000
_cell_angle_gamma   73.07700000
_symmetry_Int_Tables_number   1
_chemical_formula_structural   ZnH12(C5N2)3
_chemical_formula_sum   'Zn2 H24 C30 N12'
_cell_volume   1460.31822806
_cell_formula_units_Z   2
loop_
 _symmetry_equiv_pos_site_id
 _symmetry_equiv_pos_as_xyz
  1  'x, y, z'
loop_
 _atom_site_type_symbol
 _atom_site_label
 _atom_site_symmetry_multiplicity
 _atom_site_fract_x
 _atom_site_fract_y
 _atom_site_fract_z
 _atom_site_occupancy
 _atom_site_charge
  Zn  Zn1  1  0.392810  0.784400  0.451640  1.0  0.2072
  Zn  Zn2  1  0.716360  0.286640  0.967880  1.0  0.2819
  H  H3  1  0.053300  0.557400  0.653300  1.0  0.1058
  H  H4  1  0.229300  0.332700  0.183300  1.0  0.1016
  H  H5  1  0.358200  0.246500  0.551000  1.0  0.1054
  H  H6  1  0.452100  0.553000  0.022900  1.0  0.0882
  H  H7  1  0.829400  0.597300  0.475600  1.0  0.0839
  H  H8  1  0.458200  0.003600  0.855200  1.0  0.1096
  H  H9  1  0.113400  0.506000  0.241000  1.0  0.1072
  H  H10  1  0.082400  0.566900  0.371700  1.0  0.104
  H  H11  1  0.600100  0.709500  0.586000  1.0  0.0801
  H  H12  1  0.217200  0.725400  0.053000  1.0  0.1033
  H  H13  1  0.281300  0.969600  0.055300  1.0  0.0997
  H  H14  1  0.362800  0.402600  0.727300  1.0  0.1104
  H  H15  1  0.618500  0.855200  0.668700  1.0  0.1091
  H  H16  1  0.493900  0.014100  0.731500  1.0  0.0898
  H  H17  1  0.572600  0.038800  0.959200  1.0  0.0774
  H  H18  1  0.136000  0.167200  0.980000  1.0  0.0773
  H  H19  1  0.617100  0.786700  0.301400  1.0  0.0825
  H  H20  1  0.741200  0.015100  0.083900  1.0  0.0663
  H  H21  1  0.860400  0.890400  0.215800  1.0  0.1088
  H  H22  1  0.564000  0.343300  0.818800  1.0  0.0821
  H  H23  1  0.505200  0.477300  0.514200  1.0  0.0677
  H  H24  1  0.331400  0.060900  0.512800  1.0  0.0885
  H  H25  1  0.454800  0.193400  0.104600  1.0  0.0749
  H  H26  1  0.051200  0.743800  0.559300  1.0  0.08
  C  C27  1  0.186100  0.598100  0.143100  1.0  0.128
  C  C28  1  0.398000  0.991100  0.541700  1.0  0.1574
  C  C29  1  0.958900  0.615300  0.370300  1.0  -0.1109
  C  C30  1  0.552300  0.262400  0.841200  1.0  0.1101
  C  C31  1  0.425800  0.480900  0.052200  1.0  0.106
  C  C32  1  0.457500  0.097000  0.706900  1.0  -0.1929
  C  C33  1  0.978400  0.696000  0.240400  1.0  0.1248
  C  C34  1  0.817300  0.630500  0.427700  1.0  -0.0467
  C  C35  1  0.301700  0.359100  0.141600  1.0  -0.1493
  C  C36  1  0.158800  0.718500  0.100300  1.0  -0.1538
  C  C37  1  0.351600  0.341100  0.633600  1.0  0.1509
  C  C38  1  0.425100  0.283400  0.098000  1.0  -0.0242
  C  C39  1  0.425200  0.114100  0.635700  1.0  0.1444
  C  C40  1  0.547500  0.798600  0.581800  1.0  -0.0272
  C  C41  1  0.556800  0.878400  0.628300  1.0  -0.1698
  C  C42  1  0.699700  0.735600  0.332500  1.0  0.1224
  C  C43  1  0.143100  0.562600  0.613300  1.0  -0.1307
  C  C44  1  0.044000  0.826700  0.129200  1.0  0.1572
  C  C45  1  0.945300  0.818000  0.198200  1.0  -0.2094
  C  C46  1  0.491200  0.077100  0.860500  1.0  -0.1654
  C  C47  1  0.375600  0.235300  0.599100  1.0  -0.1731
  C  C48  1  0.389700  0.521100  0.536700  1.0  0.1454
  C  C49  1  0.095700  0.586400  0.212900  1.0  -0.1818
  C  C50  1  0.073200  0.112600  0.010900  1.0  -0.0292
  C  C51  1  0.154500  0.001900  0.051500  1.0  -0.1357
  C  C52  1  0.144900  0.666300  0.561500  1.0  -0.0452
  C  C53  1  0.379900  0.329900  0.704800  1.0  -0.1983
  C  C54  1  0.558300  0.095900  0.916900  1.0  0.0017
  C  C55  1  0.857800  0.029700  0.066800  1.0  0.1303
  C  C56  1  0.434900  0.205200  0.741000  1.0  0.1361
  N  N57  1  0.019700  0.948500  0.084800  1.0  0.0234
  N  N58  1  0.453900  0.002500  0.602500  1.0  0.0236
  N  N59  1  0.602300  0.210300  0.903100  1.0  -0.3747
  N  N60  1  0.652600  0.704500  0.401300  1.0  -0.3643
  N  N61  1  0.505500  0.358700  0.039700  1.0  -0.4169
  N  N62  1  0.301300  0.485700  0.113300  1.0  0.0074
  N  N63  1  0.883700  0.683800  0.312300  1.0  0.0467
  N  N64  1  0.446500  0.872200  0.527100  1.0  -0.3752
  N  N65  1  0.301200  0.640200  0.514400  1.0  -0.3941
  N  N66  1  0.480600  0.184800  0.812700  1.0  0.0399
  N  N67  1  0.297300  0.469900  0.594500  1.0  0.0221
  N  N68  1  0.882700  0.130600  0.022900  1.0  -0.4019
