# generated using pymatgen
data_CuH7C13(NO4)2
_symmetry_space_group_name_H-M   'P 1'
_cell_length_a   18.48980000
_cell_length_b   18.48980000
_cell_length_c   38.72660000
_cell_angle_alpha   90.00000000
_cell_angle_beta   90.00000000
_cell_angle_gamma   120.00000000
_symmetry_Int_Tables_number   1
_chemical_formula_structural   CuH7C13(NO4)2
_chemical_formula_sum   'Cu18 H126 C234 N36 O144'
_cell_volume   11465.80175572
_cell_formula_units_Z   18
loop_
 _symmetry_equiv_pos_site_id
 _symmetry_equiv_pos_as_xyz
  1  'x, y, z'
loop_
 _atom_site_type_symbol
 _atom_site_label
 _atom_site_symmetry_multiplicity
 _atom_site_fract_x
 _atom_site_fract_y
 _atom_site_fract_z
 _atom_site_occupancy
 _atom_site_charge
  Cu  Cu1  1  0.381690  0.190840  0.194560  1.0  0.9736
  Cu  Cu2  1  0.048360  0.524180  0.527900  1.0  0.984
  Cu  Cu3  1  0.715020  0.857510  0.861230  1.0  0.9736
  Cu  Cu4  1  0.809160  0.190840  0.194560  1.0  0.9711
  Cu  Cu5  1  0.475820  0.524180  0.527900  1.0  0.9828
  Cu  Cu6  1  0.142490  0.857510  0.861230  1.0  0.9711
  Cu  Cu7  1  0.809160  0.618310  0.194560  1.0  0.9734
  Cu  Cu8  1  0.475820  0.951640  0.527900  1.0  0.9842
  Cu  Cu9  1  0.142490  0.284980  0.861230  1.0  0.9734
  Cu  Cu10  1  0.190840  0.381690  0.805440  1.0  0.9721
  Cu  Cu11  1  0.857510  0.715020  0.138770  1.0  0.9736
  Cu  Cu12  1  0.524180  0.048360  0.472100  1.0  0.984
  Cu  Cu13  1  0.190840  0.809150  0.805440  1.0  0.9822
  Cu  Cu14  1  0.857510  0.142490  0.138770  1.0  0.9707
  Cu  Cu15  1  0.524180  0.475820  0.472100  1.0  0.9817
  Cu  Cu16  1  0.618310  0.809150  0.805440  1.0  0.9818
  Cu  Cu17  1  0.284980  0.142490  0.138770  1.0  0.9732
  Cu  Cu18  1  0.951640  0.475820  0.472100  1.0  0.9834
  H  H19  1  0.420200  0.057400  0.077000  1.0  0.183
  H  H20  1  0.632000  0.111000  0.013000  1.0  0.1713
  H  H21  1  0.381700  0.920000  0.029100  1.0  0.2194
  H  H22  1  0.086870  0.390730  0.410330  1.0  0.183
  H  H23  1  0.298670  0.444330  0.346330  1.0  0.1713
  H  H24  1  0.048370  0.253330  0.362430  1.0  0.2194
  H  H25  1  0.753530  0.724070  0.743670  1.0  0.183
  H  H26  1  0.965330  0.777670  0.679670  1.0  0.1713
  H  H27  1  0.715030  0.586670  0.695770  1.0  0.2194
  H  H28  1  0.942600  0.362800  0.077000  1.0  0.1828
  H  H29  1  0.889000  0.521000  0.013000  1.0  0.1709
  H  H30  1  0.080000  0.461700  0.029100  1.0  0.2184
  H  H31  1  0.609270  0.696130  0.410330  1.0  0.1828
  H  H32  1  0.555670  0.854330  0.346330  1.0  0.1709
  H  H33  1  0.746670  0.795030  0.362430  1.0  0.2184
  H  H34  1  0.275930  0.029470  0.743670  1.0  0.1828
  H  H35  1  0.222330  0.187670  0.679670  1.0  0.1709
  H  H36  1  0.413330  0.128370  0.695770  1.0  0.2184
  H  H37  1  0.637200  0.579800  0.077000  1.0  0.1826
  H  H38  1  0.479000  0.368000  0.013000  1.0  0.1724
  H  H39  1  0.538300  0.618300  0.029100  1.0  0.2239
  H  H40  1  0.303870  0.913130  0.410330  1.0  0.1826
  H  H41  1  0.145670  0.701330  0.346330  1.0  0.1724
  H  H42  1  0.204970  0.951630  0.362430  1.0  0.2239
  H  H43  1  0.970530  0.246470  0.743670  1.0  0.1826
  H  H44  1  0.812330  0.034670  0.679670  1.0  0.1724
  H  H45  1  0.871630  0.284970  0.695770  1.0  0.2239
  H  H46  1  0.057400  0.420200  0.923000  1.0  0.1838
  H  H47  1  0.111000  0.632000  0.987000  1.0  0.1721
  H  H48  1  0.920000  0.381700  0.970900  1.0  0.2208
  H  H49  1  0.724070  0.753530  0.256330  1.0  0.1838
  H  H50  1  0.777670  0.965330  0.320330  1.0  0.1721
  H  H51  1  0.586670  0.715030  0.304230  1.0  0.2208
  H  H52  1  0.390730  0.086870  0.589670  1.0  0.1838
  H  H53  1  0.444330  0.298670  0.653670  1.0  0.1721
  H  H54  1  0.253330  0.048370  0.637570  1.0  0.2208
  H  H55  1  0.362800  0.942600  0.923000  1.0  0.1834
  H  H56  1  0.521000  0.889000  0.987000  1.0  0.1715
  H  H57  1  0.461700  0.080000  0.970900  1.0  0.2185
  H  H58  1  0.029470  0.275930  0.256330  1.0  0.1834
  H  H59  1  0.187670  0.222330  0.320330  1.0  0.1715
  H  H60  1  0.128370  0.413330  0.304230  1.0  0.2185
  H  H61  1  0.696130  0.609270  0.589670  1.0  0.1834
  H  H62  1  0.854330  0.555670  0.653670  1.0  0.1715
  H  H63  1  0.795030  0.746670  0.637570  1.0  0.2185
  H  H64  1  0.579800  0.637200  0.923000  1.0  0.1821
  H  H65  1  0.368000  0.479000  0.987000  1.0  0.1709
  H  H66  1  0.618300  0.538300  0.970900  1.0  0.2223
  H  H67  1  0.246470  0.970530  0.256330  1.0  0.1821
  H  H68  1  0.034670  0.812330  0.320330  1.0  0.1709
  H  H69  1  0.284970  0.871630  0.304230  1.0  0.2223
  H  H70  1  0.913130  0.303870  0.589670  1.0  0.1821
  H  H71  1  0.701330  0.145670  0.653670  1.0  0.1709
  H  H72  1  0.951630  0.204970  0.637570  1.0  0.2223
  H  H73  1  0.579800  0.942600  0.923000  1.0  0.1833
  H  H74  1  0.368000  0.889000  0.987000  1.0  0.1716
  H  H75  1  0.618300  0.080000  0.970900  1.0  0.2212
  H  H76  1  0.246470  0.275930  0.256330  1.0  0.1833
  H  H77  1  0.034670  0.222330  0.320330  1.0  0.1716
  H  H78  1  0.284970  0.413330  0.304230  1.0  0.2212
  H  H79  1  0.913130  0.609270  0.589670  1.0  0.1833
  H  H80  1  0.701330  0.555670  0.653670  1.0  0.1716
  H  H81  1  0.951630  0.746670  0.637570  1.0  0.2212
  H  H82  1  0.057400  0.637200  0.923000  1.0  0.1824
  H  H83  1  0.111000  0.479000  0.987000  1.0  0.1775
  H  H84  1  0.920000  0.538300  0.970900  1.0  0.2167
  H  H85  1  0.724070  0.970530  0.256330  1.0  0.1824
  H  H86  1  0.777670  0.812330  0.320330  1.0  0.1775
  H  H87  1  0.586670  0.871630  0.304230  1.0  0.2167
  H  H88  1  0.390730  0.303870  0.589670  1.0  0.1824
  H  H89  1  0.444330  0.145670  0.653670  1.0  0.1775
  H  H90  1  0.253330  0.204970  0.637570  1.0  0.2167
  H  H91  1  0.362800  0.420200  0.923000  1.0  0.1837
  H  H92  1  0.521000  0.632000  0.987000  1.0  0.1725
  H  H93  1  0.461700  0.381700  0.970900  1.0  0.2192
  H  H94  1  0.029470  0.753530  0.256330  1.0  0.1837
  H  H95  1  0.187670  0.965330  0.320330  1.0  0.1725
  H  H96  1  0.128370  0.715030  0.304230  1.0  0.2192
  H  H97  1  0.696130  0.086870  0.589670  1.0  0.1837
  H  H98  1  0.854330  0.298670  0.653670  1.0  0.1725
  H  H99  1  0.795030  0.048370  0.637570  1.0  0.2192
  H  H100  1  0.942600  0.579800  0.077000  1.0  0.1825
  H  H101  1  0.889000  0.368000  0.013000  1.0  0.1723
  H  H102  1  0.080000  0.618300  0.029100  1.0  0.2229
  H  H103  1  0.609270  0.913130  0.410330  1.0  0.1825
  H  H104  1  0.555670  0.701330  0.346330  1.0  0.1723
  H  H105  1  0.746670  0.951630  0.362430  1.0  0.2229
  H  H106  1  0.275930  0.246470  0.743670  1.0  0.1825
  H  H107  1  0.222330  0.034670  0.679670  1.0  0.1723
  H  H108  1  0.413330  0.284970  0.695770  1.0  0.2229
  H  H109  1  0.637200  0.057400  0.077000  1.0  0.1826
  H  H110  1  0.479000  0.111000  0.013000  1.0  0.1716
  H  H111  1  0.538300  0.920000  0.029100  1.0  0.2207
  H  H112  1  0.303870  0.390730  0.410330  1.0  0.1826
  H  H113  1  0.145670  0.444330  0.346330  1.0  0.1716
  H  H114  1  0.204970  0.253330  0.362430  1.0  0.2207
  H  H115  1  0.970530  0.724070  0.743670  1.0  0.1826
  H  H116  1  0.812330  0.777670  0.679670  1.0  0.1716
  H  H117  1  0.871630  0.586670  0.695770  1.0  0.2207
  H  H118  1  0.420200  0.362800  0.077000  1.0  0.183
  H  H119  1  0.632000  0.521000  0.013000  1.0  0.1772
  H  H120  1  0.381700  0.461700  0.029100  1.0  0.2163
  H  H121  1  0.086870  0.696130  0.410330  1.0  0.183
  H  H122  1  0.298670  0.854330  0.346330  1.0  0.1772
  H  H123  1  0.048370  0.795030  0.362430  1.0  0.2163
  H  H124  1  0.753530  0.029470  0.743670  1.0  0.183
  H  H125  1  0.965330  0.187670  0.679670  1.0  0.1772
  H  H126  1  0.715030  0.128370  0.695770  1.0  0.2163
  H  H127  1  0.566000  0.132000  0.161400  1.0  0.1893
  H  H128  1  0.232670  0.465330  0.494730  1.0  0.1883
  H  H129  1  0.899330  0.798670  0.828070  1.0  0.1893
  H  H130  1  0.868000  0.434000  0.161400  1.0  0.1895
  H  H131  1  0.534670  0.767330  0.494730  1.0  0.1885
  H  H132  1  0.201330  0.100670  0.828070  1.0  0.1895
  H  H133  1  0.566000  0.434000  0.161400  1.0  0.19
  H  H134  1  0.232670  0.767330  0.494730  1.0  0.1898
  H  H135  1  0.899330  0.100670  0.828070  1.0  0.19
  H  H136  1  0.132000  0.566000  0.838600  1.0  0.1888
  H  H137  1  0.798670  0.899330  0.171930  1.0  0.1896
  H  H138  1  0.465330  0.232670  0.505270  1.0  0.1881
  H  H139  1  0.434000  0.868000  0.838600  1.0  0.1889
  H  H140  1  0.100670  0.201330  0.171930  1.0  0.1895
  H  H141  1  0.767330  0.534670  0.505270  1.0  0.188
  H  H142  1  0.434000  0.566000  0.838600  1.0  0.1887
  H  H143  1  0.100670  0.899330  0.171930  1.0  0.19
  H  H144  1  0.767330  0.232670  0.505270  1.0  0.1894
  C  C145  1  0.424900  0.118900  0.139100  1.0  0.7629
  C  C146  1  0.483800  0.096700  0.122290  1.0  -0.0769
  C  C147  1  0.468500  0.066600  0.088300  1.0  -0.0388
  C  C148  1  0.576900  0.063900  0.010900  1.0  -0.0117
  C  C149  1  0.438500  0.960800  0.023900  1.0  0.1722
  C  C150  1  0.091570  0.452230  0.472430  1.0  0.7629
  C  C151  1  0.150470  0.430030  0.455620  1.0  -0.0769
  C  C152  1  0.135170  0.399930  0.421630  1.0  -0.0388
  C  C153  1  0.243570  0.397230  0.344230  1.0  -0.0117
  C  C154  1  0.105170  0.294130  0.357230  1.0  0.1722
  C  C155  1  0.758230  0.785570  0.805770  1.0  0.7629
  C  C156  1  0.817130  0.763370  0.788960  1.0  -0.0769
  C  C157  1  0.801830  0.733270  0.754970  1.0  -0.0388
  C  C158  1  0.910230  0.730570  0.677570  1.0  -0.0117
  C  C159  1  0.771830  0.627470  0.690570  1.0  0.1722
  C  C160  1  0.881100  0.306000  0.139100  1.0  0.7631
  C  C161  1  0.903300  0.387100  0.122290  1.0  -0.0749
  C  C162  1  0.933400  0.401900  0.088300  1.0  -0.0365
  C  C163  1  0.936100  0.513000  0.010900  1.0  -0.0083
  C  C164  1  0.039200  0.477700  0.023900  1.0  0.168
  C  C165  1  0.547770  0.639330  0.472430  1.0  0.763
  C  C166  1  0.569970  0.720430  0.455620  1.0  -0.0749
  C  C167  1  0.600070  0.735230  0.421630  1.0  -0.0365
  C  C168  1  0.602770  0.846330  0.344230  1.0  -0.0083
  C  C169  1  0.705870  0.811030  0.357230  1.0  0.168
  C  C170  1  0.214430  0.972670  0.805770  1.0  0.7631
  C  C171  1  0.236630  0.053770  0.788960  1.0  -0.0749
  C  C172  1  0.266730  0.068570  0.754970  1.0  -0.0365
  C  C173  1  0.269430  0.179670  0.677570  1.0  -0.0083
  C  C174  1  0.372530  0.144370  0.690570  1.0  0.168
  C  C175  1  0.694000  0.575100  0.139100  1.0  0.7631
  C  C176  1  0.612900  0.516200  0.122290  1.0  -0.0771
  C  C177  1  0.598100  0.531500  0.088300  1.0  -0.0372
  C  C178  1  0.487000  0.423100  0.010900  1.0  -0.0146
  C  C179  1  0.522300  0.561500  0.023900  1.0  0.1752
  C  C180  1  0.360670  0.908430  0.472430  1.0  0.7631
  C  C181  1  0.279570  0.849530  0.455620  1.0  -0.0771
  C  C182  1  0.264770  0.864830  0.421630  1.0  -0.0372
  C  C183  1  0.153670  0.756430  0.344230  1.0  -0.0146
  C  C184  1  0.188970  0.894830  0.357230  1.0  0.1752
  C  C185  1  0.027330  0.241770  0.805770  1.0  0.7631
  C  C186  1  0.946230  0.182870  0.788960  1.0  -0.0771
  C  C187  1  0.931430  0.198170  0.754970  1.0  -0.0372
  C  C188  1  0.820330  0.089770  0.677570  1.0  -0.0146
  C  C189  1  0.855630  0.228170  0.690570  1.0  0.1752
  C  C190  1  0.118900  0.424900  0.860900  1.0  0.7627
  C  C191  1  0.096700  0.483800  0.877710  1.0  -0.0779
  C  C192  1  0.066600  0.468500  0.911700  1.0  -0.0367
  C  C193  1  0.063900  0.576900  0.989100  1.0  -0.0107
  C  C194  1  0.960800  0.438500  0.976100  1.0  0.1727
  C  C195  1  0.785570  0.758230  0.194230  1.0  0.7627
  C  C196  1  0.763370  0.817130  0.211040  1.0  -0.0779
  C  C197  1  0.733270  0.801830  0.245030  1.0  -0.0367
  C  C198  1  0.730570  0.910230  0.322430  1.0  -0.0107
  C  C199  1  0.627470  0.771830  0.309430  1.0  0.1727
  C  C200  1  0.452230  0.091570  0.527570  1.0  0.7627
  C  C201  1  0.430030  0.150470  0.544380  1.0  -0.078
  C  C202  1  0.399930  0.135170  0.578370  1.0  -0.0367
  C  C203  1  0.397230  0.243570  0.655770  1.0  -0.0107
  C  C204  1  0.294130  0.105170  0.642770  1.0  0.1727
  C  C205  1  0.306000  0.881100  0.860900  1.0  0.763
  C  C206  1  0.387100  0.903300  0.877710  1.0  -0.0767
  C  C207  1  0.401900  0.933400  0.911700  1.0  -0.0386
  C  C208  1  0.513000  0.936100  0.989100  1.0  -0.0119
  C  C209  1  0.477700  0.039200  0.976100  1.0  0.1732
  C  C210  1  0.972670  0.214430  0.194230  1.0  0.763
  C  C211  1  0.053770  0.236630  0.211040  1.0  -0.0767
  C  C212  1  0.068570  0.266730  0.245030  1.0  -0.0386
  C  C213  1  0.179670  0.269430  0.322430  1.0  -0.0119
  C  C214  1  0.144370  0.372530  0.309430  1.0  0.1732
  C  C215  1  0.639330  0.547770  0.527570  1.0  0.7629
  C  C216  1  0.720430  0.569970  0.544380  1.0  -0.0767
  C  C217  1  0.735230  0.600070  0.578370  1.0  -0.0386
  C  C218  1  0.846330  0.602770  0.655770  1.0  -0.0119
  C  C219  1  0.811030  0.705870  0.642770  1.0  0.1732
  C  C220  1  0.575100  0.694000  0.860900  1.0  0.7631
  C  C221  1  0.516200  0.612900  0.877710  1.0  -0.0756
  C  C222  1  0.531500  0.598100  0.911700  1.0  -0.035
  C  C223  1  0.423100  0.487000  0.989100  1.0  -0.0048
  C  C224  1  0.561500  0.522300  0.976100  1.0  0.1714
  C  C225  1  0.241770  0.027330  0.194230  1.0  0.7631
  C  C226  1  0.182870  0.946230  0.211040  1.0  -0.0756
  C  C227  1  0.198170  0.931430  0.245030  1.0  -0.035
  C  C228  1  0.089770  0.820330  0.322430  1.0  -0.0048
  C  C229  1  0.228170  0.855630  0.309430  1.0  0.1714
  C  C230  1  0.908430  0.360670  0.527570  1.0  0.7631
  C  C231  1  0.849530  0.279570  0.544380  1.0  -0.0755
  C  C232  1  0.864830  0.264770  0.578370  1.0  -0.035
  C  C233  1  0.756430  0.153670  0.655770  1.0  -0.0048
  C  C234  1  0.894830  0.188970  0.642770  1.0  0.1714
  C  C235  1  0.575100  0.881100  0.860900  1.0  0.7624
  C  C236  1  0.516200  0.903300  0.877710  1.0  -0.0771
  C  C237  1  0.531500  0.933400  0.911700  1.0  -0.0382
  C  C238  1  0.423100  0.936100  0.989100  1.0  -0.0114
  C  C239  1  0.561500  0.039200  0.976100  1.0  0.1705
  C  C240  1  0.241770  0.214430  0.194230  1.0  0.7624
  C  C241  1  0.182870  0.236630  0.211040  1.0  -0.0771
  C  C242  1  0.198170  0.266730  0.245030  1.0  -0.0382
  C  C243  1  0.089770  0.269430  0.322430  1.0  -0.0114
  C  C244  1  0.228170  0.372530  0.309430  1.0  0.1705
  C  C245  1  0.908430  0.547770  0.527570  1.0  0.7624
  C  C246  1  0.849530  0.569970  0.544380  1.0  -0.077
  C  C247  1  0.864830  0.600070  0.578370  1.0  -0.0382
  C  C248  1  0.756430  0.602770  0.655770  1.0  -0.0114
  C  C249  1  0.894830  0.705870  0.642770  1.0  0.1705
  C  C250  1  0.118900  0.694000  0.860900  1.0  0.7634
  C  C251  1  0.096700  0.612900  0.877710  1.0  -0.0757
  C  C252  1  0.066600  0.598100  0.911700  1.0  -0.0359
  C  C253  1  0.063900  0.487000  0.989100  1.0  -0.0076
  C  C254  1  0.960800  0.522300  0.976100  1.0  0.1757
  C  C255  1  0.785570  0.027330  0.194230  1.0  0.7634
  C  C256  1  0.763370  0.946230  0.211040  1.0  -0.0757
  C  C257  1  0.733270  0.931430  0.245030  1.0  -0.0359
  C  C258  1  0.730570  0.820330  0.322430  1.0  -0.0076
  C  C259  1  0.627470  0.855630  0.309430  1.0  0.1757
  C  C260  1  0.452230  0.360670  0.527570  1.0  0.7633
  C  C261  1  0.430030  0.279570  0.544380  1.0  -0.0757
  C  C262  1  0.399930  0.264770  0.578370  1.0  -0.0359
  C  C263  1  0.397230  0.153670  0.655770  1.0  -0.0076
  C  C264  1  0.294130  0.188970  0.642770  1.0  0.1757
  C  C265  1  0.306000  0.424900  0.860900  1.0  0.7629
  C  C266  1  0.387100  0.483800  0.877710  1.0  -0.078
  C  C267  1  0.401900  0.468500  0.911700  1.0  -0.0368
  C  C268  1  0.513000  0.576900  0.989100  1.0  -0.0108
  C  C269  1  0.477700  0.438500  0.976100  1.0  0.1717
  C  C270  1  0.972670  0.758230  0.194230  1.0  0.7629
  C  C271  1  0.053770  0.817130  0.211040  1.0  -0.078
  C  C272  1  0.068570  0.801830  0.245030  1.0  -0.0368
  C  C273  1  0.179670  0.910230  0.322430  1.0  -0.0108
  C  C274  1  0.144370  0.771830  0.309430  1.0  0.1717
  C  C275  1  0.639330  0.091570  0.527570  1.0  0.7629
  C  C276  1  0.720430  0.150470  0.544380  1.0  -0.078
  C  C277  1  0.735230  0.135170  0.578370  1.0  -0.0368
  C  C278  1  0.846330  0.243570  0.655770  1.0  -0.0108
  C  C279  1  0.811030  0.105170  0.642770  1.0  0.1717
  C  C280  1  0.881100  0.575100  0.139100  1.0  0.763
  C  C281  1  0.903300  0.516200  0.122290  1.0  -0.077
  C  C282  1  0.933400  0.531500  0.088300  1.0  -0.0369
  C  C283  1  0.936100  0.423100  0.010900  1.0  -0.0151
  C  C284  1  0.039200  0.561500  0.023900  1.0  0.1734
  C  C285  1  0.547770  0.908430  0.472430  1.0  0.763
  C  C286  1  0.569970  0.849530  0.455620  1.0  -0.0771
  C  C287  1  0.600070  0.864830  0.421630  1.0  -0.0369
  C  C288  1  0.602770  0.756430  0.344230  1.0  -0.0151
  C  C289  1  0.705870  0.894830  0.357230  1.0  0.1734
  C  C290  1  0.214430  0.241770  0.805770  1.0  0.763
  C  C291  1  0.236630  0.182870  0.788960  1.0  -0.077
  C  C292  1  0.266730  0.198170  0.754970  1.0  -0.0369
  C  C293  1  0.269430  0.089770  0.677570  1.0  -0.0151
  C  C294  1  0.372530  0.228170  0.690570  1.0  0.1734
  C  C295  1  0.694000  0.118900  0.139100  1.0  0.7626
  C  C296  1  0.612900  0.096700  0.122290  1.0  -0.0768
  C  C297  1  0.598100  0.066600  0.088300  1.0  -0.038
  C  C298  1  0.487000  0.063900  0.010900  1.0  -0.011
  C  C299  1  0.522300  0.960800  0.023900  1.0  0.1685
  C  C300  1  0.360670  0.452230  0.472430  1.0  0.7625
  C  C301  1  0.279570  0.430030  0.455620  1.0  -0.0768
  C  C302  1  0.264770  0.399930  0.421630  1.0  -0.038
  C  C303  1  0.153670  0.397230  0.344230  1.0  -0.011
  C  C304  1  0.188970  0.294130  0.357230  1.0  0.1685
  C  C305  1  0.027330  0.785570  0.805770  1.0  0.7626
  C  C306  1  0.946230  0.763370  0.788960  1.0  -0.0768
  C  C307  1  0.931430  0.733270  0.754970  1.0  -0.038
  C  C308  1  0.820330  0.730570  0.677570  1.0  -0.011
  C  C309  1  0.855630  0.627470  0.690570  1.0  0.1685
  C  C310  1  0.424900  0.306000  0.139100  1.0  0.7634
  C  C311  1  0.483800  0.387100  0.122290  1.0  -0.0752
  C  C312  1  0.468500  0.401900  0.088300  1.0  -0.0367
  C  C313  1  0.576900  0.513000  0.010900  1.0  -0.0098
  C  C314  1  0.438500  0.477700  0.023900  1.0  0.1741
  C  C315  1  0.091570  0.639330  0.472430  1.0  0.7634
  C  C316  1  0.150470  0.720430  0.455620  1.0  -0.0752
  C  C317  1  0.135170  0.735230  0.421630  1.0  -0.0367
  C  C318  1  0.243570  0.846330  0.344230  1.0  -0.0098
  C  C319  1  0.105170  0.811030  0.357230  1.0  0.1741
  C  C320  1  0.758230  0.972670  0.805770  1.0  0.7634
  C  C321  1  0.817130  0.053770  0.788960  1.0  -0.0752
  C  C322  1  0.801830  0.068570  0.754970  1.0  -0.0367
  C  C323  1  0.910230  0.179670  0.677570  1.0  -0.0098
  C  C324  1  0.771830  0.144370  0.690570  1.0  0.1741
  C  C325  1  0.555850  0.111700  0.138900  1.0  0.1041
  C  C326  1  0.525350  0.050700  0.071700  1.0  0.0884
  C  C327  1  0.510500  0.021000  0.035100  1.0  0.2566
  C  C328  1  0.222520  0.445030  0.472230  1.0  0.1041
  C  C329  1  0.192020  0.384030  0.405030  1.0  0.0884
  C  C330  1  0.177170  0.354330  0.368430  1.0  0.2566
  C  C331  1  0.889180  0.778370  0.805570  1.0  0.1041
  C  C332  1  0.858680  0.717370  0.738370  1.0  0.0884
  C  C333  1  0.843830  0.687670  0.701770  1.0  0.2566
  C  C334  1  0.888300  0.444150  0.138900  1.0  0.104
  C  C335  1  0.949300  0.474650  0.071700  1.0  0.0887
  C  C336  1  0.979000  0.489500  0.035100  1.0  0.2475
  C  C337  1  0.554970  0.777480  0.472230  1.0  0.104
  C  C338  1  0.615970  0.807980  0.405030  1.0  0.0887
  C  C339  1  0.645670  0.822830  0.368430  1.0  0.2475
  C  C340  1  0.221630  0.110820  0.805570  1.0  0.104
  C  C341  1  0.282630  0.141320  0.738370  1.0  0.0887
  C  C342  1  0.312330  0.156170  0.701770  1.0  0.2475
  C  C343  1  0.555850  0.444150  0.138900  1.0  0.1023
  C  C344  1  0.525350  0.474650  0.071700  1.0  0.089
  C  C345  1  0.510500  0.489500  0.035100  1.0  0.252
  C  C346  1  0.222520  0.777480  0.472230  1.0  0.1024
  C  C347  1  0.192020  0.807980  0.405030  1.0  0.089
  C  C348  1  0.177170  0.822830  0.368430  1.0  0.252
  C  C349  1  0.889180  0.110820  0.805570  1.0  0.1023
  C  C350  1  0.858680  0.141320  0.738370  1.0  0.089
  C  C351  1  0.843830  0.156170  0.701770  1.0  0.252
  C  C352  1  0.111700  0.555850  0.861100  1.0  0.1021
  C  C353  1  0.050700  0.525350  0.928300  1.0  0.0874
  C  C354  1  0.021000  0.510500  0.964900  1.0  0.2525
  C  C355  1  0.778370  0.889180  0.194430  1.0  0.1021
  C  C356  1  0.717370  0.858680  0.261630  1.0  0.0874
  C  C357  1  0.687670  0.843830  0.298230  1.0  0.2525
  C  C358  1  0.445030  0.222520  0.527770  1.0  0.1021
  C  C359  1  0.384030  0.192020  0.594970  1.0  0.0874
  C  C360  1  0.354330  0.177170  0.631570  1.0  0.2525
  C  C361  1  0.444150  0.888300  0.861100  1.0  0.1036
  C  C362  1  0.474650  0.949300  0.928300  1.0  0.0899
  C  C363  1  0.489500  0.979000  0.964900  1.0  0.2547
  C  C364  1  0.110820  0.221630  0.194430  1.0  0.1036
  C  C365  1  0.141320  0.282630  0.261630  1.0  0.0899
  C  C366  1  0.156170  0.312330  0.298230  1.0  0.2547
  C  C367  1  0.777480  0.554970  0.527770  1.0  0.1036
  C  C368  1  0.807980  0.615970  0.594970  1.0  0.0899
  C  C369  1  0.822830  0.645670  0.631570  1.0  0.2547
  C  C370  1  0.444150  0.555850  0.861100  1.0  0.102
  C  C371  1  0.474650  0.525350  0.928300  1.0  0.0892
  C  C372  1  0.489500  0.510500  0.964900  1.0  0.2484
  C  C373  1  0.110820  0.889180  0.194430  1.0  0.102
  C  C374  1  0.141320  0.858680  0.261630  1.0  0.0892
  C  C375  1  0.156170  0.843830  0.298230  1.0  0.2484
  C  C376  1  0.777480  0.222520  0.527770  1.0  0.1021
  C  C377  1  0.807980  0.192020  0.594970  1.0  0.0892
  C  C378  1  0.822830  0.177170  0.631570  1.0  0.2484
  N  N379  1  0.361000  0.900500  0.047900  1.0  -0.3049
  N  N380  1  0.027670  0.233830  0.381230  1.0  -0.3049
  N  N381  1  0.694330  0.567170  0.714570  1.0  -0.3049
  N  N382  1  0.099500  0.460500  0.047900  1.0  -0.2999
  N  N383  1  0.766170  0.793830  0.381230  1.0  -0.2999
  N  N384  1  0.432830  0.127170  0.714570  1.0  -0.2999
  N  N385  1  0.539500  0.639000  0.047900  1.0  -0.3022
  N  N386  1  0.206170  0.972330  0.381230  1.0  -0.3022
  N  N387  1  0.872830  0.305670  0.714570  1.0  -0.3022
  N  N388  1  0.900500  0.361000  0.952100  1.0  -0.3012
  N  N389  1  0.567170  0.694330  0.285430  1.0  -0.3012
  N  N390  1  0.233830  0.027670  0.618770  1.0  -0.3012
  N  N391  1  0.460500  0.099500  0.952100  1.0  -0.3031
  N  N392  1  0.127170  0.432830  0.285430  1.0  -0.3031
  N  N393  1  0.793830  0.766170  0.618770  1.0  -0.3031
  N  N394  1  0.639000  0.539500  0.952100  1.0  -0.2994
  N  N395  1  0.305670  0.872830  0.285430  1.0  -0.2994
  N  N396  1  0.972330  0.206170  0.618770  1.0  -0.2994
  N  N397  1  0.639000  0.099500  0.952100  1.0  -0.3015
  N  N398  1  0.305670  0.432830  0.285430  1.0  -0.3015
  N  N399  1  0.972330  0.766170  0.618770  1.0  -0.3015
  N  N400  1  0.900500  0.539500  0.952100  1.0  -0.3023
  N  N401  1  0.567170  0.872830  0.285430  1.0  -0.3023
  N  N402  1  0.233830  0.206170  0.618770  1.0  -0.3023
  N  N403  1  0.460500  0.361000  0.952100  1.0  -0.3002
  N  N404  1  0.127170  0.694330  0.285430  1.0  -0.3002
  N  N405  1  0.793830  0.027670  0.618770  1.0  -0.3002
  N  N406  1  0.099500  0.639000  0.047900  1.0  -0.3008
  N  N407  1  0.766170  0.972330  0.381230  1.0  -0.3008
  N  N408  1  0.432830  0.305670  0.714570  1.0  -0.3008
  N  N409  1  0.539500  0.900500  0.047900  1.0  -0.3014
  N  N410  1  0.206170  0.233830  0.381230  1.0  -0.3014
  N  N411  1  0.872830  0.567170  0.714570  1.0  -0.3014
  N  N412  1  0.361000  0.460500  0.047900  1.0  -0.3053
  N  N413  1  0.027670  0.793830  0.381230  1.0  -0.3053
  N  N414  1  0.694330  0.127170  0.714570  1.0  -0.3053
  O  O415  1  0.443600  0.148000  0.169270  1.0  -0.4939
  O  O416  1  0.362500  0.107000  0.122100  1.0  -0.5004
  O  O417  1  0.294800  0.882000  0.039100  1.0  -0.5226
  O  O418  1  0.380000  0.883800  0.074200  1.0  -0.3771
  O  O419  1  0.110270  0.481330  0.502600  1.0  -0.4939
  O  O420  1  0.029170  0.440330  0.455430  1.0  -0.5003
  O  O421  1  0.961470  0.215330  0.372430  1.0  -0.5226
  O  O422  1  0.046670  0.217130  0.407530  1.0  -0.3724
  O  O423  1  0.776930  0.814670  0.835940  1.0  -0.4939
  O  O424  1  0.695830  0.773670  0.788770  1.0  -0.5004
  O  O425  1  0.628130  0.548670  0.705770  1.0  -0.51
  O  O426  1  0.713330  0.550470  0.740870  1.0  -0.3771
  O  O427  1  0.852000  0.295600  0.169270  1.0  -0.4942
  O  O428  1  0.893000  0.255500  0.122100  1.0  -0.5001
  O  O429  1  0.118000  0.412800  0.039100  1.0  -0.519
  O  O430  1  0.116200  0.496200  0.074200  1.0  -0.379
  O  O431  1  0.518670  0.628930  0.502600  1.0  -0.4942
  O  O432  1  0.559670  0.588830  0.455430  1.0  -0.5001
  O  O433  1  0.784670  0.746130  0.372430  1.0  -0.5166
  O  O434  1  0.782870  0.829530  0.407530  1.0  -0.3831
  O  O435  1  0.185330  0.962270  0.835940  1.0  -0.4942
  O  O436  1  0.226330  0.922170  0.788770  1.0  -0.5003
  O  O437  1  0.451330  0.079470  0.705770  1.0  -0.519
  O  O438  1  0.449530  0.162870  0.740870  1.0  -0.379
  O  O439  1  0.704400  0.556400  0.169270  1.0  -0.4947
  O  O440  1  0.744500  0.637500  0.122100  1.0  -0.5
  O  O441  1  0.587200  0.705200  0.039100  1.0  -0.5208
  O  O442  1  0.503800  0.620000  0.074200  1.0  -0.3695
  O  O443  1  0.371070  0.889730  0.502600  1.0  -0.4947
  O  O444  1  0.411170  0.970830  0.455430  1.0  -0.5001
  O  O445  1  0.253870  0.038530  0.372430  1.0  -0.5208
  O  O446  1  0.170470  0.953330  0.407530  1.0  -0.3748
  O  O447  1  0.037730  0.223070  0.835940  1.0  -0.4947
  O  O448  1  0.077830  0.304170  0.788770  1.0  -0.5
  O  O449  1  0.920530  0.371870  0.705770  1.0  -0.5182
  O  O450  1  0.837130  0.286670  0.740870  1.0  -0.3695
  O  O451  1  0.148000  0.443600  0.830730  1.0  -0.4955
  O  O452  1  0.107000  0.362500  0.877900  1.0  -0.5002
  O  O453  1  0.882000  0.294800  0.960900  1.0  -0.5256
  O  O454  1  0.883800  0.380000  0.925800  1.0  -0.3777
  O  O455  1  0.814670  0.776930  0.164060  1.0  -0.4955
  O  O456  1  0.773670  0.695830  0.211230  1.0  -0.5002
  O  O457  1  0.548670  0.628130  0.294230  1.0  -0.5256
  O  O458  1  0.550470  0.713330  0.259130  1.0  -0.3777
  O  O459  1  0.481330  0.110270  0.497400  1.0  -0.4955
  O  O460  1  0.440330  0.029170  0.544570  1.0  -0.5002
  O  O461  1  0.215330  0.961470  0.627570  1.0  -0.5256
  O  O462  1  0.217130  0.046670  0.592470  1.0  -0.3693
  O  O463  1  0.295600  0.852000  0.830730  1.0  -0.4949
  O  O464  1  0.255500  0.893000  0.877900  1.0  -0.5008
  O  O465  1  0.412800  0.118000  0.960900  1.0  -0.522
  O  O466  1  0.496200  0.116200  0.925800  1.0  -0.3777
  O  O467  1  0.962270  0.185330  0.164060  1.0  -0.4949
  O  O468  1  0.922170  0.226330  0.211230  1.0  -0.5008
  O  O469  1  0.079470  0.451330  0.294230  1.0  -0.522
  O  O470  1  0.162870  0.449530  0.259130  1.0  -0.3777
  O  O471  1  0.628930  0.518670  0.497400  1.0  -0.4949
  O  O472  1  0.588830  0.559670  0.544570  1.0  -0.5008
  O  O473  1  0.746130  0.784670  0.627570  1.0  -0.5194
  O  O474  1  0.829530  0.782870  0.592470  1.0  -0.381
  O  O475  1  0.556400  0.704400  0.830730  1.0  -0.4946
  O  O476  1  0.637500  0.744500  0.877900  1.0  -0.5002
  O  O477  1  0.705200  0.587200  0.960900  1.0  -0.5173
  O  O478  1  0.620000  0.503800  0.925800  1.0  -0.3672
  O  O479  1  0.223070  0.037730  0.164060  1.0  -0.4946
  O  O480  1  0.304170  0.077830  0.211230  1.0  -0.5002
  O  O481  1  0.371870  0.920530  0.294230  1.0  -0.5173
  O  O482  1  0.286670  0.837130  0.259130  1.0  -0.3672
  O  O483  1  0.889730  0.371070  0.497400  1.0  -0.4946
  O  O484  1  0.970830  0.411170  0.544570  1.0  -0.5003
  O  O485  1  0.038530  0.253870  0.627570  1.0  -0.5173
  O  O486  1  0.953330  0.170470  0.592470  1.0  -0.3765
  O  O487  1  0.556400  0.852000  0.830730  1.0  -0.4949
  O  O488  1  0.637500  0.893000  0.877900  1.0  -0.5
  O  O489  1  0.705200  0.118000  0.960900  1.0  -0.5131
  O  O490  1  0.620000  0.116200  0.925800  1.0  -0.3761
  O  O491  1  0.223070  0.185330  0.164060  1.0  -0.4949
  O  O492  1  0.304170  0.226330  0.211230  1.0  -0.5
  O  O493  1  0.371870  0.451330  0.294230  1.0  -0.5131
  O  O494  1  0.286670  0.449530  0.259130  1.0  -0.3761
  O  O495  1  0.889730  0.518670  0.497400  1.0  -0.4949
  O  O496  1  0.970830  0.559670  0.544570  1.0  -0.5
  O  O497  1  0.038530  0.784670  0.627570  1.0  -0.5131
  O  O498  1  0.953330  0.782870  0.592470  1.0  -0.3693
  O  O499  1  0.148000  0.704400  0.830730  1.0  -0.4945
  O  O500  1  0.107000  0.744500  0.877900  1.0  -0.4994
  O  O501  1  0.882000  0.587200  0.960900  1.0  -0.5197
  O  O502  1  0.883800  0.503800  0.925800  1.0  -0.3815
  O  O503  1  0.814670  0.037730  0.164060  1.0  -0.4945
  O  O504  1  0.773670  0.077830  0.211230  1.0  -0.4994
  O  O505  1  0.548670  0.920530  0.294230  1.0  -0.5197
  O  O506  1  0.550470  0.837130  0.259130  1.0  -0.3815
  O  O507  1  0.481330  0.371070  0.497400  1.0  -0.4944
  O  O508  1  0.440330  0.411170  0.544570  1.0  -0.4994
  O  O509  1  0.215330  0.253870  0.627570  1.0  -0.5172
  O  O510  1  0.217130  0.170470  0.592470  1.0  -0.3843
  O  O511  1  0.295600  0.443600  0.830730  1.0  -0.4953
  O  O512  1  0.255500  0.362500  0.877900  1.0  -0.4997
  O  O513  1  0.412800  0.294800  0.960900  1.0  -0.5264
  O  O514  1  0.496200  0.380000  0.925800  1.0  -0.3652
  O  O515  1  0.962270  0.776930  0.164060  1.0  -0.4953
  O  O516  1  0.922170  0.695830  0.211230  1.0  -0.4997
  O  O517  1  0.079470  0.628130  0.294230  1.0  -0.5264
  O  O518  1  0.162870  0.713330  0.259130  1.0  -0.3652
  O  O519  1  0.628930  0.110270  0.497400  1.0  -0.4953
  O  O520  1  0.588830  0.029170  0.544570  1.0  -0.4997
  O  O521  1  0.746130  0.961470  0.627570  1.0  -0.5264
  O  O522  1  0.829530  0.046670  0.592470  1.0  -0.3755
  O  O523  1  0.852000  0.556400  0.169270  1.0  -0.4944
  O  O524  1  0.893000  0.637500  0.122100  1.0  -0.5006
  O  O525  1  0.118000  0.705200  0.039100  1.0  -0.5202
  O  O526  1  0.116200  0.620000  0.074200  1.0  -0.3765
  O  O527  1  0.518670  0.889730  0.502600  1.0  -0.4944
  O  O528  1  0.559670  0.970830  0.455430  1.0  -0.5006
  O  O529  1  0.784670  0.038530  0.372430  1.0  -0.5202
  O  O530  1  0.782870  0.953330  0.407530  1.0  -0.3716
  O  O531  1  0.185330  0.223070  0.835940  1.0  -0.4944
  O  O532  1  0.226330  0.304170  0.788770  1.0  -0.5006
  O  O533  1  0.451330  0.371870  0.705770  1.0  -0.5102
  O  O534  1  0.449530  0.286670  0.740870  1.0  -0.3765
  O  O535  1  0.704400  0.148000  0.169270  1.0  -0.4946
  O  O536  1  0.744500  0.107000  0.122100  1.0  -0.5011
  O  O537  1  0.587200  0.882000  0.039100  1.0  -0.5146
  O  O538  1  0.503800  0.883800  0.074200  1.0  -0.3777
  O  O539  1  0.371070  0.481330  0.502600  1.0  -0.4945
  O  O540  1  0.411170  0.440330  0.455430  1.0  -0.5011
  O  O541  1  0.253870  0.215330  0.372430  1.0  -0.5115
  O  O542  1  0.170470  0.217130  0.407530  1.0  -0.3813
  O  O543  1  0.037730  0.814670  0.835940  1.0  -0.4946
  O  O544  1  0.077830  0.773670  0.788770  1.0  -0.5012
  O  O545  1  0.920530  0.548670  0.705770  1.0  -0.5146
  O  O546  1  0.837130  0.550470  0.740870  1.0  -0.3777
  O  O547  1  0.443600  0.295600  0.169270  1.0  -0.4935
  O  O548  1  0.362500  0.255500  0.122100  1.0  -0.5009
  O  O549  1  0.294800  0.412800  0.039100  1.0  -0.5215
  O  O550  1  0.380000  0.496200  0.074200  1.0  -0.3758
  O  O551  1  0.110270  0.628930  0.502600  1.0  -0.4935
  O  O552  1  0.029170  0.588830  0.455430  1.0  -0.501
  O  O553  1  0.961470  0.746130  0.372430  1.0  -0.5215
  O  O554  1  0.046670  0.829530  0.407530  1.0  -0.381
  O  O555  1  0.776930  0.962270  0.835940  1.0  -0.4935
  O  O556  1  0.695830  0.922170  0.788770  1.0  -0.501
  O  O557  1  0.628130  0.079470  0.705770  1.0  -0.5188
  O  O558  1  0.713330  0.162870  0.740870  1.0  -0.3758
