# generated using pymatgen
data_ZnH5C8N3O2
_symmetry_space_group_name_H-M   'P 1'
_cell_length_a   13.60900000
_cell_length_b   13.61700000
_cell_length_c   27.18100000
_cell_angle_alpha   90.00000000
_cell_angle_beta   90.00000000
_cell_angle_gamma   92.46300000
_symmetry_Int_Tables_number   1
_chemical_formula_structural   ZnH5C8N3O2
_chemical_formula_sum   'Zn16 H80 C128 N48 O32'
_cell_volume   5032.35983408
_cell_formula_units_Z   16
loop_
 _symmetry_equiv_pos_site_id
 _symmetry_equiv_pos_as_xyz
  1  'x, y, z'
loop_
 _atom_site_type_symbol
 _atom_site_label
 _atom_site_symmetry_multiplicity
 _atom_site_fract_x
 _atom_site_fract_y
 _atom_site_fract_z
 _atom_site_occupancy
 _atom_site_charge
  Zn  Zn1  1  0.330160  0.322160  0.694260  1.0  0.9407
  Zn  Zn2  1  0.749730  0.206140  0.701870  1.0  0.9199
  Zn  Zn3  1  0.669840  0.677840  0.305740  1.0  0.9408
  Zn  Zn4  1  0.145240  0.274930  0.796300  1.0  0.9022
  Zn  Zn5  1  0.169840  0.177840  0.194260  1.0  0.9409
  Zn  Zn6  1  0.780360  0.109750  0.303860  1.0  0.8718
  Zn  Zn7  1  0.750270  0.293860  0.201870  1.0  0.9196
  Zn  Zn8  1  0.249730  0.706140  0.798130  1.0  0.9197
  Zn  Zn9  1  0.354760  0.225070  0.296300  1.0  0.9019
  Zn  Zn10  1  0.830160  0.822160  0.805740  1.0  0.9405
  Zn  Zn11  1  0.645240  0.774930  0.703700  1.0  0.9021
  Zn  Zn12  1  0.854760  0.725070  0.203700  1.0  0.9022
  Zn  Zn13  1  0.719640  0.390250  0.803860  1.0  0.8715
  Zn  Zn14  1  0.219640  0.890250  0.696140  1.0  0.8713
  Zn  Zn15  1  0.250270  0.793860  0.298130  1.0  0.9197
  Zn  Zn16  1  0.280360  0.609750  0.196140  1.0  0.8716
  H  H17  1  0.672700  0.902200  0.332100  1.0  0.1009
  H  H18  1  0.714600  0.147200  0.078100  1.0  0.128
  H  H19  1  0.048300  0.300000  0.972400  1.0  0.1225
  H  H20  1  0.274000  0.999400  0.530100  1.0  0.1224
  H  H21  1  0.283500  0.976600  0.445000  1.0  0.1206
  H  H22  1  0.494500  0.402100  0.779700  1.0  0.1019
  H  H23  1  0.620300  0.548200  0.735600  1.0  0.0845
  H  H24  1  0.985100  0.663900  0.580000  1.0  0.1159
  H  H25  1  0.304400  0.807100  0.092200  1.0  0.1258
  H  H26  1  0.485100  0.163900  0.920000  1.0  0.1153
  H  H27  1  0.511900  0.128500  0.003100  1.0  0.1042
  H  H28  1  0.166700  0.536100  0.558600  1.0  0.1218
  H  H29  1  0.176200  0.513300  0.473400  1.0  0.1108
  H  H30  1  0.473500  0.789800  0.327800  1.0  0.1103
  H  H31  1  0.334700  0.224300  0.894900  1.0  0.124
  H  H32  1  0.665300  0.775700  0.105100  1.0  0.1248
  H  H33  1  0.804400  0.307100  0.407800  1.0  0.1263
  H  H34  1  0.676200  0.013300  0.026600  1.0  0.1109
  H  H35  1  0.611700  0.846500  0.939000  1.0  0.1541
  H  H36  1  0.550600  0.111500  0.330900  1.0  0.0994
  H  H37  1  0.050600  0.611500  0.169100  1.0  0.0987
  H  H38  1  0.832900  0.054500  0.784400  1.0  0.0995
  H  H39  1  0.488100  0.871500  0.996900  1.0  0.1048
  H  H40  1  0.029200  0.809100  0.275900  1.0  0.0976
  H  H41  1  0.973500  0.289800  0.172200  1.0  0.1102
  H  H42  1  0.879700  0.951800  0.235600  1.0  0.085
  H  H43  1  0.783500  0.476600  0.055000  1.0  0.12
  H  H44  1  0.327300  0.097800  0.667900  1.0  0.1031
  H  H45  1  0.451700  0.200000  0.472400  1.0  0.1216
  H  H46  1  0.834700  0.724300  0.605100  1.0  0.1241
  H  H47  1  0.388300  0.153500  0.061000  1.0  0.1551
  H  H48  1  0.424900  0.235500  0.555500  1.0  0.124
  H  H49  1  0.994500  0.902100  0.720300  1.0  0.1013
  H  H50  1  0.005500  0.097900  0.279700  1.0  0.102
  H  H51  1  0.988100  0.371500  0.503100  1.0  0.1046
  H  H52  1  0.726000  0.000600  0.469900  1.0  0.1232
  H  H53  1  0.667100  0.445500  0.284400  1.0  0.1001
  H  H54  1  0.924900  0.735500  0.944500  1.0  0.1243
  H  H55  1  0.214600  0.647200  0.421900  1.0  0.1282
  H  H56  1  0.379700  0.451800  0.264400  1.0  0.085
  H  H57  1  0.526500  0.210200  0.672200  1.0  0.1103
  H  H58  1  0.470800  0.690900  0.775900  1.0  0.0975
  H  H59  1  0.666667  0.036100  0.941400  1.0  0.1242
  H  H60  1  0.014900  0.336100  0.420000  1.0  0.1154
  H  H61  1  0.111700  0.346500  0.561000  1.0  0.155
  H  H62  1  0.575100  0.764500  0.444500  1.0  0.1239
  H  H63  1  0.644500  0.997200  0.677100  1.0  0.126
  H  H64  1  0.075100  0.264500  0.055500  1.0  0.1235
  H  H65  1  0.165300  0.275700  0.394900  1.0  0.1246
  H  H66  1  0.167100  0.945500  0.215600  1.0  0.099
  H  H67  1  0.011900  0.628500  0.496900  1.0  0.1045
  H  H68  1  0.172700  0.402200  0.167900  1.0  0.103
  H  H69  1  0.970800  0.190900  0.724100  1.0  0.0949
  H  H70  1  0.195600  0.692900  0.592200  1.0  0.1268
  H  H71  1  0.888300  0.653500  0.439000  1.0  0.1526
  H  H72  1  0.449400  0.888500  0.669100  1.0  0.099
  H  H73  1  0.695600  0.192900  0.907800  1.0  0.1268
  H  H74  1  0.505500  0.597900  0.220300  1.0  0.1017
  H  H75  1  0.120300  0.048200  0.764400  1.0  0.0852
  H  H76  1  0.774000  0.499400  0.969900  1.0  0.1225
  H  H77  1  0.332900  0.554500  0.715600  1.0  0.1005
  H  H78  1  0.949400  0.388500  0.830900  1.0  0.099
  H  H79  1  0.514900  0.836100  0.080000  1.0  0.1154
  H  H80  1  0.716500  0.023400  0.555000  1.0  0.12
  H  H81  1  0.833300  0.463900  0.441400  1.0  0.1223
  H  H82  1  0.323800  0.986700  0.973400  1.0  0.1117
  H  H83  1  0.951700  0.700000  0.027600  1.0  0.1214
  H  H84  1  0.823800  0.486700  0.526600  1.0  0.1106
  H  H85  1  0.355500  0.002800  0.322900  1.0  0.127
  H  H86  1  0.548300  0.800000  0.527600  1.0  0.1224
  H  H87  1  0.144500  0.497200  0.822900  1.0  0.1265
  H  H88  1  0.785400  0.352800  0.578100  1.0  0.1278
  H  H89  1  0.285400  0.852800  0.921900  1.0  0.1285
  H  H90  1  0.216500  0.523400  0.945000  1.0  0.1204
  H  H91  1  0.827300  0.597800  0.832100  1.0  0.1017
  H  H92  1  0.855500  0.502800  0.177100  1.0  0.1262
  H  H93  1  0.529200  0.309100  0.224100  1.0  0.0974
  H  H94  1  0.333333  0.963900  0.058600  1.0  0.1255
  H  H95  1  0.226000  0.500600  0.030100  1.0  0.1231
  H  H96  1  0.026500  0.710200  0.827800  1.0  0.1111
  C  C97  1  0.845600  0.709900  0.571400  1.0  -0.1591
  C  C98  1  0.239800  0.879700  0.602200  1.0  0.6824
  C  C99  1  0.476200  0.640800  0.243100  1.0  0.1887
  C  C100  1  0.227900  0.749600  0.476500  1.0  0.0401
  C  C101  1  0.829900  0.920500  0.255300  1.0  0.2548
  C  C102  1  0.749300  0.170900  0.554100  1.0  -0.1205
  C  C103  1  0.374700  0.245600  0.531900  1.0  -0.0671
  C  C104  1  0.054800  0.762200  0.253900  1.0  0.2006
  C  C105  1  0.523800  0.359200  0.756900  1.0  0.1897
  C  C106  1  0.210700  0.656500  0.456500  1.0  -0.1591
  C  C107  1  0.317200  0.239400  0.448200  1.0  -0.0842
  C  C108  1  0.761200  0.322800  0.109500  1.0  0.692
  C  C109  1  0.445200  0.737800  0.753900  1.0  0.202
  C  C110  1  0.836000  0.719000  0.107700  1.0  0.6547
  C  C111  1  0.064700  0.654100  0.196100  1.0  0.2543
  C  C112  1  0.188000  0.489600  0.796000  1.0  0.164
  C  C113  1  0.699500  0.183600  0.942300  1.0  -0.1862
  C  C114  1  0.208000  0.191000  0.102800  1.0  0.4301
  C  C115  1  0.767900  0.422200  0.034100  1.0  -0.0773
  C  C116  1  0.222300  0.763100  0.527100  1.0  0.04
  C  C117  1  0.125300  0.254400  0.031900  1.0  -0.0684
  C  C118  1  0.182800  0.260600  0.948200  1.0  -0.0843
  C  C119  1  0.934900  0.674100  0.556500  1.0  -0.1145
  C  C120  1  0.435300  0.845900  0.696100  1.0  0.2545
  C  C121  1  0.227800  0.275200  0.463100  1.0  0.0358
  C  C122  1  0.285300  0.281500  0.546800  1.0  -0.1589
  C  C123  1  0.760200  0.120300  0.397800  1.0  0.6803
  C  C124  1  0.664000  0.781000  0.607700  1.0  0.6546
  C  C125  1  0.300500  0.816400  0.057700  1.0  -0.1877
  C  C126  1  0.874700  0.745600  0.968100  1.0  -0.0668
  C  C127  1  0.272100  0.750400  0.976500  1.0  0.0403
  C  C128  1  0.214700  0.218500  0.046800  1.0  -0.1594
  C  C129  1  0.539500  0.255200  0.698300  1.0  0.2063
  C  C130  1  0.777700  0.236900  0.472900  1.0  0.0376
  C  C131  1  0.877400  0.667900  0.472700  1.0  -0.1605
  C  C132  1  0.122600  0.332100  0.527300  1.0  -0.1593
  C  C133  1  0.739800  0.379700  0.897800  1.0  0.6877
  C  C134  1  0.750700  0.329100  0.054100  1.0  -0.1202
  C  C135  1  0.260500  0.643700  0.047100  1.0  -0.1042
  C  C136  1  0.262300  0.935800  0.516500  1.0  -0.0709
  C  C137  1  0.279800  0.107500  0.692800  1.0  0.1972
  C  C138  1  0.554800  0.262200  0.246100  1.0  0.2009
  C  C139  1  0.727900  0.249600  0.023500  1.0  0.0404
  C  C140  1  0.250700  0.829100  0.445900  1.0  -0.1211
  C  C141  1  0.260200  0.620300  0.102200  1.0  0.6893
  C  C142  1  0.239500  0.856300  0.547100  1.0  -0.1024
  C  C143  1  0.237700  0.564200  0.016500  1.0  -0.0707
  C  C144  1  0.670100  0.579500  0.755300  1.0  0.2566
  C  C145  1  0.935300  0.345900  0.803900  1.0  0.2539
  C  C146  1  0.211900  0.296300  0.512400  1.0  0.0706
  C  C147  1  0.890600  0.724600  0.017400  1.0  -0.0894
  C  C148  1  0.711900  0.796300  0.987600  1.0  0.0703
  C  C149  1  0.232100  0.577800  0.965900  1.0  -0.0778
  C  C150  1  0.785300  0.781500  0.953200  1.0  -0.1609
  C  C151  1  0.317700  0.909500  0.037700  1.0  -0.1196
  C  C152  1  0.817200  0.739400  0.051800  1.0  -0.0833
  C  C153  1  0.292000  0.309000  0.602800  1.0  0.4301
  C  C154  1  0.164000  0.281000  0.892300  1.0  0.6536
  C  C155  1  0.788100  0.703700  0.487600  1.0  0.0714
  C  C156  1  0.109400  0.275400  0.982600  1.0  -0.0911
  C  C157  1  0.272200  0.224800  0.963100  1.0  0.0357
  C  C158  1  0.238800  0.677200  0.890500  1.0  0.6915
  C  C159  1  0.762300  0.435800  0.983500  1.0  -0.0711
  C  C160  1  0.714700  0.718500  0.453200  1.0  -0.1595
  C  C161  1  0.209400  0.979700  0.238200  1.0  0.2512
  C  C162  1  0.708000  0.691000  0.397200  1.0  0.4288
  C  C163  1  0.790600  0.020300  0.761800  1.0  0.2505
  C  C164  1  0.170100  0.079500  0.744700  1.0  0.2559
  C  C165  1  0.682800  0.760600  0.551800  1.0  -0.084
  C  C166  1  0.460500  0.744800  0.301700  1.0  0.2066
  C  C167  1  0.187900  0.576900  0.487100  1.0  -0.1141
  C  C168  1  0.434900  0.174100  0.943500  1.0  -0.1092
  C  C169  1  0.737700  0.064200  0.483500  1.0  -0.071
  C  C170  1  0.549100  0.847000  0.007100  1.0  -0.0973
  C  C171  1  0.261200  0.822800  0.390500  1.0  0.6918
  C  C172  1  0.812100  0.423100  0.512900  1.0  -0.115
  C  C173  1  0.760500  0.143700  0.452900  1.0  -0.1048
  C  C174  1  0.288100  0.203700  0.012400  1.0  0.0706
  C  C175  1  0.792000  0.809000  0.897200  1.0  0.4279
  C  C176  1  0.220200  0.392500  0.192800  1.0  0.1975
  C  C177  1  0.312000  0.010400  0.296000  1.0  0.1631
  C  C178  1  0.289300  0.843500  0.956500  1.0  -0.1583
  C  C179  1  0.738800  0.177200  0.609500  1.0  0.6919
  C  C180  1  0.710700  0.156500  0.043500  1.0  -0.1597
  C  C181  1  0.336000  0.219000  0.392300  1.0  0.6537
  C  C182  1  0.377400  0.167900  0.027300  1.0  -0.1606
  C  C183  1  0.065100  0.325900  0.443500  1.0  -0.109
  C  C184  1  0.625300  0.754400  0.468100  1.0  -0.0676
  C  C185  1  0.688000  0.989600  0.704000  1.0  0.164
  C  C186  1  0.800500  0.316400  0.442300  1.0  -0.1849
  C  C187  1  0.023800  0.859200  0.743100  1.0  0.189
  C  C188  1  0.739500  0.356300  0.952900  1.0  -0.1041
  C  C189  1  0.654400  0.790100  0.071400  1.0  -0.1598
  C  C190  1  0.564700  0.154100  0.303900  1.0  0.2541
  C  C191  1  0.039500  0.755200  0.801700  1.0  0.2067
  C  C192  1  0.772100  0.250400  0.523500  1.0  0.0383
  C  C193  1  0.450900  0.153000  0.992900  1.0  -0.0964
  C  C194  1  0.390600  0.224600  0.482600  1.0  -0.0899
  C  C195  1  0.772200  0.724800  0.536900  1.0  0.0368
  C  C196  1  0.789300  0.343500  0.543500  1.0  -0.1603
  C  C197  1  0.312100  0.923100  0.987100  1.0  -0.1183
  C  C198  1  0.182300  0.590500  0.537700  1.0  -0.1197
  C  C199  1  0.277700  0.736900  0.027100  1.0  0.0378
  C  C200  1  0.049100  0.347000  0.492900  1.0  -0.097
  C  C201  1  0.812000  0.510400  0.204000  1.0  0.1628
  C  C202  1  0.960500  0.244800  0.198300  1.0  0.2065
  C  C203  1  0.817700  0.409500  0.462300  1.0  -0.1194
  C  C204  1  0.945200  0.237800  0.746100  1.0  0.2016
  C  C205  1  0.329900  0.420500  0.244700  1.0  0.2539
  C  C206  1  0.154400  0.290100  0.428600  1.0  -0.1574
  C  C207  1  0.976200  0.140800  0.256900  1.0  0.1903
  C  C208  1  0.727800  0.775200  0.036900  1.0  0.034
  C  C209  1  0.950900  0.653000  0.507100  1.0  -0.0964
  C  C210  1  0.565100  0.825900  0.056500  1.0  -0.1146
  C  C211  1  0.267900  0.922200  0.465900  1.0  -0.0769
  C  C212  1  0.622600  0.832100  0.972700  1.0  -0.1603
  C  C213  1  0.682300  0.090500  0.962300  1.0  -0.1215
  C  C214  1  0.779800  0.607500  0.807200  1.0  0.1973
  C  C215  1  0.199500  0.683600  0.557700  1.0  -0.1869
  C  C216  1  0.687900  0.076900  0.012900  1.0  -0.1189
  C  C217  1  0.720200  0.892500  0.307200  1.0  0.197
  C  C218  1  0.345600  0.209900  0.928600  1.0  -0.1581
  C  C219  1  0.732100  0.077800  0.534100  1.0  -0.0781
  C  C220  1  0.709400  0.479700  0.261800  1.0  0.2506
  C  C221  1  0.249300  0.670900  0.945900  1.0  -0.1215
  C  C222  1  0.290600  0.520300  0.738200  1.0  0.2509
  C  C223  1  0.722300  0.263100  0.972900  1.0  0.0383
  C  C224  1  0.609400  0.775400  0.517400  1.0  -0.0908
  N  N225  1  0.346700  0.833600  0.716100  1.0  -0.2692
  N  N226  1  0.125500  0.770700  0.779600  1.0  -0.257
  N  N227  1  0.854300  0.260500  0.747200  1.0  -0.2629
  N  N228  1  0.282300  0.465800  0.212000  1.0  -0.4073
  N  N229  1  0.003200  0.291800  0.782000  1.0  -0.4308
  N  N230  1  0.195500  0.172000  0.748700  1.0  -0.2398
  N  N231  1  0.496800  0.208200  0.282000  1.0  -0.4307
  N  N232  1  0.717700  0.534200  0.788000  1.0  -0.4063
  N  N233  1  0.645700  0.239500  0.247200  1.0  -0.264
  N  N234  1  0.227100  0.079000  0.237700  1.0  -0.3173
  N  N235  1  0.757700  0.437100  0.226600  1.0  -0.3634
  N  N236  1  0.996800  0.708200  0.218000  1.0  -0.4307
  N  N237  1  0.782300  0.965800  0.288000  1.0  -0.4071
  N  N238  1  0.242300  0.562900  0.773400  1.0  -0.3626
  N  N239  1  0.793200  0.595800  0.226700  1.0  -0.243
  N  N240  1  0.235900  0.305400  0.214300  1.0  -0.3358
  N  N241  1  0.735900  0.805400  0.285700  1.0  -0.3362
  N  N242  1  0.742300  0.062900  0.726600  1.0  -0.3621
  N  N243  1  0.874500  0.229300  0.220400  1.0  -0.2564
  N  N244  1  0.615700  0.337300  0.758600  1.0  -0.3193
  N  N245  1  0.384300  0.662700  0.241400  1.0  -0.3183
  N  N246  1  0.772900  0.921000  0.762300  1.0  -0.3172
  N  N247  1  0.264100  0.194600  0.714300  1.0  -0.3347
  N  N248  1  0.503200  0.791800  0.718000  1.0  -0.4311
  N  N249  1  0.695500  0.672000  0.751300  1.0  -0.2397
  N  N250  1  0.206800  0.404200  0.773300  1.0  -0.2441
  N  N251  1  0.304500  0.328000  0.248700  1.0  -0.2392
  N  N252  1  0.706800  0.904200  0.726700  1.0  -0.2441
  N  N253  1  0.625500  0.270700  0.720400  1.0  -0.2565
  N  N254  1  0.217700  0.034200  0.712000  1.0  -0.4067
  N  N255  1  0.764100  0.694600  0.785700  1.0  -0.3348
  N  N256  1  0.145700  0.739500  0.252800  1.0  -0.2645
  N  N257  1  0.727100  0.579000  0.262300  1.0  -0.317
  N  N258  1  0.973100  0.814000  0.781000  1.0  -0.4058
  N  N259  1  0.846700  0.333600  0.783900  1.0  -0.2692
  N  N260  1  0.026900  0.186000  0.219000  1.0  -0.4053
  N  N261  1  0.526900  0.686000  0.281000  1.0  -0.4054
  N  N262  1  0.804500  0.828000  0.251300  1.0  -0.2397
  N  N263  1  0.293200  0.095800  0.273300  1.0  -0.2431
  N  N264  1  0.115700  0.837300  0.741400  1.0  -0.3191
  N  N265  1  0.272900  0.421000  0.737700  1.0  -0.3177
  N  N266  1  0.354300  0.760500  0.752800  1.0  -0.2636
  N  N267  1  0.257700  0.937100  0.273400  1.0  -0.3634
  N  N268  1  0.153300  0.666400  0.216100  1.0  -0.2685
  N  N269  1  0.884300  0.162700  0.258600  1.0  -0.3185
  N  N270  1  0.653300  0.166400  0.283900  1.0  -0.2688
  N  N271  1  0.473100  0.314000  0.719000  1.0  -0.4058
  N  N272  1  0.374500  0.729300  0.279600  1.0  -0.257
  O  O273  1  0.889400  0.638300  0.114800  1.0  -0.5567
  O  O274  1  0.195000  0.309000  0.618100  1.0  -0.5421
  O  O275  1  0.807400  0.440100  0.882000  1.0  -0.6423
  O  O276  1  0.177700  0.840900  0.629700  1.0  -0.5559
  O  O277  1  0.193400  0.782600  0.365200  1.0  -0.5946
  O  O278  1  0.806600  0.217400  0.634800  1.0  -0.5955
  O  O279  1  0.389400  0.138300  0.385200  1.0  -0.5568
  O  O280  1  0.338200  0.855900  0.373000  1.0  -0.6003
  O  O281  1  0.685500  0.727900  0.640100  1.0  -0.5218
  O  O282  1  0.305000  0.191000  0.118100  1.0  -0.5427
  O  O283  1  0.677700  0.340900  0.870300  1.0  -0.5562
  O  O284  1  0.695000  0.809000  0.881900  1.0  -0.5431
  O  O285  1  0.693400  0.282600  0.134800  1.0  -0.5948
  O  O286  1  0.110600  0.361700  0.885200  1.0  -0.555
  O  O287  1  0.814500  0.772100  0.140100  1.0  -0.5223
  O  O288  1  0.322300  0.659100  0.129700  1.0  -0.5567
  O  O289  1  0.838200  0.355900  0.127000  1.0  -0.6006
  O  O290  1  0.192600  0.559900  0.118000  1.0  -0.6439
  O  O291  1  0.314500  0.272100  0.359900  1.0  -0.5217
  O  O292  1  0.644900  0.684200  0.374900  1.0  -0.5454
  O  O293  1  0.692600  0.059900  0.382000  1.0  -0.6425
  O  O294  1  0.185500  0.227900  0.859900  1.0  -0.5221
  O  O295  1  0.161800  0.644100  0.873000  1.0  -0.5998
  O  O296  1  0.805000  0.691000  0.381900  1.0  -0.5432
  O  O297  1  0.610600  0.861700  0.614800  1.0  -0.5546
  O  O298  1  0.144900  0.184200  0.125100  1.0  -0.5452
  O  O299  1  0.306600  0.717400  0.865200  1.0  -0.5949
  O  O300  1  0.307400  0.940100  0.618000  1.0  -0.6424
  O  O301  1  0.661800  0.144100  0.627000  1.0  -0.6003
  O  O302  1  0.855100  0.815800  0.874900  1.0  -0.5457
  O  O303  1  0.822300  0.159100  0.370300  1.0  -0.5568
  O  O304  1  0.355100  0.315800  0.625100  1.0  -0.5458
