# generated using pymatgen
data_FeH4C8O5
_symmetry_space_group_name_H-M   'P 1'
_cell_length_a   6.88900000
_cell_length_b   11.10930000
_cell_length_c   11.10930000
_cell_angle_alpha   119.60400000
_cell_angle_beta   106.34600000
_cell_angle_gamma   73.65400000
_symmetry_Int_Tables_number   1
_chemical_formula_structural   FeH4C8O5
_chemical_formula_sum   'Fe2 H8 C16 O10'
_cell_volume   698.94034619
_cell_formula_units_Z   2
loop_
 _symmetry_equiv_pos_site_id
 _symmetry_equiv_pos_as_xyz
  1  'x, y, z'
loop_
 _atom_site_type_symbol
 _atom_site_label
 _atom_site_symmetry_multiplicity
 _atom_site_fract_x
 _atom_site_fract_y
 _atom_site_fract_z
 _atom_site_occupancy
 _atom_site_charge
  Fe  Fe1  1  0.000000  0.000000  0.000000  1.0  1.3349
  Fe  Fe2  1  0.500000  0.000000  0.000000  1.0  1.3349
  H  H3  1  0.218600  0.599100  0.958300  1.0  0.1191
  H  H4  1  0.656200  0.608800  0.017000  1.0  0.1154
  H  H5  1  0.156200  0.983000  0.391200  1.0  0.1163
  H  H6  1  0.718600  0.041700  0.400900  1.0  0.1187
  H  H7  1  0.781400  0.400900  0.041700  1.0  0.1193
  H  H8  1  0.343800  0.391200  0.983000  1.0  0.1158
  H  H9  1  0.843800  0.017000  0.608800  1.0  0.1157
  H  H10  1  0.281400  0.958300  0.599100  1.0  0.1188
  C  C11  1  0.799500  0.563500  0.009900  1.0  -0.059
  C  C12  1  0.200500  0.436500  0.990100  1.0  -0.0592
  C  C13  1  0.927000  0.621200  0.985600  1.0  -0.0933
  C  C14  1  0.651300  0.970200  0.751200  1.0  0.7042
  C  C15  1  0.299500  0.990100  0.436500  1.0  -0.058
  C  C16  1  0.700500  0.009900  0.563500  1.0  -0.0582
  C  C17  1  0.073000  0.378800  0.014400  1.0  -0.0936
  C  C18  1  0.151300  0.248800  0.029800  1.0  0.7025
  C  C19  1  0.848700  0.751200  0.970200  1.0  0.7019
  C  C20  1  0.127500  0.557700  0.975700  1.0  -0.0621
  C  C21  1  0.573000  0.985600  0.621200  1.0  -0.0936
  C  C22  1  0.372500  0.975700  0.557700  1.0  -0.0588
  C  C23  1  0.348700  0.029800  0.248800  1.0  0.705
  C  C24  1  0.627500  0.024300  0.442300  1.0  -0.0625
  C  C25  1  0.427000  0.014400  0.378800  1.0  -0.0944
  C  C26  1  0.872500  0.442300  0.024300  1.0  -0.0601
  O  O27  1  0.967200  0.805200  0.948600  1.0  -0.5489
  O  O28  1  0.837500  0.978600  0.809600  1.0  -0.5546
  O  O29  1  0.162500  0.021400  0.190400  1.0  -0.5541
  O  O30  1  0.250000  0.909200  0.909200  1.0  -0.573
  O  O31  1  0.662500  0.809600  0.978600  1.0  -0.5563
  O  O32  1  0.532800  0.948600  0.805200  1.0  -0.555
  O  O33  1  0.467200  0.051400  0.194800  1.0  -0.5526
  O  O34  1  0.750000  0.090800  0.090800  1.0  -0.5694
  O  O35  1  0.032800  0.194800  0.051400  1.0  -0.55
  O  O36  1  0.337500  0.190400  0.021400  1.0  -0.5559
