# generated using pymatgen
data_Co2H6C16O9
_symmetry_space_group_name_H-M   'P 1'
_cell_length_a   10.81730000
_cell_length_b   13.58200000
_cell_length_c   14.70370000
_cell_angle_alpha   110.62800000
_cell_angle_beta   90.00000000
_cell_angle_gamma   90.00000000
_symmetry_Int_Tables_number   1
_chemical_formula_structural   Co2H6C16O9
_chemical_formula_sum   'Co8 H24 C64 O36'
_cell_volume   2021.77523223
_cell_formula_units_Z   4
loop_
 _symmetry_equiv_pos_site_id
 _symmetry_equiv_pos_as_xyz
  1  'x, y, z'
loop_
 _atom_site_type_symbol
 _atom_site_label
 _atom_site_symmetry_multiplicity
 _atom_site_fract_x
 _atom_site_fract_y
 _atom_site_fract_z
 _atom_site_occupancy
 _atom_site_charge
  Co  Co1  1  0.097470  0.590600  0.538860  1.0  1.0859
  Co  Co2  1  0.989540  0.495900  0.707640  1.0  1.0703
  Co  Co3  1  0.902530  0.409400  0.461140  1.0  1.0858
  Co  Co4  1  0.510460  0.495900  0.207640  1.0  1.0701
  Co  Co5  1  0.489540  0.504100  0.792360  1.0  1.0703
  Co  Co6  1  0.597470  0.409400  0.961140  1.0  1.0854
  Co  Co7  1  0.402530  0.590600  0.038860  1.0  1.0861
  Co  Co8  1  0.010460  0.504100  0.292360  1.0  1.0701
  H  H9  1  0.667300  0.149700  0.789900  1.0  0.1293
  H  H10  1  0.068100  0.001100  0.710400  1.0  0.1288
  H  H11  1  0.956800  0.860100  0.343500  1.0  0.1192
  H  H12  1  0.370000  0.138900  0.858300  1.0  0.129
  H  H13  1  0.130000  0.138900  0.358300  1.0  0.1292
  H  H14  1  0.568100  0.998900  0.789600  1.0  0.129
  H  H15  1  0.870000  0.861100  0.641700  1.0  0.128
  H  H16  1  0.641600  0.088500  0.992500  1.0  0.1238
  H  H17  1  0.682200  0.949600  0.044000  1.0  0.1326
  H  H18  1  0.832700  0.149700  0.289900  1.0  0.1294
  H  H19  1  0.167300  0.850300  0.710100  1.0  0.1289
  H  H20  1  0.317800  0.050400  0.956000  1.0  0.133
  H  H21  1  0.043200  0.139900  0.656500  1.0  0.1196
  H  H22  1  0.817800  0.949600  0.544000  1.0  0.1331
  H  H23  1  0.456800  0.139900  0.156500  1.0  0.1195
  H  H24  1  0.358400  0.911500  0.007500  1.0  0.1244
  H  H25  1  0.630000  0.861100  0.141700  1.0  0.1298
  H  H26  1  0.332700  0.850300  0.210100  1.0  0.1292
  H  H27  1  0.431900  0.001100  0.210400  1.0  0.1291
  H  H28  1  0.543200  0.860100  0.843500  1.0  0.1192
  H  H29  1  0.931900  0.998900  0.289600  1.0  0.129
  H  H30  1  0.141600  0.911500  0.507500  1.0  0.1241
  H  H31  1  0.182200  0.050400  0.456000  1.0  0.1331
  H  H32  1  0.858400  0.088500  0.492500  1.0  0.1243
  C  C33  1  0.203100  0.982400  0.416380  1.0  -0.1119
  C  C34  1  0.804200  0.861310  0.682500  1.0  -0.0472
  C  C35  1  0.168300  0.314750  0.687800  1.0  0.7321
  C  C36  1  0.758800  0.034510  0.173730  1.0  0.0554
  C  C37  1  0.222400  0.054130  0.790550  1.0  0.0477
  C  C38  1  0.890700  0.859850  0.303000  1.0  -0.0659
  C  C39  1  0.191900  0.224470  0.724090  1.0  -0.0072
  C  C40  1  0.382620  0.311180  0.819300  1.0  0.7286
  C  C41  1  0.617380  0.688820  0.180700  1.0  0.7301
  C  C42  1  0.706300  0.137200  0.730440  1.0  -0.0412
  C  C43  1  0.178600  0.898930  0.447360  1.0  -0.025
  C  C44  1  0.777600  0.945870  0.209450  1.0  0.0483
  C  C45  1  0.709700  0.776890  0.214880  1.0  -0.0998
  C  C46  1  0.668300  0.685250  0.812200  1.0  0.733
  C  C47  1  0.241200  0.965490  0.826270  1.0  0.0553
  C  C48  1  0.666667  0.296400  0.086700  1.0  0.7223
  C  C49  1  0.270640  0.779480  0.301290  1.0  -0.0382
  C  C50  1  0.209130  0.796870  0.389170  1.0  -0.086
  C  C51  1  0.833340  0.296400  0.586700  1.0  0.7216
  C  C52  1  0.316880  0.671480  0.240700  1.0  0.7193
  C  C53  1  0.321400  0.898930  0.947360  1.0  -0.025
  C  C54  1  0.821400  0.101070  0.552640  1.0  -0.0251
  C  C55  1  0.722400  0.945870  0.709450  1.0  0.0478
  C  C56  1  0.695800  0.861310  0.182500  1.0  -0.0475
  C  C57  1  0.293700  0.862800  0.269560  1.0  -0.0398
  C  C58  1  0.882620  0.688820  0.680700  1.0  0.7287
  C  C59  1  0.277600  0.054130  0.290550  1.0  0.0483
  C  C60  1  0.290300  0.223110  0.785120  1.0  -0.1045
  C  C61  1  0.816880  0.328520  0.259300  1.0  0.7211
  C  C62  1  0.331700  0.314750  0.187800  1.0  0.7325
  C  C63  1  0.390700  0.140150  0.197000  1.0  -0.0654
  C  C64  1  0.678600  0.101070  0.052640  1.0  -0.026
  C  C65  1  0.375700  0.056430  0.229570  1.0  -0.0862
  C  C66  1  0.308100  0.224470  0.224090  1.0  -0.0068
  C  C67  1  0.624300  0.943570  0.770430  1.0  -0.0871
  C  C68  1  0.290870  0.796870  0.889170  1.0  -0.0854
  C  C69  1  0.117380  0.311180  0.319300  1.0  0.73
  C  C70  1  0.183120  0.671480  0.740700  1.0  0.7196
  C  C71  1  0.796900  0.017600  0.583620  1.0  -0.1116
  C  C72  1  0.790870  0.203130  0.610830  1.0  -0.0843
  C  C73  1  0.209700  0.223110  0.285120  1.0  -0.1028
  C  C74  1  0.304200  0.138690  0.817500  1.0  -0.0462
  C  C75  1  0.109300  0.140150  0.697000  1.0  -0.0642
  C  C76  1  0.195800  0.138690  0.317500  1.0  -0.0457
  C  C77  1  0.124300  0.056430  0.729570  1.0  -0.0862
  C  C78  1  0.875700  0.943570  0.270430  1.0  -0.0876
  C  C79  1  0.831700  0.685250  0.312200  1.0  0.7331
  C  C80  1  0.793700  0.137200  0.230440  1.0  -0.0403
  C  C81  1  0.206300  0.862800  0.769560  1.0  -0.0404
  C  C82  1  0.741200  0.034510  0.673730  1.0  0.0549
  C  C83  1  0.166660  0.703600  0.413300  1.0  0.7228
  C  C84  1  0.709130  0.203130  0.110830  1.0  -0.0857
  C  C85  1  0.683120  0.328520  0.759300  1.0  0.7211
  C  C86  1  0.229360  0.779480  0.801290  1.0  -0.0377
  C  C87  1  0.790300  0.776890  0.714880  1.0  -0.1024
  C  C88  1  0.609300  0.859850  0.803000  1.0  -0.0639
  C  C89  1  0.703100  0.017600  0.083620  1.0  -0.1094
  C  C90  1  0.691900  0.775530  0.775910  1.0  -0.0062
  C  C91  1  0.808100  0.775530  0.275910  1.0  -0.0059
  C  C92  1  0.296900  0.982400  0.916380  1.0  -0.1127
  C  C93  1  0.258800  0.965490  0.326270  1.0  0.0558
  C  C94  1  0.770640  0.220520  0.198710  1.0  -0.0382
  C  C95  1  0.333333  0.703600  0.913300  1.0  0.7219
  C  C96  1  0.729360  0.220520  0.698710  1.0  -0.0378
  O  O97  1  0.352920  0.621320  0.842020  1.0  -0.596
  O  O98  1  0.030850  0.301710  0.371520  1.0  -0.5736
  O  O99  1  0.153140  0.715550  0.501370  1.0  -0.5507
  O  O100  1  0.777360  0.366460  0.345010  1.0  -0.5903
  O  O101  1  0.363730  0.388740  0.792330  1.0  -0.5779
  O  O102  1  0.958140  0.538890  0.432470  1.0  -0.7205
  O  O103  1  0.716000  0.688550  0.890510  1.0  -0.5156
  O  O104  1  0.895920  0.370280  0.221080  1.0  -0.59
  O  O105  1  0.530850  0.698290  0.128480  1.0  -0.5731
  O  O106  1  0.604080  0.370280  0.721080  1.0  -0.5896
  O  O107  1  0.647080  0.378680  0.157980  1.0  -0.5963
  O  O108  1  0.104080  0.629720  0.778920  1.0  -0.5912
  O  O109  1  0.653140  0.284450  0.998630  1.0  -0.5503
  O  O110  1  0.904130  0.615440  0.260780  1.0  -0.6073
  O  O111  1  0.541860  0.538890  0.932470  1.0  -0.7213
  O  O112  1  0.458140  0.461110  0.067530  1.0  -0.7209
  O  O113  1  0.216000  0.311450  0.609490  1.0  -0.5148
  O  O114  1  0.136270  0.388740  0.292330  1.0  -0.5783
  O  O115  1  0.404130  0.384560  0.239220  1.0  -0.6054
  O  O116  1  0.041860  0.461110  0.567530  1.0  -0.7216
  O  O117  1  0.722640  0.366460  0.845010  1.0  -0.5897
  O  O118  1  0.147080  0.621320  0.342020  1.0  -0.5964
  O  O119  1  0.595870  0.615440  0.760780  1.0  -0.6072
  O  O120  1  0.469150  0.301710  0.871520  1.0  -0.5733
  O  O121  1  0.222640  0.633540  0.654990  1.0  -0.5893
  O  O122  1  0.346860  0.715550  0.001370  1.0  -0.5506
  O  O123  1  0.969150  0.698290  0.628480  1.0  -0.573
  O  O124  1  0.784000  0.688550  0.390510  1.0  -0.5143
  O  O125  1  0.636270  0.611260  0.207670  1.0  -0.5772
  O  O126  1  0.277360  0.633540  0.154990  1.0  -0.5899
  O  O127  1  0.284000  0.311450  0.109490  1.0  -0.515
  O  O128  1  0.863730  0.611260  0.707670  1.0  -0.5769
  O  O129  1  0.395920  0.629720  0.278920  1.0  -0.5914
  O  O130  1  0.846860  0.284450  0.498630  1.0  -0.5504
  O  O131  1  0.852920  0.378680  0.657980  1.0  -0.596
  O  O132  1  0.095870  0.384560  0.739220  1.0  -0.6049
