# generated using pymatgen
data_ZnH13C22(NO2)2
_symmetry_space_group_name_H-M   'P 1'
_cell_length_a   11.65330000
_cell_length_b   15.46480000
_cell_length_c   15.46480000
_cell_angle_alpha   90.00000000
_cell_angle_beta   90.20500000
_cell_angle_gamma   90.00000000
_symmetry_Int_Tables_number   1
_chemical_formula_structural   ZnH13C22(NO2)2
_chemical_formula_sum   'Zn2 H26 C44 N4 O8'
_cell_volume   2786.98584398
_cell_formula_units_Z   2
loop_
 _symmetry_equiv_pos_site_id
 _symmetry_equiv_pos_as_xyz
  1  'x, y, z'
loop_
 _atom_site_type_symbol
 _atom_site_label
 _atom_site_symmetry_multiplicity
 _atom_site_fract_x
 _atom_site_fract_y
 _atom_site_fract_z
 _atom_site_occupancy
 _atom_site_charge
  Zn  Zn1  1  0.510890  0.500000  0.596450  1.0  0.9028
  Zn  Zn2  1  0.489110  0.500000  0.403550  1.0  0.9035
  H  H3  1  0.797740  0.334300  0.616920  1.0  0.1122
  H  H4  1  0.342240  0.500000  0.723800  1.0  0.117
  H  H5  1  0.201630  0.139460  0.637820  1.0  0.1194
  H  H6  1  0.349470  0.500000  0.882100  1.0  0.122
  H  H7  1  0.790370  0.000000  0.472760  1.0  0.1201
  H  H8  1  0.324330  0.731200  0.638410  1.0  0.1177
  H  H9  1  0.675670  0.268800  0.361590  1.0  0.1173
  H  H10  1  0.798370  0.139460  0.362180  1.0  0.118
  H  H11  1  0.797740  0.665700  0.616920  1.0  0.1128
  H  H12  1  0.798370  0.860540  0.362180  1.0  0.1174
  H  H13  1  0.202260  0.665700  0.383080  1.0  0.1118
  H  H14  1  0.279610  0.500000  0.130570  1.0  0.1244
  H  H15  1  0.720390  0.500000  0.869430  1.0  0.124
  H  H16  1  0.675670  0.731200  0.361590  1.0  0.1173
  H  H17  1  0.650530  0.500000  0.117900  1.0  0.1214
  H  H18  1  0.201630  0.860540  0.637820  1.0  0.1191
  H  H19  1  0.295080  0.500000  0.290410  1.0  0.1175
  H  H20  1  0.078010  0.206130  0.383700  1.0  0.1244
  H  H21  1  0.704920  0.500000  0.709590  1.0  0.1172
  H  H22  1  0.921990  0.206130  0.616300  1.0  0.126
  H  H23  1  0.078010  0.793870  0.383700  1.0  0.1246
  H  H24  1  0.657760  0.500000  0.276200  1.0  0.118
  H  H25  1  0.202260  0.334300  0.383080  1.0  0.1113
  H  H26  1  0.921990  0.793870  0.616300  1.0  0.1256
  H  H27  1  0.209630  0.000000  0.527240  1.0  0.1191
  H  H28  1  0.324330  0.268800  0.638410  1.0  0.1179
  C  C29  1  0.362940  0.500000  0.161800  1.0  -0.1197
  C  C30  1  0.129470  0.837410  0.510920  1.0  0.039
  C  C31  1  0.726500  0.312490  0.489160  1.0  -0.09
  C  C32  1  0.869590  0.780290  0.559940  1.0  -0.1006
  C  C33  1  0.575850  0.500000  0.243070  1.0  0.0622
  C  C34  1  0.798020  0.706900  0.560300  1.0  -0.0818
  C  C35  1  0.799910  0.817810  0.417640  1.0  -0.1267
  C  C36  1  0.882390  0.000000  0.483240  1.0  -0.074
  C  C37  1  0.371570  0.500000  0.250970  1.0  0.137
  C  C38  1  0.729940  0.743430  0.417240  1.0  -0.0762
  C  C39  1  0.939860  0.919620  0.491880  1.0  -0.0552
  C  C40  1  0.129470  0.162590  0.510920  1.0  0.0387
  C  C41  1  0.130410  0.780290  0.440060  1.0  -0.1035
  C  C42  1  0.200090  0.817810  0.582360  1.0  -0.1265
  C  C43  1  0.424150  0.500000  0.756930  1.0  0.0584
  C  C44  1  0.729940  0.256570  0.417240  1.0  -0.0755
  C  C45  1  0.060140  0.080380  0.508120  1.0  -0.0549
  C  C46  1  0.117610  0.000000  0.516760  1.0  -0.0713
  C  C47  1  0.870530  0.837410  0.489080  1.0  0.0398
  C  C48  1  0.060140  0.919620  0.508120  1.0  -0.0557
  C  C49  1  0.200090  0.182190  0.582360  1.0  -0.1288
  C  C50  1  0.536460  0.500000  0.886440  1.0  0.1677
  C  C51  1  0.571260  0.500000  0.154210  1.0  -0.0997
  C  C52  1  0.869590  0.219710  0.559940  1.0  -0.0999
  C  C53  1  0.637060  0.500000  0.838200  1.0  -0.1174
  C  C54  1  0.428740  0.500000  0.845790  1.0  -0.0997
  C  C55  1  0.799910  0.182190  0.417640  1.0  -0.1276
  C  C56  1  0.130410  0.219710  0.440060  1.0  -0.1039
  C  C57  1  0.939860  0.080380  0.491880  1.0  -0.0545
  C  C58  1  0.201980  0.293100  0.439700  1.0  -0.0787
  C  C59  1  0.270060  0.256570  0.582760  1.0  -0.0773
  C  C60  1  0.870530  0.162590  0.489080  1.0  0.0394
  C  C61  1  0.643570  0.613120  0.492580  1.0  0.7072
  C  C62  1  0.270060  0.743430  0.582760  1.0  -0.0775
  C  C63  1  0.201980  0.706900  0.439700  1.0  -0.0805
  C  C64  1  0.726500  0.687510  0.489160  1.0  -0.0902
  C  C65  1  0.273500  0.312490  0.510840  1.0  -0.0895
  C  C66  1  0.273500  0.687510  0.510840  1.0  -0.0894
  C  C67  1  0.643570  0.386880  0.492580  1.0  0.7072
  C  C68  1  0.798020  0.293100  0.560300  1.0  -0.0799
  C  C69  1  0.463540  0.500000  0.113560  1.0  0.1681
  C  C70  1  0.628430  0.500000  0.749030  1.0  0.1309
  C  C71  1  0.356430  0.613120  0.507420  1.0  0.7075
  C  C72  1  0.356430  0.386880  0.507420  1.0  0.707
  N  N73  1  0.523070  0.500000  0.711470  1.0  -0.2138
  N  N74  1  0.455120  0.500000  0.022850  1.0  -0.2578
  N  N75  1  0.544880  0.500000  0.977150  1.0  -0.2595
  N  N76  1  0.476930  0.500000  0.288530  1.0  -0.2129
  O  O77  1  0.401780  0.416410  0.576190  1.0  -0.6219
  O  O78  1  0.615380  0.418470  0.565100  1.0  -0.6173
  O  O79  1  0.401780  0.583590  0.576190  1.0  -0.6219
  O  O80  1  0.598220  0.416410  0.423810  1.0  -0.6234
  O  O81  1  0.615380  0.581530  0.565100  1.0  -0.6179
  O  O82  1  0.384620  0.581530  0.434900  1.0  -0.6172
  O  O83  1  0.598220  0.583590  0.423810  1.0  -0.6232
  O  O84  1  0.384620  0.418470  0.434900  1.0  -0.6171
