# generated using pymatgen
data_Mg3H12C36O13
_symmetry_space_group_name_H-M   'P 1'
_cell_length_a   12.57380000
_cell_length_b   12.57380000
_cell_length_c   14.33400000
_cell_angle_alpha   90.00000000
_cell_angle_beta   90.00000000
_cell_angle_gamma   120.00000000
_symmetry_Int_Tables_number   1
_chemical_formula_structural   Mg3H12C36O13
_chemical_formula_sum   'Mg6 H24 C72 O26'
_cell_volume   1962.59698852
_cell_formula_units_Z   2
loop_
 _symmetry_equiv_pos_site_id
 _symmetry_equiv_pos_as_xyz
  1  'x, y, z'
loop_
 _atom_site_type_symbol
 _atom_site_label
 _atom_site_symmetry_multiplicity
 _atom_site_fract_x
 _atom_site_fract_y
 _atom_site_fract_z
 _atom_site_occupancy
 _atom_site_charge
  Mg  Mg1  1  0.206100  0.486500  0.500000  1.0  1.5788
  Mg  Mg2  1  0.486500  0.280400  0.500000  1.0  1.5814
  Mg  Mg3  1  0.280400  0.793900  0.500000  1.0  1.5813
  Mg  Mg4  1  0.793900  0.513500  0.500000  1.0  1.5781
  Mg  Mg5  1  0.719600  0.206100  0.500000  1.0  1.5813
  Mg  Mg6  1  0.513500  0.719600  0.500000  1.0  1.5812
  H  H7  1  0.794090  0.549770  0.063930  1.0  0.1131
  H  H8  1  0.794350  0.548580  0.762510  1.0  0.1055
  H  H9  1  0.244380  0.793990  0.063590  1.0  0.1132
  H  H10  1  0.245790  0.793950  0.763060  1.0  0.0993
  H  H11  1  0.244910  0.793270  0.239050  1.0  0.1135
  H  H12  1  0.755480  0.207640  0.239250  1.0  0.1033
  H  H13  1  0.450400  0.243320  0.062210  1.0  0.1158
  H  H14  1  0.792360  0.547840  0.239250  1.0  0.1061
  H  H15  1  0.205910  0.450230  0.936070  1.0  0.117
  H  H16  1  0.548160  0.754210  0.763060  1.0  0.1008
  H  H17  1  0.755680  0.205910  0.063930  1.0  0.113
  H  H18  1  0.206010  0.450390  0.063590  1.0  0.1153
  H  H19  1  0.548580  0.754230  0.237490  1.0  0.1067
  H  H20  1  0.451420  0.245770  0.762510  1.0  0.1065
  H  H21  1  0.754230  0.205650  0.762510  1.0  0.1093
  H  H22  1  0.549600  0.756680  0.937790  1.0  0.1176
  H  H23  1  0.549610  0.755620  0.063590  1.0  0.1098
  H  H24  1  0.452160  0.244520  0.239250  1.0  0.1051
  H  H25  1  0.755620  0.206010  0.936410  1.0  0.1106
  H  H26  1  0.450390  0.244380  0.936410  1.0  0.1094
  H  H27  1  0.206730  0.451640  0.239050  1.0  0.119
  H  H28  1  0.793990  0.549610  0.936410  1.0  0.116
  H  H29  1  0.244320  0.794090  0.936070  1.0  0.1108
  H  H30  1  0.206050  0.451840  0.763060  1.0  0.1
  C  C31  1  0.489900  0.880400  0.647100  1.0  0.7066
  C  C32  1  0.393500  0.481900  0.948500  1.0  -0.1206
  C  C33  1  0.911600  0.393800  0.948600  1.0  -0.145
  C  C34  1  0.489400  0.880300  0.353000  1.0  0.7071
  C  C35  1  0.708000  0.534600  0.102000  1.0  -0.0919
  C  C36  1  0.510100  0.119600  0.352900  1.0  0.7064
  C  C37  1  0.500100  0.499900  0.102100  1.0  0.0444
  C  C38  1  0.907700  0.393600  0.750000  1.0  -0.0433
  C  C39  1  0.606200  0.517800  0.948600  1.0  -0.1447
  C  C40  1  0.911600  0.393500  0.051500  1.0  -0.126
  C  C41  1  0.485900  0.092200  0.250400  1.0  -0.0527
  C  C42  1  0.390900  0.510600  0.353000  1.0  0.7036
  C  C43  1  0.499900  0.999800  0.897900  1.0  0.0445
  C  C44  1  0.999800  0.499900  0.102100  1.0  0.0493
  C  C45  1  0.088400  0.606200  0.051400  1.0  -0.1449
  C  C46  1  0.880400  0.390500  0.352900  1.0  0.7068
  C  C47  1  0.708100  0.533300  0.800400  1.0  -0.1213
  C  C48  1  0.609100  0.489400  0.647000  1.0  0.7041
  C  C49  1  0.173500  0.708000  0.101800  1.0  -0.0811
  C  C50  1  0.174400  0.707500  0.800500  1.0  -0.114
  C  C51  1  0.088400  0.606500  0.948500  1.0  -0.126
  C  C52  1  0.500200  0.000000  0.797400  1.0  0.0512
  C  C53  1  0.510600  0.119700  0.647000  1.0  0.7039
  C  C54  1  0.174800  0.708100  0.199600  1.0  -0.112
  C  C55  1  0.499800  0.499800  0.797400  1.0  0.0511
  C  C56  1  0.517800  0.911600  0.051400  1.0  -0.1467
  C  C57  1  0.092300  0.606400  0.250000  1.0  -0.0404
  C  C58  1  0.000200  0.500100  0.897900  1.0  0.0439
  C  C59  1  0.500100  0.000200  0.102100  1.0  0.0487
  C  C60  1  0.606500  0.518100  0.051500  1.0  -0.12
  C  C61  1  0.393700  0.485900  0.749600  1.0  -0.0683
  C  C62  1  0.514100  0.907800  0.749600  1.0  -0.0676
  C  C63  1  0.609500  0.489900  0.352900  1.0  0.7059
  C  C64  1  0.000000  0.500200  0.797400  1.0  0.051
  C  C65  1  0.825600  0.292500  0.199500  1.0  -0.1168
  C  C66  1  0.500200  0.500200  0.202600  1.0  0.0518
  C  C67  1  0.465400  0.173400  0.102000  1.0  -0.0893
  C  C68  1  0.707500  0.533100  0.199500  1.0  -0.1209
  C  C69  1  0.606300  0.514100  0.250400  1.0  -0.0671
  C  C70  1  0.393600  0.485900  0.250000  1.0  -0.043
  C  C71  1  0.292000  0.465400  0.898000  1.0  -0.0879
  C  C72  1  0.533100  0.825600  0.800500  1.0  -0.1168
  C  C73  1  0.485900  0.092300  0.750000  1.0  -0.0431
  C  C74  1  0.826600  0.292000  0.102000  1.0  -0.0852
  C  C75  1  0.292000  0.465500  0.101800  1.0  -0.0873
  C  C76  1  0.482200  0.088400  0.948600  1.0  -0.1474
  C  C77  1  0.092200  0.606300  0.749600  1.0  -0.0682
  C  C78  1  0.533300  0.825200  0.199600  1.0  -0.1129
  C  C79  1  0.466700  0.174800  0.800400  1.0  -0.1184
  C  C80  1  0.825200  0.291900  0.800400  1.0  -0.1181
  C  C81  1  0.514100  0.907700  0.250000  1.0  -0.0384
  C  C82  1  0.534600  0.826600  0.898000  1.0  -0.088
  C  C83  1  0.907800  0.393700  0.250400  1.0  -0.054
  C  C84  1  0.534500  0.826500  0.101800  1.0  -0.036
  C  C85  1  0.119600  0.609500  0.647100  1.0  0.708
  C  C86  1  0.466900  0.174400  0.199500  1.0  -0.1175
  C  C87  1  0.606400  0.514100  0.750000  1.0  -0.0427
  C  C88  1  0.826500  0.292000  0.898200  1.0  -0.0825
  C  C89  1  0.465500  0.173500  0.898200  1.0  -0.0367
  C  C90  1  0.499900  0.500100  0.897900  1.0  0.0457
  C  C91  1  0.518100  0.911600  0.948500  1.0  -0.1305
  C  C92  1  0.292500  0.466900  0.800500  1.0  -0.1165
  C  C93  1  0.119700  0.609100  0.353000  1.0  0.7029
  C  C94  1  0.393800  0.482200  0.051400  1.0  -0.1464
  C  C95  1  0.291900  0.466700  0.199600  1.0  -0.1233
  C  C96  1  0.390500  0.510100  0.647100  1.0  0.706
  C  C97  1  0.880300  0.390900  0.647000  1.0  0.7018
  C  C98  1  0.000000  0.499800  0.202600  1.0  0.0514
  C  C99  1  0.499800  0.000000  0.202600  1.0  0.0515
  C  C100  1  0.708000  0.534500  0.898200  1.0  -0.0879
  C  C101  1  0.173400  0.708000  0.898000  1.0  -0.0854
  C  C102  1  0.481900  0.088400  0.051500  1.0  -0.1324
  O  O103  1  0.482100  0.604400  0.386300  1.0  -0.6231
  O  O104  1  0.604100  0.122200  0.386200  1.0  -0.6193
  O  O105  1  0.877800  0.481900  0.386200  1.0  -0.6209
  O  O106  1  0.145600  0.706900  0.603500  1.0  -0.6227
  O  O107  1  0.145600  0.707000  0.396600  1.0  -0.6395
  O  O108  1  0.707000  0.561400  0.603400  1.0  -0.6286
  O  O109  1  0.706900  0.561300  0.396500  1.0  -0.6235
  O  O110  1  0.854400  0.293000  0.603400  1.0  -0.6309
  O  O111  1  0.561300  0.854400  0.603500  1.0  -0.6211
  O  O112  1  0.122200  0.518100  0.613800  1.0  -0.6199
  O  O113  1  0.438700  0.145600  0.396500  1.0  -0.6209
  O  O114  1  0.122300  0.517900  0.386300  1.0  -0.6218
  O  O115  1  0.333333  0.666667  0.500100  1.0  -0.7908
  O  O116  1  0.517900  0.395600  0.613700  1.0  -0.6235
  O  O117  1  0.561400  0.854400  0.396600  1.0  -0.6273
  O  O118  1  0.666667  0.333333  0.499900  1.0  -0.7908
  O  O119  1  0.604400  0.122300  0.613700  1.0  -0.6231
  O  O120  1  0.293100  0.438700  0.603500  1.0  -0.6233
  O  O121  1  0.518100  0.395900  0.386200  1.0  -0.6197
  O  O122  1  0.438600  0.145600  0.603400  1.0  -0.627
  O  O123  1  0.395900  0.877800  0.613800  1.0  -0.6204
  O  O124  1  0.854400  0.293100  0.396500  1.0  -0.6239
  O  O125  1  0.293000  0.438600  0.396600  1.0  -0.6309
  O  O126  1  0.395600  0.877700  0.386300  1.0  -0.6216
  O  O127  1  0.877700  0.482100  0.613700  1.0  -0.6244
  O  O128  1  0.481900  0.604100  0.613800  1.0  -0.621
