# generated using pymatgen
data_ZnH13C22NO4
_symmetry_space_group_name_H-M   'P 1'
_cell_length_a   11.64250000
_cell_length_b   13.85690000
_cell_length_c   15.57380000
_cell_angle_alpha   90.00000000
_cell_angle_beta   90.00000000
_cell_angle_gamma   90.00000000
_symmetry_Int_Tables_number   1
_chemical_formula_structural   ZnH13C22NO4
_chemical_formula_sum   'Zn2 H26 C44 N2 O8'
_cell_volume   2512.50492999
_cell_formula_units_Z   2
loop_
 _symmetry_equiv_pos_site_id
 _symmetry_equiv_pos_as_xyz
  1  'x, y, z'
loop_
 _atom_site_type_symbol
 _atom_site_label
 _atom_site_symmetry_multiplicity
 _atom_site_fract_x
 _atom_site_fract_y
 _atom_site_fract_z
 _atom_site_occupancy
 _atom_site_charge
  Zn  Zn1  1  0.500000  0.111180  0.000000  1.0  0.9981
  Zn  Zn2  1  0.500000  0.888820  0.000000  1.0  0.997
  H  H3  1  0.140070  0.154840  0.327600  1.0  0.1139
  H  H4  1  0.262450  0.155310  0.199530  1.0  0.1128
  H  H5  1  0.859930  0.845160  0.327600  1.0  0.1126
  H  H6  1  0.737550  0.844690  0.199530  1.0  0.1125
  H  H7  1  0.859930  0.154840  0.672400  1.0  0.1149
  H  H8  1  0.737550  0.155310  0.800470  1.0  0.1129
  H  H9  1  0.140070  0.845160  0.672400  1.0  0.1128
  H  H10  1  0.262450  0.844690  0.800470  1.0  0.1119
  H  H11  1  0.859930  0.845160  0.672400  1.0  0.1129
  H  H12  1  0.737550  0.844690  0.800470  1.0  0.1123
  H  H13  1  0.140070  0.154840  0.672400  1.0  0.1146
  H  H14  1  0.262450  0.155310  0.800470  1.0  0.1123
  H  H15  1  0.140070  0.845160  0.327600  1.0  0.1124
  H  H16  1  0.262450  0.844690  0.199530  1.0  0.1122
  H  H17  1  0.859930  0.154840  0.327600  1.0  0.1143
  H  H18  1  0.737550  0.155310  0.199530  1.0  0.1134
  H  H19  1  0.787390  0.000000  0.500000  1.0  0.1146
  H  H20  1  0.212610  0.000000  0.500000  1.0  0.1155
  H  H21  1  0.319020  0.252060  0.000000  1.0  0.1045
  H  H22  1  0.312850  0.425430  0.000000  1.0  0.1414
  H  H23  1  0.680980  0.747940  0.000000  1.0  0.1047
  H  H24  1  0.687150  0.574570  0.000000  1.0  0.1434
  H  H25  1  0.680980  0.252060  0.000000  1.0  0.105
  H  H26  1  0.687150  0.425430  0.000000  1.0  0.1428
  H  H27  1  0.319020  0.747940  0.000000  1.0  0.1047
  H  H28  1  0.312850  0.574570  0.000000  1.0  0.1419
  C  C29  1  0.165450  0.086750  0.299650  1.0  -0.1381
  C  C30  1  0.235740  0.086820  0.225950  1.0  -0.095
  C  C31  1  0.834550  0.913250  0.299650  1.0  -0.1365
  C  C32  1  0.764260  0.913180  0.225950  1.0  -0.0953
  C  C33  1  0.834550  0.086750  0.700350  1.0  -0.1367
  C  C34  1  0.764260  0.086820  0.774050  1.0  -0.0964
  C  C35  1  0.165450  0.913250  0.700350  1.0  -0.1366
  C  C36  1  0.235740  0.913180  0.774050  1.0  -0.0952
  C  C37  1  0.834550  0.913250  0.700350  1.0  -0.1383
  C  C38  1  0.764260  0.913180  0.774050  1.0  -0.0945
  C  C39  1  0.165450  0.086750  0.700350  1.0  -0.1398
  C  C40  1  0.235740  0.086820  0.774050  1.0  -0.0942
  C  C41  1  0.165450  0.913250  0.299650  1.0  -0.1391
  C  C42  1  0.235740  0.913180  0.225950  1.0  -0.0941
  C  C43  1  0.834550  0.086750  0.299650  1.0  -0.1397
  C  C44  1  0.764260  0.086820  0.225950  1.0  -0.0949
  C  C45  1  0.500000  0.445680  0.000000  1.0  0.0704
  C  C46  1  0.500000  0.554320  0.000000  1.0  0.0697
  C  C47  1  0.119630  0.000000  0.500000  1.0  -0.0879
  C  C48  1  0.880370  0.000000  0.500000  1.0  -0.0882
  C  C49  1  0.061110  0.000000  0.420090  1.0  -0.0585
  C  C50  1  0.129960  0.000000  0.338050  1.0  0.024
  C  C51  1  0.273300  0.000000  0.187970  1.0  -0.1069
  C  C52  1  0.355950  0.000000  0.112910  1.0  0.6918
  C  C53  1  0.938890  0.000000  0.420090  1.0  -0.0589
  C  C54  1  0.870040  0.000000  0.338050  1.0  0.025
  C  C55  1  0.726700  0.000000  0.187970  1.0  -0.1067
  C  C56  1  0.644050  0.000000  0.112910  1.0  0.6913
  C  C57  1  0.938890  0.000000  0.579910  1.0  -0.0595
  C  C58  1  0.870040  0.000000  0.661950  1.0  0.0252
  C  C59  1  0.726700  0.000000  0.812030  1.0  -0.1066
  C  C60  1  0.644050  0.000000  0.887090  1.0  0.6921
  C  C61  1  0.061110  0.000000  0.579910  1.0  -0.0587
  C  C62  1  0.129960  0.000000  0.661950  1.0  0.0246
  C  C63  1  0.273300  0.000000  0.812030  1.0  -0.1065
  C  C64  1  0.355950  0.000000  0.887090  1.0  0.692
  C  C65  1  0.398550  0.292290  0.000000  1.0  0.1218
  C  C66  1  0.396380  0.392490  0.000000  1.0  -0.1229
  C  C67  1  0.601450  0.707710  0.000000  1.0  0.1203
  C  C68  1  0.603620  0.607510  0.000000  1.0  -0.1212
  C  C69  1  0.601450  0.292290  0.000000  1.0  0.1228
  C  C70  1  0.603620  0.392490  0.000000  1.0  -0.1217
  C  C71  1  0.398550  0.707710  0.000000  1.0  0.1251
  C  C72  1  0.396380  0.607510  0.000000  1.0  -0.1207
  N  N73  1  0.500000  0.244800  0.000000  1.0  -0.1965
  N  N74  1  0.500000  0.755200  0.000000  1.0  -0.1966
  O  O75  1  0.392600  0.079340  0.082220  1.0  -0.618
  O  O76  1  0.607400  0.920660  0.082220  1.0  -0.6171
  O  O77  1  0.607400  0.079340  0.917780  1.0  -0.6166
  O  O78  1  0.392600  0.920660  0.917780  1.0  -0.6161
  O  O79  1  0.607400  0.920660  0.917780  1.0  -0.6175
  O  O80  1  0.392600  0.079340  0.917780  1.0  -0.6168
  O  O81  1  0.392600  0.920660  0.082220  1.0  -0.6166
  O  O82  1  0.607400  0.079340  0.082220  1.0  -0.6173
