# generated using pymatgen
data_AlC8O4F
_symmetry_space_group_name_H-M   'P 1'
_cell_length_a   6.56810000
_cell_length_b   16.39270000
_cell_length_c   13.16670000
_cell_angle_alpha   90.00000000
_cell_angle_beta   90.00000000
_cell_angle_gamma   90.00000000
_symmetry_Int_Tables_number   1
_chemical_formula_structural   AlC8O4F
_chemical_formula_sum   'Al4 C32 O16 F4'
_cell_volume   1417.64401175
_cell_formula_units_Z   4
loop_
 _symmetry_equiv_pos_site_id
 _symmetry_equiv_pos_as_xyz
  1  'x, y, z'
loop_
 _atom_site_type_symbol
 _atom_site_label
 _atom_site_symmetry_multiplicity
 _atom_site_fract_x
 _atom_site_fract_y
 _atom_site_fract_z
 _atom_site_occupancy
 _atom_site_charge
  Al  Al1  1  0.250000  0.250000  0.750000  1.0  1.8285
  Al  Al2  1  0.750000  0.250000  0.750000  1.0  1.8285
  Al  Al3  1  0.750000  0.750000  0.250000  1.0  1.8285
  Al  Al4  1  0.250000  0.750000  0.250000  1.0  1.8285
  C  C5  1  0.805100  0.026600  0.953800  1.0  -0.0434
  C  C6  1  0.305100  0.526600  0.453800  1.0  -0.0434
  C  C7  1  0.194900  0.473400  0.953800  1.0  -0.0423
  C  C8  1  0.694900  0.973400  0.453800  1.0  -0.0423
  C  C9  1  0.194900  0.526600  0.046200  1.0  -0.0435
  C  C10  1  0.694900  0.026600  0.546200  1.0  -0.0435
  C  C11  1  0.805100  0.973400  0.046200  1.0  -0.0442
  C  C12  1  0.305100  0.473400  0.546200  1.0  -0.0442
  C  C13  1  0.194900  0.973400  0.046200  1.0  -0.0437
  C  C14  1  0.694900  0.473400  0.546200  1.0  -0.0437
  C  C15  1  0.805100  0.526600  0.046200  1.0  -0.0443
  C  C16  1  0.305100  0.026600  0.546200  1.0  -0.0443
  C  C17  1  0.805100  0.473400  0.953800  1.0  -0.0435
  C  C18  1  0.305100  0.973400  0.453800  1.0  -0.0435
  C  C19  1  0.194900  0.026600  0.953800  1.0  -0.0435
  C  C20  1  0.694900  0.526600  0.453800  1.0  -0.0435
  C  C21  1  0.000000  0.063100  0.950800  1.0  0.0045
  C  C22  1  0.000000  0.136300  0.871700  1.0  0.6527
  C  C23  1  0.500000  0.563100  0.450800  1.0  0.008
  C  C24  1  0.500000  0.636300  0.371700  1.0  0.6527
  C  C25  1  0.000000  0.436900  0.950800  1.0  0.0041
  C  C26  1  0.000000  0.363700  0.871700  1.0  0.6534
  C  C27  1  0.500000  0.936900  0.450800  1.0  0.0075
  C  C28  1  0.500000  0.863700  0.371700  1.0  0.6534
  C  C29  1  0.000000  0.563100  0.049200  1.0  0.0045
  C  C30  1  0.000000  0.636300  0.128300  1.0  0.6512
  C  C31  1  0.500000  0.063100  0.549200  1.0  0.0076
  C  C32  1  0.500000  0.136300  0.628300  1.0  0.6512
  C  C33  1  0.000000  0.936900  0.049200  1.0  0.0039
  C  C34  1  0.000000  0.863700  0.128300  1.0  0.6528
  C  C35  1  0.500000  0.436900  0.549200  1.0  0.007
  C  C36  1  0.500000  0.363700  0.628300  1.0  0.6528
  O  O37  1  0.165800  0.168820  0.839400  1.0  -0.6093
  O  O38  1  0.665800  0.668820  0.339400  1.0  -0.6096
  O  O39  1  0.834200  0.331180  0.839400  1.0  -0.6114
  O  O40  1  0.334200  0.831180  0.339400  1.0  -0.6114
  O  O41  1  0.834200  0.668820  0.160600  1.0  -0.6098
  O  O42  1  0.334200  0.168820  0.660600  1.0  -0.6096
  O  O43  1  0.165800  0.831180  0.160600  1.0  -0.6099
  O  O44  1  0.665800  0.331180  0.660600  1.0  -0.61
  O  O45  1  0.834200  0.831180  0.160600  1.0  -0.6107
  O  O46  1  0.334200  0.331180  0.660600  1.0  -0.6111
  O  O47  1  0.165800  0.668820  0.160600  1.0  -0.6089
  O  O48  1  0.665800  0.168820  0.660600  1.0  -0.609
  O  O49  1  0.165800  0.331180  0.839400  1.0  -0.6106
  O  O50  1  0.665800  0.831180  0.339400  1.0  -0.6103
  O  O51  1  0.834200  0.168820  0.839400  1.0  -0.6103
  O  O52  1  0.334200  0.668820  0.339400  1.0  -0.6102
  F  F53  1  0.000000  0.250000  0.691300  1.0  -0.5296
  F  F54  1  0.500000  0.750000  0.191300  1.0  -0.5296
  F  F55  1  0.000000  0.750000  0.308700  1.0  -0.5314
  F  F56  1  0.500000  0.250000  0.808700  1.0  -0.5314
