# generated using pymatgen
data_AlC8O4F
_symmetry_space_group_name_H-M   'P 1'
_cell_length_a   6.56800000
_cell_length_b   16.39480000
_cell_length_c   13.16770000
_cell_angle_alpha   90.00000000
_cell_angle_beta   90.00000000
_cell_angle_gamma   90.00000000
_symmetry_Int_Tables_number   1
_chemical_formula_structural   AlC8O4F
_chemical_formula_sum   'Al4 C32 O16 F4'
_cell_volume   1417.91171468
_cell_formula_units_Z   4
loop_
 _symmetry_equiv_pos_site_id
 _symmetry_equiv_pos_as_xyz
  1  'x, y, z'
loop_
 _atom_site_type_symbol
 _atom_site_label
 _atom_site_symmetry_multiplicity
 _atom_site_fract_x
 _atom_site_fract_y
 _atom_site_fract_z
 _atom_site_occupancy
 _atom_site_charge
  Al  Al1  1  0.250000  0.250000  0.750000  1.0  1.8158
  Al  Al2  1  0.750000  0.250000  0.750000  1.0  1.8158
  Al  Al3  1  0.750000  0.750000  0.250000  1.0  1.8158
  Al  Al4  1  0.250000  0.750000  0.250000  1.0  1.8158
  C  C5  1  0.806500  0.027100  0.955300  1.0  -0.047
  C  C6  1  0.306500  0.527100  0.455300  1.0  -0.047
  C  C7  1  0.193500  0.472900  0.955300  1.0  -0.0473
  C  C8  1  0.693500  0.972900  0.455300  1.0  -0.0473
  C  C9  1  0.193500  0.527100  0.044700  1.0  -0.0479
  C  C10  1  0.693500  0.027100  0.544700  1.0  -0.0479
  C  C11  1  0.806500  0.972900  0.044700  1.0  -0.0479
  C  C12  1  0.306500  0.472900  0.544700  1.0  -0.0479
  C  C13  1  0.193500  0.972900  0.044700  1.0  -0.0484
  C  C14  1  0.693500  0.472900  0.544700  1.0  -0.0474
  C  C15  1  0.806500  0.527100  0.044700  1.0  -0.047
  C  C16  1  0.306500  0.027100  0.544700  1.0  -0.0481
  C  C17  1  0.806500  0.472900  0.955300  1.0  -0.0467
  C  C18  1  0.306500  0.972900  0.455300  1.0  -0.0467
  C  C19  1  0.193500  0.027100  0.955300  1.0  -0.0469
  C  C20  1  0.693500  0.527100  0.455300  1.0  -0.0469
  C  C21  1  0.000000  0.065200  0.949100  1.0  -0.0092
  C  C22  1  0.000000  0.137600  0.866900  1.0  0.6618
  C  C23  1  0.500000  0.565200  0.449100  1.0  -0.0139
  C  C24  1  0.500000  0.637600  0.366900  1.0  0.6618
  C  C25  1  0.000000  0.434800  0.949100  1.0  -0.0101
  C  C26  1  0.000000  0.362400  0.866900  1.0  0.6639
  C  C27  1  0.500000  0.934800  0.449100  1.0  -0.0147
  C  C28  1  0.500000  0.862400  0.366900  1.0  0.6639
  C  C29  1  0.000000  0.565200  0.050900  1.0  -0.0102
  C  C30  1  0.000000  0.637600  0.133100  1.0  0.6618
  C  C31  1  0.500000  0.065200  0.550900  1.0  -0.015
  C  C32  1  0.500000  0.137600  0.633100  1.0  0.6618
  C  C33  1  0.000000  0.934800  0.050900  1.0  -0.011
  C  C34  1  0.000000  0.862400  0.133100  1.0  0.6639
  C  C35  1  0.500000  0.434800  0.550900  1.0  -0.0158
  C  C36  1  0.500000  0.362400  0.633100  1.0  0.6639
  O  O37  1  0.170000  0.168020  0.840100  1.0  -0.5956
  O  O38  1  0.670000  0.668020  0.340100  1.0  -0.5957
  O  O39  1  0.830000  0.331980  0.840100  1.0  -0.5965
  O  O40  1  0.330000  0.831980  0.340100  1.0  -0.5965
  O  O41  1  0.830000  0.668020  0.159900  1.0  -0.5966
  O  O42  1  0.330000  0.168020  0.659900  1.0  -0.5968
  O  O43  1  0.170000  0.831980  0.159900  1.0  -0.5985
  O  O44  1  0.670000  0.331980  0.659900  1.0  -0.5985
  O  O45  1  0.830000  0.831980  0.159900  1.0  -0.5968
  O  O46  1  0.330000  0.331980  0.659900  1.0  -0.5968
  O  O47  1  0.170000  0.668020  0.159900  1.0  -0.5968
  O  O48  1  0.670000  0.168020  0.659900  1.0  -0.5968
  O  O49  1  0.170000  0.331980  0.840100  1.0  -0.5965
  O  O50  1  0.670000  0.831980  0.340100  1.0  -0.5968
  O  O51  1  0.830000  0.168020  0.840100  1.0  -0.5961
  O  O52  1  0.330000  0.668020  0.340100  1.0  -0.5961
  F  F53  1  0.000000  0.250000  0.693700  1.0  -0.5396
  F  F54  1  0.500000  0.750000  0.193700  1.0  -0.5396
  F  F55  1  0.000000  0.750000  0.306300  1.0  -0.5405
  F  F56  1  0.500000  0.250000  0.806300  1.0  -0.5405
