# generated using pymatgen
data_AlC8O4F
_symmetry_space_group_name_H-M   'P 1'
_cell_length_a   6.56760000
_cell_length_b   16.40190000
_cell_length_c   13.16320000
_cell_angle_alpha   90.00000000
_cell_angle_beta   90.00000000
_cell_angle_gamma   90.00000000
_symmetry_Int_Tables_number   1
_chemical_formula_structural   AlC8O4F
_chemical_formula_sum   'Al4 C32 O16 F4'
_cell_volume   1417.95462625
_cell_formula_units_Z   4
loop_
 _symmetry_equiv_pos_site_id
 _symmetry_equiv_pos_as_xyz
  1  'x, y, z'
loop_
 _atom_site_type_symbol
 _atom_site_label
 _atom_site_symmetry_multiplicity
 _atom_site_fract_x
 _atom_site_fract_y
 _atom_site_fract_z
 _atom_site_occupancy
 _atom_site_charge
  Al  Al1  1  0.250000  0.250000  0.750000  1.0  1.8332
  Al  Al2  1  0.750000  0.250000  0.750000  1.0  1.8332
  Al  Al3  1  0.750000  0.750000  0.250000  1.0  1.8332
  Al  Al4  1  0.250000  0.750000  0.250000  1.0  1.8332
  C  C5  1  0.804400  0.025200  0.952500  1.0  -0.0366
  C  C6  1  0.304400  0.525200  0.452500  1.0  -0.0366
  C  C7  1  0.195600  0.474800  0.952500  1.0  -0.0365
  C  C8  1  0.695600  0.974800  0.452500  1.0  -0.0365
  C  C9  1  0.195600  0.525200  0.047500  1.0  -0.038
  C  C10  1  0.695600  0.025200  0.547500  1.0  -0.038
  C  C11  1  0.804400  0.974800  0.047500  1.0  -0.0366
  C  C12  1  0.304400  0.474800  0.547500  1.0  -0.0366
  C  C13  1  0.195600  0.974800  0.047500  1.0  -0.038
  C  C14  1  0.695600  0.474800  0.547500  1.0  -0.0365
  C  C15  1  0.804400  0.525200  0.047500  1.0  -0.0366
  C  C16  1  0.304400  0.025200  0.547500  1.0  -0.0375
  C  C17  1  0.804400  0.474800  0.952500  1.0  -0.0366
  C  C18  1  0.304400  0.974800  0.452500  1.0  -0.0366
  C  C19  1  0.195600  0.025200  0.952500  1.0  -0.038
  C  C20  1  0.695600  0.525200  0.452500  1.0  -0.038
  C  C21  1  0.000000  0.063300  0.949700  1.0  -0.011
  C  C22  1  0.000000  0.135100  0.868000  1.0  0.6355
  C  C23  1  0.500000  0.563300  0.449700  1.0  -0.0119
  C  C24  1  0.500000  0.635100  0.368000  1.0  0.6355
  C  C25  1  0.000000  0.436700  0.949700  1.0  -0.0116
  C  C26  1  0.000000  0.364900  0.868000  1.0  0.6356
  C  C27  1  0.500000  0.936700  0.449700  1.0  -0.012
  C  C28  1  0.500000  0.864900  0.368000  1.0  0.6356
  C  C29  1  0.000000  0.563300  0.050300  1.0  -0.0123
  C  C30  1  0.000000  0.635100  0.132000  1.0  0.6343
  C  C31  1  0.500000  0.063300  0.550300  1.0  -0.014
  C  C32  1  0.500000  0.135100  0.632000  1.0  0.6343
  C  C33  1  0.000000  0.936700  0.050300  1.0  -0.0132
  C  C34  1  0.000000  0.864900  0.132000  1.0  0.6345
  C  C35  1  0.500000  0.436700  0.550300  1.0  -0.0144
  C  C36  1  0.500000  0.364900  0.632000  1.0  0.6345
  O  O37  1  0.166800  0.169330  0.840710  1.0  -0.6004
  O  O38  1  0.666800  0.669330  0.340710  1.0  -0.6003
  O  O39  1  0.833200  0.330670  0.840710  1.0  -0.5993
  O  O40  1  0.333200  0.830670  0.340710  1.0  -0.5993
  O  O41  1  0.833200  0.669330  0.159290  1.0  -0.6
  O  O42  1  0.333200  0.169330  0.659290  1.0  -0.6001
  O  O43  1  0.166800  0.830670  0.159290  1.0  -0.5991
  O  O44  1  0.666800  0.330670  0.659290  1.0  -0.599
  O  O45  1  0.833200  0.830670  0.159290  1.0  -0.5987
  O  O46  1  0.333200  0.330670  0.659290  1.0  -0.5988
  O  O47  1  0.166800  0.669330  0.159290  1.0  -0.5997
  O  O48  1  0.666800  0.169330  0.659290  1.0  -0.5999
  O  O49  1  0.166800  0.330670  0.840710  1.0  -0.6
  O  O50  1  0.666800  0.830670  0.340710  1.0  -0.5998
  O  O51  1  0.833200  0.169330  0.840710  1.0  -0.6001
  O  O52  1  0.333200  0.669330  0.340710  1.0  -0.6002
  F  F53  1  0.000000  0.250000  0.692000  1.0  -0.5303
  F  F54  1  0.500000  0.750000  0.192000  1.0  -0.5303
  F  F55  1  0.000000  0.750000  0.308000  1.0  -0.5318
  F  F56  1  0.500000  0.250000  0.808000  1.0  -0.5318
