# generated using pymatgen
data_CuH2(C3O2)2
_symmetry_space_group_name_H-M   'P 1'
_cell_length_a   18.65050000
_cell_length_b   18.65050000
_cell_length_c   18.65050000
_cell_angle_alpha   60.00000000
_cell_angle_beta   60.00000000
_cell_angle_gamma   60.00000000
_symmetry_Int_Tables_number   1
_chemical_formula_structural   CuH2(C3O2)2
_chemical_formula_sum   'Cu12 H24 C72 O48'
_cell_volume   4587.29257401
_cell_formula_units_Z   12
loop_
 _symmetry_equiv_pos_site_id
 _symmetry_equiv_pos_as_xyz
  1  'x, y, z'
loop_
 _atom_site_type_symbol
 _atom_site_label
 _atom_site_symmetry_multiplicity
 _atom_site_fract_x
 _atom_site_fract_y
 _atom_site_fract_z
 _atom_site_occupancy
 _atom_site_charge
  Cu  Cu1  1  0.000000  0.569330  0.430670  1.0  0.9107
  Cu  Cu2  1  0.569330  0.000000  0.430670  1.0  0.9106
  Cu  Cu3  1  0.569330  0.000000  0.000000  1.0  0.9104
  Cu  Cu4  1  0.000000  0.430670  0.569330  1.0  0.9106
  Cu  Cu5  1  0.000000  0.569330  0.000000  1.0  0.91
  Cu  Cu6  1  0.000000  0.000000  0.430670  1.0  0.9097
  Cu  Cu7  1  0.000000  0.430670  0.000000  1.0  0.9101
  Cu  Cu8  1  0.000000  0.000000  0.569330  1.0  0.9091
  Cu  Cu9  1  0.430670  0.000000  0.569330  1.0  0.9113
  Cu  Cu10  1  0.430670  0.569330  0.000000  1.0  0.9107
  Cu  Cu11  1  0.430670  0.000000  0.000000  1.0  0.9113
  Cu  Cu12  1  0.569330  0.430670  0.000000  1.0  0.91
  H  H13  1  0.032100  0.727700  0.512500  1.0  0.1146
  H  H14  1  0.727700  0.032100  0.727700  1.0  0.1142
  H  H15  1  0.272300  0.487500  0.967900  1.0  0.1155
  H  H16  1  0.512500  0.727700  0.727700  1.0  0.1144
  H  H17  1  0.727700  0.512500  0.032100  1.0  0.1154
  H  H18  1  0.512500  0.032100  0.727700  1.0  0.1144
  H  H19  1  0.727700  0.727700  0.032100  1.0  0.1142
  H  H20  1  0.487500  0.272300  0.272300  1.0  0.1143
  H  H21  1  0.487500  0.967900  0.272300  1.0  0.1144
  H  H22  1  0.032100  0.727700  0.727700  1.0  0.1144
  H  H23  1  0.032100  0.512500  0.727700  1.0  0.1153
  H  H24  1  0.727700  0.032100  0.512500  1.0  0.1144
  H  H25  1  0.727700  0.512500  0.727700  1.0  0.1153
  H  H26  1  0.272300  0.272300  0.487500  1.0  0.1143
  H  H27  1  0.272300  0.967900  0.272300  1.0  0.1143
  H  H28  1  0.487500  0.272300  0.967900  1.0  0.1144
  H  H29  1  0.512500  0.727700  0.032100  1.0  0.1145
  H  H30  1  0.272300  0.272300  0.967900  1.0  0.1141
  H  H31  1  0.967900  0.487500  0.272300  1.0  0.115
  H  H32  1  0.967900  0.272300  0.272300  1.0  0.1142
  H  H33  1  0.272300  0.487500  0.272300  1.0  0.1154
  H  H34  1  0.967900  0.272300  0.487500  1.0  0.1143
  H  H35  1  0.272300  0.967900  0.487500  1.0  0.1141
  H  H36  1  0.727700  0.727700  0.512500  1.0  0.1144
  C  C37  1  0.025090  0.837170  0.568870  1.0  0.6862
  C  C38  1  0.967940  0.301060  0.301060  1.0  0.0331
  C  C39  1  0.032060  0.698940  0.698940  1.0  0.0338
  C  C40  1  0.698940  0.032060  0.698940  1.0  0.0339
  C  C41  1  0.974910  0.431130  0.431130  1.0  0.6869
  C  C42  1  0.032060  0.570060  0.698940  1.0  0.0345
  C  C43  1  0.429940  0.301060  0.301060  1.0  0.0337
  C  C44  1  0.974910  0.162830  0.431130  1.0  0.6864
  C  C45  1  0.698940  0.570060  0.698940  1.0  0.0349
  C  C46  1  0.257990  0.387050  0.387050  1.0  -0.1615
  C  C47  1  0.568870  0.568870  0.837170  1.0  0.685
  C  C48  1  0.698940  0.570060  0.032060  1.0  0.0351
  C  C49  1  0.162830  0.431130  0.974910  1.0  0.685
  C  C50  1  0.162830  0.431130  0.431130  1.0  0.6851
  C  C51  1  0.032060  0.698940  0.570060  1.0  0.033
  C  C52  1  0.429940  0.967940  0.301060  1.0  0.0331
  C  C53  1  0.032090  0.612950  0.742010  1.0  -0.1616
  C  C54  1  0.698940  0.698940  0.032060  1.0  0.0341
  C  C55  1  0.612950  0.612950  0.742010  1.0  -0.1613
  C  C56  1  0.301060  0.967940  0.429940  1.0  0.0329
  C  C57  1  0.301060  0.967940  0.301060  1.0  0.0326
  C  C58  1  0.301060  0.429940  0.967940  1.0  0.0343
  C  C59  1  0.387050  0.387050  0.257990  1.0  -0.1613
  C  C60  1  0.431130  0.974910  0.162830  1.0  0.686
  C  C61  1  0.967910  0.387050  0.387050  1.0  -0.1617
  C  C62  1  0.837170  0.025090  0.568870  1.0  0.685
  C  C63  1  0.387050  0.257990  0.387050  1.0  -0.1611
  C  C64  1  0.301060  0.301060  0.967940  1.0  0.0332
  C  C65  1  0.568870  0.025090  0.837170  1.0  0.6862
  C  C66  1  0.570060  0.698940  0.032060  1.0  0.0332
  C  C67  1  0.698940  0.032060  0.570060  1.0  0.0328
  C  C68  1  0.025090  0.568870  0.837170  1.0  0.6867
  C  C69  1  0.429940  0.301060  0.967940  1.0  0.0338
  C  C70  1  0.967940  0.429940  0.301060  1.0  0.0352
  C  C71  1  0.967940  0.301060  0.429940  1.0  0.0333
  C  C72  1  0.837170  0.568870  0.025090  1.0  0.6851
  C  C73  1  0.698940  0.698940  0.570060  1.0  0.0336
  C  C74  1  0.612950  0.032090  0.742010  1.0  -0.1615
  C  C75  1  0.025090  0.568870  0.568870  1.0  0.6863
  C  C76  1  0.967910  0.387050  0.257990  1.0  -0.1615
  C  C77  1  0.032090  0.742010  0.612950  1.0  -0.161
  C  C78  1  0.570060  0.032060  0.698940  1.0  0.032
  C  C79  1  0.387050  0.257990  0.967910  1.0  -0.161
  C  C80  1  0.570060  0.698940  0.698940  1.0  0.033
  C  C81  1  0.431130  0.162830  0.974910  1.0  0.6857
  C  C82  1  0.742010  0.612950  0.612950  1.0  -0.1609
  C  C83  1  0.568870  0.837170  0.568870  1.0  0.6857
  C  C84  1  0.387050  0.967910  0.257990  1.0  -0.1607
  C  C85  1  0.431130  0.431130  0.974910  1.0  0.6854
  C  C86  1  0.612950  0.032090  0.612950  1.0  -0.1612
  C  C87  1  0.568870  0.568870  0.025090  1.0  0.6847
  C  C88  1  0.612950  0.742010  0.612950  1.0  -0.1606
  C  C89  1  0.431130  0.431130  0.162830  1.0  0.6852
  C  C90  1  0.301060  0.301060  0.429940  1.0  0.0343
  C  C91  1  0.431130  0.974910  0.431130  1.0  0.6864
  C  C92  1  0.742010  0.612950  0.032090  1.0  -0.1612
  C  C93  1  0.967910  0.257990  0.387050  1.0  -0.1613
  C  C94  1  0.974910  0.431130  0.162830  1.0  0.6864
  C  C95  1  0.387050  0.967910  0.387050  1.0  -0.1607
  C  C96  1  0.301060  0.429940  0.301060  1.0  0.0345
  C  C97  1  0.568870  0.837170  0.025090  1.0  0.686
  C  C98  1  0.568870  0.025090  0.568870  1.0  0.6857
  C  C99  1  0.612950  0.742010  0.032090  1.0  -0.1607
  C  C100  1  0.837170  0.568870  0.568870  1.0  0.6849
  C  C101  1  0.257990  0.967910  0.387050  1.0  -0.1609
  C  C102  1  0.612950  0.612950  0.032090  1.0  -0.1615
  C  C103  1  0.032090  0.612950  0.612950  1.0  -0.1615
  C  C104  1  0.431130  0.162830  0.431130  1.0  0.6859
  C  C105  1  0.257990  0.387050  0.967910  1.0  -0.1614
  C  C106  1  0.162830  0.974910  0.431130  1.0  0.6852
  C  C107  1  0.387050  0.387050  0.967910  1.0  -0.1614
  C  C108  1  0.742010  0.032090  0.612950  1.0  -0.1608
  O  O109  1  0.492390  0.021070  0.874070  1.0  -0.5635
  O  O110  1  0.387530  0.125930  0.978930  1.0  -0.5635
  O  O111  1  0.874070  0.021070  0.492390  1.0  -0.5633
  O  O112  1  0.021070  0.492390  0.612470  1.0  -0.5637
  O  O113  1  0.507610  0.978930  0.387530  1.0  -0.5643
  O  O114  1  0.387530  0.978930  0.507610  1.0  -0.5631
  O  O115  1  0.978930  0.387530  0.125930  1.0  -0.5643
  O  O116  1  0.125930  0.978930  0.507610  1.0  -0.5639
  O  O117  1  0.021070  0.874070  0.612470  1.0  -0.5639
  O  O118  1  0.492390  0.874070  0.612470  1.0  -0.5635
  O  O119  1  0.612470  0.492390  0.021070  1.0  -0.5639
  O  O120  1  0.507610  0.387530  0.978930  1.0  -0.5647
  O  O121  1  0.021070  0.612470  0.874070  1.0  -0.5639
  O  O122  1  0.492390  0.612470  0.021070  1.0  -0.5641
  O  O123  1  0.387530  0.125930  0.507610  1.0  -0.5644
  O  O124  1  0.978930  0.125930  0.387530  1.0  -0.5637
  O  O125  1  0.125930  0.507610  0.387530  1.0  -0.5637
  O  O126  1  0.612470  0.492390  0.874070  1.0  -0.5645
  O  O127  1  0.125930  0.507610  0.978930  1.0  -0.5644
  O  O128  1  0.021070  0.612470  0.492390  1.0  -0.5633
  O  O129  1  0.874070  0.612470  0.021070  1.0  -0.5647
  O  O130  1  0.507610  0.387530  0.125930  1.0  -0.5645
  O  O131  1  0.387530  0.507610  0.125930  1.0  -0.5642
  O  O132  1  0.125930  0.387530  0.507610  1.0  -0.5642
  O  O133  1  0.492390  0.612470  0.874070  1.0  -0.5644
  O  O134  1  0.492390  0.021070  0.612470  1.0  -0.564
  O  O135  1  0.387530  0.507610  0.978930  1.0  -0.5643
  O  O136  1  0.978930  0.125930  0.507610  1.0  -0.5642
  O  O137  1  0.874070  0.612470  0.492390  1.0  -0.5641
  O  O138  1  0.125930  0.387530  0.978930  1.0  -0.5641
  O  O139  1  0.874070  0.492390  0.021070  1.0  -0.5646
  O  O140  1  0.874070  0.492390  0.612470  1.0  -0.5644
  O  O141  1  0.492390  0.874070  0.021070  1.0  -0.5637
  O  O142  1  0.021070  0.874070  0.492390  1.0  -0.5637
  O  O143  1  0.507610  0.978930  0.125930  1.0  -0.5643
  O  O144  1  0.612470  0.021070  0.492390  1.0  -0.5636
  O  O145  1  0.612470  0.874070  0.021070  1.0  -0.5645
  O  O146  1  0.507610  0.125930  0.387530  1.0  -0.5636
  O  O147  1  0.874070  0.021070  0.612470  1.0  -0.5637
  O  O148  1  0.021070  0.492390  0.874070  1.0  -0.5638
  O  O149  1  0.978930  0.507610  0.387530  1.0  -0.5636
  O  O150  1  0.978930  0.387530  0.507610  1.0  -0.5642
  O  O151  1  0.125930  0.978930  0.387530  1.0  -0.5642
  O  O152  1  0.612470  0.021070  0.874070  1.0  -0.5636
  O  O153  1  0.612470  0.874070  0.492390  1.0  -0.5645
  O  O154  1  0.978930  0.507610  0.125930  1.0  -0.5639
  O  O155  1  0.387530  0.978930  0.125930  1.0  -0.5633
  O  O156  1  0.507610  0.125930  0.978930  1.0  -0.5636
