# generated using pymatgen
data_AlC8O4F
_symmetry_space_group_name_H-M   'P 1'
_cell_length_a   6.55280000
_cell_length_b   16.43910000
_cell_length_c   13.13810000
_cell_angle_alpha   90.00000000
_cell_angle_beta   90.00000000
_cell_angle_gamma   90.57490000
_symmetry_Int_Tables_number   1
_chemical_formula_structural   AlC8O4F
_chemical_formula_sum   'Al4 C32 O16 F4'
_cell_volume   1415.19293184
_cell_formula_units_Z   4
loop_
 _symmetry_equiv_pos_site_id
 _symmetry_equiv_pos_as_xyz
  1  'x, y, z'
loop_
 _atom_site_type_symbol
 _atom_site_label
 _atom_site_symmetry_multiplicity
 _atom_site_fract_x
 _atom_site_fract_y
 _atom_site_fract_z
 _atom_site_occupancy
 _atom_site_charge
  Al  Al1  1  0.250000  0.250000  0.750000  1.0  1.8327
  Al  Al2  1  0.750000  0.250000  0.750000  1.0  1.8327
  Al  Al3  1  0.750000  0.750000  0.250000  1.0  1.8327
  Al  Al4  1  0.250000  0.750000  0.250000  1.0  1.8327
  C  C5  1  0.798300  0.023900  0.949900  1.0  -0.045
  C  C6  1  0.000600  0.061500  0.945000  1.0  -0.0784
  C  C7  1  0.001100  0.137100  0.866200  1.0  0.6597
  C  C8  1  0.195700  0.541600  0.025000  1.0  -0.0273
  C  C9  1  0.298300  0.523900  0.449900  1.0  -0.045
  C  C10  1  0.500600  0.561500  0.445000  1.0  -0.0784
  C  C11  1  0.501100  0.637100  0.366200  1.0  0.6597
  C  C12  1  0.695700  0.041600  0.525000  1.0  -0.0273
  C  C13  1  0.201700  0.476100  0.949900  1.0  -0.0456
  C  C14  1  0.999400  0.438500  0.945000  1.0  -0.0783
  C  C15  1  0.998900  0.362900  0.866200  1.0  0.6595
  C  C16  1  0.804300  0.958400  0.025000  1.0  -0.0308
  C  C17  1  0.701700  0.976100  0.449900  1.0  -0.0456
  C  C18  1  0.499400  0.938500  0.445000  1.0  -0.0783
  C  C19  1  0.498900  0.862900  0.366200  1.0  0.6595
  C  C20  1  0.304300  0.458400  0.525000  1.0  -0.0308
  C  C21  1  0.201700  0.976100  0.050100  1.0  -0.0473
  C  C22  1  0.999400  0.938500  0.055000  1.0  -0.0777
  C  C23  1  0.998900  0.862900  0.133800  1.0  0.66
  C  C24  1  0.804300  0.458400  0.975000  1.0  -0.0291
  C  C25  1  0.701700  0.476100  0.550100  1.0  -0.0473
  C  C26  1  0.499400  0.438500  0.555000  1.0  -0.0777
  C  C27  1  0.498900  0.362900  0.633800  1.0  0.66
  C  C28  1  0.304300  0.958400  0.475000  1.0  -0.0291
  C  C29  1  0.798300  0.523900  0.050100  1.0  -0.0453
  C  C30  1  0.000600  0.561500  0.055000  1.0  -0.0777
  C  C31  1  0.001100  0.637100  0.133800  1.0  0.6591
  C  C32  1  0.195700  0.041600  0.975000  1.0  -0.0287
  C  C33  1  0.298300  0.023900  0.550100  1.0  -0.0453
  C  C34  1  0.500600  0.061500  0.555000  1.0  -0.0777
  C  C35  1  0.501100  0.137100  0.633800  1.0  0.6591
  C  C36  1  0.695700  0.541600  0.475000  1.0  -0.0287
  O  O37  1  0.157700  0.174120  0.853200  1.0  -0.5639
  O  O38  1  0.818800  0.658400  0.166300  1.0  -0.5776
  O  O39  1  0.657700  0.674120  0.353200  1.0  -0.5639
  O  O40  1  0.318800  0.158400  0.666300  1.0  -0.5776
  O  O41  1  0.842300  0.325880  0.853200  1.0  -0.5647
  O  O42  1  0.181200  0.841600  0.166300  1.0  -0.5745
  O  O43  1  0.342300  0.825880  0.353200  1.0  -0.5647
  O  O44  1  0.681200  0.341600  0.666300  1.0  -0.5745
  O  O45  1  0.842300  0.825880  0.146800  1.0  -0.5633
  O  O46  1  0.181200  0.341600  0.833700  1.0  -0.5744
  O  O47  1  0.342300  0.325880  0.646800  1.0  -0.5633
  O  O48  1  0.681200  0.841600  0.333700  1.0  -0.5744
  O  O49  1  0.157700  0.674120  0.146800  1.0  -0.563
  O  O50  1  0.818800  0.158400  0.833700  1.0  -0.5771
  O  O51  1  0.657700  0.174120  0.646800  1.0  -0.563
  O  O52  1  0.318800  0.658400  0.333700  1.0  -0.5771
  F  F53  1  0.000000  0.250000  0.689600  1.0  -0.567
  F  F54  1  0.500000  0.750000  0.189600  1.0  -0.567
  F  F55  1  0.000000  0.750000  0.310400  1.0  -0.567
  F  F56  1  0.500000  0.250000  0.810400  1.0  -0.567
