# generated using pymatgen
data_AlC8O4F
_symmetry_space_group_name_H-M   'P 1'
_cell_length_a   6.56770000
_cell_length_b   16.40370000
_cell_length_c   13.17400000
_cell_angle_alpha   90.00000000
_cell_angle_beta   90.00000000
_cell_angle_gamma   90.00000000
_symmetry_Int_Tables_number   1
_chemical_formula_structural   AlC8O4F
_chemical_formula_sum   'Al4 C32 O16 F4'
_cell_volume   1419.29536338
_cell_formula_units_Z   4
loop_
 _symmetry_equiv_pos_site_id
 _symmetry_equiv_pos_as_xyz
  1  'x, y, z'
loop_
 _atom_site_type_symbol
 _atom_site_label
 _atom_site_symmetry_multiplicity
 _atom_site_fract_x
 _atom_site_fract_y
 _atom_site_fract_z
 _atom_site_occupancy
 _atom_site_charge
  Al  Al1  1  0.250000  0.250000  0.750000  1.0  1.8246
  Al  Al2  1  0.750000  0.250000  0.750000  1.0  1.8246
  Al  Al3  1  0.750000  0.750000  0.250000  1.0  1.8246
  Al  Al4  1  0.250000  0.750000  0.250000  1.0  1.8246
  C  C5  1  0.806500  0.029800  0.958300  1.0  -0.0168
  C  C6  1  0.306500  0.529800  0.458300  1.0  -0.0168
  C  C7  1  0.193500  0.470200  0.958300  1.0  -0.0169
  C  C8  1  0.693500  0.970200  0.458300  1.0  -0.0169
  C  C9  1  0.193500  0.529800  0.041700  1.0  -0.0187
  C  C10  1  0.693500  0.029800  0.541700  1.0  -0.0187
  C  C11  1  0.806500  0.970200  0.041700  1.0  -0.0184
  C  C12  1  0.306500  0.470200  0.541700  1.0  -0.0184
  C  C13  1  0.193500  0.970200  0.041700  1.0  -0.0183
  C  C14  1  0.693500  0.470200  0.541700  1.0  -0.0201
  C  C15  1  0.806500  0.529800  0.041700  1.0  -0.0197
  C  C16  1  0.306500  0.029800  0.541700  1.0  -0.0179
  C  C17  1  0.806500  0.470200  0.958300  1.0  -0.0163
  C  C18  1  0.306500  0.970200  0.458300  1.0  -0.0163
  C  C19  1  0.193500  0.029800  0.958300  1.0  -0.0169
  C  C20  1  0.693500  0.529800  0.458300  1.0  -0.0169
  C  C21  1  0.000000  0.062200  0.946100  1.0  -0.0166
  C  C22  1  0.000000  0.138700  0.872400  1.0  0.6327
  C  C23  1  0.500000  0.562200  0.446100  1.0  -0.0166
  C  C24  1  0.500000  0.638700  0.372400  1.0  0.6327
  C  C25  1  0.000000  0.437800  0.946100  1.0  -0.0169
  C  C26  1  0.000000  0.361300  0.872400  1.0  0.6344
  C  C27  1  0.500000  0.937800  0.446100  1.0  -0.0169
  C  C28  1  0.500000  0.861300  0.372400  1.0  0.6344
  C  C29  1  0.000000  0.562200  0.053900  1.0  -0.0168
  C  C30  1  0.000000  0.638700  0.127600  1.0  0.6313
  C  C31  1  0.500000  0.062200  0.553900  1.0  -0.0168
  C  C32  1  0.500000  0.138700  0.627600  1.0  0.6313
  C  C33  1  0.000000  0.937800  0.053900  1.0  -0.0174
  C  C34  1  0.000000  0.861300  0.127600  1.0  0.6335
  C  C35  1  0.500000  0.437800  0.553900  1.0  -0.0174
  C  C36  1  0.500000  0.361300  0.627600  1.0  0.6335
  O  O37  1  0.168700  0.168260  0.838900  1.0  -0.6073
  O  O38  1  0.668700  0.668260  0.338900  1.0  -0.608
  O  O39  1  0.831300  0.331740  0.838900  1.0  -0.6074
  O  O40  1  0.331300  0.831740  0.338900  1.0  -0.6074
  O  O41  1  0.831300  0.668260  0.161100  1.0  -0.6086
  O  O42  1  0.331300  0.168260  0.661100  1.0  -0.6078
  O  O43  1  0.168700  0.831740  0.161100  1.0  -0.607
  O  O44  1  0.668700  0.331740  0.661100  1.0  -0.607
  O  O45  1  0.831300  0.831740  0.161100  1.0  -0.607
  O  O46  1  0.331300  0.331740  0.661100  1.0  -0.6097
  O  O47  1  0.168700  0.668260  0.161100  1.0  -0.6075
  O  O48  1  0.668700  0.168260  0.661100  1.0  -0.6075
  O  O49  1  0.168700  0.331740  0.838900  1.0  -0.6079
  O  O50  1  0.668700  0.831740  0.338900  1.0  -0.6088
  O  O51  1  0.831300  0.168260  0.838900  1.0  -0.608
  O  O52  1  0.331300  0.668260  0.338900  1.0  -0.608
  F  F53  1  0.000000  0.250000  0.694000  1.0  -0.5541
  F  F54  1  0.500000  0.750000  0.194000  1.0  -0.5541
  F  F55  1  0.000000  0.750000  0.306000  1.0  -0.5549
  F  F56  1  0.500000  0.250000  0.806000  1.0  -0.5549
