# generated using pymatgen
data_AlC8O4F
_symmetry_space_group_name_H-M   'P 1'
_cell_length_a   6.56800000
_cell_length_b   16.40180000
_cell_length_c   13.18300000
_cell_angle_alpha   90.00000000
_cell_angle_beta   90.00000000
_cell_angle_gamma   90.00000000
_symmetry_Int_Tables_number   1
_chemical_formula_structural   AlC8O4F
_chemical_formula_sum   'Al4 C32 O16 F4'
_cell_volume   1420.16533630
_cell_formula_units_Z   4
loop_
 _symmetry_equiv_pos_site_id
 _symmetry_equiv_pos_as_xyz
  1  'x, y, z'
loop_
 _atom_site_type_symbol
 _atom_site_label
 _atom_site_symmetry_multiplicity
 _atom_site_fract_x
 _atom_site_fract_y
 _atom_site_fract_z
 _atom_site_occupancy
 _atom_site_charge
  Al  Al1  1  0.250000  0.250000  0.750000  1.0  1.8109
  Al  Al2  1  0.750000  0.250000  0.750000  1.0  1.8109
  Al  Al3  1  0.750000  0.750000  0.250000  1.0  1.8109
  Al  Al4  1  0.250000  0.750000  0.250000  1.0  1.8109
  C  C5  1  0.804100  0.029100  0.956700  1.0  -0.0391
  C  C6  1  0.304100  0.529100  0.456700  1.0  -0.0391
  C  C7  1  0.195900  0.470900  0.956700  1.0  -0.0366
  C  C8  1  0.695900  0.970900  0.456700  1.0  -0.0366
  C  C9  1  0.195900  0.529100  0.043300  1.0  -0.0376
  C  C10  1  0.695900  0.029100  0.543300  1.0  -0.0376
  C  C11  1  0.804100  0.970900  0.043300  1.0  -0.0404
  C  C12  1  0.304100  0.470900  0.543300  1.0  -0.0404
  C  C13  1  0.195900  0.970900  0.043300  1.0  -0.038
  C  C14  1  0.695900  0.470900  0.543300  1.0  -0.0376
  C  C15  1  0.804100  0.529100  0.043300  1.0  -0.0404
  C  C16  1  0.304100  0.029100  0.543300  1.0  -0.0407
  C  C17  1  0.804100  0.470900  0.956700  1.0  -0.0388
  C  C18  1  0.304100  0.970900  0.456700  1.0  -0.0388
  C  C19  1  0.195900  0.029100  0.956700  1.0  -0.0363
  C  C20  1  0.695900  0.529100  0.456700  1.0  -0.0363
  C  C21  1  0.000000  0.062900  0.946400  1.0  -0.0499
  C  C22  1  0.000000  0.137200  0.866200  1.0  0.6661
  C  C23  1  0.500000  0.562900  0.446400  1.0  -0.0499
  C  C24  1  0.500000  0.637200  0.366200  1.0  0.6661
  C  C25  1  0.000000  0.437100  0.946400  1.0  -0.0504
  C  C26  1  0.000000  0.362800  0.866200  1.0  0.6681
  C  C27  1  0.500000  0.937100  0.446400  1.0  -0.0504
  C  C28  1  0.500000  0.862800  0.366200  1.0  0.6681
  C  C29  1  0.000000  0.562900  0.053600  1.0  -0.0494
  C  C30  1  0.000000  0.637200  0.133800  1.0  0.6667
  C  C31  1  0.500000  0.062900  0.553600  1.0  -0.0494
  C  C32  1  0.500000  0.137200  0.633800  1.0  0.6667
  C  C33  1  0.000000  0.937100  0.053600  1.0  -0.0498
  C  C34  1  0.000000  0.862800  0.133800  1.0  0.6686
  C  C35  1  0.500000  0.437100  0.553600  1.0  -0.0498
  C  C36  1  0.500000  0.362800  0.633800  1.0  0.6686
  O  O37  1  0.169900  0.168250  0.841300  1.0  -0.5847
  O  O38  1  0.669900  0.668250  0.341300  1.0  -0.5842
  O  O39  1  0.830100  0.331750  0.841300  1.0  -0.5843
  O  O40  1  0.330100  0.831750  0.341300  1.0  -0.5843
  O  O41  1  0.830100  0.668250  0.158700  1.0  -0.5852
  O  O42  1  0.330100  0.168250  0.658700  1.0  -0.5859
  O  O43  1  0.169900  0.831750  0.158700  1.0  -0.5865
  O  O44  1  0.669900  0.331750  0.658700  1.0  -0.5865
  O  O45  1  0.830100  0.831750  0.158700  1.0  -0.5847
  O  O46  1  0.330100  0.331750  0.658700  1.0  -0.5849
  O  O47  1  0.169900  0.668250  0.158700  1.0  -0.5855
  O  O48  1  0.669900  0.168250  0.658700  1.0  -0.5855
  O  O49  1  0.169900  0.331750  0.841300  1.0  -0.5847
  O  O50  1  0.669900  0.831750  0.341300  1.0  -0.5847
  O  O51  1  0.830100  0.168250  0.841300  1.0  -0.5845
  O  O52  1  0.330100  0.668250  0.341300  1.0  -0.5845
  F  F53  1  0.000000  0.250000  0.694600  1.0  -0.5524
  F  F54  1  0.500000  0.750000  0.194600  1.0  -0.5524
  F  F55  1  0.000000  0.750000  0.305400  1.0  -0.552
  F  F56  1  0.500000  0.250000  0.805400  1.0  -0.552
