# generated using pymatgen
data_AlC8O5
_symmetry_space_group_name_H-M   'P 1'
_cell_length_a   6.63030000
_cell_length_b   16.79730000
_cell_length_c   12.74690000
_cell_angle_alpha   90.00000000
_cell_angle_beta   90.00000000
_cell_angle_gamma   90.00000000
_symmetry_Int_Tables_number   1
_chemical_formula_structural   AlC8O5
_chemical_formula_sum   'Al4 C32 O20'
_cell_volume   1419.63676139
_cell_formula_units_Z   4
loop_
 _symmetry_equiv_pos_site_id
 _symmetry_equiv_pos_as_xyz
  1  'x, y, z'
loop_
 _atom_site_type_symbol
 _atom_site_label
 _atom_site_symmetry_multiplicity
 _atom_site_fract_x
 _atom_site_fract_y
 _atom_site_fract_z
 _atom_site_occupancy
 _atom_site_charge
  Al  Al1  1  0.250000  0.250000  0.750000  1.0  1.8141
  Al  Al2  1  0.750000  0.250000  0.750000  1.0  1.8141
  Al  Al3  1  0.750000  0.750000  0.250000  1.0  1.8141
  Al  Al4  1  0.250000  0.750000  0.250000  1.0  1.8141
  C  C5  1  0.808100  0.035150  0.969400  1.0  -0.0131
  C  C6  1  0.308100  0.535150  0.469400  1.0  -0.0131
  C  C7  1  0.191900  0.464850  0.969400  1.0  -0.0086
  C  C8  1  0.691900  0.964850  0.469400  1.0  -0.0101
  C  C9  1  0.191900  0.535150  0.030600  1.0  -0.0091
  C  C10  1  0.691900  0.035150  0.530600  1.0  -0.0091
  C  C11  1  0.808100  0.964850  0.030600  1.0  -0.013
  C  C12  1  0.308100  0.464850  0.530600  1.0  -0.013
  C  C13  1  0.191900  0.964850  0.030600  1.0  -0.0084
  C  C14  1  0.691900  0.464850  0.530600  1.0  -0.0084
  C  C15  1  0.808100  0.535150  0.030600  1.0  -0.0115
  C  C16  1  0.308100  0.035150  0.530600  1.0  -0.013
  C  C17  1  0.808100  0.464850  0.969400  1.0  -0.0132
  C  C18  1  0.308100  0.964850  0.469400  1.0  -0.0132
  C  C19  1  0.191900  0.035150  0.969400  1.0  -0.0103
  C  C20  1  0.691900  0.535150  0.469400  1.0  -0.0103
  C  C21  1  0.000000  0.063000  0.945100  1.0  -0.0426
  C  C22  1  0.000000  0.137750  0.871000  1.0  0.688
  C  C23  1  0.500000  0.563000  0.445100  1.0  -0.0426
  C  C24  1  0.500000  0.637750  0.371000  1.0  0.688
  C  C25  1  0.000000  0.437000  0.945100  1.0  -0.0427
  C  C26  1  0.000000  0.362250  0.871000  1.0  0.6886
  C  C27  1  0.500000  0.937000  0.445100  1.0  -0.0427
  C  C28  1  0.500000  0.862250  0.371000  1.0  0.6886
  C  C29  1  0.000000  0.563000  0.054900  1.0  -0.0415
  C  C30  1  0.000000  0.637750  0.129000  1.0  0.6883
  C  C31  1  0.500000  0.063000  0.554900  1.0  -0.0415
  C  C32  1  0.500000  0.137750  0.629000  1.0  0.6883
  C  C33  1  0.000000  0.937000  0.054900  1.0  -0.0422
  C  C34  1  0.000000  0.862250  0.129000  1.0  0.6889
  C  C35  1  0.500000  0.437000  0.554900  1.0  -0.0422
  C  C36  1  0.500000  0.362250  0.629000  1.0  0.6889
  O  O37  1  0.167930  0.167700  0.842620  1.0  -0.5719
  O  O38  1  0.667930  0.667700  0.342620  1.0  -0.5719
  O  O39  1  0.832070  0.332300  0.842620  1.0  -0.572
  O  O40  1  0.332070  0.832300  0.342620  1.0  -0.572
  O  O41  1  0.832070  0.667700  0.157380  1.0  -0.573
  O  O42  1  0.332070  0.167700  0.657380  1.0  -0.573
  O  O43  1  0.167930  0.832300  0.157380  1.0  -0.5718
  O  O44  1  0.667930  0.332300  0.657380  1.0  -0.5718
  O  O45  1  0.832070  0.832300  0.157380  1.0  -0.5723
  O  O46  1  0.332070  0.332300  0.657380  1.0  -0.5723
  O  O47  1  0.167930  0.667700  0.157380  1.0  -0.572
  O  O48  1  0.667930  0.167700  0.657380  1.0  -0.572
  O  O49  1  0.167930  0.332300  0.842620  1.0  -0.5718
  O  O50  1  0.667930  0.832300  0.342620  1.0  -0.5718
  O  O51  1  0.832070  0.167700  0.842620  1.0  -0.5723
  O  O52  1  0.332070  0.667700  0.342620  1.0  -0.5723
  O  O53  1  0.000000  0.250000  0.686100  1.0  -0.7729
  O  O54  1  0.500000  0.750000  0.186100  1.0  -0.7729
  O  O55  1  0.000000  0.750000  0.313900  1.0  -0.7744
  O  O56  1  0.500000  0.250000  0.813900  1.0  -0.7744
