# generated using pymatgen
data_AlC8O5
_symmetry_space_group_name_H-M   'P 1'
_cell_length_a   6.62910000
_cell_length_b   16.74570000
_cell_length_c   12.80990000
_cell_angle_alpha   90.00000000
_cell_angle_beta   90.00000000
_cell_angle_gamma   90.00000000
_symmetry_Int_Tables_number   1
_chemical_formula_structural   AlC8O5
_chemical_formula_sum   'Al4 C32 O20'
_cell_volume   1422.01316264
_cell_formula_units_Z   4
loop_
 _symmetry_equiv_pos_site_id
 _symmetry_equiv_pos_as_xyz
  1  'x, y, z'
loop_
 _atom_site_type_symbol
 _atom_site_label
 _atom_site_symmetry_multiplicity
 _atom_site_fract_x
 _atom_site_fract_y
 _atom_site_fract_z
 _atom_site_occupancy
 _atom_site_charge
  Al  Al1  1  0.250000  0.250000  0.750000  1.0  1.818
  Al  Al2  1  0.750000  0.250000  0.750000  1.0  1.818
  Al  Al3  1  0.750000  0.750000  0.250000  1.0  1.818
  Al  Al4  1  0.250000  0.750000  0.250000  1.0  1.818
  C  C5  1  0.808500  0.035160  0.967000  1.0  -0.0236
  C  C6  1  0.308500  0.535160  0.467000  1.0  -0.0236
  C  C7  1  0.191500  0.464840  0.967000  1.0  -0.0208
  C  C8  1  0.691500  0.964840  0.467000  1.0  -0.0208
  C  C9  1  0.191500  0.535160  0.033000  1.0  -0.0179
  C  C10  1  0.691500  0.035160  0.533000  1.0  -0.0179
  C  C11  1  0.808500  0.964840  0.033000  1.0  -0.0215
  C  C12  1  0.308500  0.464840  0.533000  1.0  -0.0215
  C  C13  1  0.191500  0.964840  0.033000  1.0  -0.0194
  C  C14  1  0.691500  0.464840  0.533000  1.0  -0.0194
  C  C15  1  0.808500  0.535160  0.033000  1.0  -0.0213
  C  C16  1  0.308500  0.035160  0.533000  1.0  -0.0218
  C  C17  1  0.808500  0.464840  0.967000  1.0  -0.0241
  C  C18  1  0.308500  0.964840  0.467000  1.0  -0.0241
  C  C19  1  0.191500  0.035160  0.967000  1.0  -0.0206
  C  C20  1  0.691500  0.535160  0.467000  1.0  -0.0206
  C  C21  1  0.000000  0.061900  0.945700  1.0  -0.0407
  C  C22  1  0.000000  0.138500  0.870800  1.0  0.7014
  C  C23  1  0.500000  0.561900  0.445700  1.0  -0.0407
  C  C24  1  0.500000  0.638500  0.370800  1.0  0.7014
  C  C25  1  0.000000  0.438100  0.945700  1.0  -0.0406
  C  C26  1  0.000000  0.361500  0.870800  1.0  0.7021
  C  C27  1  0.500000  0.938100  0.445700  1.0  -0.0406
  C  C28  1  0.500000  0.861500  0.370800  1.0  0.7021
  C  C29  1  0.000000  0.561900  0.054300  1.0  -0.0396
  C  C30  1  0.000000  0.638500  0.129200  1.0  0.7014
  C  C31  1  0.500000  0.061900  0.554300  1.0  -0.0396
  C  C32  1  0.500000  0.138500  0.629200  1.0  0.7014
  C  C33  1  0.000000  0.938100  0.054300  1.0  -0.0398
  C  C34  1  0.000000  0.861500  0.129200  1.0  0.7021
  C  C35  1  0.500000  0.438100  0.554300  1.0  -0.0398
  C  C36  1  0.500000  0.361500  0.629200  1.0  0.7021
  O  O37  1  0.166230  0.167740  0.843580  1.0  -0.5833
  O  O38  1  0.666230  0.667740  0.343580  1.0  -0.5833
  O  O39  1  0.833770  0.332260  0.843580  1.0  -0.5821
  O  O40  1  0.333770  0.832260  0.343580  1.0  -0.5821
  O  O41  1  0.833770  0.667740  0.156420  1.0  -0.5826
  O  O42  1  0.333770  0.167740  0.656420  1.0  -0.5826
  O  O43  1  0.166230  0.832260  0.156420  1.0  -0.5831
  O  O44  1  0.666230  0.332260  0.656420  1.0  -0.5831
  O  O45  1  0.833770  0.832260  0.156420  1.0  -0.582
  O  O46  1  0.333770  0.332260  0.656420  1.0  -0.582
  O  O47  1  0.166230  0.667740  0.156420  1.0  -0.5833
  O  O48  1  0.666230  0.167740  0.656420  1.0  -0.5833
  O  O49  1  0.166230  0.332260  0.843580  1.0  -0.5832
  O  O50  1  0.666230  0.832260  0.343580  1.0  -0.5832
  O  O51  1  0.833770  0.167740  0.843580  1.0  -0.5825
  O  O52  1  0.333770  0.667740  0.343580  1.0  -0.5825
  O  O53  1  0.000000  0.250000  0.684600  1.0  -0.7245
  O  O54  1  0.500000  0.750000  0.184600  1.0  -0.7245
  O  O55  1  0.000000  0.750000  0.315400  1.0  -0.7261
  O  O56  1  0.500000  0.250000  0.815400  1.0  -0.7261
