# generated using pymatgen
data_AlH4C8O4F
_symmetry_space_group_name_H-M   'P 1'
_cell_length_a   20.67210000
_cell_length_b   14.75150000
_cell_length_c   13.12810000
_cell_angle_alpha   90.00200000
_cell_angle_beta   67.13580000
_cell_angle_gamma   90.00040000
_symmetry_Int_Tables_number   1
_chemical_formula_structural   AlH4C8O4F
_chemical_formula_sum   'Al16 H64 C128 O64 F16'
_cell_volume   3688.79255135
_cell_formula_units_Z   16
loop_
 _symmetry_equiv_pos_site_id
 _symmetry_equiv_pos_as_xyz
  1  'x, y, z'
loop_
 _atom_site_type_symbol
 _atom_site_label
 _atom_site_symmetry_multiplicity
 _atom_site_fract_x
 _atom_site_fract_y
 _atom_site_fract_z
 _atom_site_occupancy
 _atom_site_charge
  Al  Al1  1  0.500010  0.001180  0.250030  1.0  1.763
  Al  Al2  1  0.999960  0.248780  0.249970  1.0  1.7638
  Al  Al3  1  0.499970  0.001180  0.999980  1.0  1.7637
  Al  Al4  1  0.000020  0.248760  0.000040  1.0  1.7621
  Al  Al5  1  0.499970  0.499450  0.249970  1.0  1.7649
  Al  Al6  1  0.000010  0.751440  0.249990  1.0  1.7644
  Al  Al7  1  0.500020  0.499440  0.000040  1.0  1.7644
  Al  Al8  1  0.999990  0.751460  0.999990  1.0  1.7649
  Al  Al9  1  0.500040  0.001100  0.750040  1.0  1.7637
  Al  Al10  1  0.999980  0.248730  0.750000  1.0  1.7627
  Al  Al11  1  0.499970  0.001110  0.499980  1.0  1.7636
  Al  Al12  1  0.000020  0.248750  0.500040  1.0  1.7618
  Al  Al13  1  0.500000  0.499370  0.749960  1.0  1.765
  Al  Al14  1  0.000030  0.751410  0.750010  1.0  1.7648
  Al  Al15  1  0.500030  0.499370  0.500020  1.0  1.764
  Al  Al16  1  0.999980  0.751400  0.499980  1.0  1.7653
  H  H17  1  0.165780  0.398010  0.194270  1.0  0.1152
  H  H18  1  0.294730  0.422570  0.142250  1.0  0.1085
  H  H19  1  0.665920  0.149260  0.194180  1.0  0.1151
  H  H20  1  0.795020  0.172580  0.142150  1.0  0.1095
  H  H21  1  0.834260  0.398300  0.055740  1.0  0.1157
  H  H22  1  0.705320  0.422820  0.107730  1.0  0.1083
  H  H23  1  0.334110  0.149360  0.055790  1.0  0.1153
  H  H24  1  0.205010  0.172670  0.107780  1.0  0.1098
  H  H25  1  0.834100  0.100700  0.305800  1.0  0.1149
  H  H26  1  0.705000  0.077350  0.357820  1.0  0.1102
  H  H27  1  0.334120  0.350650  0.305860  1.0  0.115
  H  H28  1  0.205180  0.326100  0.357850  1.0  0.1085
  H  H29  1  0.165890  0.100660  0.444070  1.0  0.1153
  H  H30  1  0.295000  0.077350  0.392090  1.0  0.1099
  H  H31  1  0.665840  0.350390  0.444030  1.0  0.115
  H  H32  1  0.794780  0.325900  0.392070  1.0  0.1095
  H  H33  1  0.165890  0.900010  0.194210  1.0  0.1144
  H  H34  1  0.294910  0.923970  0.142200  1.0  0.1092
  H  H35  1  0.665790  0.648990  0.194280  1.0  0.1149
  H  H36  1  0.794660  0.674000  0.142250  1.0  0.1084
  H  H37  1  0.834110  0.900060  0.055760  1.0  0.1146
  H  H38  1  0.705100  0.924010  0.107730  1.0  0.1091
  H  H39  1  0.334240  0.648950  0.055660  1.0  0.1157
  H  H40  1  0.205370  0.673940  0.107640  1.0  0.1083
  H  H41  1  0.834230  0.601900  0.305740  1.0  0.1157
  H  H42  1  0.705360  0.576870  0.357740  1.0  0.1085
  H  H43  1  0.334180  0.852140  0.305760  1.0  0.1156
  H  H44  1  0.205160  0.828130  0.357770  1.0  0.1091
  H  H45  1  0.165810  0.602090  0.444150  1.0  0.116
  H  H46  1  0.294690  0.577090  0.392160  1.0  0.1084
  H  H47  1  0.665800  0.852100  0.444130  1.0  0.1155
  H  H48  1  0.794820  0.828120  0.392140  1.0  0.1093
  H  H49  1  0.165740  0.398140  0.694270  1.0  0.1152
  H  H50  1  0.294680  0.422700  0.642270  1.0  0.1085
  H  H51  1  0.665890  0.149270  0.694150  1.0  0.1145
  H  H52  1  0.795000  0.172600  0.642140  1.0  0.1094
  H  H53  1  0.834210  0.397820  0.555800  1.0  0.1158
  H  H54  1  0.705260  0.422400  0.607810  1.0  0.1084
  H  H55  1  0.334080  0.149190  0.555940  1.0  0.1156
  H  H56  1  0.204980  0.172530  0.607960  1.0  0.1094
  H  H57  1  0.834100  0.100710  0.805830  1.0  0.1149
  H  H58  1  0.704990  0.077400  0.857840  1.0  0.11
  H  H59  1  0.334130  0.350600  0.805830  1.0  0.1149
  H  H60  1  0.205200  0.326060  0.857840  1.0  0.1098
  H  H61  1  0.165900  0.100760  0.944310  1.0  0.1153
  H  H62  1  0.295000  0.077430  0.892300  1.0  0.1099
  H  H63  1  0.665860  0.350740  0.944310  1.0  0.115
  H  H64  1  0.794800  0.326190  0.892330  1.0  0.1086
  H  H65  1  0.165890  0.900010  0.694170  1.0  0.1144
  H  H66  1  0.294900  0.923980  0.642180  1.0  0.1091
  H  H67  1  0.665810  0.648800  0.694230  1.0  0.1154
  H  H68  1  0.794680  0.673810  0.642240  1.0  0.1084
  H  H69  1  0.834080  0.899900  0.555920  1.0  0.115
  H  H70  1  0.705060  0.923900  0.607940  1.0  0.109
  H  H71  1  0.334240  0.649010  0.555800  1.0  0.1161
  H  H72  1  0.205370  0.674040  0.607820  1.0  0.1085
  H  H73  1  0.834200  0.602000  0.805790  1.0  0.116
  H  H74  1  0.705320  0.576980  0.857810  1.0  0.1086
  H  H75  1  0.334160  0.852220  0.805770  1.0  0.1153
  H  H76  1  0.205140  0.828230  0.857800  1.0  0.1091
  H  H77  1  0.165810  0.601890  0.944240  1.0  0.1157
  H  H78  1  0.294680  0.576860  0.892230  1.0  0.1088
  H  H79  1  0.665810  0.852150  0.944360  1.0  0.1153
  H  H80  1  0.794830  0.828130  0.892330  1.0  0.1092
  C  C81  1  0.177970  0.361530  0.028830  1.0  -0.103
  C  C82  1  0.203070  0.388180  0.109490  1.0  -0.1035
  C  C83  1  0.102200  0.338730  0.061930  1.0  0.6866
  C  C84  1  0.274660  0.400840  0.080820  1.0  -0.1052
  C  C85  1  0.678000  0.112940  0.028750  1.0  -0.1005
  C  C86  1  0.703180  0.139190  0.109440  1.0  -0.1041
  C  C87  1  0.602160  0.090810  0.061860  1.0  0.6853
  C  C88  1  0.774830  0.151120  0.080790  1.0  -0.1056
  C  C89  1  0.822040  0.361590  0.221130  1.0  -0.1025
  C  C90  1  0.796960  0.388350  0.140490  1.0  -0.1006
  C  C91  1  0.897800  0.338770  0.188050  1.0  0.691
  C  C92  1  0.725360  0.401000  0.169140  1.0  -0.1082
  C  C93  1  0.322000  0.112950  0.221200  1.0  -0.0992
  C  C94  1  0.296840  0.139250  0.140510  1.0  -0.1014
  C  C95  1  0.397840  0.090850  0.188120  1.0  0.6873
  C  C96  1  0.225190  0.151180  0.169140  1.0  -0.1096
  C  C97  1  0.822000  0.137010  0.471240  1.0  -0.0994
  C  C98  1  0.796820  0.110780  0.390540  1.0  -0.1017
  C  C99  1  0.897840  0.159120  0.438140  1.0  0.6874
  C  C100  1  0.725180  0.098820  0.419180  1.0  -0.1085
  C  C101  1  0.321920  0.387150  0.471290  1.0  -0.1
  C  C102  1  0.296820  0.360530  0.390610  1.0  -0.1024
  C  C103  1  0.397720  0.409700  0.438150  1.0  0.692
  C  C104  1  0.225230  0.347880  0.419270  1.0  -0.1079
  C  C105  1  0.178000  0.137040  0.278660  1.0  -0.1015
  C  C106  1  0.203170  0.110770  0.359350  1.0  -0.1033
  C  C107  1  0.102160  0.159130  0.311800  1.0  0.6853
  C  C108  1  0.274810  0.098840  0.330730  1.0  -0.1055
  C  C109  1  0.678060  0.387090  0.278650  1.0  -0.1023
  C  C110  1  0.703150  0.360380  0.359310  1.0  -0.102
  C  C111  1  0.602250  0.409660  0.311800  1.0  0.692
  C  C112  1  0.774740  0.347750  0.330670  1.0  -0.1047
  C  C113  1  0.178020  0.863650  0.028770  1.0  -0.1013
  C  C114  1  0.203170  0.890060  0.109450  1.0  -0.1036
  C  C115  1  0.102210  0.841240  0.061880  1.0  0.6865
  C  C116  1  0.274790  0.902380  0.080800  1.0  -0.1057
  C  C117  1  0.678000  0.612440  0.028830  1.0  -0.1036
  C  C118  1  0.703080  0.639220  0.109490  1.0  -0.1025
  C  C119  1  0.602240  0.589470  0.061950  1.0  0.6904
  C  C120  1  0.774660  0.652150  0.080810  1.0  -0.1025
  C  C121  1  0.821960  0.863620  0.221190  1.0  -0.0999
  C  C122  1  0.796820  0.890060  0.140500  1.0  -0.1003
  C  C123  1  0.897780  0.841220  0.188100  1.0  0.6917
  C  C124  1  0.725210  0.902390  0.169140  1.0  -0.1078
  C  C125  1  0.322020  0.612470  0.221120  1.0  -0.1023
  C  C126  1  0.296940  0.639210  0.140450  1.0  -0.0996
  C  C127  1  0.397770  0.589510  0.188030  1.0  0.6923
  C  C128  1  0.225370  0.652110  0.169100  1.0  -0.105
  C  C129  1  0.822000  0.638420  0.471190  1.0  -0.1026
  C  C130  1  0.796930  0.611660  0.390520  1.0  -0.0992
  C  C131  1  0.897760  0.661400  0.438070  1.0  0.6912
  C  C132  1  0.725360  0.598730  0.419190  1.0  -0.1051
  C  C133  1  0.322040  0.888550  0.471200  1.0  -0.1008
  C  C134  1  0.296900  0.862070  0.390530  1.0  -0.1004
  C  C135  1  0.397820  0.911200  0.438080  1.0  0.6892
  C  C136  1  0.225280  0.849720  0.419180  1.0  -0.1088
  C  C137  1  0.178040  0.638560  0.278690  1.0  -0.1052
  C  C138  1  0.203120  0.611820  0.359360  1.0  -0.1011
  C  C139  1  0.102270  0.661470  0.311820  1.0  0.6882
  C  C140  1  0.274690  0.598920  0.330700  1.0  -0.1025
  C  C141  1  0.677950  0.888540  0.278700  1.0  -0.1039
  C  C142  1  0.703090  0.862050  0.359370  1.0  -0.1031
  C  C143  1  0.602170  0.911200  0.311850  1.0  0.6894
  C  C144  1  0.774710  0.849700  0.330730  1.0  -0.1065
  C  C145  1  0.177940  0.361580  0.528840  1.0  -0.1042
  C  C146  1  0.203030  0.388280  0.609500  1.0  -0.1036
  C  C147  1  0.102180  0.338750  0.561950  1.0  0.6882
  C  C148  1  0.274630  0.400940  0.580840  1.0  -0.1043
  C  C149  1  0.678000  0.112910  0.528720  1.0  -0.1008
  C  C150  1  0.703170  0.139170  0.609420  1.0  -0.1039
  C  C151  1  0.602170  0.090750  0.561840  1.0  0.6852
  C  C152  1  0.774810  0.151130  0.580770  1.0  -0.1061
  C  C153  1  0.822020  0.361500  0.721280  1.0  -0.1034
  C  C154  1  0.796920  0.388070  0.640590  1.0  -0.101
  C  C155  1  0.897780  0.338680  0.688160  1.0  0.6883
  C  C156  1  0.725330  0.400740  0.669250  1.0  -0.1067
  C  C157  1  0.322000  0.112900  0.721370  1.0  -0.0994
  C  C158  1  0.296810  0.139150  0.640680  1.0  -0.1014
  C  C159  1  0.397830  0.090760  0.688220  1.0  0.6873
  C  C160  1  0.225170  0.151090  0.669330  1.0  -0.1081
  C  C161  1  0.822010  0.137020  0.971260  1.0  -0.0995
  C  C162  1  0.796830  0.110790  0.890560  1.0  -0.1015
  C  C163  1  0.897840  0.159110  0.938160  1.0  0.6869
  C  C164  1  0.725180  0.098860  0.919210  1.0  -0.1091
  C  C165  1  0.321950  0.387080  0.971260  1.0  -0.1
  C  C166  1  0.296840  0.360470  0.890590  1.0  -0.101
  C  C167  1  0.397750  0.409670  0.938140  1.0  0.6937
  C  C168  1  0.225250  0.347830  0.919260  1.0  -0.1081
  C  C169  1  0.177990  0.137020  0.778870  1.0  -0.1018
  C  C170  1  0.203170  0.110810  0.859570  1.0  -0.1031
  C  C171  1  0.102150  0.159100  0.811930  1.0  0.6852
  C  C172  1  0.274820  0.098880  0.830930  1.0  -0.1059
  C  C173  1  0.678050  0.387060  0.778830  1.0  -0.1023
  C  C174  1  0.703150  0.360550  0.859540  1.0  -0.1025
  C  C175  1  0.602250  0.409650  0.811930  1.0  0.6911
  C  C176  1  0.774750  0.347890  0.830880  1.0  -0.1046
  C  C177  1  0.178030  0.863600  0.528740  1.0  -0.1015
  C  C178  1  0.203170  0.890040  0.609420  1.0  -0.1035
  C  C179  1  0.102210  0.841200  0.561860  1.0  0.6885
  C  C180  1  0.274790  0.902370  0.580770  1.0  -0.1054
  C  C181  1  0.678030  0.612290  0.528780  1.0  -0.1029
  C  C182  1  0.703110  0.639050  0.609440  1.0  -0.1022
  C  C183  1  0.602270  0.589360  0.561890  1.0  0.6918
  C  C184  1  0.774680  0.651980  0.580780  1.0  -0.1022
  C  C185  1  0.821950  0.863550  0.721350  1.0  -0.0997
  C  C186  1  0.796790  0.889950  0.640670  1.0  -0.1
  C  C187  1  0.897770  0.841140  0.688200  1.0  0.6885
  C  C188  1  0.725180  0.902300  0.669340  1.0  -0.1078
  C  C189  1  0.322010  0.612380  0.721220  1.0  -0.1029
  C  C190  1  0.296940  0.639220  0.640580  1.0  -0.1005
  C  C191  1  0.397780  0.589420  0.688090  1.0  0.6922
  C  C192  1  0.225370  0.652150  0.669250  1.0  -0.1048
  C  C193  1  0.821980  0.638550  0.971230  1.0  -0.1021
  C  C194  1  0.796900  0.611770  0.890580  1.0  -0.0995
  C  C195  1  0.897750  0.661480  0.938110  1.0  0.6926
  C  C196  1  0.725330  0.598840  0.919260  1.0  -0.1066
  C  C197  1  0.322030  0.888580  0.971220  1.0  -0.1007
  C  C198  1  0.296890  0.862130  0.890540  1.0  -0.1003
  C  C199  1  0.397810  0.911220  0.938110  1.0  0.6912
  C  C200  1  0.225260  0.849790  0.919210  1.0  -0.1102
  C  C201  1  0.178040  0.638520  0.778820  1.0  -0.1049
  C  C202  1  0.203110  0.611700  0.859460  1.0  -0.1016
  C  C203  1  0.102280  0.661470  0.811930  1.0  0.6911
  C  C204  1  0.274680  0.598770  0.830790  1.0  -0.1025
  C  C205  1  0.677940  0.888510  0.778910  1.0  -0.1056
  C  C206  1  0.703090  0.862060  0.859590  1.0  -0.1024
  C  C207  1  0.602160  0.911170  0.812010  1.0  0.6876
  C  C208  1  0.774710  0.849690  0.830920  1.0  -0.1065
  O  O209  1  0.081270  0.317320  0.985690  1.0  -0.5989
  O  O210  1  0.063780  0.338060  0.165080  1.0  -0.5949
  O  O211  1  0.581170  0.069650  0.985630  1.0  -0.5997
  O  O212  1  0.563740  0.090380  0.165010  1.0  -0.5952
  O  O213  1  0.918730  0.317360  0.264300  1.0  -0.6
  O  O214  1  0.936230  0.338080  0.084910  1.0  -0.5958
  O  O215  1  0.418820  0.069670  0.264360  1.0  -0.6001
  O  O216  1  0.436270  0.090410  0.084980  1.0  -0.5969
  O  O217  1  0.918850  0.180210  0.514370  1.0  -0.5995
  O  O218  1  0.936250  0.159570  0.334990  1.0  -0.5969
  O  O219  1  0.418760  0.430880  0.514340  1.0  -0.5994
  O  O220  1  0.436100  0.410340  0.334980  1.0  -0.5943
  O  O221  1  0.081150  0.180260  0.235580  1.0  -0.5987
  O  O222  1  0.063750  0.159570  0.414950  1.0  -0.596
  O  O223  1  0.581230  0.430910  0.235630  1.0  -0.5986
  O  O224  1  0.563860  0.410230  0.414970  1.0  -0.5943
  O  O225  1  0.081210  0.820050  0.985660  1.0  -0.6
  O  O226  1  0.063800  0.840670  0.165040  1.0  -0.5942
  O  O227  1  0.581270  0.568100  0.985750  1.0  -0.5994
  O  O228  1  0.563850  0.588680  0.165110  1.0  -0.595
  O  O229  1  0.918770  0.820010  0.264320  1.0  -0.6006
  O  O230  1  0.936200  0.840680  0.084950  1.0  -0.5958
  O  O231  1  0.418740  0.568150  0.264240  1.0  -0.6001
  O  O232  1  0.436170  0.588700  0.084870  1.0  -0.5957
  O  O233  1  0.918730  0.682770  0.514280  1.0  -0.5995
  O  O234  1  0.936150  0.662170  0.334900  1.0  -0.5951
  O  O235  1  0.418780  0.932510  0.514320  1.0  -0.5992
  O  O236  1  0.436230  0.911880  0.334930  1.0  -0.5957
  O  O237  1  0.081300  0.682850  0.235620  1.0  -0.5983
  O  O238  1  0.063880  0.662200  0.414990  1.0  -0.5949
  O  O239  1  0.581210  0.932570  0.235630  1.0  -0.5981
  O  O240  1  0.563760  0.911830  0.415000  1.0  -0.5957
  O  O241  1  0.081250  0.317330  0.485710  1.0  -0.5988
  O  O242  1  0.063770  0.338040  0.665100  1.0  -0.5948
  O  O243  1  0.581160  0.069600  0.485620  1.0  -0.5997
  O  O244  1  0.563760  0.090300  0.664990  1.0  -0.5952
  O  O245  1  0.918740  0.317300  0.764380  1.0  -0.5996
  O  O246  1  0.936190  0.337990  0.585000  1.0  -0.5957
  O  O247  1  0.418840  0.069600  0.764430  1.0  -0.5999
  O  O248  1  0.436220  0.090280  0.585070  1.0  -0.597
  O  O249  1  0.918830  0.180270  0.014410  1.0  -0.5991
  O  O250  1  0.936280  0.159510  0.835020  1.0  -0.5968
  O  O251  1  0.418760  0.430920  0.014320  1.0  -0.5994
  O  O252  1  0.436140  0.410260  0.834970  1.0  -0.595
  O  O253  1  0.081170  0.180240  0.735680  1.0  -0.5988
  O  O254  1  0.063710  0.159520  0.915070  1.0  -0.5959
  O  O255  1  0.581240  0.430840  0.735720  1.0  -0.5988
  O  O256  1  0.563860  0.410290  0.915090  1.0  -0.5942
  O  O257  1  0.081210  0.819990  0.485650  1.0  -0.6001
  O  O258  1  0.063820  0.840630  0.665020  1.0  -0.5942
  O  O259  1  0.581290  0.568000  0.485700  1.0  -0.5994
  O  O260  1  0.563880  0.588570  0.665050  1.0  -0.5949
  O  O261  1  0.918790  0.819970  0.764390  1.0  -0.6002
  O  O262  1  0.936150  0.840560  0.585030  1.0  -0.5958
  O  O263  1  0.418760  0.568040  0.764280  1.0  -0.6001
  O  O264  1  0.436160  0.588620  0.584930  1.0  -0.5956
  O  O265  1  0.918710  0.682870  0.014320  1.0  -0.5995
  O  O266  1  0.936160  0.662180  0.834950  1.0  -0.5953
  O  O267  1  0.418760  0.932600  0.014340  1.0  -0.5992
  O  O268  1  0.436240  0.911840  0.834960  1.0  -0.5964
  O  O269  1  0.081310  0.682850  0.735710  1.0  -0.598
  O  O270  1  0.063870  0.662210  0.915090  1.0  -0.5947
  O  O271  1  0.581220  0.932500  0.735750  1.0  -0.5984
  O  O272  1  0.563740  0.911840  0.915150  1.0  -0.5954
  F  F273  1  0.999990  0.303640  0.375020  1.0  -0.5833
  F  F274  1  0.499990  0.056190  0.375020  1.0  -0.5791
  F  F275  1  0.999990  0.193750  0.125010  1.0  -0.5789
  F  F276  1  0.499980  0.444270  0.125010  1.0  -0.5795
  F  F277  1  0.999990  0.806370  0.375010  1.0  -0.582
  F  F278  1  0.499990  0.554370  0.375020  1.0  -0.5842
  F  F279  1  0.000000  0.696560  0.124990  1.0  -0.5827
  F  F280  1  0.499970  0.946300  0.125010  1.0  -0.5826
  F  F281  1  0.000010  0.303630  0.875010  1.0  -0.5833
  F  F282  1  0.500010  0.056190  0.874990  1.0  -0.5788
  F  F283  1  0.000010  0.193730  0.625010  1.0  -0.5798
  F  F284  1  0.500010  0.444200  0.624990  1.0  -0.5801
  F  F285  1  0.000010  0.806390  0.874990  1.0  -0.5823
  F  F286  1  0.500020  0.554380  0.874980  1.0  -0.5843
  F  F287  1  0.000020  0.696520  0.624990  1.0  -0.5838
  F  F288  1  0.500020  0.946220  0.625000  1.0  -0.583
