# generated using pymatgen
data_AlC8O5
_symmetry_space_group_name_H-M   'P 1'
_cell_length_a   6.62890000
_cell_length_b   16.73380000
_cell_length_c   12.82540000
_cell_angle_alpha   90.00000000
_cell_angle_beta   90.00000000
_cell_angle_gamma   90.00000000
_symmetry_Int_Tables_number   1
_chemical_formula_structural   AlC8O5
_chemical_formula_sum   'Al4 C32 O20'
_cell_volume   1422.67912914
_cell_formula_units_Z   4
loop_
 _symmetry_equiv_pos_site_id
 _symmetry_equiv_pos_as_xyz
  1  'x, y, z'
loop_
 _atom_site_type_symbol
 _atom_site_label
 _atom_site_symmetry_multiplicity
 _atom_site_fract_x
 _atom_site_fract_y
 _atom_site_fract_z
 _atom_site_occupancy
 _atom_site_charge
  Al  Al1  1  0.250000  0.250000  0.750000  1.0  1.8212
  Al  Al2  1  0.750000  0.250000  0.750000  1.0  1.8212
  Al  Al3  1  0.750000  0.750000  0.250000  1.0  1.8212
  Al  Al4  1  0.250000  0.750000  0.250000  1.0  1.8212
  C  C5  1  0.808900  0.035850  0.968000  1.0  -0.0245
  C  C6  1  0.308900  0.535850  0.468000  1.0  -0.0245
  C  C7  1  0.191100  0.464150  0.968000  1.0  -0.0216
  C  C8  1  0.691100  0.964150  0.468000  1.0  -0.0216
  C  C9  1  0.191100  0.535850  0.032000  1.0  -0.0187
  C  C10  1  0.691100  0.035850  0.532000  1.0  -0.0187
  C  C11  1  0.808900  0.964150  0.032000  1.0  -0.0225
  C  C12  1  0.308900  0.464150  0.532000  1.0  -0.0225
  C  C13  1  0.191100  0.964150  0.032000  1.0  -0.02
  C  C14  1  0.691100  0.464150  0.532000  1.0  -0.02
  C  C15  1  0.808900  0.535850  0.032000  1.0  -0.0222
  C  C16  1  0.308900  0.035850  0.532000  1.0  -0.0228
  C  C17  1  0.808900  0.464150  0.968000  1.0  -0.0228
  C  C18  1  0.308900  0.964150  0.468000  1.0  -0.0228
  C  C19  1  0.191100  0.035850  0.968000  1.0  -0.0192
  C  C20  1  0.691100  0.535850  0.468000  1.0  -0.0192
  C  C21  1  0.000000  0.062800  0.947200  1.0  -0.0375
  C  C22  1  0.000000  0.135900  0.871200  1.0  0.6659
  C  C23  1  0.500000  0.562800  0.447200  1.0  -0.0375
  C  C24  1  0.500000  0.635900  0.371200  1.0  0.6659
  C  C25  1  0.000000  0.437200  0.947200  1.0  -0.0372
  C  C26  1  0.000000  0.364100  0.871200  1.0  0.6665
  C  C27  1  0.500000  0.937200  0.447200  1.0  -0.0372
  C  C28  1  0.500000  0.864100  0.371200  1.0  0.6665
  C  C29  1  0.000000  0.562800  0.052800  1.0  -0.036
  C  C30  1  0.000000  0.635900  0.128800  1.0  0.6658
  C  C31  1  0.500000  0.062800  0.552800  1.0  -0.036
  C  C32  1  0.500000  0.135900  0.628800  1.0  0.6658
  C  C33  1  0.000000  0.937200  0.052800  1.0  -0.0359
  C  C34  1  0.000000  0.864100  0.128800  1.0  0.6665
  C  C35  1  0.500000  0.437200  0.552800  1.0  -0.0359
  C  C36  1  0.500000  0.364100  0.628800  1.0  0.6665
  O  O37  1  0.165570  0.168050  0.842960  1.0  -0.5653
  O  O38  1  0.665570  0.668050  0.342960  1.0  -0.5653
  O  O39  1  0.834430  0.331950  0.842960  1.0  -0.5656
  O  O40  1  0.334430  0.831950  0.342960  1.0  -0.5656
  O  O41  1  0.834430  0.668050  0.157040  1.0  -0.5663
  O  O42  1  0.334430  0.168050  0.657040  1.0  -0.5663
  O  O43  1  0.165570  0.831950  0.157040  1.0  -0.5651
  O  O44  1  0.665570  0.331950  0.657040  1.0  -0.5651
  O  O45  1  0.834430  0.831950  0.157040  1.0  -0.566
  O  O46  1  0.334430  0.331950  0.657040  1.0  -0.566
  O  O47  1  0.165570  0.668050  0.157040  1.0  -0.5652
  O  O48  1  0.665570  0.168050  0.657040  1.0  -0.5652
  O  O49  1  0.165570  0.331950  0.842960  1.0  -0.5652
  O  O50  1  0.665570  0.831950  0.342960  1.0  -0.5652
  O  O51  1  0.834430  0.168050  0.842960  1.0  -0.5659
  O  O52  1  0.334430  0.668050  0.342960  1.0  -0.5659
  O  O53  1  0.000000  0.250000  0.685800  1.0  -0.7313
  O  O54  1  0.500000  0.750000  0.185800  1.0  -0.7313
  O  O55  1  0.000000  0.750000  0.314200  1.0  -0.7327
  O  O56  1  0.500000  0.250000  0.814200  1.0  -0.7327
