# generated using pymatgen
data_AlC8O4F
_symmetry_space_group_name_H-M   'P 1'
_cell_length_a   6.56680000
_cell_length_b   16.39710000
_cell_length_c   13.20210000
_cell_angle_alpha   90.00000000
_cell_angle_beta   90.00000000
_cell_angle_gamma   90.13900000
_symmetry_Int_Tables_number   1
_chemical_formula_structural   AlC8O4F
_chemical_formula_sum   'Al4 C32 O16 F4'
_cell_volume   1421.55142421
_cell_formula_units_Z   4
loop_
 _symmetry_equiv_pos_site_id
 _symmetry_equiv_pos_as_xyz
  1  'x, y, z'
loop_
 _atom_site_type_symbol
 _atom_site_label
 _atom_site_symmetry_multiplicity
 _atom_site_fract_x
 _atom_site_fract_y
 _atom_site_fract_z
 _atom_site_occupancy
 _atom_site_charge
  Al  Al1  1  0.250000  0.250000  0.750000  1.0  1.8018
  Al  Al2  1  0.750000  0.250000  0.750000  1.0  1.8018
  Al  Al3  1  0.750000  0.750000  0.250000  1.0  1.8018
  Al  Al4  1  0.250000  0.750000  0.250000  1.0  1.8018
  C  C5  1  0.811300  0.024600  0.957800  1.0  0.0093
  C  C6  1  0.987100  0.066800  0.942800  1.0  -0.0448
  C  C7  1  0.002000  0.136900  0.869600  1.0  0.6152
  C  C8  1  0.202800  0.533300  0.035700  1.0  -0.017
  C  C9  1  0.311300  0.524600  0.457800  1.0  0.0093
  C  C10  1  0.487100  0.566800  0.442800  1.0  -0.0448
  C  C11  1  0.502000  0.636900  0.369600  1.0  0.6152
  C  C12  1  0.702800  0.033300  0.535700  1.0  -0.017
  C  C13  1  0.188700  0.475400  0.957800  1.0  0.0082
  C  C14  1  0.012900  0.433200  0.942800  1.0  -0.0448
  C  C15  1  0.998000  0.363100  0.869600  1.0  0.6139
  C  C16  1  0.797200  0.966700  0.035700  1.0  -0.0193
  C  C17  1  0.688700  0.975400  0.457800  1.0  0.0082
  C  C18  1  0.512900  0.933200  0.442800  1.0  -0.0448
  C  C19  1  0.498000  0.863100  0.369600  1.0  0.6139
  C  C20  1  0.297200  0.466700  0.535700  1.0  -0.0193
  C  C21  1  0.188700  0.975400  0.042200  1.0  0.0059
  C  C22  1  0.012900  0.933200  0.057200  1.0  -0.0444
  C  C23  1  0.998000  0.863100  0.130400  1.0  0.6141
  C  C24  1  0.797200  0.466700  0.964300  1.0  -0.0183
  C  C25  1  0.688700  0.475400  0.542200  1.0  0.0059
  C  C26  1  0.512900  0.433200  0.557200  1.0  -0.0444
  C  C27  1  0.498000  0.363100  0.630400  1.0  0.6141
  C  C28  1  0.297200  0.966700  0.464300  1.0  -0.0183
  C  C29  1  0.811300  0.524600  0.042200  1.0  0.007
  C  C30  1  0.987100  0.566800  0.057200  1.0  -0.0443
  C  C31  1  0.002000  0.636900  0.130400  1.0  0.6152
  C  C32  1  0.202800  0.033300  0.964300  1.0  -0.0167
  C  C33  1  0.311300  0.024600  0.542200  1.0  0.007
  C  C34  1  0.487100  0.066800  0.557200  1.0  -0.0443
  C  C35  1  0.502000  0.136900  0.630400  1.0  0.6152
  C  C36  1  0.702800  0.533300  0.464300  1.0  -0.0167
  O  O37  1  0.160900  0.169200  0.848600  1.0  -0.5568
  O  O38  1  0.820600  0.665200  0.170100  1.0  -0.6267
  O  O39  1  0.660900  0.669200  0.348600  1.0  -0.5568
  O  O40  1  0.320600  0.165200  0.670100  1.0  -0.6267
  O  O41  1  0.839100  0.330800  0.848600  1.0  -0.5575
  O  O42  1  0.179400  0.834800  0.170100  1.0  -0.6232
  O  O43  1  0.339100  0.830800  0.348600  1.0  -0.5575
  O  O44  1  0.679400  0.334800  0.670100  1.0  -0.6232
  O  O45  1  0.839100  0.830800  0.151400  1.0  -0.5564
  O  O46  1  0.179400  0.334800  0.829900  1.0  -0.6254
  O  O47  1  0.339100  0.330800  0.651400  1.0  -0.5564
  O  O48  1  0.679400  0.834800  0.329900  1.0  -0.6254
  O  O49  1  0.160900  0.669200  0.151400  1.0  -0.5558
  O  O50  1  0.820600  0.165200  0.829900  1.0  -0.6258
  O  O51  1  0.660900  0.169200  0.651400  1.0  -0.5558
  O  O52  1  0.320600  0.665200  0.329900  1.0  -0.6258
  F  F53  1  0.000000  0.250000  0.690700  1.0  -0.5569
  F  F54  1  0.500000  0.750000  0.190700  1.0  -0.5569
  F  F55  1  0.000000  0.750000  0.309300  1.0  -0.5585
  F  F56  1  0.500000  0.250000  0.809300  1.0  -0.5585
