# generated using pymatgen
data_CuH2(C3O2)2
_symmetry_space_group_name_H-M   'P 1'
_cell_length_a   18.58580000
_cell_length_b   18.58580000
_cell_length_c   18.58580000
_cell_angle_alpha   60.00000000
_cell_angle_beta   60.00000000
_cell_angle_gamma   60.00000000
_symmetry_Int_Tables_number   1
_chemical_formula_structural   CuH2(C3O2)2
_chemical_formula_sum   'Cu12 H24 C72 O48'
_cell_volume   4539.71700135
_cell_formula_units_Z   12
loop_
 _symmetry_equiv_pos_site_id
 _symmetry_equiv_pos_as_xyz
  1  'x, y, z'
loop_
 _atom_site_type_symbol
 _atom_site_label
 _atom_site_symmetry_multiplicity
 _atom_site_fract_x
 _atom_site_fract_y
 _atom_site_fract_z
 _atom_site_occupancy
 _atom_site_charge
  Cu  Cu1  1  0.569840  0.000000  0.000000  1.0  0.9058
  Cu  Cu2  1  0.000000  0.430160  0.000000  1.0  0.9056
  Cu  Cu3  1  0.000000  0.569840  0.000000  1.0  0.9051
  Cu  Cu4  1  0.430160  0.569840  0.000000  1.0  0.9059
  Cu  Cu5  1  0.000000  0.430160  0.569840  1.0  0.906
  Cu  Cu6  1  0.569840  0.430160  0.000000  1.0  0.9052
  Cu  Cu7  1  0.430160  0.000000  0.569840  1.0  0.9065
  Cu  Cu8  1  0.000000  0.000000  0.430160  1.0  0.9049
  Cu  Cu9  1  0.430160  0.000000  0.000000  1.0  0.9066
  Cu  Cu10  1  0.569840  0.000000  0.430160  1.0  0.9061
  Cu  Cu11  1  0.000000  0.000000  0.569840  1.0  0.9043
  Cu  Cu12  1  0.000000  0.569840  0.430160  1.0  0.9058
  H  H13  1  0.488300  0.272500  0.272500  1.0  0.1128
  H  H14  1  0.488300  0.966700  0.272500  1.0  0.1127
  H  H15  1  0.272500  0.966700  0.272500  1.0  0.1127
  H  H16  1  0.727500  0.511700  0.033300  1.0  0.1138
  H  H17  1  0.272500  0.488300  0.966700  1.0  0.1136
  H  H18  1  0.966700  0.272500  0.272500  1.0  0.1127
  H  H19  1  0.511700  0.727500  0.033300  1.0  0.1129
  H  H20  1  0.272500  0.488300  0.272500  1.0  0.1136
  H  H21  1  0.727500  0.033300  0.511700  1.0  0.1129
  H  H22  1  0.272500  0.272500  0.488300  1.0  0.1128
  H  H23  1  0.033300  0.727500  0.727500  1.0  0.1131
  H  H24  1  0.727500  0.033300  0.727500  1.0  0.1128
  H  H25  1  0.033300  0.727500  0.511700  1.0  0.113
  H  H26  1  0.272500  0.966700  0.488300  1.0  0.1128
  H  H27  1  0.511700  0.033300  0.727500  1.0  0.1128
  H  H28  1  0.727500  0.511700  0.727500  1.0  0.1137
  H  H29  1  0.727500  0.727500  0.511700  1.0  0.1128
  H  H30  1  0.966700  0.488300  0.272500  1.0  0.1133
  H  H31  1  0.511700  0.727500  0.727500  1.0  0.1128
  H  H32  1  0.488300  0.272500  0.966700  1.0  0.1129
  H  H33  1  0.272500  0.272500  0.966700  1.0  0.1125
  H  H34  1  0.727500  0.727500  0.033300  1.0  0.1128
  H  H35  1  0.033300  0.511700  0.727500  1.0  0.1135
  H  H36  1  0.966700  0.272500  0.488300  1.0  0.1129
  C  C37  1  0.033140  0.698640  0.698640  1.0  0.0321
  C  C38  1  0.387580  0.257880  0.966960  1.0  -0.158
  C  C39  1  0.431370  0.162670  0.974590  1.0  0.6845
  C  C40  1  0.301360  0.430420  0.301360  1.0  0.0323
  C  C41  1  0.431370  0.431370  0.974590  1.0  0.6843
  C  C42  1  0.698640  0.033140  0.698640  1.0  0.0321
  C  C43  1  0.033040  0.612420  0.742120  1.0  -0.1584
  C  C44  1  0.966960  0.257880  0.387580  1.0  -0.1575
  C  C45  1  0.033040  0.742120  0.612420  1.0  -0.1573
  C  C46  1  0.742120  0.033040  0.612420  1.0  -0.1572
  C  C47  1  0.698640  0.569580  0.033140  1.0  0.0326
  C  C48  1  0.966960  0.387580  0.387580  1.0  -0.1583
  C  C49  1  0.698640  0.698640  0.033140  1.0  0.0319
  C  C50  1  0.837330  0.025410  0.568630  1.0  0.6837
  C  C51  1  0.301360  0.430420  0.966860  1.0  0.0322
  C  C52  1  0.162670  0.974590  0.431370  1.0  0.6843
  C  C53  1  0.162670  0.431370  0.431370  1.0  0.684
  C  C54  1  0.387580  0.387580  0.257880  1.0  -0.1577
  C  C55  1  0.257880  0.387580  0.966960  1.0  -0.1579
  C  C56  1  0.431370  0.974590  0.162670  1.0  0.685
  C  C57  1  0.301360  0.301360  0.966860  1.0  0.0314
  C  C58  1  0.430420  0.301360  0.966860  1.0  0.0325
  C  C59  1  0.698640  0.698640  0.569580  1.0  0.0322
  C  C60  1  0.568630  0.025410  0.837330  1.0  0.6847
  C  C61  1  0.612420  0.612420  0.033040  1.0  -0.158
  C  C62  1  0.569580  0.698640  0.698640  1.0  0.0318
  C  C63  1  0.612420  0.742120  0.612420  1.0  -0.1575
  C  C64  1  0.966860  0.430420  0.301360  1.0  0.033
  C  C65  1  0.301360  0.966860  0.430420  1.0  0.0312
  C  C66  1  0.837330  0.568630  0.568630  1.0  0.684
  C  C67  1  0.837330  0.568630  0.025410  1.0  0.684
  C  C68  1  0.257880  0.387580  0.387580  1.0  -0.1579
  C  C69  1  0.974590  0.162670  0.431370  1.0  0.685
  C  C70  1  0.431370  0.162670  0.431370  1.0  0.6846
  C  C71  1  0.966960  0.387580  0.257880  1.0  -0.1583
  C  C72  1  0.025410  0.568630  0.837330  1.0  0.6854
  C  C73  1  0.974590  0.431370  0.431370  1.0  0.6856
  C  C74  1  0.387580  0.966960  0.387580  1.0  -0.1576
  C  C75  1  0.431370  0.974590  0.431370  1.0  0.6852
  C  C76  1  0.568630  0.568630  0.837330  1.0  0.6838
  C  C77  1  0.033140  0.698640  0.569580  1.0  0.0322
  C  C78  1  0.612420  0.033040  0.742120  1.0  -0.158
  C  C79  1  0.612420  0.612420  0.742120  1.0  -0.1578
  C  C80  1  0.742120  0.612420  0.033040  1.0  -0.1575
  C  C81  1  0.025410  0.568630  0.568630  1.0  0.6852
  C  C82  1  0.430420  0.301360  0.301360  1.0  0.0324
  C  C83  1  0.698640  0.569580  0.698640  1.0  0.0326
  C  C84  1  0.430420  0.966860  0.301360  1.0  0.0324
  C  C85  1  0.387580  0.257880  0.387580  1.0  -0.1578
  C  C86  1  0.568630  0.568630  0.025410  1.0  0.6839
  C  C87  1  0.569580  0.033140  0.698640  1.0  0.0307
  C  C88  1  0.974590  0.431370  0.162670  1.0  0.6853
  C  C89  1  0.431370  0.431370  0.162670  1.0  0.6844
  C  C90  1  0.612420  0.033040  0.612420  1.0  -0.158
  C  C91  1  0.301360  0.966860  0.301360  1.0  0.0319
  C  C92  1  0.742120  0.612420  0.612420  1.0  -0.1575
  C  C93  1  0.033140  0.569580  0.698640  1.0  0.0328
  C  C94  1  0.568630  0.025410  0.568630  1.0  0.6844
  C  C95  1  0.301360  0.301360  0.430420  1.0  0.0316
  C  C96  1  0.966860  0.301360  0.430420  1.0  0.0312
  C  C97  1  0.387580  0.966960  0.257880  1.0  -0.1578
  C  C98  1  0.698640  0.033140  0.569580  1.0  0.0321
  C  C99  1  0.569580  0.698640  0.033140  1.0  0.0319
  C  C100  1  0.025410  0.837330  0.568630  1.0  0.6852
  C  C101  1  0.162670  0.431370  0.974590  1.0  0.6841
  C  C102  1  0.033040  0.612420  0.612420  1.0  -0.1584
  C  C103  1  0.257880  0.966960  0.387580  1.0  -0.1576
  C  C104  1  0.966860  0.301360  0.301360  1.0  0.0317
  C  C105  1  0.612420  0.742120  0.033040  1.0  -0.1575
  C  C106  1  0.568630  0.837330  0.568630  1.0  0.6849
  C  C107  1  0.568630  0.837330  0.025410  1.0  0.685
  C  C108  1  0.387580  0.387580  0.966960  1.0  -0.1577
  O  O109  1  0.612570  0.492330  0.873790  1.0  -0.5631
  O  O110  1  0.978690  0.387430  0.126210  1.0  -0.5627
  O  O111  1  0.507670  0.978690  0.126210  1.0  -0.5625
  O  O112  1  0.387430  0.126210  0.978690  1.0  -0.5622
  O  O113  1  0.612570  0.021310  0.873790  1.0  -0.5621
  O  O114  1  0.507670  0.126210  0.978690  1.0  -0.5622
  O  O115  1  0.492330  0.873790  0.612570  1.0  -0.5617
  O  O116  1  0.873790  0.612570  0.492330  1.0  -0.5622
  O  O117  1  0.492330  0.873790  0.021310  1.0  -0.5621
  O  O118  1  0.978690  0.507670  0.126210  1.0  -0.5622
  O  O119  1  0.978690  0.507670  0.387430  1.0  -0.5625
  O  O120  1  0.507670  0.387430  0.126210  1.0  -0.5628
  O  O121  1  0.492330  0.612570  0.873790  1.0  -0.5625
  O  O122  1  0.021310  0.492330  0.873790  1.0  -0.5624
  O  O123  1  0.873790  0.612570  0.021310  1.0  -0.5627
  O  O124  1  0.612570  0.021310  0.492330  1.0  -0.5617
  O  O125  1  0.978690  0.126210  0.507670  1.0  -0.562
  O  O126  1  0.612570  0.873790  0.021310  1.0  -0.5626
  O  O127  1  0.126210  0.978690  0.387430  1.0  -0.5624
  O  O128  1  0.021310  0.492330  0.612570  1.0  -0.5622
  O  O129  1  0.126210  0.507670  0.387430  1.0  -0.562
  O  O130  1  0.507670  0.978690  0.387430  1.0  -0.563
  O  O131  1  0.021310  0.612570  0.873790  1.0  -0.5621
  O  O132  1  0.978690  0.126210  0.387430  1.0  -0.5617
  O  O133  1  0.492330  0.021310  0.612570  1.0  -0.5625
  O  O134  1  0.126210  0.507670  0.978690  1.0  -0.5623
  O  O135  1  0.873790  0.021310  0.492330  1.0  -0.5619
  O  O136  1  0.612570  0.873790  0.492330  1.0  -0.5624
  O  O137  1  0.873790  0.492330  0.612570  1.0  -0.5628
  O  O138  1  0.507670  0.126210  0.387430  1.0  -0.5621
  O  O139  1  0.387430  0.507670  0.126210  1.0  -0.5625
  O  O140  1  0.021310  0.873790  0.612570  1.0  -0.562
  O  O141  1  0.387430  0.126210  0.507670  1.0  -0.5628
  O  O142  1  0.873790  0.492330  0.021310  1.0  -0.5631
  O  O143  1  0.873790  0.021310  0.612570  1.0  -0.5622
  O  O144  1  0.507670  0.387430  0.978690  1.0  -0.5629
  O  O145  1  0.492330  0.021310  0.873790  1.0  -0.5623
  O  O146  1  0.387430  0.507670  0.978690  1.0  -0.5627
  O  O147  1  0.978690  0.387430  0.507670  1.0  -0.5625
  O  O148  1  0.021310  0.612570  0.492330  1.0  -0.5617
  O  O149  1  0.387430  0.978690  0.507670  1.0  -0.5615
  O  O150  1  0.492330  0.612570  0.021310  1.0  -0.5626
  O  O151  1  0.021310  0.873790  0.492330  1.0  -0.5622
  O  O152  1  0.387430  0.978690  0.126210  1.0  -0.5616
  O  O153  1  0.126210  0.387430  0.978690  1.0  -0.5622
  O  O154  1  0.126210  0.387430  0.507670  1.0  -0.5624
  O  O155  1  0.612570  0.492330  0.021310  1.0  -0.5629
  O  O156  1  0.126210  0.978690  0.507670  1.0  -0.5625
