# generated using pymatgen
data_AlC8O4F
_symmetry_space_group_name_H-M   'P 1'
_cell_length_a   6.56850000
_cell_length_b   16.40320000
_cell_length_c   13.17960000
_cell_angle_alpha   90.00000000
_cell_angle_beta   90.00000000
_cell_angle_gamma   90.00000000
_symmetry_Int_Tables_number   1
_chemical_formula_structural   AlC8O4F
_chemical_formula_sum   'Al4 C32 O16 F4'
_cell_volume   1420.02834729
_cell_formula_units_Z   4
loop_
 _symmetry_equiv_pos_site_id
 _symmetry_equiv_pos_as_xyz
  1  'x, y, z'
loop_
 _atom_site_type_symbol
 _atom_site_label
 _atom_site_symmetry_multiplicity
 _atom_site_fract_x
 _atom_site_fract_y
 _atom_site_fract_z
 _atom_site_occupancy
 _atom_site_charge
  Al  Al1  1  0.250000  0.250000  0.750000  1.0  1.8152
  Al  Al2  1  0.750000  0.250000  0.750000  1.0  1.8152
  Al  Al3  1  0.750000  0.750000  0.250000  1.0  1.8152
  Al  Al4  1  0.250000  0.750000  0.250000  1.0  1.8152
  C  C5  1  0.805100  0.029400  0.957700  1.0  -0.0434
  C  C6  1  0.305100  0.529400  0.457700  1.0  -0.0434
  C  C7  1  0.194900  0.470600  0.957700  1.0  -0.0415
  C  C8  1  0.694900  0.970600  0.457700  1.0  -0.0415
  C  C9  1  0.194900  0.529400  0.042300  1.0  -0.0426
  C  C10  1  0.694900  0.029400  0.542300  1.0  -0.0426
  C  C11  1  0.805100  0.970600  0.042300  1.0  -0.0443
  C  C12  1  0.305100  0.470600  0.542300  1.0  -0.0443
  C  C13  1  0.194900  0.970600  0.042300  1.0  -0.0432
  C  C14  1  0.694900  0.470600  0.542300  1.0  -0.0422
  C  C15  1  0.805100  0.529400  0.042300  1.0  -0.0443
  C  C16  1  0.305100  0.029400  0.542300  1.0  -0.0445
  C  C17  1  0.805100  0.470600  0.957700  1.0  -0.0429
  C  C18  1  0.305100  0.970600  0.457700  1.0  -0.0429
  C  C19  1  0.194900  0.029400  0.957700  1.0  -0.0416
  C  C20  1  0.694900  0.529400  0.457700  1.0  -0.0416
  C  C21  1  0.000000  0.063200  0.943900  1.0  -0.0384
  C  C22  1  0.000000  0.138800  0.868600  1.0  0.6717
  C  C23  1  0.500000  0.563200  0.443900  1.0  -0.0384
  C  C24  1  0.500000  0.638800  0.368600  1.0  0.6717
  C  C25  1  0.000000  0.436800  0.943900  1.0  -0.0394
  C  C26  1  0.000000  0.361200  0.868600  1.0  0.6724
  C  C27  1  0.500000  0.936800  0.443900  1.0  -0.0394
  C  C28  1  0.500000  0.861200  0.368600  1.0  0.6724
  C  C29  1  0.000000  0.563200  0.056100  1.0  -0.0383
  C  C30  1  0.000000  0.638800  0.131400  1.0  0.6713
  C  C31  1  0.500000  0.063200  0.556100  1.0  -0.0383
  C  C32  1  0.500000  0.138800  0.631400  1.0  0.6713
  C  C33  1  0.000000  0.936800  0.056100  1.0  -0.0398
  C  C34  1  0.000000  0.861200  0.131400  1.0  0.6726
  C  C35  1  0.500000  0.436800  0.556100  1.0  -0.0398
  C  C36  1  0.500000  0.361200  0.631400  1.0  0.6726
  O  O37  1  0.170300  0.167980  0.839500  1.0  -0.5858
  O  O38  1  0.670300  0.667980  0.339500  1.0  -0.5874
  O  O39  1  0.829700  0.332020  0.839500  1.0  -0.5877
  O  O40  1  0.329700  0.832020  0.339500  1.0  -0.5877
  O  O41  1  0.829700  0.667980  0.160500  1.0  -0.5885
  O  O42  1  0.329700  0.167980  0.660500  1.0  -0.5868
  O  O43  1  0.170300  0.832020  0.160500  1.0  -0.5865
  O  O44  1  0.670300  0.332020  0.660500  1.0  -0.5865
  O  O45  1  0.829700  0.832020  0.160500  1.0  -0.5877
  O  O46  1  0.329700  0.332020  0.660500  1.0  -0.5879
  O  O47  1  0.170300  0.667980  0.160500  1.0  -0.5875
  O  O48  1  0.670300  0.167980  0.660500  1.0  -0.5875
  O  O49  1  0.170300  0.332020  0.839500  1.0  -0.5873
  O  O50  1  0.670300  0.832020  0.339500  1.0  -0.5884
  O  O51  1  0.829700  0.167980  0.839500  1.0  -0.5865
  O  O52  1  0.329700  0.667980  0.339500  1.0  -0.5865
  F  F53  1  0.000000  0.250000  0.694600  1.0  -0.5597
  F  F54  1  0.500000  0.750000  0.194600  1.0  -0.5597
  F  F55  1  0.000000  0.750000  0.305400  1.0  -0.5614
  F  F56  1  0.500000  0.250000  0.805400  1.0  -0.5614
