# generated using pymatgen
data_CuH2(C3O2)2
_symmetry_space_group_name_H-M   'P 1'
_cell_length_a   18.59770000
_cell_length_b   18.59770000
_cell_length_c   18.59770000
_cell_angle_alpha   60.00000000
_cell_angle_beta   60.00000000
_cell_angle_gamma   60.00000000
_symmetry_Int_Tables_number   1
_chemical_formula_structural   CuH2(C3O2)2
_chemical_formula_sum   'Cu12 H24 C72 O48'
_cell_volume   4548.44257071
_cell_formula_units_Z   12
loop_
 _symmetry_equiv_pos_site_id
 _symmetry_equiv_pos_as_xyz
  1  'x, y, z'
loop_
 _atom_site_type_symbol
 _atom_site_label
 _atom_site_symmetry_multiplicity
 _atom_site_fract_x
 _atom_site_fract_y
 _atom_site_fract_z
 _atom_site_occupancy
 _atom_site_charge
  Cu  Cu1  1  0.000000  0.000000  0.431160  1.0  0.9076
  Cu  Cu2  1  0.000000  0.431160  0.000000  1.0  0.9078
  Cu  Cu3  1  0.431160  0.000000  0.000000  1.0  0.9092
  Cu  Cu4  1  0.431160  0.568840  0.000000  1.0  0.9085
  Cu  Cu5  1  0.431160  0.000000  0.568840  1.0  0.909
  Cu  Cu6  1  0.000000  0.000000  0.568840  1.0  0.9068
  Cu  Cu7  1  0.000000  0.568840  0.000000  1.0  0.9076
  Cu  Cu8  1  0.000000  0.431160  0.568840  1.0  0.9081
  Cu  Cu9  1  0.568840  0.431160  0.000000  1.0  0.9075
  Cu  Cu10  1  0.568840  0.000000  0.431160  1.0  0.9085
  Cu  Cu11  1  0.568840  0.000000  0.000000  1.0  0.9082
  Cu  Cu12  1  0.000000  0.568840  0.431160  1.0  0.9084
  H  H13  1  0.728500  0.030300  0.512700  1.0  0.1135
  H  H14  1  0.030300  0.728500  0.728500  1.0  0.1136
  H  H15  1  0.487300  0.271500  0.969700  1.0  0.1136
  H  H16  1  0.969700  0.487300  0.271500  1.0  0.1141
  H  H17  1  0.728500  0.512700  0.030300  1.0  0.1145
  H  H18  1  0.271500  0.969700  0.271500  1.0  0.1133
  H  H19  1  0.271500  0.969700  0.487300  1.0  0.1134
  H  H20  1  0.487300  0.969700  0.271500  1.0  0.1133
  H  H21  1  0.969700  0.271500  0.271500  1.0  0.1134
  H  H22  1  0.969700  0.271500  0.487300  1.0  0.1135
  H  H23  1  0.271500  0.487300  0.271500  1.0  0.1144
  H  H24  1  0.271500  0.271500  0.487300  1.0  0.1134
  H  H25  1  0.728500  0.030300  0.728500  1.0  0.1134
  H  H26  1  0.512700  0.728500  0.030300  1.0  0.1134
  H  H27  1  0.487300  0.271500  0.271500  1.0  0.1136
  H  H28  1  0.030300  0.728500  0.512700  1.0  0.1136
  H  H29  1  0.512700  0.728500  0.728500  1.0  0.1132
  H  H30  1  0.728500  0.728500  0.030300  1.0  0.1135
  H  H31  1  0.512700  0.030300  0.728500  1.0  0.1132
  H  H32  1  0.728500  0.728500  0.512700  1.0  0.1135
  H  H33  1  0.271500  0.271500  0.969700  1.0  0.1132
  H  H34  1  0.030300  0.512700  0.728500  1.0  0.1144
  H  H35  1  0.728500  0.512700  0.728500  1.0  0.1144
  H  H36  1  0.271500  0.487300  0.969700  1.0  0.1143
  C  C37  1  0.570570  0.029810  0.699810  1.0  0.0336
  C  C38  1  0.256800  0.970600  0.386300  1.0  -0.1673
  C  C39  1  0.023600  0.569100  0.838200  1.0  0.6833
  C  C40  1  0.699810  0.699810  0.570570  1.0  0.0353
  C  C41  1  0.699810  0.029810  0.570570  1.0  0.0344
  C  C42  1  0.838200  0.569100  0.023600  1.0  0.6823
  C  C43  1  0.029810  0.570570  0.699810  1.0  0.0362
  C  C44  1  0.430900  0.161800  0.976400  1.0  0.683
  C  C45  1  0.743200  0.029400  0.613700  1.0  -0.1671
  C  C46  1  0.569100  0.023600  0.838200  1.0  0.6829
  C  C47  1  0.970600  0.256800  0.386300  1.0  -0.1672
  C  C48  1  0.430900  0.161800  0.430900  1.0  0.683
  C  C49  1  0.613700  0.743200  0.029400  1.0  -0.1669
  C  C50  1  0.569100  0.838200  0.023600  1.0  0.6832
  C  C51  1  0.300190  0.300190  0.970190  1.0  0.035
  C  C52  1  0.976400  0.430900  0.161800  1.0  0.6834
  C  C53  1  0.613700  0.029400  0.743200  1.0  -0.1678
  C  C54  1  0.970190  0.300190  0.429430  1.0  0.0347
  C  C55  1  0.743200  0.613700  0.029400  1.0  -0.1674
  C  C56  1  0.161800  0.430900  0.976400  1.0  0.682
  C  C57  1  0.161800  0.430900  0.430900  1.0  0.682
  C  C58  1  0.699810  0.570570  0.029810  1.0  0.0365
  C  C59  1  0.613700  0.613700  0.743200  1.0  -0.1676
  C  C60  1  0.161800  0.976400  0.430900  1.0  0.6824
  C  C61  1  0.570570  0.699810  0.029810  1.0  0.0353
  C  C62  1  0.256800  0.386300  0.970600  1.0  -0.1676
  C  C63  1  0.970190  0.429430  0.300190  1.0  0.0366
  C  C64  1  0.613700  0.743200  0.613700  1.0  -0.1668
  C  C65  1  0.029810  0.699810  0.570570  1.0  0.0346
  C  C66  1  0.699810  0.570570  0.699810  1.0  0.0363
  C  C67  1  0.029400  0.743200  0.613700  1.0  -0.1668
  C  C68  1  0.386300  0.256800  0.970600  1.0  -0.1673
  C  C69  1  0.970190  0.300190  0.300190  1.0  0.0342
  C  C70  1  0.386300  0.970600  0.386300  1.0  -0.1673
  C  C71  1  0.699810  0.029810  0.699810  1.0  0.0357
  C  C72  1  0.023600  0.569100  0.569100  1.0  0.6831
  C  C73  1  0.023600  0.838200  0.569100  1.0  0.6835
  C  C74  1  0.838200  0.569100  0.569100  1.0  0.6823
  C  C75  1  0.300190  0.970190  0.300190  1.0  0.0346
  C  C76  1  0.613700  0.613700  0.029400  1.0  -0.1678
  C  C77  1  0.029400  0.613700  0.613700  1.0  -0.1675
  C  C78  1  0.430900  0.430900  0.161800  1.0  0.6825
  C  C79  1  0.386300  0.386300  0.970600  1.0  -0.1673
  C  C80  1  0.386300  0.386300  0.256800  1.0  -0.1674
  C  C81  1  0.029810  0.699810  0.699810  1.0  0.0356
  C  C82  1  0.430900  0.430900  0.976400  1.0  0.6827
  C  C83  1  0.569100  0.569100  0.838200  1.0  0.6822
  C  C84  1  0.429430  0.970190  0.300190  1.0  0.0349
  C  C85  1  0.838200  0.023600  0.569100  1.0  0.6824
  C  C86  1  0.386300  0.970600  0.256800  1.0  -0.167
  C  C87  1  0.569100  0.023600  0.569100  1.0  0.6828
  C  C88  1  0.976400  0.161800  0.430900  1.0  0.6838
  C  C89  1  0.300190  0.429430  0.970190  1.0  0.0361
  C  C90  1  0.300190  0.970190  0.429430  1.0  0.0351
  C  C91  1  0.569100  0.569100  0.023600  1.0  0.6821
  C  C92  1  0.430900  0.976400  0.430900  1.0  0.6833
  C  C93  1  0.429430  0.300190  0.970190  1.0  0.0358
  C  C94  1  0.569100  0.838200  0.569100  1.0  0.683
  C  C95  1  0.743200  0.613700  0.613700  1.0  -0.1673
  C  C96  1  0.029400  0.613700  0.743200  1.0  -0.1679
  C  C97  1  0.300190  0.429430  0.300190  1.0  0.0361
  C  C98  1  0.386300  0.256800  0.386300  1.0  -0.1672
  C  C99  1  0.970600  0.386300  0.256800  1.0  -0.1674
  C  C100  1  0.699810  0.699810  0.029810  1.0  0.0356
  C  C101  1  0.976400  0.430900  0.430900  1.0  0.6835
  C  C102  1  0.429430  0.300190  0.300190  1.0  0.0357
  C  C103  1  0.570570  0.699810  0.699810  1.0  0.0352
  C  C104  1  0.430900  0.976400  0.161800  1.0  0.6832
  C  C105  1  0.300190  0.300190  0.429430  1.0  0.0359
  C  C106  1  0.970600  0.386300  0.386300  1.0  -0.1679
  C  C107  1  0.613700  0.029400  0.613700  1.0  -0.1672
  C  C108  1  0.256800  0.386300  0.386300  1.0  -0.1678
  O  O109  1  0.507740  0.979040  0.387580  1.0  -0.5594
  O  O110  1  0.020960  0.492260  0.612420  1.0  -0.5594
  O  O111  1  0.020960  0.612420  0.874360  1.0  -0.5591
  O  O112  1  0.874360  0.492260  0.020960  1.0  -0.5602
  O  O113  1  0.874360  0.612420  0.020960  1.0  -0.5592
  O  O114  1  0.979040  0.507740  0.387580  1.0  -0.5587
  O  O115  1  0.492260  0.612420  0.020960  1.0  -0.5596
  O  O116  1  0.125640  0.979040  0.507740  1.0  -0.5595
  O  O117  1  0.125640  0.387580  0.979040  1.0  -0.5592
  O  O118  1  0.387580  0.125640  0.979040  1.0  -0.5592
  O  O119  1  0.507740  0.979040  0.125640  1.0  -0.5595
  O  O120  1  0.492260  0.612420  0.874360  1.0  -0.5601
  O  O121  1  0.492260  0.874360  0.612420  1.0  -0.5588
  O  O122  1  0.387580  0.507740  0.979040  1.0  -0.5598
  O  O123  1  0.874360  0.492260  0.612420  1.0  -0.5598
  O  O124  1  0.507740  0.387580  0.125640  1.0  -0.5607
  O  O125  1  0.612420  0.874360  0.492260  1.0  -0.5591
  O  O126  1  0.387580  0.125640  0.507740  1.0  -0.5595
  O  O127  1  0.979040  0.387580  0.125640  1.0  -0.5597
  O  O128  1  0.612420  0.492260  0.874360  1.0  -0.5602
  O  O129  1  0.020960  0.874360  0.612420  1.0  -0.5587
  O  O130  1  0.979040  0.387580  0.507740  1.0  -0.5593
  O  O131  1  0.612420  0.492260  0.020960  1.0  -0.5598
  O  O132  1  0.874360  0.020960  0.492260  1.0  -0.5582
  O  O133  1  0.125640  0.507740  0.387580  1.0  -0.559
  O  O134  1  0.387580  0.979040  0.125640  1.0  -0.5586
  O  O135  1  0.612420  0.874360  0.020960  1.0  -0.5594
  O  O136  1  0.020960  0.492260  0.874360  1.0  -0.5591
  O  O137  1  0.507740  0.125640  0.387580  1.0  -0.5588
  O  O138  1  0.492260  0.020960  0.874360  1.0  -0.5589
  O  O139  1  0.979040  0.507740  0.125640  1.0  -0.5592
  O  O140  1  0.125640  0.979040  0.387580  1.0  -0.5592
  O  O141  1  0.387580  0.979040  0.507740  1.0  -0.5586
  O  O142  1  0.387580  0.507740  0.125640  1.0  -0.5602
  O  O143  1  0.020960  0.874360  0.492260  1.0  -0.5587
  O  O144  1  0.125640  0.387580  0.507740  1.0  -0.5592
  O  O145  1  0.612420  0.020960  0.874360  1.0  -0.5592
  O  O146  1  0.507740  0.387580  0.979040  1.0  -0.5599
  O  O147  1  0.507740  0.125640  0.979040  1.0  -0.559
  O  O148  1  0.612420  0.020960  0.492260  1.0  -0.5584
  O  O149  1  0.492260  0.874360  0.020960  1.0  -0.5592
  O  O150  1  0.125640  0.507740  0.979040  1.0  -0.5594
  O  O151  1  0.874360  0.020960  0.612420  1.0  -0.5586
  O  O152  1  0.979040  0.125640  0.387580  1.0  -0.5592
  O  O153  1  0.492260  0.020960  0.612420  1.0  -0.5594
  O  O154  1  0.874360  0.612420  0.492260  1.0  -0.5589
  O  O155  1  0.979040  0.125640  0.507740  1.0  -0.5594
  O  O156  1  0.020960  0.612420  0.492260  1.0  -0.5587
