# generated using pymatgen
data_AlC8O5
_symmetry_space_group_name_H-M   'P 1'
_cell_length_a   6.62950000
_cell_length_b   16.75790000
_cell_length_c   12.79360000
_cell_angle_alpha   90.00000000
_cell_angle_beta   90.00000000
_cell_angle_gamma   90.00000000
_symmetry_Int_Tables_number   1
_chemical_formula_structural   AlC8O5
_chemical_formula_sum   'Al4 C32 O20'
_cell_volume   1421.32415745
_cell_formula_units_Z   4
loop_
 _symmetry_equiv_pos_site_id
 _symmetry_equiv_pos_as_xyz
  1  'x, y, z'
loop_
 _atom_site_type_symbol
 _atom_site_label
 _atom_site_symmetry_multiplicity
 _atom_site_fract_x
 _atom_site_fract_y
 _atom_site_fract_z
 _atom_site_occupancy
 _atom_site_charge
  Al  Al1  1  0.250000  0.250000  0.750000  1.0  1.8134
  Al  Al2  1  0.750000  0.250000  0.750000  1.0  1.8134
  Al  Al3  1  0.750000  0.750000  0.250000  1.0  1.8134
  Al  Al4  1  0.250000  0.750000  0.250000  1.0  1.8134
  C  C5  1  0.807800  0.035440  0.967900  1.0  -0.0105
  C  C6  1  0.307800  0.535440  0.467900  1.0  -0.0105
  C  C7  1  0.192200  0.464560  0.967900  1.0  -0.008
  C  C8  1  0.692200  0.964560  0.467900  1.0  -0.0072
  C  C9  1  0.192200  0.535440  0.032100  1.0  -0.008
  C  C10  1  0.692200  0.035440  0.532100  1.0  -0.008
  C  C11  1  0.807800  0.964560  0.032100  1.0  -0.0108
  C  C12  1  0.307800  0.464560  0.532100  1.0  -0.0112
  C  C13  1  0.192200  0.964560  0.032100  1.0  -0.0083
  C  C14  1  0.692200  0.464560  0.532100  1.0  -0.0083
  C  C15  1  0.807800  0.535440  0.032100  1.0  -0.0107
  C  C16  1  0.307800  0.035440  0.532100  1.0  -0.0107
  C  C17  1  0.807800  0.464560  0.967900  1.0  -0.0101
  C  C18  1  0.307800  0.964560  0.467900  1.0  -0.0109
  C  C19  1  0.192200  0.035440  0.967900  1.0  -0.0077
  C  C20  1  0.692200  0.535440  0.467900  1.0  -0.0077
  C  C21  1  0.000000  0.062000  0.944800  1.0  -0.0421
  C  C22  1  0.000000  0.138200  0.870300  1.0  0.698
  C  C23  1  0.500000  0.562000  0.444800  1.0  -0.0476
  C  C24  1  0.500000  0.638200  0.370300  1.0  0.698
  C  C25  1  0.000000  0.438000  0.944800  1.0  -0.0488
  C  C26  1  0.000000  0.361800  0.870300  1.0  0.6981
  C  C27  1  0.500000  0.938000  0.444800  1.0  -0.0488
  C  C28  1  0.500000  0.861800  0.370300  1.0  0.6981
  C  C29  1  0.000000  0.562000  0.055200  1.0  -0.0416
  C  C30  1  0.000000  0.638200  0.129700  1.0  0.698
  C  C31  1  0.500000  0.062000  0.555200  1.0  -0.0416
  C  C32  1  0.500000  0.138200  0.629700  1.0  0.698
  C  C33  1  0.000000  0.938000  0.055200  1.0  -0.0487
  C  C34  1  0.000000  0.861800  0.129700  1.0  0.6982
  C  C35  1  0.500000  0.438000  0.555200  1.0  -0.0484
  C  C36  1  0.500000  0.361800  0.629700  1.0  0.6982
  O  O37  1  0.166770  0.167700  0.843620  1.0  -0.5873
  O  O38  1  0.666770  0.667700  0.343620  1.0  -0.5873
  O  O39  1  0.833230  0.332300  0.843620  1.0  -0.5871
  O  O40  1  0.333230  0.832300  0.343620  1.0  -0.5871
  O  O41  1  0.833230  0.667700  0.156380  1.0  -0.5882
  O  O42  1  0.333230  0.167700  0.656380  1.0  -0.5882
  O  O43  1  0.166770  0.832300  0.156380  1.0  -0.5881
  O  O44  1  0.666770  0.332300  0.656380  1.0  -0.5881
  O  O45  1  0.833230  0.832300  0.156380  1.0  -0.5879
  O  O46  1  0.333230  0.332300  0.656380  1.0  -0.5879
  O  O47  1  0.166770  0.667700  0.156380  1.0  -0.588
  O  O48  1  0.666770  0.167700  0.656380  1.0  -0.588
  O  O49  1  0.166770  0.332300  0.843620  1.0  -0.5875
  O  O50  1  0.666770  0.832300  0.343620  1.0  -0.5875
  O  O51  1  0.833230  0.167700  0.843620  1.0  -0.587
  O  O52  1  0.333230  0.667700  0.343620  1.0  -0.587
  O  O53  1  0.000000  0.250000  0.684700  1.0  -0.7293
  O  O54  1  0.500000  0.750000  0.184700  1.0  -0.7293
  O  O55  1  0.000000  0.750000  0.315300  1.0  -0.7307
  O  O56  1  0.500000  0.250000  0.815300  1.0  -0.7307
