# generated using pymatgen
data_AlC8O5
_symmetry_space_group_name_H-M   'P 1'
_cell_length_a   6.62880000
_cell_length_b   16.72760000
_cell_length_c   12.83360000
_cell_angle_alpha   90.00000000
_cell_angle_beta   90.00000000
_cell_angle_gamma   90.00000000
_symmetry_Int_Tables_number   1
_chemical_formula_structural   AlC8O5
_chemical_formula_sum   'Al4 C32 O20'
_cell_volume   1423.03981000
_cell_formula_units_Z   4
loop_
 _symmetry_equiv_pos_site_id
 _symmetry_equiv_pos_as_xyz
  1  'x, y, z'
loop_
 _atom_site_type_symbol
 _atom_site_label
 _atom_site_symmetry_multiplicity
 _atom_site_fract_x
 _atom_site_fract_y
 _atom_site_fract_z
 _atom_site_occupancy
 _atom_site_charge
  Al  Al1  1  0.250000  0.250000  0.750000  1.0  1.8185
  Al  Al2  1  0.750000  0.250000  0.750000  1.0  1.8185
  Al  Al3  1  0.750000  0.750000  0.250000  1.0  1.8185
  Al  Al4  1  0.250000  0.750000  0.250000  1.0  1.8185
  C  C5  1  0.809100  0.035440  0.967500  1.0  -0.0262
  C  C6  1  0.309100  0.535440  0.467500  1.0  -0.0262
  C  C7  1  0.190900  0.464560  0.967500  1.0  -0.0227
  C  C8  1  0.690900  0.964560  0.467500  1.0  -0.0227
  C  C9  1  0.190900  0.535440  0.032500  1.0  -0.0202
  C  C10  1  0.690900  0.035440  0.532500  1.0  -0.0202
  C  C11  1  0.809100  0.964560  0.032500  1.0  -0.0242
  C  C12  1  0.309100  0.464560  0.532500  1.0  -0.0242
  C  C13  1  0.190900  0.964560  0.032500  1.0  -0.0212
  C  C14  1  0.690900  0.464560  0.532500  1.0  -0.0212
  C  C15  1  0.809100  0.535440  0.032500  1.0  -0.0239
  C  C16  1  0.309100  0.035440  0.532500  1.0  -0.0247
  C  C17  1  0.809100  0.464560  0.967500  1.0  -0.0266
  C  C18  1  0.309100  0.964560  0.467500  1.0  -0.0266
  C  C19  1  0.190900  0.035440  0.967500  1.0  -0.0227
  C  C20  1  0.690900  0.535440  0.467500  1.0  -0.0227
  C  C21  1  0.000000  0.062200  0.946400  1.0  -0.0431
  C  C22  1  0.000000  0.137000  0.871600  1.0  0.6855
  C  C23  1  0.500000  0.562200  0.446400  1.0  -0.0431
  C  C24  1  0.500000  0.637000  0.371600  1.0  0.6855
  C  C25  1  0.000000  0.437800  0.946400  1.0  -0.0431
  C  C26  1  0.000000  0.363000  0.871600  1.0  0.6865
  C  C27  1  0.500000  0.937800  0.446400  1.0  -0.0431
  C  C28  1  0.500000  0.863000  0.371600  1.0  0.6865
  C  C29  1  0.000000  0.562200  0.053600  1.0  -0.0418
  C  C30  1  0.000000  0.637000  0.128400  1.0  0.6855
  C  C31  1  0.500000  0.062200  0.553600  1.0  -0.0418
  C  C32  1  0.500000  0.137000  0.628400  1.0  0.6855
  C  C33  1  0.000000  0.937800  0.053600  1.0  -0.0421
  C  C34  1  0.000000  0.863000  0.128400  1.0  0.6866
  C  C35  1  0.500000  0.437800  0.553600  1.0  -0.0421
  C  C36  1  0.500000  0.363000  0.628400  1.0  0.6866
  O  O37  1  0.165760  0.168350  0.842880  1.0  -0.5681
  O  O38  1  0.665760  0.668350  0.342880  1.0  -0.5681
  O  O39  1  0.834240  0.331650  0.842880  1.0  -0.5683
  O  O40  1  0.334240  0.831650  0.342880  1.0  -0.5683
  O  O41  1  0.834240  0.668350  0.157120  1.0  -0.5693
  O  O42  1  0.334240  0.168350  0.657120  1.0  -0.5693
  O  O43  1  0.165760  0.831650  0.157120  1.0  -0.5677
  O  O44  1  0.665760  0.331650  0.657120  1.0  -0.5677
  O  O45  1  0.834240  0.831650  0.157120  1.0  -0.5685
  O  O46  1  0.334240  0.331650  0.657120  1.0  -0.5685
  O  O47  1  0.165760  0.668350  0.157120  1.0  -0.5682
  O  O48  1  0.665760  0.168350  0.657120  1.0  -0.5682
  O  O49  1  0.165760  0.331650  0.842880  1.0  -0.5677
  O  O50  1  0.665760  0.831650  0.342880  1.0  -0.5677
  O  O51  1  0.834240  0.168350  0.842880  1.0  -0.5689
  O  O52  1  0.334240  0.668350  0.342880  1.0  -0.5689
  O  O53  1  0.000000  0.250000  0.685700  1.0  -0.7377
  O  O54  1  0.500000  0.750000  0.185700  1.0  -0.7377
  O  O55  1  0.000000  0.750000  0.314300  1.0  -0.7384
  O  O56  1  0.500000  0.250000  0.814300  1.0  -0.7384
