# generated using pymatgen
data_AlC8O4F
_symmetry_space_group_name_H-M   'P 1'
_cell_length_a   6.56470000
_cell_length_b   16.40300000
_cell_length_c   13.17620000
_cell_angle_alpha   90.00000000
_cell_angle_beta   90.00000000
_cell_angle_gamma   90.00000000
_symmetry_Int_Tables_number   1
_chemical_formula_structural   AlC8O4F
_chemical_formula_sum   'Al4 C32 O16 F4'
_cell_volume   1418.82341570
_cell_formula_units_Z   4
loop_
 _symmetry_equiv_pos_site_id
 _symmetry_equiv_pos_as_xyz
  1  'x, y, z'
loop_
 _atom_site_type_symbol
 _atom_site_label
 _atom_site_symmetry_multiplicity
 _atom_site_fract_x
 _atom_site_fract_y
 _atom_site_fract_z
 _atom_site_occupancy
 _atom_site_charge
  Al  Al1  1  0.250000  0.250000  0.750000  1.0  1.8115
  Al  Al2  1  0.750000  0.250000  0.750000  1.0  1.8115
  Al  Al3  1  0.750000  0.750000  0.250000  1.0  1.8115
  Al  Al4  1  0.250000  0.750000  0.250000  1.0  1.8115
  C  C5  1  0.806200  0.030500  0.960700  1.0  -0.0195
  C  C6  1  0.306200  0.530500  0.460700  1.0  -0.0195
  C  C7  1  0.193800  0.469500  0.960700  1.0  -0.0171
  C  C8  1  0.693800  0.969500  0.460700  1.0  -0.0171
  C  C9  1  0.193800  0.530500  0.039300  1.0  -0.0177
  C  C10  1  0.693800  0.030500  0.539300  1.0  -0.0177
  C  C11  1  0.806200  0.969500  0.039300  1.0  -0.0195
  C  C12  1  0.306200  0.469500  0.539300  1.0  -0.0195
  C  C13  1  0.193800  0.969500  0.039300  1.0  -0.018
  C  C14  1  0.693800  0.469500  0.539300  1.0  -0.0194
  C  C15  1  0.806200  0.530500  0.039300  1.0  -0.0216
  C  C16  1  0.306200  0.030500  0.539300  1.0  -0.0203
  C  C17  1  0.806200  0.469500  0.960700  1.0  -0.0193
  C  C18  1  0.306200  0.969500  0.460700  1.0  -0.0193
  C  C19  1  0.193800  0.030500  0.960700  1.0  -0.0174
  C  C20  1  0.693800  0.530500  0.460700  1.0  -0.0174
  C  C21  1  0.000000  0.061800  0.946300  1.0  -0.0384
  C  C22  1  0.000000  0.137900  0.871600  1.0  0.6772
  C  C23  1  0.500000  0.561800  0.446300  1.0  -0.0384
  C  C24  1  0.500000  0.637900  0.371600  1.0  0.6772
  C  C25  1  0.000000  0.438200  0.946300  1.0  -0.0387
  C  C26  1  0.000000  0.362100  0.871600  1.0  0.6784
  C  C27  1  0.500000  0.938200  0.446300  1.0  -0.0387
  C  C28  1  0.500000  0.862100  0.371600  1.0  0.6784
  C  C29  1  0.000000  0.561800  0.053700  1.0  -0.0385
  C  C30  1  0.000000  0.637900  0.128400  1.0  0.6763
  C  C31  1  0.500000  0.061800  0.553700  1.0  -0.0385
  C  C32  1  0.500000  0.137900  0.628400  1.0  0.6763
  C  C33  1  0.000000  0.938200  0.053700  1.0  -0.0393
  C  C34  1  0.000000  0.862100  0.128400  1.0  0.6779
  C  C35  1  0.500000  0.438200  0.553700  1.0  -0.0393
  C  C36  1  0.500000  0.362100  0.628400  1.0  0.6779
  O  O37  1  0.169000  0.167860  0.841760  1.0  -0.6125
  O  O38  1  0.669000  0.667860  0.341760  1.0  -0.613
  O  O39  1  0.831000  0.332140  0.841760  1.0  -0.6122
  O  O40  1  0.331000  0.832140  0.341760  1.0  -0.6122
  O  O41  1  0.831000  0.667860  0.158240  1.0  -0.6134
  O  O42  1  0.331000  0.167860  0.658240  1.0  -0.6129
  O  O43  1  0.169000  0.832140  0.158240  1.0  -0.6111
  O  O44  1  0.669000  0.332140  0.658240  1.0  -0.6111
  O  O45  1  0.831000  0.832140  0.158240  1.0  -0.6117
  O  O46  1  0.331000  0.332140  0.658240  1.0  -0.6119
  O  O47  1  0.169000  0.667860  0.158240  1.0  -0.6126
  O  O48  1  0.669000  0.167860  0.658240  1.0  -0.6126
  O  O49  1  0.169000  0.332140  0.841760  1.0  -0.612
  O  O50  1  0.669000  0.832140  0.341760  1.0  -0.6128
  O  O51  1  0.831000  0.167860  0.841760  1.0  -0.6132
  O  O52  1  0.331000  0.667860  0.341760  1.0  -0.6132
  F  F53  1  0.000000  0.250000  0.690800  1.0  -0.5641
  F  F54  1  0.500000  0.750000  0.190800  1.0  -0.5641
  F  F55  1  0.000000  0.750000  0.309200  1.0  -0.5644
  F  F56  1  0.500000  0.250000  0.809200  1.0  -0.5644
