# generated using pymatgen
data_AlC8O5
_symmetry_space_group_name_H-M   'P 1'
_cell_length_a   6.62910000
_cell_length_b   16.74000000
_cell_length_c   12.81720000
_cell_angle_alpha   90.00000000
_cell_angle_beta   90.00000000
_cell_angle_gamma   90.00000000
_symmetry_Int_Tables_number   1
_chemical_formula_structural   AlC8O5
_chemical_formula_sum   'Al4 C32 O20'
_cell_volume   1422.33921870
_cell_formula_units_Z   4
loop_
 _symmetry_equiv_pos_site_id
 _symmetry_equiv_pos_as_xyz
  1  'x, y, z'
loop_
 _atom_site_type_symbol
 _atom_site_label
 _atom_site_symmetry_multiplicity
 _atom_site_fract_x
 _atom_site_fract_y
 _atom_site_fract_z
 _atom_site_occupancy
 _atom_site_charge
  Al  Al1  1  0.250000  0.250000  0.750000  1.0  1.8144
  Al  Al2  1  0.750000  0.250000  0.750000  1.0  1.8144
  Al  Al3  1  0.750000  0.750000  0.250000  1.0  1.8144
  Al  Al4  1  0.250000  0.750000  0.250000  1.0  1.8144
  C  C5  1  0.809200  0.035410  0.967300  1.0  -0.0168
  C  C6  1  0.309200  0.535410  0.467300  1.0  -0.0168
  C  C7  1  0.190800  0.464590  0.967300  1.0  -0.0121
  C  C8  1  0.690800  0.964590  0.467300  1.0  -0.0121
  C  C9  1  0.190800  0.535410  0.032700  1.0  -0.0096
  C  C10  1  0.690800  0.035410  0.532700  1.0  -0.0096
  C  C11  1  0.809200  0.964590  0.032700  1.0  -0.0149
  C  C12  1  0.309200  0.464590  0.532700  1.0  -0.0149
  C  C13  1  0.190800  0.964590  0.032700  1.0  -0.0103
  C  C14  1  0.690800  0.464590  0.532700  1.0  -0.0103
  C  C15  1  0.809200  0.535410  0.032700  1.0  -0.0146
  C  C16  1  0.309200  0.035410  0.532700  1.0  -0.0151
  C  C17  1  0.809200  0.464590  0.967300  1.0  -0.0154
  C  C18  1  0.309200  0.964590  0.467300  1.0  -0.0154
  C  C19  1  0.190800  0.035410  0.967300  1.0  -0.01
  C  C20  1  0.690800  0.535410  0.467300  1.0  -0.01
  C  C21  1  0.000000  0.062900  0.945900  1.0  -0.0396
  C  C22  1  0.000000  0.136900  0.870300  1.0  0.6916
  C  C23  1  0.500000  0.562900  0.445900  1.0  -0.0396
  C  C24  1  0.500000  0.636900  0.370300  1.0  0.6916
  C  C25  1  0.000000  0.437100  0.945900  1.0  -0.0395
  C  C26  1  0.000000  0.363100  0.870300  1.0  0.6918
  C  C27  1  0.500000  0.937100  0.445900  1.0  -0.0395
  C  C28  1  0.500000  0.863100  0.370300  1.0  0.6918
  C  C29  1  0.000000  0.562900  0.054100  1.0  -0.038
  C  C30  1  0.000000  0.636900  0.129700  1.0  0.6916
  C  C31  1  0.500000  0.062900  0.554100  1.0  -0.038
  C  C32  1  0.500000  0.136900  0.629700  1.0  0.6916
  C  C33  1  0.000000  0.937100  0.054100  1.0  -0.0384
  C  C34  1  0.000000  0.863100  0.129700  1.0  0.6918
  C  C35  1  0.500000  0.437100  0.554100  1.0  -0.0384
  C  C36  1  0.500000  0.363100  0.629700  1.0  0.6918
  O  O37  1  0.165510  0.168340  0.842810  1.0  -0.5762
  O  O38  1  0.665510  0.668340  0.342810  1.0  -0.5762
  O  O39  1  0.834490  0.331660  0.842810  1.0  -0.576
  O  O40  1  0.334490  0.831660  0.342810  1.0  -0.576
  O  O41  1  0.834490  0.668340  0.157190  1.0  -0.5771
  O  O42  1  0.334490  0.168340  0.657190  1.0  -0.5771
  O  O43  1  0.165510  0.831660  0.157190  1.0  -0.5757
  O  O44  1  0.665510  0.331660  0.657190  1.0  -0.5757
  O  O45  1  0.834490  0.831660  0.157190  1.0  -0.5764
  O  O46  1  0.334490  0.331660  0.657190  1.0  -0.5764
  O  O47  1  0.165510  0.668340  0.157190  1.0  -0.5763
  O  O48  1  0.665510  0.168340  0.657190  1.0  -0.5763
  O  O49  1  0.165510  0.331660  0.842810  1.0  -0.5755
  O  O50  1  0.665510  0.831660  0.342810  1.0  -0.5755
  O  O51  1  0.834490  0.168340  0.842810  1.0  -0.5768
  O  O52  1  0.334490  0.668340  0.342810  1.0  -0.5768
  O  O53  1  0.000000  0.250000  0.686300  1.0  -0.7628
  O  O54  1  0.500000  0.750000  0.186300  1.0  -0.7628
  O  O55  1  0.000000  0.750000  0.313700  1.0  -0.7637
  O  O56  1  0.500000  0.250000  0.813700  1.0  -0.7637
