# generated using pymatgen
data_AlC8O5
_symmetry_space_group_name_H-M   'P 1'
_cell_length_a   6.62870000
_cell_length_b   16.72240000
_cell_length_c   12.84060000
_cell_angle_alpha   90.00000000
_cell_angle_beta   90.00000000
_cell_angle_gamma   90.00000000
_symmetry_Int_Tables_number   1
_chemical_formula_structural   AlC8O5
_chemical_formula_sum   'Al4 C32 O20'
_cell_volume   1423.35191244
_cell_formula_units_Z   4
loop_
 _symmetry_equiv_pos_site_id
 _symmetry_equiv_pos_as_xyz
  1  'x, y, z'
loop_
 _atom_site_type_symbol
 _atom_site_label
 _atom_site_symmetry_multiplicity
 _atom_site_fract_x
 _atom_site_fract_y
 _atom_site_fract_z
 _atom_site_occupancy
 _atom_site_charge
  Al  Al1  1  0.250000  0.250000  0.750000  1.0  1.8207
  Al  Al2  1  0.750000  0.250000  0.750000  1.0  1.8207
  Al  Al3  1  0.750000  0.750000  0.250000  1.0  1.8207
  Al  Al4  1  0.250000  0.750000  0.250000  1.0  1.8207
  C  C5  1  0.809100  0.035820  0.967700  1.0  -0.0186
  C  C6  1  0.309100  0.535820  0.467700  1.0  -0.0186
  C  C7  1  0.190900  0.464180  0.967700  1.0  -0.0132
  C  C8  1  0.690900  0.964180  0.467700  1.0  -0.0132
  C  C9  1  0.190900  0.535820  0.032300  1.0  -0.0106
  C  C10  1  0.690900  0.035820  0.532300  1.0  -0.0106
  C  C11  1  0.809100  0.964180  0.032300  1.0  -0.017
  C  C12  1  0.309100  0.464180  0.532300  1.0  -0.017
  C  C13  1  0.190900  0.964180  0.032300  1.0  -0.0122
  C  C14  1  0.690900  0.464180  0.532300  1.0  -0.0122
  C  C15  1  0.809100  0.535820  0.032300  1.0  -0.0168
  C  C16  1  0.309100  0.035820  0.532300  1.0  -0.0177
  C  C17  1  0.809100  0.464180  0.967700  1.0  -0.0193
  C  C18  1  0.309100  0.964180  0.467700  1.0  -0.0193
  C  C19  1  0.190900  0.035820  0.967700  1.0  -0.0132
  C  C20  1  0.690900  0.535820  0.467700  1.0  -0.0132
  C  C21  1  0.000000  0.062100  0.947400  1.0  -0.0353
  C  C22  1  0.000000  0.136300  0.872500  1.0  0.6699
  C  C23  1  0.500000  0.562100  0.447400  1.0  -0.0353
  C  C24  1  0.500000  0.636300  0.372500  1.0  0.6699
  C  C25  1  0.000000  0.437900  0.947400  1.0  -0.0352
  C  C26  1  0.000000  0.363700  0.872500  1.0  0.6708
  C  C27  1  0.500000  0.937900  0.447400  1.0  -0.0352
  C  C28  1  0.500000  0.863700  0.372500  1.0  0.6708
  C  C29  1  0.000000  0.562100  0.052600  1.0  -0.0339
  C  C30  1  0.000000  0.636300  0.127500  1.0  0.6695
  C  C31  1  0.500000  0.062100  0.552600  1.0  -0.0339
  C  C32  1  0.500000  0.136300  0.627500  1.0  0.6695
  C  C33  1  0.000000  0.937900  0.052600  1.0  -0.0339
  C  C34  1  0.000000  0.863700  0.127500  1.0  0.6703
  C  C35  1  0.500000  0.437900  0.552600  1.0  -0.0339
  C  C36  1  0.500000  0.363700  0.627500  1.0  0.6703
  O  O37  1  0.165240  0.168470  0.842740  1.0  -0.574
  O  O38  1  0.665240  0.668470  0.342740  1.0  -0.574
  O  O39  1  0.834760  0.331530  0.842740  1.0  -0.5746
  O  O40  1  0.334760  0.831530  0.342740  1.0  -0.5746
  O  O41  1  0.834760  0.668470  0.157260  1.0  -0.5752
  O  O42  1  0.334760  0.168470  0.657260  1.0  -0.5752
  O  O43  1  0.165240  0.831530  0.157260  1.0  -0.5732
  O  O44  1  0.665240  0.331530  0.657260  1.0  -0.5732
  O  O45  1  0.834760  0.831530  0.157260  1.0  -0.5746
  O  O46  1  0.334760  0.331530  0.657260  1.0  -0.5746
  O  O47  1  0.165240  0.668470  0.157260  1.0  -0.5737
  O  O48  1  0.665240  0.168470  0.657260  1.0  -0.5737
  O  O49  1  0.165240  0.331530  0.842740  1.0  -0.5736
  O  O50  1  0.665240  0.831530  0.342740  1.0  -0.5736
  O  O51  1  0.834760  0.168470  0.842740  1.0  -0.5751
  O  O52  1  0.334760  0.668470  0.342740  1.0  -0.5751
  O  O53  1  0.000000  0.250000  0.685400  1.0  -0.7336
  O  O54  1  0.500000  0.750000  0.185400  1.0  -0.7336
  O  O55  1  0.000000  0.750000  0.314600  1.0  -0.7348
  O  O56  1  0.500000  0.250000  0.814600  1.0  -0.7348
