# generated using pymatgen
data_CuH2(C3O2)2
_symmetry_space_group_name_H-M   'P 1'
_cell_length_a   18.62960000
_cell_length_b   18.62960000
_cell_length_c   18.62960000
_cell_angle_alpha   60.00000000
_cell_angle_beta   60.00000000
_cell_angle_gamma   60.00000000
_symmetry_Int_Tables_number   1
_chemical_formula_structural   CuH2(C3O2)2
_chemical_formula_sum   'Cu12 H24 C72 O48'
_cell_volume   4571.88810494
_cell_formula_units_Z   12
loop_
 _symmetry_equiv_pos_site_id
 _symmetry_equiv_pos_as_xyz
  1  'x, y, z'
loop_
 _atom_site_type_symbol
 _atom_site_label
 _atom_site_symmetry_multiplicity
 _atom_site_fract_x
 _atom_site_fract_y
 _atom_site_fract_z
 _atom_site_occupancy
 _atom_site_charge
  Cu  Cu1  1  0.429440  0.570560  0.000000  1.0  0.8726
  Cu  Cu2  1  0.000000  0.429440  0.000000  1.0  0.8721
  Cu  Cu3  1  0.570560  0.429440  0.000000  1.0  0.872
  Cu  Cu4  1  0.000000  0.570560  0.429440  1.0  0.8724
  Cu  Cu5  1  0.000000  0.429440  0.570560  1.0  0.8728
  Cu  Cu6  1  0.000000  0.570560  0.000000  1.0  0.872
  Cu  Cu7  1  0.570560  0.000000  0.429440  1.0  0.873
  Cu  Cu8  1  0.000000  0.000000  0.429440  1.0  0.8721
  Cu  Cu9  1  0.429440  0.000000  0.570560  1.0  0.8736
  Cu  Cu10  1  0.429440  0.000000  0.000000  1.0  0.8732
  Cu  Cu11  1  0.570560  0.000000  0.000000  1.0  0.8731
  Cu  Cu12  1  0.000000  0.000000  0.570560  1.0  0.8711
  H  H13  1  0.031500  0.727900  0.512700  1.0  0.1171
  H  H14  1  0.727900  0.727900  0.512700  1.0  0.1169
  H  H15  1  0.272100  0.968500  0.272100  1.0  0.1168
  H  H16  1  0.727900  0.031500  0.512700  1.0  0.1171
  H  H17  1  0.272100  0.272100  0.487300  1.0  0.1168
  H  H18  1  0.968500  0.487300  0.272100  1.0  0.1175
  H  H19  1  0.031500  0.512700  0.727900  1.0  0.1181
  H  H20  1  0.727900  0.727900  0.031500  1.0  0.1169
  H  H21  1  0.487300  0.272100  0.272100  1.0  0.1171
  H  H22  1  0.031500  0.727900  0.727900  1.0  0.1171
  H  H23  1  0.272100  0.272100  0.968500  1.0  0.1167
  H  H24  1  0.727900  0.031500  0.727900  1.0  0.1168
  H  H25  1  0.968500  0.272100  0.487300  1.0  0.1169
  H  H26  1  0.272100  0.487300  0.968500  1.0  0.1178
  H  H27  1  0.272100  0.487300  0.272100  1.0  0.1178
  H  H28  1  0.487300  0.272100  0.968500  1.0  0.1171
  H  H29  1  0.512700  0.031500  0.727900  1.0  0.1168
  H  H30  1  0.727900  0.512700  0.727900  1.0  0.118
  H  H31  1  0.512700  0.727900  0.727900  1.0  0.1168
  H  H32  1  0.968500  0.272100  0.272100  1.0  0.1169
  H  H33  1  0.512700  0.727900  0.031500  1.0  0.117
  H  H34  1  0.272100  0.968500  0.487300  1.0  0.1167
  H  H35  1  0.487300  0.968500  0.272100  1.0  0.1169
  H  H36  1  0.727900  0.512700  0.031500  1.0  0.1182
  C  C37  1  0.568980  0.024480  0.568980  1.0  0.6919
  C  C38  1  0.024480  0.568980  0.568980  1.0  0.6927
  C  C39  1  0.031120  0.699240  0.699240  1.0  0.0415
  C  C40  1  0.613190  0.742770  0.613190  1.0  -0.1664
  C  C41  1  0.030850  0.742770  0.613190  1.0  -0.1668
  C  C42  1  0.568980  0.837560  0.568980  1.0  0.6922
  C  C43  1  0.568980  0.837560  0.024480  1.0  0.6925
  C  C44  1  0.031120  0.699240  0.570400  1.0  0.0404
  C  C45  1  0.429600  0.300760  0.968880  1.0  0.0412
  C  C46  1  0.570400  0.031120  0.699240  1.0  0.0392
  C  C47  1  0.570400  0.699240  0.031120  1.0  0.0409
  C  C48  1  0.613190  0.742770  0.030850  1.0  -0.1666
  C  C49  1  0.030850  0.613190  0.742770  1.0  -0.1678
  C  C50  1  0.386810  0.257230  0.386810  1.0  -0.1671
  C  C51  1  0.031120  0.570400  0.699240  1.0  0.0417
  C  C52  1  0.386810  0.969150  0.386810  1.0  -0.1672
  C  C53  1  0.837560  0.568980  0.024480  1.0  0.6915
  C  C54  1  0.257230  0.386810  0.969150  1.0  -0.1675
  C  C55  1  0.699240  0.699240  0.031120  1.0  0.0416
  C  C56  1  0.969150  0.257230  0.386810  1.0  -0.167
  C  C57  1  0.300760  0.300760  0.968880  1.0  0.0407
  C  C58  1  0.431020  0.162440  0.431020  1.0  0.6923
  C  C59  1  0.429600  0.968880  0.300760  1.0  0.0404
  C  C60  1  0.742770  0.613190  0.030850  1.0  -0.1674
  C  C61  1  0.837560  0.568980  0.568980  1.0  0.6913
  C  C62  1  0.162440  0.431020  0.431020  1.0  0.6914
  C  C63  1  0.742770  0.030850  0.613190  1.0  -0.167
  C  C64  1  0.024480  0.837560  0.568980  1.0  0.6928
  C  C65  1  0.386810  0.257230  0.969150  1.0  -0.1671
  C  C66  1  0.257230  0.386810  0.386810  1.0  -0.1678
  C  C67  1  0.613190  0.030850  0.742770  1.0  -0.1677
  C  C68  1  0.300760  0.300760  0.429600  1.0  0.0418
  C  C69  1  0.257230  0.969150  0.386810  1.0  -0.1672
  C  C70  1  0.162440  0.431020  0.975520  1.0  0.6913
  C  C71  1  0.968880  0.429600  0.300760  1.0  0.0426
  C  C72  1  0.431020  0.162440  0.975520  1.0  0.6921
  C  C73  1  0.837560  0.024480  0.568980  1.0  0.6912
  C  C74  1  0.969150  0.386810  0.386810  1.0  -0.1676
  C  C75  1  0.300760  0.968880  0.300760  1.0  0.0402
  C  C76  1  0.969150  0.386810  0.257230  1.0  -0.1674
  C  C77  1  0.162440  0.975520  0.431020  1.0  0.6917
  C  C78  1  0.300760  0.968880  0.429600  1.0  0.0409
  C  C79  1  0.699240  0.570400  0.031120  1.0  0.042
  C  C80  1  0.568980  0.568980  0.024480  1.0  0.6913
  C  C81  1  0.742770  0.613190  0.613190  1.0  -0.1672
  C  C82  1  0.431020  0.431020  0.975520  1.0  0.6917
  C  C83  1  0.429600  0.300760  0.300760  1.0  0.0412
  C  C84  1  0.568980  0.568980  0.837560  1.0  0.6913
  C  C85  1  0.568980  0.024480  0.837560  1.0  0.6921
  C  C86  1  0.975520  0.431020  0.431020  1.0  0.6931
  C  C87  1  0.975520  0.431020  0.162440  1.0  0.6929
  C  C88  1  0.613190  0.613190  0.030850  1.0  -0.1676
  C  C89  1  0.699240  0.031120  0.570400  1.0  0.0402
  C  C90  1  0.386810  0.969150  0.257230  1.0  -0.1672
  C  C91  1  0.975520  0.162440  0.431020  1.0  0.6928
  C  C92  1  0.386810  0.386810  0.969150  1.0  -0.1674
  C  C93  1  0.570400  0.699240  0.699240  1.0  0.0407
  C  C94  1  0.300760  0.429600  0.300760  1.0  0.0421
  C  C95  1  0.968880  0.300760  0.429600  1.0  0.0407
  C  C96  1  0.300760  0.429600  0.968880  1.0  0.0419
  C  C97  1  0.613190  0.613190  0.742770  1.0  -0.1674
  C  C98  1  0.431020  0.431020  0.162440  1.0  0.6919
  C  C99  1  0.431020  0.975520  0.162440  1.0  0.6927
  C  C100  1  0.613190  0.030850  0.613190  1.0  -0.1674
  C  C101  1  0.699240  0.031120  0.699240  1.0  0.0416
  C  C102  1  0.431020  0.975520  0.431020  1.0  0.6929
  C  C103  1  0.030850  0.613190  0.613190  1.0  -0.1677
  C  C104  1  0.968880  0.300760  0.300760  1.0  0.0401
  C  C105  1  0.024480  0.568980  0.837560  1.0  0.693
  C  C106  1  0.699240  0.699240  0.570400  1.0  0.041
  C  C107  1  0.386810  0.386810  0.257230  1.0  -0.1674
  C  C108  1  0.699240  0.570400  0.699240  1.0  0.0417
  O  O109  1  0.873750  0.612670  0.020870  1.0  -0.5594
  O  O110  1  0.979130  0.126250  0.507290  1.0  -0.5594
  O  O111  1  0.020870  0.873750  0.492710  1.0  -0.5593
  O  O112  1  0.873750  0.020870  0.612670  1.0  -0.5592
  O  O113  1  0.126250  0.507290  0.979130  1.0  -0.5598
  O  O114  1  0.979130  0.126250  0.387330  1.0  -0.5593
  O  O115  1  0.126250  0.979130  0.387330  1.0  -0.5604
  O  O116  1  0.979130  0.507290  0.126250  1.0  -0.5594
  O  O117  1  0.020870  0.492710  0.873750  1.0  -0.5601
  O  O118  1  0.387330  0.126250  0.979130  1.0  -0.5597
  O  O119  1  0.492710  0.020870  0.873750  1.0  -0.5597
  O  O120  1  0.612670  0.020870  0.873750  1.0  -0.5593
  O  O121  1  0.126250  0.387330  0.979130  1.0  -0.5596
  O  O122  1  0.492710  0.612670  0.020870  1.0  -0.56
  O  O123  1  0.492710  0.612670  0.873750  1.0  -0.5601
  O  O124  1  0.507290  0.979130  0.387330  1.0  -0.56
  O  O125  1  0.979130  0.387330  0.507290  1.0  -0.5595
  O  O126  1  0.507290  0.387330  0.126250  1.0  -0.5601
  O  O127  1  0.873750  0.020870  0.492710  1.0  -0.559
  O  O128  1  0.612670  0.020870  0.492710  1.0  -0.5591
  O  O129  1  0.612670  0.873750  0.492710  1.0  -0.5599
  O  O130  1  0.979130  0.507290  0.387330  1.0  -0.5593
  O  O131  1  0.873750  0.492710  0.020870  1.0  -0.5603
  O  O132  1  0.387330  0.507290  0.126250  1.0  -0.5601
  O  O133  1  0.507290  0.126250  0.979130  1.0  -0.5594
  O  O134  1  0.387330  0.979130  0.126250  1.0  -0.559
  O  O135  1  0.492710  0.873750  0.020870  1.0  -0.5595
  O  O136  1  0.612670  0.873750  0.020870  1.0  -0.5599
  O  O137  1  0.979130  0.387330  0.126250  1.0  -0.56
  O  O138  1  0.492710  0.873750  0.612670  1.0  -0.5591
  O  O139  1  0.020870  0.492710  0.612670  1.0  -0.5594
  O  O140  1  0.126250  0.507290  0.387330  1.0  -0.56
  O  O141  1  0.492710  0.020870  0.612670  1.0  -0.5599
  O  O142  1  0.126250  0.387330  0.507290  1.0  -0.5601
  O  O143  1  0.387330  0.979130  0.507290  1.0  -0.5586
  O  O144  1  0.612670  0.492710  0.873750  1.0  -0.5603
  O  O145  1  0.126250  0.979130  0.507290  1.0  -0.5596
  O  O146  1  0.612670  0.492710  0.020870  1.0  -0.5601
  O  O147  1  0.387330  0.507290  0.979130  1.0  -0.5607
  O  O148  1  0.020870  0.612670  0.492710  1.0  -0.5589
  O  O149  1  0.387330  0.126250  0.507290  1.0  -0.56
  O  O150  1  0.873750  0.612670  0.492710  1.0  -0.5595
  O  O151  1  0.020870  0.873750  0.612670  1.0  -0.5592
  O  O152  1  0.507290  0.979130  0.126250  1.0  -0.5599
  O  O153  1  0.507290  0.387330  0.979130  1.0  -0.5603
  O  O154  1  0.020870  0.612670  0.873750  1.0  -0.5596
  O  O155  1  0.507290  0.126250  0.387330  1.0  -0.5593
  O  O156  1  0.873750  0.492710  0.612670  1.0  -0.5598
