# generated using pymatgen
data_CuH2(C3O2)2
_symmetry_space_group_name_H-M   'P 1'
_cell_length_a   18.61620000
_cell_length_b   18.61620000
_cell_length_c   18.61620000
_cell_angle_alpha   60.00000000
_cell_angle_beta   60.00000000
_cell_angle_gamma   60.00000000
_symmetry_Int_Tables_number   1
_chemical_formula_structural   CuH2(C3O2)2
_chemical_formula_sum   'Cu12 H24 C72 O48'
_cell_volume   4562.02972172
_cell_formula_units_Z   12
loop_
 _symmetry_equiv_pos_site_id
 _symmetry_equiv_pos_as_xyz
  1  'x, y, z'
loop_
 _atom_site_type_symbol
 _atom_site_label
 _atom_site_symmetry_multiplicity
 _atom_site_fract_x
 _atom_site_fract_y
 _atom_site_fract_z
 _atom_site_occupancy
 _atom_site_charge
  Cu  Cu1  1  0.000000  0.429950  0.570050  1.0  0.9003
  Cu  Cu2  1  0.000000  0.000000  0.570050  1.0  0.8983
  Cu  Cu3  1  0.429950  0.000000  0.570050  1.0  0.9007
  Cu  Cu4  1  0.000000  0.570050  0.000000  1.0  0.8996
  Cu  Cu5  1  0.570050  0.000000  0.429950  1.0  0.9001
  Cu  Cu6  1  0.000000  0.000000  0.429950  1.0  0.8993
  Cu  Cu7  1  0.000000  0.570050  0.429950  1.0  0.9004
  Cu  Cu8  1  0.570050  0.000000  0.000000  1.0  0.8996
  Cu  Cu9  1  0.000000  0.429950  0.000000  1.0  0.9
  Cu  Cu10  1  0.429950  0.000000  0.000000  1.0  0.9009
  Cu  Cu11  1  0.429950  0.570050  0.000000  1.0  0.9003
  Cu  Cu12  1  0.570050  0.429950  0.000000  1.0  0.8996
  H  H13  1  0.487000  0.271600  0.969800  1.0  0.1147
  H  H14  1  0.271600  0.487000  0.271600  1.0  0.1156
  H  H15  1  0.487000  0.271600  0.271600  1.0  0.1146
  H  H16  1  0.969800  0.487000  0.271600  1.0  0.1153
  H  H17  1  0.030200  0.728400  0.728400  1.0  0.1149
  H  H18  1  0.728400  0.728400  0.513000  1.0  0.1145
  H  H19  1  0.271600  0.271600  0.969800  1.0  0.1141
  H  H20  1  0.513000  0.728400  0.030200  1.0  0.1148
  H  H21  1  0.728400  0.030200  0.728400  1.0  0.1145
  H  H22  1  0.271600  0.271600  0.487000  1.0  0.1145
  H  H23  1  0.728400  0.728400  0.030200  1.0  0.1145
  H  H24  1  0.487000  0.969800  0.271600  1.0  0.1146
  H  H25  1  0.728400  0.030200  0.513000  1.0  0.1147
  H  H26  1  0.271600  0.969800  0.487000  1.0  0.1144
  H  H27  1  0.271600  0.969800  0.271600  1.0  0.1145
  H  H28  1  0.513000  0.030200  0.728400  1.0  0.1147
  H  H29  1  0.969800  0.271600  0.487000  1.0  0.1146
  H  H30  1  0.030200  0.728400  0.513000  1.0  0.1148
  H  H31  1  0.728400  0.513000  0.030200  1.0  0.1157
  H  H32  1  0.728400  0.513000  0.728400  1.0  0.1156
  H  H33  1  0.271600  0.487000  0.969800  1.0  0.1156
  H  H34  1  0.030200  0.513000  0.728400  1.0  0.1155
  H  H35  1  0.969800  0.271600  0.271600  1.0  0.1146
  H  H36  1  0.513000  0.728400  0.728400  1.0  0.1146
  C  C37  1  0.430940  0.162260  0.975860  1.0  0.6727
  C  C38  1  0.024140  0.569060  0.569060  1.0  0.6728
  C  C39  1  0.430940  0.430940  0.975860  1.0  0.6723
  C  C40  1  0.569060  0.024140  0.569060  1.0  0.6723
  C  C41  1  0.429240  0.300440  0.969880  1.0  0.0344
  C  C42  1  0.613530  0.030130  0.613530  1.0  -0.1577
  C  C43  1  0.030120  0.699560  0.699560  1.0  0.0339
  C  C44  1  0.699560  0.699560  0.030120  1.0  0.0337
  C  C45  1  0.570760  0.699560  0.699560  1.0  0.0337
  C  C46  1  0.742810  0.613530  0.030130  1.0  -0.1575
  C  C47  1  0.386470  0.969870  0.257190  1.0  -0.1576
  C  C48  1  0.430940  0.162260  0.430940  1.0  0.6728
  C  C49  1  0.162260  0.975860  0.430940  1.0  0.6718
  C  C50  1  0.030120  0.570760  0.699560  1.0  0.0353
  C  C51  1  0.837740  0.569060  0.569060  1.0  0.6717
  C  C52  1  0.975860  0.430940  0.430940  1.0  0.6732
  C  C53  1  0.429240  0.300440  0.300440  1.0  0.0343
  C  C54  1  0.030130  0.613530  0.742810  1.0  -0.1584
  C  C55  1  0.699560  0.570760  0.030120  1.0  0.0346
  C  C56  1  0.386470  0.386470  0.969870  1.0  -0.1577
  C  C57  1  0.430940  0.975860  0.162260  1.0  0.6728
  C  C58  1  0.386470  0.969870  0.386470  1.0  -0.1578
  C  C59  1  0.300440  0.429240  0.300440  1.0  0.0342
  C  C60  1  0.613530  0.742810  0.030130  1.0  -0.1574
  C  C61  1  0.969880  0.300440  0.429240  1.0  0.0336
  C  C62  1  0.030130  0.613530  0.613530  1.0  -0.1581
  C  C63  1  0.570760  0.699560  0.030120  1.0  0.0339
  C  C64  1  0.024140  0.837740  0.569060  1.0  0.6731
  C  C65  1  0.429240  0.969880  0.300440  1.0  0.0341
  C  C66  1  0.300440  0.969880  0.300440  1.0  0.0339
  C  C67  1  0.030120  0.699560  0.570760  1.0  0.0337
  C  C68  1  0.569060  0.837740  0.569060  1.0  0.6725
  C  C69  1  0.613530  0.613530  0.742810  1.0  -0.1581
  C  C70  1  0.386470  0.386470  0.257190  1.0  -0.1577
  C  C71  1  0.699560  0.030120  0.699560  1.0  0.034
  C  C72  1  0.613530  0.613530  0.030130  1.0  -0.1583
  C  C73  1  0.162260  0.430940  0.430940  1.0  0.6714
  C  C74  1  0.837740  0.024140  0.569060  1.0  0.6717
  C  C75  1  0.969880  0.300440  0.300440  1.0  0.0338
  C  C76  1  0.570760  0.030120  0.699560  1.0  0.0329
  C  C77  1  0.257190  0.386470  0.386470  1.0  -0.1579
  C  C78  1  0.569060  0.024140  0.837740  1.0  0.6725
  C  C79  1  0.257190  0.969870  0.386470  1.0  -0.1577
  C  C80  1  0.699560  0.570760  0.699560  1.0  0.0346
  C  C81  1  0.837740  0.569060  0.024140  1.0  0.6718
  C  C82  1  0.386470  0.257190  0.969870  1.0  -0.1579
  C  C83  1  0.300440  0.300440  0.969880  1.0  0.0335
  C  C84  1  0.569060  0.569060  0.024140  1.0  0.6715
  C  C85  1  0.030130  0.742810  0.613530  1.0  -0.1572
  C  C86  1  0.969870  0.386470  0.257190  1.0  -0.1581
  C  C87  1  0.300440  0.969880  0.429240  1.0  0.0335
  C  C88  1  0.430940  0.430940  0.162260  1.0  0.6723
  C  C89  1  0.969880  0.429240  0.300440  1.0  0.0349
  C  C90  1  0.024140  0.569060  0.837740  1.0  0.6731
  C  C91  1  0.975860  0.430940  0.162260  1.0  0.673
  C  C92  1  0.613530  0.030130  0.742810  1.0  -0.1579
  C  C93  1  0.742810  0.613530  0.613530  1.0  -0.1575
  C  C94  1  0.969870  0.257190  0.386470  1.0  -0.1576
  C  C95  1  0.569060  0.837740  0.024140  1.0  0.6727
  C  C96  1  0.300440  0.300440  0.429240  1.0  0.034
  C  C97  1  0.257190  0.386470  0.969870  1.0  -0.1578
  C  C98  1  0.430940  0.975860  0.430940  1.0  0.6729
  C  C99  1  0.613530  0.742810  0.613530  1.0  -0.1574
  C  C100  1  0.699560  0.030120  0.570760  1.0  0.0337
  C  C101  1  0.699560  0.699560  0.570760  1.0  0.0337
  C  C102  1  0.742810  0.030130  0.613530  1.0  -0.1573
  C  C103  1  0.162260  0.430940  0.975860  1.0  0.6714
  C  C104  1  0.969870  0.386470  0.386470  1.0  -0.1583
  C  C105  1  0.975860  0.162260  0.430940  1.0  0.6732
  C  C106  1  0.300440  0.429240  0.969880  1.0  0.0341
  C  C107  1  0.569060  0.569060  0.837740  1.0  0.6715
  C  C108  1  0.386470  0.257190  0.386470  1.0  -0.1578
  O  O109  1  0.387140  0.125920  0.979360  1.0  -0.5569
  O  O110  1  0.612860  0.492420  0.874080  1.0  -0.5573
  O  O111  1  0.492420  0.020640  0.874080  1.0  -0.5566
  O  O112  1  0.387140  0.507580  0.979360  1.0  -0.5572
  O  O113  1  0.507580  0.979360  0.387140  1.0  -0.5572
  O  O114  1  0.507580  0.387140  0.125920  1.0  -0.5573
  O  O115  1  0.387140  0.125920  0.507580  1.0  -0.557
  O  O116  1  0.020640  0.612860  0.492420  1.0  -0.5567
  O  O117  1  0.507580  0.125920  0.979360  1.0  -0.5564
  O  O118  1  0.874080  0.492420  0.020640  1.0  -0.5574
  O  O119  1  0.507580  0.387140  0.979360  1.0  -0.5575
  O  O120  1  0.020640  0.612860  0.874080  1.0  -0.5566
  O  O121  1  0.979360  0.125920  0.387140  1.0  -0.5562
  O  O122  1  0.612860  0.874080  0.020640  1.0  -0.5567
  O  O123  1  0.979360  0.507580  0.387140  1.0  -0.5562
  O  O124  1  0.979360  0.387140  0.125920  1.0  -0.5572
  O  O125  1  0.612860  0.492420  0.020640  1.0  -0.5571
  O  O126  1  0.612860  0.874080  0.492420  1.0  -0.5568
  O  O127  1  0.874080  0.020640  0.612860  1.0  -0.556
  O  O128  1  0.125920  0.507580  0.387140  1.0  -0.5566
  O  O129  1  0.507580  0.125920  0.387140  1.0  -0.5564
  O  O130  1  0.979360  0.387140  0.507580  1.0  -0.5569
  O  O131  1  0.874080  0.612860  0.492420  1.0  -0.5567
  O  O132  1  0.020640  0.874080  0.492420  1.0  -0.5562
  O  O133  1  0.125920  0.979360  0.387140  1.0  -0.5565
  O  O134  1  0.387140  0.979360  0.125920  1.0  -0.5563
  O  O135  1  0.874080  0.020640  0.492420  1.0  -0.5557
  O  O136  1  0.874080  0.492420  0.612860  1.0  -0.557
  O  O137  1  0.125920  0.507580  0.979360  1.0  -0.5568
  O  O138  1  0.492420  0.874080  0.612860  1.0  -0.5563
  O  O139  1  0.492420  0.874080  0.020640  1.0  -0.5566
  O  O140  1  0.979360  0.125920  0.507580  1.0  -0.5563
  O  O141  1  0.020640  0.492420  0.874080  1.0  -0.5563
  O  O142  1  0.020640  0.874080  0.612860  1.0  -0.5562
  O  O143  1  0.492420  0.612860  0.020640  1.0  -0.5572
  O  O144  1  0.387140  0.507580  0.125920  1.0  -0.5571
  O  O145  1  0.125920  0.387140  0.979360  1.0  -0.5565
  O  O146  1  0.874080  0.612860  0.020640  1.0  -0.5564
  O  O147  1  0.492420  0.020640  0.612860  1.0  -0.557
  O  O148  1  0.612860  0.020640  0.492420  1.0  -0.5563
  O  O149  1  0.387140  0.979360  0.507580  1.0  -0.5563
  O  O150  1  0.612860  0.020640  0.874080  1.0  -0.5567
  O  O151  1  0.020640  0.492420  0.612860  1.0  -0.5564
  O  O152  1  0.979360  0.507580  0.125920  1.0  -0.5565
  O  O153  1  0.125920  0.387140  0.507580  1.0  -0.5571
  O  O154  1  0.125920  0.979360  0.507580  1.0  -0.5565
  O  O155  1  0.492420  0.612860  0.874080  1.0  -0.5573
  O  O156  1  0.507580  0.979360  0.125920  1.0  -0.5573
