# generated using pymatgen
data_AlC8O4F
_symmetry_space_group_name_H-M   'P 1'
_cell_length_a   6.56850000
_cell_length_b   16.39040000
_cell_length_c   13.20970000
_cell_angle_alpha   90.00000000
_cell_angle_beta   90.00000000
_cell_angle_gamma   90.00000000
_symmetry_Int_Tables_number   1
_chemical_formula_structural   AlC8O4F
_chemical_formula_sum   'Al4 C32 O16 F4'
_cell_volume   1422.16082500
_cell_formula_units_Z   4
loop_
 _symmetry_equiv_pos_site_id
 _symmetry_equiv_pos_as_xyz
  1  'x, y, z'
loop_
 _atom_site_type_symbol
 _atom_site_label
 _atom_site_symmetry_multiplicity
 _atom_site_fract_x
 _atom_site_fract_y
 _atom_site_fract_z
 _atom_site_occupancy
 _atom_site_charge
  Al  Al1  1  0.250000  0.250000  0.750000  1.0  1.8005
  Al  Al2  1  0.750000  0.250000  0.750000  1.0  1.8005
  Al  Al3  1  0.750000  0.750000  0.250000  1.0  1.8005
  Al  Al4  1  0.250000  0.750000  0.250000  1.0  1.8005
  C  C5  1  0.803200  0.029200  0.958200  1.0  -0.025
  C  C6  1  0.303200  0.529200  0.458200  1.0  -0.025
  C  C7  1  0.196800  0.470800  0.958200  1.0  -0.0273
  C  C8  1  0.696800  0.970800  0.458200  1.0  -0.0273
  C  C9  1  0.196800  0.529200  0.041800  1.0  -0.0285
  C  C10  1  0.696800  0.029200  0.541800  1.0  -0.0285
  C  C11  1  0.803200  0.970800  0.041800  1.0  -0.0267
  C  C12  1  0.303200  0.470800  0.541800  1.0  -0.0267
  C  C13  1  0.196800  0.970800  0.041800  1.0  -0.0291
  C  C14  1  0.696800  0.470800  0.541800  1.0  -0.0269
  C  C15  1  0.803200  0.529200  0.041800  1.0  -0.0247
  C  C16  1  0.303200  0.029200  0.541800  1.0  -0.0267
  C  C17  1  0.803200  0.470800  0.958200  1.0  -0.0249
  C  C18  1  0.303200  0.970800  0.458200  1.0  -0.0249
  C  C19  1  0.196800  0.029200  0.958200  1.0  -0.0273
  C  C20  1  0.696800  0.529200  0.458200  1.0  -0.0273
  C  C21  1  0.000000  0.064200  0.947200  1.0  -0.0336
  C  C22  1  0.000000  0.135900  0.867300  1.0  0.6731
  C  C23  1  0.500000  0.564200  0.447200  1.0  -0.0336
  C  C24  1  0.500000  0.635900  0.367300  1.0  0.6731
  C  C25  1  0.000000  0.435800  0.947200  1.0  -0.0341
  C  C26  1  0.000000  0.364100  0.867300  1.0  0.6732
  C  C27  1  0.500000  0.935800  0.447200  1.0  -0.0341
  C  C28  1  0.500000  0.864100  0.367300  1.0  0.6732
  C  C29  1  0.000000  0.564200  0.052800  1.0  -0.0333
  C  C30  1  0.000000  0.635900  0.132700  1.0  0.6731
  C  C31  1  0.500000  0.064200  0.552800  1.0  -0.0333
  C  C32  1  0.500000  0.135900  0.632700  1.0  0.6731
  C  C33  1  0.000000  0.935800  0.052800  1.0  -0.0343
  C  C34  1  0.000000  0.864100  0.132700  1.0  0.6734
  C  C35  1  0.500000  0.435800  0.552800  1.0  -0.0343
  C  C36  1  0.500000  0.364100  0.632700  1.0  0.6734
  O  O37  1  0.169900  0.167670  0.840500  1.0  -0.6024
  O  O38  1  0.669900  0.667670  0.340500  1.0  -0.6027
  O  O39  1  0.830100  0.332330  0.840500  1.0  -0.602
  O  O40  1  0.330100  0.832330  0.340500  1.0  -0.602
  O  O41  1  0.830100  0.667670  0.159500  1.0  -0.6036
  O  O42  1  0.330100  0.167670  0.659500  1.0  -0.6035
  O  O43  1  0.169900  0.832330  0.159500  1.0  -0.602
  O  O44  1  0.669900  0.332330  0.659500  1.0  -0.602
  O  O45  1  0.830100  0.832330  0.159500  1.0  -0.6022
  O  O46  1  0.330100  0.332330  0.659500  1.0  -0.6024
  O  O47  1  0.169900  0.667670  0.159500  1.0  -0.6028
  O  O48  1  0.669900  0.167670  0.659500  1.0  -0.6028
  O  O49  1  0.169900  0.332330  0.840500  1.0  -0.6019
  O  O50  1  0.669900  0.832330  0.340500  1.0  -0.6026
  O  O51  1  0.830100  0.167670  0.840500  1.0  -0.603
  O  O52  1  0.330100  0.667670  0.340500  1.0  -0.603
  F  F53  1  0.000000  0.250000  0.693900  1.0  -0.5626
  F  F54  1  0.500000  0.750000  0.193900  1.0  -0.5626
  F  F55  1  0.000000  0.750000  0.306100  1.0  -0.5621
  F  F56  1  0.500000  0.250000  0.806100  1.0  -0.5621
