# generated using pymatgen
data_AlC8O5
_symmetry_space_group_name_H-M   'P 1'
_cell_length_a   6.62860000
_cell_length_b   16.71680000
_cell_length_c   12.84730000
_cell_angle_alpha   90.00000000
_cell_angle_beta   90.00000000
_cell_angle_gamma   90.00000000
_symmetry_Int_Tables_number   1
_chemical_formula_structural   AlC8O5
_chemical_formula_sum   'Al4 C32 O20'
_cell_volume   1423.59621492
_cell_formula_units_Z   4
loop_
 _symmetry_equiv_pos_site_id
 _symmetry_equiv_pos_as_xyz
  1  'x, y, z'
loop_
 _atom_site_type_symbol
 _atom_site_label
 _atom_site_symmetry_multiplicity
 _atom_site_fract_x
 _atom_site_fract_y
 _atom_site_fract_z
 _atom_site_occupancy
 _atom_site_charge
  Al  Al1  1  0.250000  0.250000  0.750000  1.0  1.8197
  Al  Al2  1  0.750000  0.250000  0.750000  1.0  1.8197
  Al  Al3  1  0.750000  0.750000  0.250000  1.0  1.8197
  Al  Al4  1  0.250000  0.750000  0.250000  1.0  1.8197
  C  C5  1  0.809100  0.035610  0.967700  1.0  -0.0233
  C  C6  1  0.309100  0.535610  0.467700  1.0  -0.0233
  C  C7  1  0.190900  0.464390  0.967700  1.0  -0.0178
  C  C8  1  0.690900  0.964390  0.467700  1.0  -0.0178
  C  C9  1  0.190900  0.535610  0.032300  1.0  -0.0148
  C  C10  1  0.690900  0.035610  0.532300  1.0  -0.0148
  C  C11  1  0.809100  0.964390  0.032300  1.0  -0.0212
  C  C12  1  0.309100  0.464390  0.532300  1.0  -0.0212
  C  C13  1  0.190900  0.964390  0.032300  1.0  -0.0165
  C  C14  1  0.690900  0.464390  0.532300  1.0  -0.0165
  C  C15  1  0.809100  0.535610  0.032300  1.0  -0.0212
  C  C16  1  0.309100  0.035610  0.532300  1.0  -0.022
  C  C17  1  0.809100  0.464390  0.967700  1.0  -0.0239
  C  C18  1  0.309100  0.964390  0.467700  1.0  -0.0239
  C  C19  1  0.190900  0.035610  0.967700  1.0  -0.0178
  C  C20  1  0.690900  0.535610  0.467700  1.0  -0.0178
  C  C21  1  0.000000  0.061900  0.947200  1.0  -0.0411
  C  C22  1  0.000000  0.136900  0.872700  1.0  0.6684
  C  C23  1  0.500000  0.561900  0.447200  1.0  -0.0411
  C  C24  1  0.500000  0.636900  0.372700  1.0  0.6684
  C  C25  1  0.000000  0.438100  0.947200  1.0  -0.0409
  C  C26  1  0.000000  0.363100  0.872700  1.0  0.6696
  C  C27  1  0.500000  0.938100  0.447200  1.0  -0.0409
  C  C28  1  0.500000  0.863100  0.372700  1.0  0.6696
  C  C29  1  0.000000  0.561900  0.052800  1.0  -0.04
  C  C30  1  0.000000  0.636900  0.127300  1.0  0.6678
  C  C31  1  0.500000  0.061900  0.552800  1.0  -0.04
  C  C32  1  0.500000  0.136900  0.627300  1.0  0.6678
  C  C33  1  0.000000  0.938100  0.052800  1.0  -0.04
  C  C34  1  0.000000  0.863100  0.127300  1.0  0.669
  C  C35  1  0.500000  0.438100  0.552800  1.0  -0.04
  C  C36  1  0.500000  0.363100  0.627300  1.0  0.669
  O  O37  1  0.164670  0.168360  0.842650  1.0  -0.5653
  O  O38  1  0.664670  0.668360  0.342650  1.0  -0.5653
  O  O39  1  0.835330  0.331640  0.842650  1.0  -0.5655
  O  O40  1  0.335330  0.831640  0.342650  1.0  -0.5655
  O  O41  1  0.835330  0.668360  0.157350  1.0  -0.5664
  O  O42  1  0.335330  0.168360  0.657350  1.0  -0.5664
  O  O43  1  0.164670  0.831640  0.157350  1.0  -0.5649
  O  O44  1  0.664670  0.331640  0.657350  1.0  -0.5649
  O  O45  1  0.835330  0.831640  0.157350  1.0  -0.5658
  O  O46  1  0.335330  0.331640  0.657350  1.0  -0.5658
  O  O47  1  0.164670  0.668360  0.157350  1.0  -0.5653
  O  O48  1  0.664670  0.168360  0.657350  1.0  -0.5653
  O  O49  1  0.164670  0.331640  0.842650  1.0  -0.5649
  O  O50  1  0.664670  0.831640  0.342650  1.0  -0.5649
  O  O51  1  0.835330  0.168360  0.842650  1.0  -0.566
  O  O52  1  0.335330  0.668360  0.342650  1.0  -0.566
  O  O53  1  0.000000  0.250000  0.685800  1.0  -0.735
  O  O54  1  0.500000  0.750000  0.185800  1.0  -0.735
  O  O55  1  0.000000  0.750000  0.314200  1.0  -0.7362
  O  O56  1  0.500000  0.250000  0.814200  1.0  -0.7362
