# generated using pymatgen
data_CuH2(C3O2)2
_symmetry_space_group_name_H-M   'P 1'
_cell_length_a   18.61370000
_cell_length_b   18.61370000
_cell_length_c   18.61370000
_cell_angle_alpha   60.00000000
_cell_angle_beta   60.00000000
_cell_angle_gamma   60.00000000
_symmetry_Int_Tables_number   1
_chemical_formula_structural   CuH2(C3O2)2
_chemical_formula_sum   'Cu12 H24 C72 O48'
_cell_volume   4560.19204119
_cell_formula_units_Z   12
loop_
 _symmetry_equiv_pos_site_id
 _symmetry_equiv_pos_as_xyz
  1  'x, y, z'
loop_
 _atom_site_type_symbol
 _atom_site_label
 _atom_site_symmetry_multiplicity
 _atom_site_fract_x
 _atom_site_fract_y
 _atom_site_fract_z
 _atom_site_occupancy
 _atom_site_charge
  Cu  Cu1  1  0.000000  0.569900  0.430100  1.0  0.9022
  Cu  Cu2  1  0.000000  0.000000  0.430100  1.0  0.9013
  Cu  Cu3  1  0.569900  0.000000  0.000000  1.0  0.902
  Cu  Cu4  1  0.430100  0.000000  0.000000  1.0  0.9029
  Cu  Cu5  1  0.000000  0.430100  0.569900  1.0  0.9024
  Cu  Cu6  1  0.430100  0.000000  0.569900  1.0  0.9028
  Cu  Cu7  1  0.000000  0.569900  0.000000  1.0  0.9015
  Cu  Cu8  1  0.000000  0.000000  0.569900  1.0  0.9006
  Cu  Cu9  1  0.000000  0.430100  0.000000  1.0  0.9021
  Cu  Cu10  1  0.430100  0.569900  0.000000  1.0  0.9022
  Cu  Cu11  1  0.569900  0.000000  0.430100  1.0  0.9023
  Cu  Cu12  1  0.569900  0.430100  0.000000  1.0  0.9016
  H  H13  1  0.967000  0.272400  0.272400  1.0  0.1138
  H  H14  1  0.727600  0.727600  0.033000  1.0  0.1137
  H  H15  1  0.511800  0.033000  0.727600  1.0  0.1137
  H  H16  1  0.272400  0.272400  0.488200  1.0  0.1138
  H  H17  1  0.272400  0.967000  0.488200  1.0  0.1137
  H  H18  1  0.033000  0.727600  0.511800  1.0  0.1138
  H  H19  1  0.272400  0.488200  0.272400  1.0  0.1147
  H  H20  1  0.727600  0.511800  0.033000  1.0  0.115
  H  H21  1  0.967000  0.272400  0.488200  1.0  0.114
  H  H22  1  0.033000  0.511800  0.727600  1.0  0.115
  H  H23  1  0.967000  0.488200  0.272400  1.0  0.1145
  H  H24  1  0.727600  0.033000  0.511800  1.0  0.1138
  H  H25  1  0.511800  0.727600  0.033000  1.0  0.1139
  H  H26  1  0.727600  0.727600  0.511800  1.0  0.1136
  H  H27  1  0.272400  0.272400  0.967000  1.0  0.1135
  H  H28  1  0.488200  0.272400  0.272400  1.0  0.1139
  H  H29  1  0.511800  0.727600  0.727600  1.0  0.1138
  H  H30  1  0.488200  0.967000  0.272400  1.0  0.1137
  H  H31  1  0.727600  0.511800  0.727600  1.0  0.1149
  H  H32  1  0.488200  0.272400  0.967000  1.0  0.1139
  H  H33  1  0.033000  0.727600  0.727600  1.0  0.1139
  H  H34  1  0.727600  0.033000  0.727600  1.0  0.1137
  H  H35  1  0.272400  0.967000  0.272400  1.0  0.1136
  H  H36  1  0.272400  0.488200  0.967000  1.0  0.1148
  C  C37  1  0.300950  0.967870  0.300950  1.0  0.0368
  C  C38  1  0.257280  0.387140  0.387140  1.0  -0.1686
  C  C39  1  0.430230  0.300950  0.967870  1.0  0.0384
  C  C40  1  0.568870  0.837670  0.568870  1.0  0.6892
  C  C41  1  0.569770  0.699050  0.032130  1.0  0.038
  C  C42  1  0.431130  0.162330  0.975410  1.0  0.689
  C  C43  1  0.612860  0.612860  0.031560  1.0  -0.1679
  C  C44  1  0.032130  0.699050  0.569770  1.0  0.0369
  C  C45  1  0.568870  0.568870  0.024590  1.0  0.688
  C  C46  1  0.967870  0.300950  0.430230  1.0  0.0373
  C  C47  1  0.430230  0.967870  0.300950  1.0  0.0371
  C  C48  1  0.162330  0.975410  0.431130  1.0  0.6886
  C  C49  1  0.837670  0.568870  0.568870  1.0  0.6882
  C  C50  1  0.968440  0.387140  0.257280  1.0  -0.1681
  C  C51  1  0.300950  0.430230  0.967870  1.0  0.0391
  C  C52  1  0.612860  0.612860  0.742720  1.0  -0.1678
  C  C53  1  0.031560  0.612860  0.612860  1.0  -0.1684
  C  C54  1  0.612860  0.031560  0.742720  1.0  -0.1684
  C  C55  1  0.742720  0.612860  0.031560  1.0  -0.1681
  C  C56  1  0.967870  0.300950  0.300950  1.0  0.0367
  C  C57  1  0.431130  0.431130  0.162330  1.0  0.6885
  C  C58  1  0.387140  0.387140  0.968440  1.0  -0.1679
  C  C59  1  0.612860  0.742720  0.612860  1.0  -0.1675
  C  C60  1  0.568870  0.024590  0.837670  1.0  0.6889
  C  C61  1  0.699050  0.569770  0.032130  1.0  0.039
  C  C62  1  0.568870  0.024590  0.568870  1.0  0.6886
  C  C63  1  0.742720  0.031560  0.612860  1.0  -0.1678
  C  C64  1  0.968440  0.257280  0.387140  1.0  -0.1676
  C  C65  1  0.300950  0.300950  0.967870  1.0  0.0375
  C  C66  1  0.837670  0.024590  0.568870  1.0  0.688
  C  C67  1  0.568870  0.568870  0.837670  1.0  0.6881
  C  C68  1  0.024590  0.568870  0.837670  1.0  0.6897
  C  C69  1  0.257280  0.968440  0.387140  1.0  -0.168
  C  C70  1  0.699050  0.032130  0.699050  1.0  0.0383
  C  C71  1  0.975410  0.162330  0.431130  1.0  0.6893
  C  C72  1  0.162330  0.431130  0.975410  1.0  0.6883
  C  C73  1  0.699050  0.032130  0.569770  1.0  0.0367
  C  C74  1  0.387140  0.968440  0.257280  1.0  -0.168
  C  C75  1  0.031560  0.612860  0.742720  1.0  -0.1686
  C  C76  1  0.300950  0.967870  0.430230  1.0  0.0375
  C  C77  1  0.612860  0.742720  0.031560  1.0  -0.1676
  C  C78  1  0.975410  0.431130  0.431130  1.0  0.6897
  C  C79  1  0.431130  0.975410  0.431130  1.0  0.6895
  C  C80  1  0.742720  0.612860  0.612860  1.0  -0.1679
  C  C81  1  0.430230  0.300950  0.300950  1.0  0.0383
  C  C82  1  0.699050  0.699050  0.569770  1.0  0.0376
  C  C83  1  0.257280  0.387140  0.968440  1.0  -0.1683
  C  C84  1  0.387140  0.257280  0.968440  1.0  -0.168
  C  C85  1  0.300950  0.300950  0.430230  1.0  0.0385
  C  C86  1  0.612860  0.031560  0.612860  1.0  -0.1681
  C  C87  1  0.837670  0.568870  0.024590  1.0  0.6881
  C  C88  1  0.162330  0.431130  0.431130  1.0  0.6882
  C  C89  1  0.387140  0.387140  0.257280  1.0  -0.1679
  C  C90  1  0.431130  0.162330  0.431130  1.0  0.689
  C  C91  1  0.699050  0.699050  0.032130  1.0  0.0381
  C  C92  1  0.032130  0.569770  0.699050  1.0  0.0385
  C  C93  1  0.024590  0.568870  0.568870  1.0  0.6894
  C  C94  1  0.387140  0.968440  0.387140  1.0  -0.1681
  C  C95  1  0.967870  0.430230  0.300950  1.0  0.0393
  C  C96  1  0.699050  0.569770  0.699050  1.0  0.039
  C  C97  1  0.032130  0.699050  0.699050  1.0  0.0381
  C  C98  1  0.387140  0.257280  0.387140  1.0  -0.168
  C  C99  1  0.569770  0.699050  0.699050  1.0  0.038
  C  C100  1  0.568870  0.837670  0.024590  1.0  0.6893
  C  C101  1  0.024590  0.837670  0.568870  1.0  0.6895
  C  C102  1  0.300950  0.430230  0.300950  1.0  0.0391
  C  C103  1  0.569770  0.032130  0.699050  1.0  0.0361
  C  C104  1  0.031560  0.742720  0.612860  1.0  -0.1674
  C  C105  1  0.431130  0.431130  0.975410  1.0  0.6884
  C  C106  1  0.968440  0.387140  0.387140  1.0  -0.1685
  C  C107  1  0.975410  0.431130  0.162330  1.0  0.6895
  C  C108  1  0.431130  0.975410  0.162330  1.0  0.6893
  O  O109  1  0.387520  0.978880  0.507560  1.0  -0.561
  O  O110  1  0.978880  0.507560  0.387520  1.0  -0.5616
  O  O111  1  0.612480  0.021120  0.492440  1.0  -0.5612
  O  O112  1  0.507560  0.387520  0.978880  1.0  -0.5623
  O  O113  1  0.492440  0.021120  0.612480  1.0  -0.5626
  O  O114  1  0.873960  0.492440  0.021120  1.0  -0.5626
  O  O115  1  0.873960  0.021120  0.612480  1.0  -0.5616
  O  O116  1  0.021120  0.492440  0.612480  1.0  -0.5616
  O  O117  1  0.612480  0.873960  0.021120  1.0  -0.562
  O  O118  1  0.978880  0.387520  0.507560  1.0  -0.5618
  O  O119  1  0.492440  0.612480  0.021120  1.0  -0.5621
  O  O120  1  0.507560  0.978880  0.387520  1.0  -0.5621
  O  O121  1  0.612480  0.492440  0.873960  1.0  -0.5629
  O  O122  1  0.021120  0.873960  0.612480  1.0  -0.5616
  O  O123  1  0.612480  0.492440  0.021120  1.0  -0.5622
  O  O124  1  0.492440  0.021120  0.873960  1.0  -0.562
  O  O125  1  0.492440  0.612480  0.873960  1.0  -0.5622
  O  O126  1  0.126040  0.507560  0.978880  1.0  -0.5618
  O  O127  1  0.873960  0.612480  0.492440  1.0  -0.5623
  O  O128  1  0.126040  0.978880  0.507560  1.0  -0.562
  O  O129  1  0.612480  0.021120  0.873960  1.0  -0.5615
  O  O130  1  0.978880  0.126040  0.507560  1.0  -0.5618
  O  O131  1  0.021120  0.492440  0.873960  1.0  -0.5623
  O  O132  1  0.492440  0.873960  0.612480  1.0  -0.5621
  O  O133  1  0.021120  0.612480  0.873960  1.0  -0.5614
  O  O134  1  0.873960  0.612480  0.021120  1.0  -0.562
  O  O135  1  0.126040  0.507560  0.387520  1.0  -0.5617
  O  O136  1  0.492440  0.873960  0.021120  1.0  -0.5617
  O  O137  1  0.387520  0.126040  0.507560  1.0  -0.5621
  O  O138  1  0.387520  0.507560  0.126040  1.0  -0.5623
  O  O139  1  0.387520  0.126040  0.978880  1.0  -0.5618
  O  O140  1  0.126040  0.978880  0.387520  1.0  -0.5618
  O  O141  1  0.978880  0.126040  0.387520  1.0  -0.5614
  O  O142  1  0.126040  0.387520  0.507560  1.0  -0.5619
  O  O143  1  0.507560  0.978880  0.126040  1.0  -0.5621
  O  O144  1  0.126040  0.387520  0.978880  1.0  -0.5618
  O  O145  1  0.387520  0.507560  0.978880  1.0  -0.5624
  O  O146  1  0.387520  0.978880  0.126040  1.0  -0.5611
  O  O147  1  0.507560  0.387520  0.126040  1.0  -0.5622
  O  O148  1  0.873960  0.021120  0.492440  1.0  -0.5611
  O  O149  1  0.507560  0.126040  0.387520  1.0  -0.5615
  O  O150  1  0.978880  0.387520  0.126040  1.0  -0.5622
  O  O151  1  0.612480  0.873960  0.492440  1.0  -0.5626
  O  O152  1  0.507560  0.126040  0.978880  1.0  -0.5615
  O  O153  1  0.021120  0.612480  0.492440  1.0  -0.561
  O  O154  1  0.873960  0.492440  0.612480  1.0  -0.5622
  O  O155  1  0.021120  0.873960  0.492440  1.0  -0.5614
  O  O156  1  0.978880  0.507560  0.126040  1.0  -0.5617
