# generated using pymatgen
data_AlC8O4F
_symmetry_space_group_name_H-M   'P 1'
_cell_length_a   6.55390000
_cell_length_b   16.43900000
_cell_length_c   13.13790000
_cell_angle_alpha   90.00000000
_cell_angle_beta   90.00000000
_cell_angle_gamma   90.54410000
_symmetry_Int_Tables_number   1
_chemical_formula_structural   AlC8O4F
_chemical_formula_sum   'Al4 C32 O16 F4'
_cell_volume   1415.40776949
_cell_formula_units_Z   4
loop_
 _symmetry_equiv_pos_site_id
 _symmetry_equiv_pos_as_xyz
  1  'x, y, z'
loop_
 _atom_site_type_symbol
 _atom_site_label
 _atom_site_symmetry_multiplicity
 _atom_site_fract_x
 _atom_site_fract_y
 _atom_site_fract_z
 _atom_site_occupancy
 _atom_site_charge
  Al  Al1  1  0.250000  0.250000  0.750000  1.0  1.8447
  Al  Al2  1  0.750000  0.250000  0.750000  1.0  1.8447
  Al  Al3  1  0.750000  0.750000  0.250000  1.0  1.8447
  Al  Al4  1  0.250000  0.750000  0.250000  1.0  1.8447
  C  C5  1  0.796900  0.024500  0.950500  1.0  -0.0416
  C  C6  1  0.003700  0.062600  0.945800  1.0  -0.1174
  C  C7  1  0.001400  0.136300  0.866800  1.0  0.6647
  C  C8  1  0.193300  0.540100  0.024400  1.0  -0.0203
  C  C9  1  0.296900  0.524500  0.450500  1.0  -0.0416
  C  C10  1  0.503700  0.562600  0.445800  1.0  -0.1174
  C  C11  1  0.501400  0.636300  0.366800  1.0  0.6647
  C  C12  1  0.693300  0.040100  0.524400  1.0  -0.0203
  C  C13  1  0.203100  0.475500  0.950500  1.0  -0.0421
  C  C14  1  0.996300  0.437400  0.945800  1.0  -0.1175
  C  C15  1  0.998600  0.363700  0.866800  1.0  0.6656
  C  C16  1  0.806700  0.959900  0.024400  1.0  -0.0229
  C  C17  1  0.703100  0.975500  0.450500  1.0  -0.0421
  C  C18  1  0.496300  0.937400  0.445800  1.0  -0.1175
  C  C19  1  0.498600  0.863700  0.366800  1.0  0.6656
  C  C20  1  0.306700  0.459900  0.524400  1.0  -0.0229
  C  C21  1  0.203100  0.975500  0.049500  1.0  -0.0435
  C  C22  1  0.996300  0.937400  0.054200  1.0  -0.1167
  C  C23  1  0.998600  0.863700  0.133200  1.0  0.6669
  C  C24  1  0.806700  0.459900  0.975600  1.0  -0.0222
  C  C25  1  0.703100  0.475500  0.549500  1.0  -0.0435
  C  C26  1  0.496300  0.437400  0.554200  1.0  -0.1167
  C  C27  1  0.498600  0.363700  0.633200  1.0  0.6669
  C  C28  1  0.306700  0.959900  0.475600  1.0  -0.0222
  C  C29  1  0.796900  0.524500  0.049500  1.0  -0.043
  C  C30  1  0.003700  0.562600  0.054200  1.0  -0.1166
  C  C31  1  0.001400  0.636300  0.133200  1.0  0.6652
  C  C32  1  0.193300  0.040100  0.975600  1.0  -0.019
  C  C33  1  0.296900  0.024500  0.549500  1.0  -0.043
  C  C34  1  0.503700  0.062600  0.554200  1.0  -0.1166
  C  C35  1  0.501400  0.136300  0.633200  1.0  0.6652
  C  C36  1  0.693300  0.540100  0.475600  1.0  -0.019
  O  O37  1  0.158700  0.174120  0.853000  1.0  -0.5565
  O  O38  1  0.818700  0.659150  0.165800  1.0  -0.5701
  O  O39  1  0.658700  0.674120  0.353000  1.0  -0.5565
  O  O40  1  0.318700  0.159150  0.665800  1.0  -0.5701
  O  O41  1  0.841300  0.325880  0.853000  1.0  -0.557
  O  O42  1  0.181300  0.840850  0.165800  1.0  -0.5673
  O  O43  1  0.341300  0.825880  0.353000  1.0  -0.557
  O  O44  1  0.681300  0.340850  0.665800  1.0  -0.5673
  O  O45  1  0.841300  0.825880  0.147000  1.0  -0.5568
  O  O46  1  0.181300  0.340850  0.834200  1.0  -0.5679
  O  O47  1  0.341300  0.325880  0.647000  1.0  -0.5568
  O  O48  1  0.681300  0.840850  0.334200  1.0  -0.5679
  O  O49  1  0.158700  0.674120  0.147000  1.0  -0.5564
  O  O50  1  0.818700  0.159150  0.834200  1.0  -0.5705
  O  O51  1  0.658700  0.174120  0.647000  1.0  -0.5564
  O  O52  1  0.318700  0.659150  0.334200  1.0  -0.5705
  F  F53  1  0.000000  0.250000  0.690600  1.0  -0.563
  F  F54  1  0.500000  0.750000  0.190600  1.0  -0.563
  F  F55  1  0.000000  0.750000  0.309400  1.0  -0.5635
  F  F56  1  0.500000  0.250000  0.809400  1.0  -0.5635
