# generated using pymatgen
data_AlC8O4F
_symmetry_space_group_name_H-M   'P 1'
_cell_length_a   6.56800000
_cell_length_b   16.38850000
_cell_length_c   13.16820000
_cell_angle_alpha   90.00000000
_cell_angle_beta   90.00000000
_cell_angle_gamma   90.00000000
_symmetry_Int_Tables_number   1
_chemical_formula_structural   AlC8O4F
_chemical_formula_sum   'Al4 C32 O16 F4'
_cell_volume   1417.42067616
_cell_formula_units_Z   4
loop_
 _symmetry_equiv_pos_site_id
 _symmetry_equiv_pos_as_xyz
  1  'x, y, z'
loop_
 _atom_site_type_symbol
 _atom_site_label
 _atom_site_symmetry_multiplicity
 _atom_site_fract_x
 _atom_site_fract_y
 _atom_site_fract_z
 _atom_site_occupancy
 _atom_site_charge
  Al  Al1  1  0.250000  0.250000  0.750000  1.0  1.8154
  Al  Al2  1  0.750000  0.250000  0.750000  1.0  1.8154
  Al  Al3  1  0.750000  0.750000  0.250000  1.0  1.8154
  Al  Al4  1  0.250000  0.750000  0.250000  1.0  1.8154
  C  C5  1  0.808300  0.027700  0.956600  1.0  -0.0313
  C  C6  1  0.308300  0.527700  0.456600  1.0  -0.0313
  C  C7  1  0.191700  0.472300  0.956600  1.0  -0.0304
  C  C8  1  0.691700  0.972300  0.456600  1.0  -0.0304
  C  C9  1  0.191700  0.527700  0.043400  1.0  -0.0317
  C  C10  1  0.691700  0.027700  0.543400  1.0  -0.0317
  C  C11  1  0.808300  0.972300  0.043400  1.0  -0.0333
  C  C12  1  0.308300  0.472300  0.543400  1.0  -0.0333
  C  C13  1  0.191700  0.972300  0.043400  1.0  -0.032
  C  C14  1  0.691700  0.472300  0.543400  1.0  -0.032
  C  C15  1  0.808300  0.527700  0.043400  1.0  -0.0332
  C  C16  1  0.308300  0.027700  0.543400  1.0  -0.0332
  C  C17  1  0.808300  0.472300  0.956600  1.0  -0.0307
  C  C18  1  0.308300  0.972300  0.456600  1.0  -0.0307
  C  C19  1  0.191700  0.027700  0.956600  1.0  -0.03
  C  C20  1  0.691700  0.527700  0.456600  1.0  -0.03
  C  C21  1  0.000000  0.063700  0.945700  1.0  -0.0215
  C  C22  1  0.000000  0.141100  0.875400  1.0  0.6504
  C  C23  1  0.500000  0.563700  0.445700  1.0  -0.0215
  C  C24  1  0.500000  0.641100  0.375400  1.0  0.6504
  C  C25  1  0.000000  0.436300  0.945700  1.0  -0.023
  C  C26  1  0.000000  0.358900  0.875400  1.0  0.6502
  C  C27  1  0.500000  0.936300  0.445700  1.0  -0.023
  C  C28  1  0.500000  0.858900  0.375400  1.0  0.6502
  C  C29  1  0.000000  0.563700  0.054300  1.0  -0.0213
  C  C30  1  0.000000  0.641100  0.124600  1.0  0.6461
  C  C31  1  0.500000  0.063700  0.554300  1.0  -0.0213
  C  C32  1  0.500000  0.141100  0.624600  1.0  0.6461
  C  C33  1  0.000000  0.936300  0.054300  1.0  -0.0229
  C  C34  1  0.000000  0.858900  0.124600  1.0  0.6467
  C  C35  1  0.500000  0.436300  0.554300  1.0  -0.0229
  C  C36  1  0.500000  0.358900  0.624600  1.0  0.6467
  O  O37  1  0.169200  0.167410  0.838700  1.0  -0.5955
  O  O38  1  0.669200  0.667410  0.338700  1.0  -0.5955
  O  O39  1  0.830800  0.332590  0.838700  1.0  -0.5972
  O  O40  1  0.330800  0.832590  0.338700  1.0  -0.5972
  O  O41  1  0.830800  0.667410  0.161300  1.0  -0.5962
  O  O42  1  0.330800  0.167410  0.661300  1.0  -0.596
  O  O43  1  0.169200  0.832590  0.161300  1.0  -0.5954
  O  O44  1  0.669200  0.332590  0.661300  1.0  -0.5954
  O  O45  1  0.830800  0.832590  0.161300  1.0  -0.5964
  O  O46  1  0.330800  0.332590  0.661300  1.0  -0.5964
  O  O47  1  0.169200  0.667410  0.161300  1.0  -0.5953
  O  O48  1  0.669200  0.167410  0.661300  1.0  -0.5953
  O  O49  1  0.169200  0.332590  0.838700  1.0  -0.5959
  O  O50  1  0.669200  0.832590  0.338700  1.0  -0.596
  O  O51  1  0.830800  0.167410  0.838700  1.0  -0.5961
  O  O52  1  0.330800  0.667410  0.338700  1.0  -0.5961
  F  F53  1  0.000000  0.250000  0.693100  1.0  -0.5569
  F  F54  1  0.500000  0.750000  0.193100  1.0  -0.5569
  F  F55  1  0.000000  0.750000  0.306900  1.0  -0.5581
  F  F56  1  0.500000  0.250000  0.806900  1.0  -0.5581
