# generated using pymatgen
data_AlC8O5
_symmetry_space_group_name_H-M   'P 1'
_cell_length_a   6.62850000
_cell_length_b   16.71210000
_cell_length_c   12.85300000
_cell_angle_alpha   90.00000000
_cell_angle_beta   90.00000000
_cell_angle_gamma   90.00000000
_symmetry_Int_Tables_number   1
_chemical_formula_structural   AlC8O5
_chemical_formula_sum   'Al4 C32 O20'
_cell_volume   1423.80591829
_cell_formula_units_Z   4
loop_
 _symmetry_equiv_pos_site_id
 _symmetry_equiv_pos_as_xyz
  1  'x, y, z'
loop_
 _atom_site_type_symbol
 _atom_site_label
 _atom_site_symmetry_multiplicity
 _atom_site_fract_x
 _atom_site_fract_y
 _atom_site_fract_z
 _atom_site_occupancy
 _atom_site_charge
  Al  Al1  1  0.250000  0.250000  0.750000  1.0  1.8191
  Al  Al2  1  0.750000  0.250000  0.750000  1.0  1.8191
  Al  Al3  1  0.750000  0.750000  0.250000  1.0  1.8191
  Al  Al4  1  0.250000  0.750000  0.250000  1.0  1.8191
  C  C5  1  0.809700  0.035980  0.968200  1.0  -0.0194
  C  C6  1  0.309700  0.535980  0.468200  1.0  -0.0194
  C  C7  1  0.190300  0.464020  0.968200  1.0  -0.0126
  C  C8  1  0.690300  0.964020  0.468200  1.0  -0.0126
  C  C9  1  0.190300  0.535980  0.031800  1.0  -0.0098
  C  C10  1  0.690300  0.035980  0.531800  1.0  -0.0098
  C  C11  1  0.809700  0.964020  0.031800  1.0  -0.0177
  C  C12  1  0.309700  0.464020  0.531800  1.0  -0.0177
  C  C13  1  0.190300  0.964020  0.031800  1.0  -0.011
  C  C14  1  0.690300  0.464020  0.531800  1.0  -0.011
  C  C15  1  0.809700  0.535980  0.031800  1.0  -0.017
  C  C16  1  0.309700  0.035980  0.531800  1.0  -0.0179
  C  C17  1  0.809700  0.464020  0.968200  1.0  -0.0175
  C  C18  1  0.309700  0.964020  0.468200  1.0  -0.0175
  C  C19  1  0.190300  0.035980  0.968200  1.0  -0.0099
  C  C20  1  0.690300  0.535980  0.468200  1.0  -0.0099
  C  C21  1  0.000000  0.062200  0.948200  1.0  -0.0322
  C  C22  1  0.000000  0.135800  0.872200  1.0  0.6746
  C  C23  1  0.500000  0.562200  0.448200  1.0  -0.0322
  C  C24  1  0.500000  0.635800  0.372200  1.0  0.6746
  C  C25  1  0.000000  0.437800  0.948200  1.0  -0.0322
  C  C26  1  0.000000  0.364200  0.872200  1.0  0.6754
  C  C27  1  0.500000  0.937800  0.448200  1.0  -0.0322
  C  C28  1  0.500000  0.864200  0.372200  1.0  0.6754
  C  C29  1  0.000000  0.562200  0.051800  1.0  -0.0314
  C  C30  1  0.000000  0.635800  0.127800  1.0  0.6744
  C  C31  1  0.500000  0.062200  0.551800  1.0  -0.0314
  C  C32  1  0.500000  0.135800  0.627800  1.0  0.6744
  C  C33  1  0.000000  0.937800  0.051800  1.0  -0.0315
  C  C34  1  0.000000  0.864200  0.127800  1.0  0.6752
  C  C35  1  0.500000  0.437800  0.551800  1.0  -0.0315
  C  C36  1  0.500000  0.364200  0.627800  1.0  0.6752
  O  O37  1  0.164960  0.168660  0.842870  1.0  -0.5784
  O  O38  1  0.664960  0.668660  0.342870  1.0  -0.5784
  O  O39  1  0.835040  0.331340  0.842870  1.0  -0.5787
  O  O40  1  0.335040  0.831340  0.342870  1.0  -0.5787
  O  O41  1  0.835040  0.668660  0.157130  1.0  -0.5791
  O  O42  1  0.335040  0.168660  0.657130  1.0  -0.5791
  O  O43  1  0.164960  0.831340  0.157130  1.0  -0.5775
  O  O44  1  0.664960  0.331340  0.657130  1.0  -0.5775
  O  O45  1  0.835040  0.831340  0.157130  1.0  -0.5785
  O  O46  1  0.335040  0.331340  0.657130  1.0  -0.5785
  O  O47  1  0.164960  0.668660  0.157130  1.0  -0.5779
  O  O48  1  0.664960  0.168660  0.657130  1.0  -0.5779
  O  O49  1  0.164960  0.331340  0.842870  1.0  -0.5779
  O  O50  1  0.664960  0.831340  0.342870  1.0  -0.5779
  O  O51  1  0.835040  0.168660  0.842870  1.0  -0.5792
  O  O52  1  0.335040  0.668660  0.342870  1.0  -0.5792
  O  O53  1  0.000000  0.250000  0.685400  1.0  -0.7333
  O  O54  1  0.500000  0.750000  0.185400  1.0  -0.7333
  O  O55  1  0.000000  0.750000  0.314600  1.0  -0.7346
  O  O56  1  0.500000  0.250000  0.814600  1.0  -0.7346
