# generated using pymatgen
data_EuH15C24(NO2)3
_symmetry_space_group_name_H-M   'P 1'
_cell_length_a   13.99200000
_cell_length_b   17.37930000
_cell_length_c   19.34000000
_cell_angle_alpha   97.81640000
_cell_angle_beta   90.00000000
_cell_angle_gamma   113.73800000
_symmetry_Int_Tables_number   1
_chemical_formula_structural   EuH15C24(NO2)3
_chemical_formula_sum   'Eu4 H60 C96 N12 O24'
_cell_volume   4257.26575847
_cell_formula_units_Z   4
loop_
 _symmetry_equiv_pos_site_id
 _symmetry_equiv_pos_as_xyz
  1  'x, y, z'
loop_
 _atom_site_type_symbol
 _atom_site_label
 _atom_site_symmetry_multiplicity
 _atom_site_fract_x
 _atom_site_fract_y
 _atom_site_fract_z
 _atom_site_occupancy
 _atom_site_charge
  Eu  Eu1  1  0.118920  0.120840  0.498840  1.0  2.1036
  Eu  Eu2  1  0.881080  0.879160  0.501160  1.0  2.1058
  Eu  Eu3  1  0.998080  0.879160  0.001160  1.0  2.1056
  Eu  Eu4  1  0.001920  0.120840  0.998840  1.0  2.1041
  H  H5  1  0.830500  0.446800  0.414700  1.0  0.1252
  H  H6  1  0.383700  0.553200  0.085300  1.0  0.1251
  H  H7  1  0.957900  0.232600  0.635500  1.0  0.0839
  H  H8  1  0.427100  0.300400  0.208900  1.0  0.1201
  H  H9  1  0.313300  0.403800  0.048000  1.0  0.1074
  H  H10  1  0.090500  0.403800  0.548000  1.0  0.1075
  H  H11  1  0.553600  0.943600  0.195800  1.0  0.0949
  H  H12  1  0.278600  0.969400  0.837000  1.0  0.1072
  H  H13  1  0.403200  0.535800  0.692800  1.0  0.1098
  H  H14  1  0.262400  0.004000  0.166000  1.0  0.0849
  H  H15  1  0.225200  0.669400  0.618500  1.0  0.2378
  H  H16  1  0.909500  0.596200  0.452000  1.0  0.1073
  H  H17  1  0.662900  0.610400  0.352500  1.0  0.0797
  H  H18  1  0.258400  0.996000  0.334000  1.0  0.0851
  H  H19  1  0.616300  0.446800  0.914700  1.0  0.1251
  H  H20  1  0.690800  0.969400  0.337000  1.0  0.1063
  H  H21  1  0.741600  0.004000  0.666000  1.0  0.0851
  H  H22  1  0.725300  0.767400  0.864500  1.0  0.0834
  H  H23  1  0.443500  0.870200  0.718300  1.0  0.1638
  H  H24  1  0.867400  0.464200  0.807200  1.0  0.1097
  H  H25  1  0.042100  0.767400  0.364500  1.0  0.0833
  H  H26  1  0.573300  0.129800  0.781700  1.0  0.1623
  H  H27  1  0.947500  0.610400  0.852500  1.0  0.0804
  H  H28  1  0.915200  0.178600  0.457900  1.0  0.1086
  H  H29  1  0.721400  0.030600  0.163000  1.0  0.107
  H  H30  1  0.052500  0.389600  0.147500  1.0  0.08
  H  H31  1  0.167400  0.737400  0.578400  1.0  0.1028
  H  H32  1  0.169500  0.553200  0.585300  1.0  0.1254
  H  H33  1  0.736600  0.821400  0.042100  1.0  0.1084
  H  H34  1  0.873300  0.300400  0.708900  1.0  0.1204
  H  H35  1  0.390000  0.943600  0.695800  1.0  0.0957
  H  H36  1  0.355400  0.930800  0.270700  1.0  0.0975
  H  H37  1  0.800000  0.351800  0.774500  1.0  0.2192
  H  H38  1  0.644600  0.069200  0.729300  1.0  0.0954
  H  H39  1  0.337100  0.389600  0.647500  1.0  0.0798
  H  H40  1  0.126700  0.699600  0.291100  1.0  0.1182
  H  H41  1  0.596800  0.464200  0.307200  1.0  0.1095
  H  H42  1  0.132600  0.535800  0.192800  1.0  0.1101
  H  H43  1  0.448200  0.648200  0.725500  1.0  0.2187
  H  H44  1  0.200000  0.648200  0.225500  1.0  0.2186
  H  H45  1  0.686700  0.596200  0.952000  1.0  0.1071
  H  H46  1  0.610000  0.056400  0.304200  1.0  0.0932
  H  H47  1  0.426700  0.870200  0.218300  1.0  0.1641
  H  H48  1  0.555800  0.330600  0.881500  1.0  0.2377
  H  H49  1  0.274700  0.232600  0.135500  1.0  0.084
  H  H50  1  0.084800  0.821400  0.542100  1.0  0.109
  H  H51  1  0.832600  0.262600  0.421600  1.0  0.1025
  H  H52  1  0.424600  0.069200  0.229300  1.0  0.0959
  H  H53  1  0.572900  0.699600  0.791100  1.0  0.1189
  H  H54  1  0.774800  0.330600  0.381500  1.0  0.238
  H  H55  1  0.575400  0.930800  0.770700  1.0  0.0974
  H  H56  1  0.444200  0.669400  0.118500  1.0  0.2381
  H  H57  1  0.263400  0.178600  0.957900  1.0  0.1081
  H  H58  1  0.446400  0.056400  0.804200  1.0  0.095
  H  H59  1  0.737600  0.996000  0.834000  1.0  0.085
  H  H60  1  0.556500  0.129800  0.281700  1.0  0.1626
  H  H61  1  0.430000  0.262600  0.921600  1.0  0.1021
  H  H62  1  0.309200  0.030600  0.663000  1.0  0.1071
  H  H63  1  0.570000  0.737400  0.078400  1.0  0.1034
  H  H64  1  0.551800  0.351800  0.274500  1.0  0.2195
  C  C65  1  0.145500  0.845800  0.573100  1.0  -0.0797
  C  C66  1  0.248800  0.803400  0.274300  1.0  0.0061
  C  C67  1  0.592300  0.920400  0.166000  1.0  -0.1911
  C  C68  1  0.393400  0.102800  0.211900  1.0  -0.174
  C  C69  1  0.301400  0.422800  0.635700  1.0  -0.056
  C  C70  1  0.828000  0.615400  0.907800  1.0  -0.101
  C  C71  1  0.328100  0.920400  0.666000  1.0  -0.1898
  C  C72  1  0.800100  0.482400  0.400000  1.0  -0.0101
  C  C73  1  0.280300  0.832800  0.640700  1.0  -0.0623
  C  C74  1  0.725000  0.569800  0.925100  1.0  -0.0856
  C  C75  1  0.297800  0.064200  0.172700  1.0  -0.0644
  C  C76  1  0.267600  0.551200  0.143700  1.0  -0.0301
  C  C77  1  0.709400  0.102800  0.711900  1.0  -0.1753
  C  C78  1  0.766400  0.064200  0.672700  1.0  -0.0633
  C  C79  1  0.330400  0.778800  0.664500  1.0  0.2487
  C  C80  1  0.464000  0.766600  0.727500  1.0  0.2202
  C  C81  1  0.700300  0.845800  0.073100  1.0  -0.081
  C  C82  1  0.719700  0.167200  0.359300  1.0  -0.0627
  C  C83  1  0.895800  0.199600  0.656000  1.0  -0.0902
  C  C84  1  0.602300  0.796600  0.095200  1.0  -0.1553
  C  C85  1  0.445400  0.196600  0.225700  1.0  0.0069
  C  C86  1  0.856900  0.110600  0.643600  1.0  -0.1432
  C  C87  1  0.143100  0.889400  0.356400  1.0  -0.144
  C  C88  1  0.316400  0.645800  0.168100  1.0  0.2328
  C  C89  1  0.683600  0.354200  0.831900  1.0  0.2327
  C  C90  1  0.233600  0.935800  0.327300  1.0  -0.0615
  C  C91  1  0.742600  0.932800  0.098500  1.0  -0.1304
  C  C92  1  0.682300  0.482400  0.900000  1.0  -0.0132
  C  C93  1  0.397700  0.203400  0.904800  1.0  -0.152
  C  C94  1  0.447500  0.167200  0.859300  1.0  -0.0626
  C  C95  1  0.671900  0.079600  0.334000  1.0  -0.1921
  C  C96  1  0.397100  0.240200  0.198700  1.0  -0.1625
  C  C97  1  0.087300  0.934000  0.398700  1.0  0.7284
  C  C98  1  0.281400  0.971400  0.645900  1.0  -0.0535
  C  C99  1  0.828600  0.709200  0.437600  1.0  0.696
  C  C100  1  0.658900  0.491400  0.336900  1.0  -0.0388
  C  C101  1  0.172000  0.384600  0.092200  1.0  -0.1006
  C  C102  1  0.190200  0.932800  0.598500  1.0  -0.1298
  C  C103  1  0.156900  0.759800  0.301300  1.0  -0.1636
  C  C104  1  0.317700  0.517600  0.100000  1.0  -0.0112
  C  C105  1  0.843100  0.240200  0.698700  1.0  -0.1622
  C  C106  1  0.880600  0.709200  0.937600  1.0  0.6969
  C  C107  1  0.696200  0.800400  0.844000  1.0  -0.0904
  C  C108  1  0.606600  0.897200  0.788100  1.0  -0.1759
  C  C109  1  0.846100  0.990400  0.075400  1.0  0.7159
  C  C110  1  0.716400  0.448800  0.356300  1.0  -0.0298
  C  C111  1  0.275000  0.430200  0.074900  1.0  -0.0846
  C  C112  1  0.153300  0.066000  0.101300  1.0  0.7346
  C  C113  1  0.602900  0.759800  0.801300  1.0  -0.1637
  C  C114  1  0.670600  0.354200  0.331900  1.0  0.2327
  C  C115  1  0.212600  0.384600  0.592200  1.0  -0.0994
  C  C116  1  0.912700  0.066000  0.601300  1.0  0.7266
  C  C117  1  0.329400  0.645800  0.668100  1.0  0.2329
  C  C118  1  0.299700  0.154200  0.926900  1.0  -0.0798
  C  C119  1  0.732400  0.448800  0.856300  1.0  -0.03
  C  C120  1  0.290600  0.897200  0.288100  1.0  -0.1729
  C  C121  1  0.171400  0.290800  0.562400  1.0  0.6984
  C  C122  1  0.746300  0.889400  0.856400  1.0  -0.1442
  C  C123  1  0.551600  0.221200  0.835500  1.0  0.2484
  C  C124  1  0.832500  0.491400  0.836900  1.0  -0.0392
  C  C125  1  0.341100  0.508600  0.663100  1.0  -0.0395
  C  C126  1  0.690000  0.971400  0.145900  1.0  -0.0535
  C  C127  1  0.199900  0.517600  0.600000  1.0  -0.0116
  C  C128  1  0.283600  0.551200  0.643700  1.0  -0.03
  C  C129  1  0.155200  0.430200  0.574900  1.0  -0.0849
  C  C130  1  0.809800  0.067200  0.401500  1.0  -0.1303
  C  C131  1  0.669600  0.221200  0.335500  1.0  0.2489
  C  C132  1  0.104200  0.800400  0.344000  1.0  -0.09
  C  C133  1  0.144300  0.990400  0.575400  1.0  0.7219
  C  C134  1  0.302600  0.766600  0.227500  1.0  0.2197
  C  C135  1  0.536000  0.233400  0.272500  1.0  0.2201
  C  C136  1  0.751200  0.196600  0.725700  1.0  0.0078
  C  C137  1  0.119400  0.290800  0.062400  1.0  0.6968
  C  C138  1  0.718600  0.028600  0.354100  1.0  -0.05
  C  C139  1  0.697400  0.233400  0.772500  1.0  0.2208
  C  C140  1  0.153900  0.009600  0.924600  1.0  0.7219
  C  C141  1  0.702200  0.935800  0.827300  1.0  -0.0606
  C  C142  1  0.855700  0.009600  0.424600  1.0  0.7171
  C  C143  1  0.787400  0.615400  0.407800  1.0  -0.1013
  C  C144  1  0.407700  0.079600  0.834000  1.0  -0.1885
  C  C145  1  0.253700  0.110600  0.143600  1.0  -0.1439
  C  C146  1  0.878600  0.577200  0.864300  1.0  -0.0558
  C  C147  1  0.194300  0.796600  0.595200  1.0  -0.1555
  C  C148  1  0.121400  0.422800  0.135700  1.0  -0.0563
  C  C149  1  0.257400  0.067200  0.901500  1.0  -0.1301
  C  C150  1  0.846700  0.934000  0.898700  1.0  0.7232
  C  C151  1  0.310000  0.028600  0.854100  1.0  -0.0499
  C  C152  1  0.844800  0.569800  0.425100  1.0  -0.0846
  C  C153  1  0.448400  0.778800  0.164500  1.0  0.2496
  C  C154  1  0.554600  0.803400  0.774300  1.0  0.0069
  C  C155  1  0.552500  0.832800  0.140700  1.0  -0.0627
  C  C156  1  0.698600  0.577200  0.364300  1.0  -0.0561
  C  C157  1  0.167500  0.508600  0.163100  1.0  -0.0392
  C  C158  1  0.805700  0.203400  0.404800  1.0  -0.1537
  C  C159  1  0.303800  0.199600  0.156000  1.0  -0.0902
  C  C160  1  0.854500  0.154200  0.426900  1.0  -0.0807
  N  N161  1  0.398500  0.814800  0.205200  1.0  -0.2971
  N  N162  1  0.283700  0.693200  0.645200  1.0  -0.3076
  N  N163  1  0.260200  0.680200  0.210300  1.0  -0.3339
  N  N164  1  0.590500  0.306800  0.854800  1.0  -0.3066
  N  N165  1  0.739800  0.319800  0.789700  1.0  -0.3323
  N  N166  1  0.416300  0.814800  0.705200  1.0  -0.2979
  N  N167  1  0.580000  0.319800  0.289700  1.0  -0.3332
  N  N168  1  0.601500  0.185200  0.794800  1.0  -0.2969
  N  N169  1  0.409500  0.693200  0.145200  1.0  -0.3085
  N  N170  1  0.420000  0.680200  0.710300  1.0  -0.3328
  N  N171  1  0.716300  0.306800  0.354800  1.0  -0.3086
  N  N172  1  0.583700  0.185200  0.294800  1.0  -0.3007
  O  O173  1  0.095700  0.044600  0.949900  1.0  -0.826
  O  O174  1  0.867800  0.067000  0.080000  1.0  -0.6548
  O  O175  1  0.785100  0.751400  0.416800  1.0  -0.6547
  O  O176  1  0.861600  0.989200  0.579200  1.0  -0.7314
  O  O177  1  0.162900  0.260400  0.017300  1.0  -0.6813
  O  O178  1  0.966300  0.751400  0.916800  1.0  -0.656
  O  O179  1  0.051100  0.955400  0.550100  1.0  -0.8259
  O  O180  1  0.003800  0.109800  0.589600  1.0  -0.6857
  O  O181  1  0.097500  0.260400  0.517300  1.0  -0.6818
  O  O182  1  0.837100  0.739600  0.982700  1.0  -0.6825
  O  O183  1  0.894000  0.890200  0.910400  1.0  -0.6852
  O  O184  1  0.948900  0.044600  0.449900  1.0  -0.8253
  O  O185  1  0.138400  0.010800  0.420800  1.0  -0.7315
  O  O186  1  0.872400  0.010800  0.920800  1.0  -0.7319
  O  O187  1  0.902500  0.739600  0.482700  1.0  -0.6831
  O  O188  1  0.904300  0.955400  0.050100  1.0  -0.8246
  O  O189  1  0.132200  0.933000  0.920000  1.0  -0.6568
  O  O190  1  0.996200  0.890200  0.410400  1.0  -0.6844
  O  O191  1  0.214900  0.248600  0.583200  1.0  -0.6525
  O  O192  1  0.033700  0.248600  0.083200  1.0  -0.6516
  O  O193  1  0.199200  0.067000  0.580000  1.0  -0.6539
  O  O194  1  0.106000  0.109800  0.089600  1.0  -0.6845
  O  O195  1  0.800800  0.933000  0.420000  1.0  -0.6569
  O  O196  1  0.127600  0.989200  0.079200  1.0  -0.7309
