# generated using pymatgen
data_AlC8O4F
_symmetry_space_group_name_H-M   'P 1'
_cell_length_a   6.56880000
_cell_length_b   16.38280000
_cell_length_c   13.17230000
_cell_angle_alpha   90.00000000
_cell_angle_beta   90.00000000
_cell_angle_gamma   90.00000000
_symmetry_Int_Tables_number   1
_chemical_formula_structural   AlC8O4F
_chemical_formula_sum   'Al4 C32 O16 F4'
_cell_volume   1417.54149882
_cell_formula_units_Z   4
loop_
 _symmetry_equiv_pos_site_id
 _symmetry_equiv_pos_as_xyz
  1  'x, y, z'
loop_
 _atom_site_type_symbol
 _atom_site_label
 _atom_site_symmetry_multiplicity
 _atom_site_fract_x
 _atom_site_fract_y
 _atom_site_fract_z
 _atom_site_occupancy
 _atom_site_charge
  Al  Al1  1  0.250000  0.250000  0.750000  1.0  1.815
  Al  Al2  1  0.750000  0.250000  0.750000  1.0  1.815
  Al  Al3  1  0.750000  0.750000  0.250000  1.0  1.815
  Al  Al4  1  0.250000  0.750000  0.250000  1.0  1.815
  C  C5  1  0.806400  0.025400  0.954300  1.0  -0.0332
  C  C6  1  0.306400  0.525400  0.454300  1.0  -0.0332
  C  C7  1  0.193600  0.474600  0.954300  1.0  -0.032
  C  C8  1  0.693600  0.974600  0.454300  1.0  -0.032
  C  C9  1  0.193600  0.525400  0.045700  1.0  -0.033
  C  C10  1  0.693600  0.025400  0.545700  1.0  -0.033
  C  C11  1  0.806400  0.974600  0.045700  1.0  -0.0338
  C  C12  1  0.306400  0.474600  0.545700  1.0  -0.0338
  C  C13  1  0.193600  0.974600  0.045700  1.0  -0.0334
  C  C14  1  0.693600  0.474600  0.545700  1.0  -0.0334
  C  C15  1  0.806400  0.525400  0.045700  1.0  -0.0341
  C  C16  1  0.306400  0.025400  0.545700  1.0  -0.0341
  C  C17  1  0.806400  0.474600  0.954300  1.0  -0.0325
  C  C18  1  0.306400  0.974600  0.454300  1.0  -0.0325
  C  C19  1  0.193600  0.025400  0.954300  1.0  -0.0319
  C  C20  1  0.693600  0.525400  0.454300  1.0  -0.0319
  C  C21  1  0.000000  0.064400  0.945100  1.0  -0.0232
  C  C22  1  0.000000  0.139600  0.873300  1.0  0.6718
  C  C23  1  0.500000  0.564400  0.445100  1.0  -0.0172
  C  C24  1  0.500000  0.639600  0.373300  1.0  0.6718
  C  C25  1  0.000000  0.435600  0.945100  1.0  -0.0236
  C  C26  1  0.000000  0.360400  0.873300  1.0  0.6721
  C  C27  1  0.500000  0.935600  0.445100  1.0  -0.0178
  C  C28  1  0.500000  0.860400  0.373300  1.0  0.6721
  C  C29  1  0.000000  0.564400  0.054900  1.0  -0.0242
  C  C30  1  0.000000  0.639600  0.126700  1.0  0.6708
  C  C31  1  0.500000  0.064400  0.554900  1.0  -0.0175
  C  C32  1  0.500000  0.139600  0.626700  1.0  0.6708
  C  C33  1  0.000000  0.935600  0.054900  1.0  -0.0249
  C  C34  1  0.000000  0.860400  0.126700  1.0  0.6716
  C  C35  1  0.500000  0.435600  0.554900  1.0  -0.0185
  C  C36  1  0.500000  0.360400  0.626700  1.0  0.6716
  O  O37  1  0.169300  0.168380  0.839850  1.0  -0.6084
  O  O38  1  0.669300  0.668380  0.339850  1.0  -0.6085
  O  O39  1  0.830700  0.331620  0.839850  1.0  -0.6097
  O  O40  1  0.330700  0.831620  0.339850  1.0  -0.6097
  O  O41  1  0.830700  0.668380  0.160150  1.0  -0.6087
  O  O42  1  0.330700  0.168380  0.660150  1.0  -0.6084
  O  O43  1  0.169300  0.831620  0.160150  1.0  -0.608
  O  O44  1  0.669300  0.331620  0.660150  1.0  -0.608
  O  O45  1  0.830700  0.831620  0.160150  1.0  -0.6092
  O  O46  1  0.330700  0.331620  0.660150  1.0  -0.6091
  O  O47  1  0.169300  0.668380  0.160150  1.0  -0.6082
  O  O48  1  0.669300  0.168380  0.660150  1.0  -0.6082
  O  O49  1  0.169300  0.331620  0.839850  1.0  -0.6085
  O  O50  1  0.669300  0.831620  0.339850  1.0  -0.609
  O  O51  1  0.830700  0.168380  0.839850  1.0  -0.6086
  O  O52  1  0.330700  0.668380  0.339850  1.0  -0.6086
  F  F53  1  0.000000  0.250000  0.690900  1.0  -0.549
  F  F54  1  0.500000  0.750000  0.190900  1.0  -0.549
  F  F55  1  0.000000  0.750000  0.309100  1.0  -0.5506
  F  F56  1  0.500000  0.250000  0.809100  1.0  -0.5506
