# generated using pymatgen
data_AlC8O4F
_symmetry_space_group_name_H-M   'P 1'
_cell_length_a   6.56810000
_cell_length_b   16.39280000
_cell_length_c   13.19950000
_cell_angle_alpha   90.00000000
_cell_angle_beta   90.00000000
_cell_angle_gamma   90.00000000
_symmetry_Int_Tables_number   1
_chemical_formula_structural   AlC8O4F
_chemical_formula_sum   'Al4 C32 O16 F4'
_cell_volume   1421.18422100
_cell_formula_units_Z   4
loop_
 _symmetry_equiv_pos_site_id
 _symmetry_equiv_pos_as_xyz
  1  'x, y, z'
loop_
 _atom_site_type_symbol
 _atom_site_label
 _atom_site_symmetry_multiplicity
 _atom_site_fract_x
 _atom_site_fract_y
 _atom_site_fract_z
 _atom_site_occupancy
 _atom_site_charge
  Al  Al1  1  0.250000  0.250000  0.750000  1.0  1.8305
  Al  Al2  1  0.750000  0.250000  0.750000  1.0  1.8305
  Al  Al3  1  0.750000  0.750000  0.250000  1.0  1.8305
  Al  Al4  1  0.250000  0.750000  0.250000  1.0  1.8305
  C  C5  1  0.804800  0.029900  0.957700  1.0  -0.0418
  C  C6  1  0.304800  0.529900  0.457700  1.0  -0.0418
  C  C7  1  0.195200  0.470100  0.957700  1.0  -0.04
  C  C8  1  0.695200  0.970100  0.457700  1.0  -0.04
  C  C9  1  0.195200  0.529900  0.042300  1.0  -0.042
  C  C10  1  0.695200  0.029900  0.542300  1.0  -0.042
  C  C11  1  0.804800  0.970100  0.042300  1.0  -0.0428
  C  C12  1  0.304800  0.470100  0.542300  1.0  -0.0428
  C  C13  1  0.195200  0.970100  0.042300  1.0  -0.042
  C  C14  1  0.695200  0.470100  0.542300  1.0  -0.04
  C  C15  1  0.804800  0.529900  0.042300  1.0  -0.0414
  C  C16  1  0.304800  0.029900  0.542300  1.0  -0.0434
  C  C17  1  0.804800  0.470100  0.957700  1.0  -0.0413
  C  C18  1  0.304800  0.970100  0.457700  1.0  -0.0413
  C  C19  1  0.195200  0.029900  0.957700  1.0  -0.0404
  C  C20  1  0.695200  0.529900  0.457700  1.0  -0.0404
  C  C21  1  0.000000  0.062500  0.947900  1.0  -0.0269
  C  C22  1  0.000000  0.135100  0.869800  1.0  0.6585
  C  C23  1  0.500000  0.562500  0.447900  1.0  -0.0269
  C  C24  1  0.500000  0.635100  0.369800  1.0  0.6585
  C  C25  1  0.000000  0.437500  0.947900  1.0  -0.0276
  C  C26  1  0.000000  0.364900  0.869800  1.0  0.6589
  C  C27  1  0.500000  0.937500  0.447900  1.0  -0.0276
  C  C28  1  0.500000  0.864900  0.369800  1.0  0.6589
  C  C29  1  0.000000  0.562500  0.052100  1.0  -0.0265
  C  C30  1  0.000000  0.635100  0.130200  1.0  0.6584
  C  C31  1  0.500000  0.062500  0.552100  1.0  -0.0265
  C  C32  1  0.500000  0.135100  0.630200  1.0  0.6584
  C  C33  1  0.000000  0.937500  0.052100  1.0  -0.0275
  C  C34  1  0.000000  0.864900  0.130200  1.0  0.6587
  C  C35  1  0.500000  0.437500  0.552100  1.0  -0.0275
  C  C36  1  0.500000  0.364900  0.630200  1.0  0.6587
  O  O37  1  0.167100  0.168830  0.839960  1.0  -0.5948
  O  O38  1  0.667100  0.668830  0.339960  1.0  -0.5948
  O  O39  1  0.832900  0.331170  0.839960  1.0  -0.5963
  O  O40  1  0.332900  0.831170  0.339960  1.0  -0.5963
  O  O41  1  0.832900  0.668830  0.160040  1.0  -0.5967
  O  O42  1  0.332900  0.168830  0.660040  1.0  -0.5967
  O  O43  1  0.167100  0.831170  0.160040  1.0  -0.5952
  O  O44  1  0.667100  0.331170  0.660040  1.0  -0.5952
  O  O45  1  0.832900  0.831170  0.160040  1.0  -0.5965
  O  O46  1  0.332900  0.331170  0.660040  1.0  -0.5965
  O  O47  1  0.167100  0.668830  0.160040  1.0  -0.5951
  O  O48  1  0.667100  0.168830  0.660040  1.0  -0.5951
  O  O49  1  0.167100  0.331170  0.839960  1.0  -0.5952
  O  O50  1  0.667100  0.831170  0.339960  1.0  -0.5952
  O  O51  1  0.832900  0.168830  0.839960  1.0  -0.5962
  O  O52  1  0.332900  0.668830  0.339960  1.0  -0.5962
  F  F53  1  0.000000  0.250000  0.692400  1.0  -0.5447
  F  F54  1  0.500000  0.750000  0.192400  1.0  -0.5447
  F  F55  1  0.000000  0.750000  0.307600  1.0  -0.5448
  F  F56  1  0.500000  0.250000  0.807600  1.0  -0.5448
