# generated using pymatgen
data_CuH2(C3O2)2
_symmetry_space_group_name_H-M   'P 1'
_cell_length_a   18.56140000
_cell_length_b   18.56140000
_cell_length_c   18.56140000
_cell_angle_alpha   60.00000000
_cell_angle_beta   60.00000000
_cell_angle_gamma   60.00000000
_symmetry_Int_Tables_number   1
_chemical_formula_structural   CuH2(C3O2)2
_chemical_formula_sum   'Cu12 H24 C72 O48'
_cell_volume   4521.86083092
_cell_formula_units_Z   12
loop_
 _symmetry_equiv_pos_site_id
 _symmetry_equiv_pos_as_xyz
  1  'x, y, z'
loop_
 _atom_site_type_symbol
 _atom_site_label
 _atom_site_symmetry_multiplicity
 _atom_site_fract_x
 _atom_site_fract_y
 _atom_site_fract_z
 _atom_site_occupancy
 _atom_site_charge
  Cu  Cu1  1  0.000000  0.000000  0.431040  1.0  0.9085
  Cu  Cu2  1  0.431040  0.000000  0.000000  1.0  0.91
  Cu  Cu3  1  0.568960  0.000000  0.000000  1.0  0.9088
  Cu  Cu4  1  0.000000  0.431040  0.568960  1.0  0.9087
  Cu  Cu5  1  0.000000  0.000000  0.568960  1.0  0.9077
  Cu  Cu6  1  0.000000  0.568960  0.431040  1.0  0.9094
  Cu  Cu7  1  0.568960  0.431040  0.000000  1.0  0.9081
  Cu  Cu8  1  0.000000  0.431040  0.000000  1.0  0.9085
  Cu  Cu9  1  0.568960  0.000000  0.431040  1.0  0.9092
  Cu  Cu10  1  0.431040  0.568960  0.000000  1.0  0.9093
  Cu  Cu11  1  0.000000  0.568960  0.000000  1.0  0.9085
  Cu  Cu12  1  0.431040  0.000000  0.568960  1.0  0.9098
  H  H13  1  0.273200  0.488800  0.273200  1.0  0.1166
  H  H14  1  0.726800  0.035200  0.511200  1.0  0.115
  H  H15  1  0.488800  0.964800  0.273200  1.0  0.1151
  H  H16  1  0.964800  0.273200  0.488800  1.0  0.1154
  H  H17  1  0.273200  0.964800  0.488800  1.0  0.115
  H  H18  1  0.273200  0.273200  0.964800  1.0  0.1147
  H  H19  1  0.964800  0.488800  0.273200  1.0  0.1163
  H  H20  1  0.964800  0.273200  0.273200  1.0  0.1149
  H  H21  1  0.488800  0.273200  0.273200  1.0  0.1152
  H  H22  1  0.035200  0.726800  0.511200  1.0  0.1152
  H  H23  1  0.273200  0.488800  0.964800  1.0  0.1165
  H  H24  1  0.035200  0.511200  0.726800  1.0  0.1164
  H  H25  1  0.726800  0.511200  0.035200  1.0  0.1166
  H  H26  1  0.726800  0.035200  0.726800  1.0  0.1151
  H  H27  1  0.726800  0.511200  0.726800  1.0  0.1165
  H  H28  1  0.511200  0.035200  0.726800  1.0  0.1146
  H  H29  1  0.511200  0.726800  0.726800  1.0  0.1151
  H  H30  1  0.273200  0.273200  0.488800  1.0  0.1155
  H  H31  1  0.488800  0.273200  0.964800  1.0  0.1154
  H  H32  1  0.726800  0.726800  0.035200  1.0  0.1152
  H  H33  1  0.273200  0.964800  0.273200  1.0  0.1147
  H  H34  1  0.726800  0.726800  0.511200  1.0  0.1147
  H  H35  1  0.035200  0.726800  0.726800  1.0  0.1153
  H  H36  1  0.511200  0.726800  0.035200  1.0  0.1154
  C  C37  1  0.301800  0.430580  0.301800  1.0  0.035
  C  C38  1  0.698200  0.569420  0.034180  1.0  0.0361
  C  C39  1  0.025760  0.568500  0.568500  1.0  0.6842
  C  C40  1  0.258250  0.387530  0.387530  1.0  -0.1605
  C  C41  1  0.431500  0.431500  0.974240  1.0  0.6835
  C  C42  1  0.741750  0.033310  0.612470  1.0  -0.1591
  C  C43  1  0.431500  0.974240  0.162760  1.0  0.6844
  C  C44  1  0.430580  0.301800  0.965820  1.0  0.035
  C  C45  1  0.033310  0.741750  0.612470  1.0  -0.1601
  C  C46  1  0.698200  0.698200  0.569420  1.0  0.0347
  C  C47  1  0.612470  0.741750  0.033310  1.0  -0.16
  C  C48  1  0.612470  0.612470  0.741750  1.0  -0.1606
  C  C49  1  0.698200  0.569420  0.698200  1.0  0.036
  C  C50  1  0.569420  0.698200  0.034180  1.0  0.0344
  C  C51  1  0.698200  0.034180  0.569420  1.0  0.0349
  C  C52  1  0.569420  0.034180  0.698200  1.0  0.0333
  C  C53  1  0.965820  0.301800  0.301800  1.0  0.0348
  C  C54  1  0.033310  0.612470  0.612470  1.0  -0.1604
  C  C55  1  0.965820  0.430580  0.301800  1.0  0.0354
  C  C56  1  0.387530  0.258250  0.966690  1.0  -0.1605
  C  C57  1  0.258250  0.966690  0.387530  1.0  -0.16
  C  C58  1  0.741750  0.612470  0.612470  1.0  -0.16
  C  C59  1  0.612470  0.612470  0.033310  1.0  -0.1609
  C  C60  1  0.387530  0.387530  0.258250  1.0  -0.16
  C  C61  1  0.430580  0.301800  0.301800  1.0  0.0348
  C  C62  1  0.387530  0.387530  0.966690  1.0  -0.16
  C  C63  1  0.966690  0.258250  0.387530  1.0  -0.1605
  C  C64  1  0.033310  0.612470  0.741750  1.0  -0.1604
  C  C65  1  0.301800  0.301800  0.430580  1.0  0.0347
  C  C66  1  0.837240  0.025760  0.568500  1.0  0.6831
  C  C67  1  0.569420  0.698200  0.698200  1.0  0.0342
  C  C68  1  0.965820  0.301800  0.430580  1.0  0.0346
  C  C69  1  0.387530  0.966690  0.387530  1.0  -0.1601
  C  C70  1  0.974240  0.431500  0.162760  1.0  0.6844
  C  C71  1  0.837240  0.568500  0.568500  1.0  0.6834
  C  C72  1  0.258250  0.387530  0.966690  1.0  -0.1604
  C  C73  1  0.974240  0.162760  0.431500  1.0  0.6844
  C  C74  1  0.162760  0.974240  0.431500  1.0  0.6834
  C  C75  1  0.431500  0.162760  0.974240  1.0  0.6841
  C  C76  1  0.025760  0.568500  0.837240  1.0  0.6842
  C  C77  1  0.698200  0.034180  0.698200  1.0  0.0354
  C  C78  1  0.741750  0.612470  0.033310  1.0  -0.1599
  C  C79  1  0.568500  0.837240  0.568500  1.0  0.6839
  C  C80  1  0.568500  0.837240  0.025760  1.0  0.6839
  C  C81  1  0.301800  0.965820  0.301800  1.0  0.0349
  C  C82  1  0.387530  0.258250  0.387530  1.0  -0.1603
  C  C83  1  0.387530  0.966690  0.258250  1.0  -0.1601
  C  C84  1  0.568500  0.568500  0.837240  1.0  0.6832
  C  C85  1  0.966690  0.387530  0.258250  1.0  -0.1605
  C  C86  1  0.034180  0.698200  0.698200  1.0  0.0355
  C  C87  1  0.612470  0.033310  0.741750  1.0  -0.1602
  C  C88  1  0.034180  0.569420  0.698200  1.0  0.0354
  C  C89  1  0.974240  0.431500  0.431500  1.0  0.6844
  C  C90  1  0.301800  0.965820  0.430580  1.0  0.0344
  C  C91  1  0.430580  0.965820  0.301800  1.0  0.0346
  C  C92  1  0.431500  0.431500  0.162760  1.0  0.6836
  C  C93  1  0.431500  0.162760  0.431500  1.0  0.6841
  C  C94  1  0.698200  0.698200  0.034180  1.0  0.0349
  C  C95  1  0.612470  0.033310  0.612470  1.0  -0.1601
  C  C96  1  0.431500  0.974240  0.431500  1.0  0.6843
  C  C97  1  0.568500  0.568500  0.025760  1.0  0.6832
  C  C98  1  0.301800  0.301800  0.965820  1.0  0.034
  C  C99  1  0.301800  0.430580  0.965820  1.0  0.0352
  C  C100  1  0.837240  0.568500  0.025760  1.0  0.6834
  C  C101  1  0.034180  0.698200  0.569420  1.0  0.0348
  C  C102  1  0.162760  0.431500  0.974240  1.0  0.6831
  C  C103  1  0.568500  0.025760  0.568500  1.0  0.6837
  C  C104  1  0.612470  0.741750  0.612470  1.0  -0.16
  C  C105  1  0.568500  0.025760  0.837240  1.0  0.6838
  C  C106  1  0.966690  0.387530  0.387530  1.0  -0.1607
  C  C107  1  0.162760  0.431500  0.431500  1.0  0.683
  C  C108  1  0.025760  0.837240  0.568500  1.0  0.6841
  O  O109  1  0.492060  0.874320  0.020960  1.0  -0.5646
  O  O110  1  0.874320  0.612660  0.492060  1.0  -0.563
  O  O111  1  0.125680  0.387340  0.979040  1.0  -0.564
  O  O112  1  0.387340  0.507940  0.125680  1.0  -0.5646
  O  O113  1  0.612660  0.874320  0.020960  1.0  -0.5638
  O  O114  1  0.612660  0.020960  0.492060  1.0  -0.5637
  O  O115  1  0.874320  0.612660  0.020960  1.0  -0.5636
  O  O116  1  0.979040  0.507940  0.387340  1.0  -0.5638
  O  O117  1  0.387340  0.125680  0.507940  1.0  -0.5642
  O  O118  1  0.125680  0.979040  0.507940  1.0  -0.5636
  O  O119  1  0.612660  0.874320  0.492060  1.0  -0.5643
  O  O120  1  0.507940  0.387340  0.125680  1.0  -0.5649
  O  O121  1  0.387340  0.507940  0.979040  1.0  -0.5646
  O  O122  1  0.507940  0.979040  0.125680  1.0  -0.5644
  O  O123  1  0.492060  0.612660  0.874320  1.0  -0.5652
  O  O124  1  0.387340  0.979040  0.507940  1.0  -0.5641
  O  O125  1  0.874320  0.492060  0.020960  1.0  -0.5649
  O  O126  1  0.979040  0.387340  0.125680  1.0  -0.5645
  O  O127  1  0.874320  0.020960  0.612660  1.0  -0.563
  O  O128  1  0.492060  0.874320  0.612660  1.0  -0.5643
  O  O129  1  0.020960  0.874320  0.492060  1.0  -0.5637
  O  O130  1  0.125680  0.507940  0.387340  1.0  -0.5646
  O  O131  1  0.874320  0.492060  0.612660  1.0  -0.5646
  O  O132  1  0.507940  0.125680  0.979040  1.0  -0.5639
  O  O133  1  0.874320  0.020960  0.492060  1.0  -0.5634
  O  O134  1  0.492060  0.612660  0.020960  1.0  -0.565
  O  O135  1  0.020960  0.612660  0.492060  1.0  -0.5644
  O  O136  1  0.387340  0.979040  0.125680  1.0  -0.5641
  O  O137  1  0.020960  0.612660  0.874320  1.0  -0.5643
  O  O138  1  0.507940  0.387340  0.979040  1.0  -0.5649
  O  O139  1  0.020960  0.492060  0.874320  1.0  -0.5639
  O  O140  1  0.612660  0.492060  0.874320  1.0  -0.5649
  O  O141  1  0.492060  0.020960  0.874320  1.0  -0.5641
  O  O142  1  0.979040  0.125680  0.507940  1.0  -0.5633
  O  O143  1  0.125680  0.507940  0.979040  1.0  -0.5643
  O  O144  1  0.492060  0.020960  0.612660  1.0  -0.5645
  O  O145  1  0.612660  0.020960  0.874320  1.0  -0.5637
  O  O146  1  0.979040  0.125680  0.387340  1.0  -0.5632
  O  O147  1  0.507940  0.979040  0.387340  1.0  -0.5644
  O  O148  1  0.020960  0.874320  0.612660  1.0  -0.5637
  O  O149  1  0.020960  0.492060  0.612660  1.0  -0.5641
  O  O150  1  0.125680  0.387340  0.507940  1.0  -0.5637
  O  O151  1  0.979040  0.387340  0.507940  1.0  -0.5642
  O  O152  1  0.612660  0.492060  0.020960  1.0  -0.5649
  O  O153  1  0.979040  0.507940  0.125680  1.0  -0.5637
  O  O154  1  0.125680  0.979040  0.387340  1.0  -0.5641
  O  O155  1  0.507940  0.125680  0.387340  1.0  -0.5643
  O  O156  1  0.387340  0.125680  0.979040  1.0  -0.5643
