# generated using pymatgen
data_AlC8O5
_symmetry_space_group_name_H-M   'P 1'
_cell_length_a   6.62930000
_cell_length_b   16.75150000
_cell_length_c   12.80190000
_cell_angle_alpha   90.00000000
_cell_angle_beta   90.00000000
_cell_angle_gamma   90.00000000
_symmetry_Int_Tables_number   1
_chemical_formula_structural   AlC8O5
_chemical_formula_sum   'Al4 C32 O20'
_cell_volume   1421.66019893
_cell_formula_units_Z   4
loop_
 _symmetry_equiv_pos_site_id
 _symmetry_equiv_pos_as_xyz
  1  'x, y, z'
loop_
 _atom_site_type_symbol
 _atom_site_label
 _atom_site_symmetry_multiplicity
 _atom_site_fract_x
 _atom_site_fract_y
 _atom_site_fract_z
 _atom_site_occupancy
 _atom_site_charge
  Al  Al1  1  0.250000  0.250000  0.750000  1.0  1.8106
  Al  Al2  1  0.750000  0.250000  0.750000  1.0  1.8106
  Al  Al3  1  0.750000  0.750000  0.250000  1.0  1.8106
  Al  Al4  1  0.250000  0.750000  0.250000  1.0  1.8106
  C  C5  1  0.807900  0.034560  0.966800  1.0  -0.0128
  C  C6  1  0.307900  0.534560  0.466800  1.0  -0.0128
  C  C7  1  0.192100  0.465440  0.966800  1.0  -0.0113
  C  C8  1  0.692100  0.965440  0.466800  1.0  -0.0113
  C  C9  1  0.192100  0.534560  0.033200  1.0  -0.0098
  C  C10  1  0.692100  0.034560  0.533200  1.0  -0.0098
  C  C11  1  0.807900  0.965440  0.033200  1.0  -0.0119
  C  C12  1  0.307900  0.465440  0.533200  1.0  -0.0119
  C  C13  1  0.192100  0.965440  0.033200  1.0  -0.0101
  C  C14  1  0.692100  0.465440  0.533200  1.0  -0.0101
  C  C15  1  0.807900  0.534560  0.033200  1.0  -0.0117
  C  C16  1  0.307900  0.034560  0.533200  1.0  -0.0123
  C  C17  1  0.807900  0.465440  0.966800  1.0  -0.0129
  C  C18  1  0.307900  0.965440  0.466800  1.0  -0.0129
  C  C19  1  0.192100  0.034560  0.966800  1.0  -0.0113
  C  C20  1  0.692100  0.534560  0.466800  1.0  -0.0113
  C  C21  1  0.000000  0.062600  0.945700  1.0  -0.0348
  C  C22  1  0.000000  0.138600  0.870200  1.0  0.7063
  C  C23  1  0.500000  0.562600  0.445700  1.0  -0.0348
  C  C24  1  0.500000  0.638600  0.370200  1.0  0.7063
  C  C25  1  0.000000  0.437400  0.945700  1.0  -0.035
  C  C26  1  0.000000  0.361400  0.870200  1.0  0.707
  C  C27  1  0.500000  0.937400  0.445700  1.0  -0.035
  C  C28  1  0.500000  0.861400  0.370200  1.0  0.707
  C  C29  1  0.000000  0.562600  0.054300  1.0  -0.0335
  C  C30  1  0.000000  0.638600  0.129800  1.0  0.7068
  C  C31  1  0.500000  0.062600  0.554300  1.0  -0.0335
  C  C32  1  0.500000  0.138600  0.629800  1.0  0.7068
  C  C33  1  0.000000  0.937400  0.054300  1.0  -0.0344
  C  C34  1  0.000000  0.861400  0.129800  1.0  0.7072
  C  C35  1  0.500000  0.437400  0.554300  1.0  -0.0344
  C  C36  1  0.500000  0.361400  0.629800  1.0  0.7072
  O  O37  1  0.166060  0.167800  0.843800  1.0  -0.5945
  O  O38  1  0.666060  0.667800  0.343800  1.0  -0.5945
  O  O39  1  0.833940  0.332200  0.843800  1.0  -0.5946
  O  O40  1  0.333940  0.832200  0.343800  1.0  -0.5946
  O  O41  1  0.833940  0.667800  0.156200  1.0  -0.5951
  O  O42  1  0.333940  0.167800  0.656200  1.0  -0.5951
  O  O43  1  0.166060  0.832200  0.156200  1.0  -0.5944
  O  O44  1  0.666060  0.332200  0.656200  1.0  -0.5944
  O  O45  1  0.833940  0.832200  0.156200  1.0  -0.5947
  O  O46  1  0.333940  0.332200  0.656200  1.0  -0.5947
  O  O47  1  0.166060  0.667800  0.156200  1.0  -0.5944
  O  O48  1  0.666060  0.167800  0.656200  1.0  -0.5944
  O  O49  1  0.166060  0.332200  0.843800  1.0  -0.5945
  O  O50  1  0.666060  0.832200  0.343800  1.0  -0.5945
  O  O51  1  0.833940  0.167800  0.843800  1.0  -0.595
  O  O52  1  0.333940  0.667800  0.343800  1.0  -0.595
  O  O53  1  0.000000  0.250000  0.684500  1.0  -0.7301
  O  O54  1  0.500000  0.750000  0.184500  1.0  -0.7301
  O  O55  1  0.000000  0.750000  0.315500  1.0  -0.7315
  O  O56  1  0.500000  0.250000  0.815500  1.0  -0.7315
