# generated using pymatgen
data_AlH5C8O5
_symmetry_space_group_name_H-M   'P 1'
_cell_length_a   13.34130000
_cell_length_b   16.83360000
_cell_length_c   12.97300000
_cell_angle_alpha   90.00000000
_cell_angle_beta   90.00000000
_cell_angle_gamma   90.00000000
_symmetry_Int_Tables_number   1
_chemical_formula_structural   AlH5C8O5
_chemical_formula_sum   'Al8 H40 C64 O40'
_cell_volume   2913.50368293
_cell_formula_units_Z   8
loop_
 _symmetry_equiv_pos_site_id
 _symmetry_equiv_pos_as_xyz
  1  'x, y, z'
loop_
 _atom_site_type_symbol
 _atom_site_label
 _atom_site_symmetry_multiplicity
 _atom_site_fract_x
 _atom_site_fract_y
 _atom_site_fract_z
 _atom_site_occupancy
 _atom_site_charge
  Al  Al1  1  0.124950  0.249060  0.748000  1.0  1.7508
  Al  Al2  1  0.374610  0.752130  0.247210  1.0  1.7737
  Al  Al3  1  0.375110  0.248840  0.747040  1.0  1.772
  Al  Al4  1  0.124630  0.750470  0.247310  1.0  1.7737
  Al  Al5  1  0.625030  0.249000  0.748200  1.0  1.7738
  Al  Al6  1  0.874730  0.748790  0.247740  1.0  1.7735
  Al  Al7  1  0.874880  0.249210  0.746580  1.0  1.7606
  Al  Al8  1  0.624710  0.750480  0.247500  1.0  1.7809
  H  H9  1  0.410280  0.451770  0.574920  1.0  0.0986
  H  H10  1  0.409920  0.573650  0.463710  1.0  0.1004
  H  H11  1  0.091930  0.550860  0.422320  1.0  0.1018
  H  H12  1  0.092240  0.428570  0.533240  1.0  0.1054
  H  H13  1  0.407540  0.072300  0.534840  1.0  0.0986
  H  H14  1  0.089000  0.050690  0.572530  1.0  0.102
  H  H15  1  0.157090  0.070730  0.958130  1.0  0.1065
  H  H16  1  0.344480  0.925080  0.032110  1.0  0.1083
  H  H17  1  0.157480  0.948790  0.070390  1.0  0.0999
  H  H18  1  0.341520  0.046490  0.918840  1.0  0.0972
  H  H19  1  0.342140  0.423740  0.967090  1.0  0.1001
  H  H20  1  0.159930  0.450160  0.922250  1.0  0.0987
  H  H21  1  0.089190  0.929700  0.459120  1.0  0.105
  H  H22  1  0.407910  0.951020  0.421320  1.0  0.1014
  H  H23  1  0.159660  0.571420  0.034650  1.0  0.1045
  H  H24  1  0.339430  0.545590  0.078370  1.0  0.0985
  H  H25  1  0.907200  0.454380  0.576610  1.0  0.0967
  H  H26  1  0.904350  0.576010  0.464220  1.0  0.103
  H  H27  1  0.588970  0.543240  0.413430  1.0  0.0952
  H  H28  1  0.591750  0.421880  0.525670  1.0  0.101
  H  H29  1  0.907350  0.075520  0.531660  1.0  0.1079
  H  H30  1  0.591190  0.044830  0.578800  1.0  0.0945
  H  H31  1  0.657790  0.077200  0.965240  1.0  0.0975
  H  H32  1  0.838980  0.927110  0.031540  1.0  0.1022
  H  H33  1  0.660810  0.956190  0.078800  1.0  0.0977
  H  H34  1  0.838690  0.048700  0.919330  1.0  0.0972
  H  H35  1  0.841890  0.426780  0.963780  1.0  0.1039
  H  H36  1  0.657650  0.455860  0.916140  1.0  0.1003
  H  H37  1  0.594110  0.922960  0.466440  1.0  0.1011
  H  H38  1  0.910270  0.954000  0.419090  1.0  0.0978
  H  H39  1  0.654790  0.577980  0.027570  1.0  0.1026
  H  H40  1  0.841600  0.548440  0.075910  1.0  0.1027
  H  H41  1  0.249660  0.724050  0.118160  1.0  0.4027
  H  H42  1  0.750600  0.776840  0.118680  1.0  0.3919
  H  H43  1  0.498830  0.725510  0.377250  1.0  0.4057
  H  H44  1  0.999790  0.778230  0.375660  1.0  0.4445
  H  H45  1  0.250740  0.273140  0.878950  1.0  0.3822
  H  H46  1  0.750980  0.276240  0.877640  1.0  0.3971
  H  H47  1  0.500880  0.273470  0.616320  1.0  0.3962
  H  H48  1  0.000820  0.275940  0.616940  1.0  0.3871
  C  C49  1  0.410830  0.026040  0.954390  1.0  -0.0947
  C  C50  1  0.997830  0.066710  0.932690  1.0  -0.1002
  C  C51  1  0.497730  0.140270  0.867930  1.0  0.7009
  C  C52  1  0.090540  0.539290  0.018760  1.0  -0.0989
  C  C53  1  0.161100  0.528490  0.456190  1.0  -0.1122
  C  C54  1  0.250850  0.569330  0.436530  1.0  -0.0919
  C  C55  1  0.249820  0.641820  0.369670  1.0  0.6982
  C  C56  1  0.338460  0.040460  0.517610  1.0  -0.084
  C  C57  1  0.090780  0.471880  0.956810  1.0  -0.1131
  C  C58  1  0.500150  0.432370  0.935410  1.0  -0.0962
  C  C59  1  0.001890  0.358720  0.870100  1.0  0.7243
  C  C60  1  0.412490  0.958880  0.016800  1.0  -0.0765
  C  C61  1  0.338670  0.973380  0.455030  1.0  -0.0948
  C  C62  1  0.248630  0.933370  0.433890  1.0  -0.0949
  C  C63  1  0.249460  0.861660  0.366130  1.0  0.7216
  C  C64  1  0.161420  0.460680  0.517480  1.0  -0.0907
  C  C65  1  0.088260  0.971230  0.036740  1.0  -0.0925
  C  C66  1  0.502890  0.933430  0.061220  1.0  -0.0902
  C  C67  1  0.999350  0.858750  0.124710  1.0  0.7008
  C  C68  1  0.410190  0.457870  0.980680  1.0  -0.1047
  C  C69  1  0.341080  0.473630  0.540600  1.0  -0.1158
  C  C70  1  0.251410  0.432590  0.560000  1.0  -0.0894
  C  C71  1  0.252130  0.359830  0.626300  1.0  0.7016
  C  C72  1  0.158450  0.961300  0.476110  1.0  -0.0981
  C  C73  1  0.408580  0.525630  0.042040  1.0  -0.0988
  C  C74  1  0.000560  0.566910  0.061700  1.0  -0.0969
  C  C75  1  0.495330  0.641740  0.125370  1.0  0.6906
  C  C76  1  0.088030  0.038690  0.974810  1.0  -0.0746
  C  C77  1  0.158190  0.028350  0.538700  1.0  -0.1106
  C  C78  1  0.248210  0.068340  0.559700  1.0  -0.1028
  C  C79  1  0.247670  0.140120  0.627400  1.0  0.7027
  C  C80  1  0.340790  0.541410  0.479250  1.0  -0.1044
  C  C81  1  0.907920  0.026360  0.953100  1.0  -0.091
  C  C82  1  0.499490  0.068580  0.935780  1.0  -0.0974
  C  C83  1  0.997350  0.138950  0.865700  1.0  0.7034
  C  C84  1  0.586910  0.543630  0.013740  1.0  -0.0931
  C  C85  1  0.658100  0.523480  0.449980  1.0  -0.1105
  C  C86  1  0.746440  0.566810  0.432930  1.0  -0.0934
  C  C87  1  0.745040  0.639090  0.366080  1.0  0.7144
  C  C88  1  0.839380  0.041530  0.516920  1.0  -0.0975
  C  C89  1  0.588470  0.475830  0.952390  1.0  -0.0875
  C  C90  1  0.001070  0.431030  0.937100  1.0  -0.085
  C  C91  1  0.502030  0.359750  0.868860  1.0  0.6938
  C  C92  1  0.908220  0.958930  0.015080  1.0  -0.1009
  C  C93  1  0.840960  0.974080  0.454970  1.0  -0.1149
  C  C94  1  0.752450  0.931160  0.436970  1.0  -0.0894
  C  C95  1  0.754000  0.858790  0.370070  1.0  0.6959
  C  C96  1  0.659750  0.456010  0.511840  1.0  -0.1076
  C  C97  1  0.591480  0.976140  0.042840  1.0  -0.098
  C  C98  1  0.998330  0.930870  0.057340  1.0  -0.0877
  C  C99  1  0.504370  0.861440  0.128460  1.0  0.7161
  C  C100  1  0.911050  0.458820  0.979850  1.0  -0.112
  C  C101  1  0.838060  0.474210  0.540150  1.0  -0.1044
  C  C102  1  0.749740  0.430830  0.557320  1.0  -0.0877
  C  C103  1  0.751740  0.358620  0.624500  1.0  0.7177
  C  C104  1  0.662140  0.956850  0.481370  1.0  -0.0882
  C  C105  1  0.910740  0.526270  0.041770  1.0  -0.1058
  C  C106  1  0.496870  0.569070  0.058880  1.0  -0.0909
  C  C107  1  0.999750  0.638940  0.129030  1.0  0.7027
  C  C108  1  0.589840  0.043290  0.980380  1.0  -0.0996
  C  C109  1  0.660500  0.024310  0.543310  1.0  -0.0817
  C  C110  1  0.749120  0.067030  0.561540  1.0  -0.0949
  C  C111  1  0.747480  0.139120  0.628800  1.0  0.7043
  C  C112  1  0.836510  0.541680  0.478300  1.0  -0.0818
  O  O113  1  0.081370  0.171810  0.846820  1.0  -0.6391
  O  O114  1  0.409680  0.665160  0.157250  1.0  -0.619
  O  O115  1  0.333920  0.675070  0.350590  1.0  -0.6214
  O  O116  1  0.162770  0.163700  0.660010  1.0  -0.6262
  O  O117  1  0.418300  0.326210  0.849620  1.0  -0.6335
  O  O118  1  0.084450  0.835700  0.157150  1.0  -0.6296
  O  O119  1  0.165380  0.828560  0.346570  1.0  -0.6279
  O  O120  1  0.337580  0.335490  0.657150  1.0  -0.6218
  O  O121  1  0.420730  0.828570  0.148220  1.0  -0.6281
  O  O122  1  0.087400  0.334700  0.839110  1.0  -0.6186
  O  O123  1  0.167830  0.327650  0.646650  1.0  -0.6362
  O  O124  1  0.334270  0.838510  0.333170  1.0  -0.6303
  O  O125  1  0.083840  0.672070  0.148160  1.0  -0.6255
  O  O126  1  0.412740  0.162370  0.833850  1.0  -0.6249
  O  O127  1  0.331710  0.172630  0.647000  1.0  -0.6351
  O  O128  1  0.164740  0.664750  0.337160  1.0  -0.6247
  O  O129  1  0.581140  0.174270  0.849640  1.0  -0.6312
  O  O130  1  0.914960  0.662040  0.161980  1.0  -0.6354
  O  O131  1  0.828740  0.671860  0.346550  1.0  -0.6304
  O  O132  1  0.662610  0.161330  0.663130  1.0  -0.6257
  O  O133  1  0.917660  0.326630  0.849350  1.0  -0.6327
  O  O134  1  0.589780  0.837890  0.160830  1.0  -0.6152
  O  O135  1  0.670320  0.825840  0.350470  1.0  -0.6349
  O  O136  1  0.837420  0.336040  0.656790  1.0  -0.6196
  O  O137  1  0.915230  0.825610  0.144350  1.0  -0.6255
  O  O138  1  0.587650  0.336860  0.836660  1.0  -0.6148
  O  O139  1  0.668090  0.325140  0.644150  1.0  -0.6329
  O  O140  1  0.839640  0.835340  0.338040  1.0  -0.6194
  O  O141  1  0.579030  0.674670  0.144700  1.0  -0.632
  O  O142  1  0.912530  0.162630  0.832900  1.0  -0.623
  O  O143  1  0.830900  0.173360  0.646420  1.0  -0.6365
  O  O144  1  0.659650  0.662690  0.333890  1.0  -0.6116
  O  O145  1  0.000170  0.251090  0.684290  1.0  -0.8923
  O  O146  1  0.249640  0.751460  0.183860  1.0  -0.8932
  O  O147  1  0.499560  0.751580  0.310640  1.0  -0.8945
  O  O148  1  0.250250  0.250300  0.810420  1.0  -0.8892
  O  O149  1  0.500320  0.250210  0.684610  1.0  -0.9514
  O  O150  1  0.749800  0.749140  0.184190  1.0  -0.8921
  O  O151  1  0.999710  0.749260  0.311060  1.0  -0.8866
  O  O152  1  0.750240  0.251100  0.810470  1.0  -0.8937
