# generated using pymatgen
data_AlC8O5
_symmetry_space_group_name_H-M   'P 1'
_cell_length_a   6.63050000
_cell_length_b   16.77590000
_cell_length_c   12.77030000
_cell_angle_alpha   90.00000000
_cell_angle_beta   90.00000000
_cell_angle_gamma   90.00000000
_symmetry_Int_Tables_number   1
_chemical_formula_structural   AlC8O5
_chemical_formula_sum   'Al4 C32 O20'
_cell_volume   1420.47373499
_cell_formula_units_Z   4
loop_
 _symmetry_equiv_pos_site_id
 _symmetry_equiv_pos_as_xyz
  1  'x, y, z'
loop_
 _atom_site_type_symbol
 _atom_site_label
 _atom_site_symmetry_multiplicity
 _atom_site_fract_x
 _atom_site_fract_y
 _atom_site_fract_z
 _atom_site_occupancy
 _atom_site_charge
  Al  Al1  1  0.250000  0.250000  0.750000  1.0  1.8124
  Al  Al2  1  0.750000  0.250000  0.750000  1.0  1.8124
  Al  Al3  1  0.750000  0.750000  0.250000  1.0  1.8124
  Al  Al4  1  0.250000  0.750000  0.250000  1.0  1.8124
  C  C5  1  0.809100  0.035050  0.968600  1.0  -0.0147
  C  C6  1  0.309100  0.535050  0.468600  1.0  -0.0147
  C  C7  1  0.190900  0.464950  0.968600  1.0  -0.0127
  C  C8  1  0.690900  0.964950  0.468600  1.0  -0.0118
  C  C9  1  0.190900  0.535050  0.031400  1.0  -0.0118
  C  C10  1  0.690900  0.035050  0.531400  1.0  -0.0118
  C  C11  1  0.809100  0.964950  0.031400  1.0  -0.0146
  C  C12  1  0.309100  0.464950  0.531400  1.0  -0.0146
  C  C13  1  0.190900  0.964950  0.031400  1.0  -0.0108
  C  C14  1  0.690900  0.464950  0.531400  1.0  -0.0108
  C  C15  1  0.809100  0.535050  0.031400  1.0  -0.0131
  C  C16  1  0.309100  0.035050  0.531400  1.0  -0.015
  C  C17  1  0.809100  0.464950  0.968600  1.0  -0.0146
  C  C18  1  0.309100  0.964950  0.468600  1.0  -0.0146
  C  C19  1  0.190900  0.035050  0.968600  1.0  -0.0119
  C  C20  1  0.690900  0.535050  0.468600  1.0  -0.0119
  C  C21  1  0.000000  0.063660  0.945300  1.0  -0.0419
  C  C22  1  0.000000  0.138260  0.871100  1.0  0.6933
  C  C23  1  0.500000  0.563660  0.445300  1.0  -0.0419
  C  C24  1  0.500000  0.638260  0.371100  1.0  0.6933
  C  C25  1  0.000000  0.436340  0.945300  1.0  -0.042
  C  C26  1  0.000000  0.361740  0.871100  1.0  0.694
  C  C27  1  0.500000  0.936340  0.445300  1.0  -0.042
  C  C28  1  0.500000  0.861740  0.371100  1.0  0.694
  C  C29  1  0.000000  0.563660  0.054700  1.0  -0.0399
  C  C30  1  0.000000  0.638260  0.128900  1.0  0.6935
  C  C31  1  0.500000  0.063660  0.554700  1.0  -0.0399
  C  C32  1  0.500000  0.138260  0.628900  1.0  0.6935
  C  C33  1  0.000000  0.936340  0.054700  1.0  -0.0406
  C  C34  1  0.000000  0.861740  0.128900  1.0  0.6943
  C  C35  1  0.500000  0.436340  0.554700  1.0  -0.0406
  C  C36  1  0.500000  0.361740  0.628900  1.0  0.6943
  O  O37  1  0.167650  0.167900  0.842810  1.0  -0.581
  O  O38  1  0.667650  0.667900  0.342810  1.0  -0.581
  O  O39  1  0.832350  0.332100  0.842810  1.0  -0.5805
  O  O40  1  0.332350  0.832100  0.342810  1.0  -0.5805
  O  O41  1  0.832350  0.667900  0.157190  1.0  -0.5816
  O  O42  1  0.332350  0.167900  0.657190  1.0  -0.5816
  O  O43  1  0.167650  0.832100  0.157190  1.0  -0.5809
  O  O44  1  0.667650  0.332100  0.657190  1.0  -0.5809
  O  O45  1  0.832350  0.832100  0.157190  1.0  -0.5809
  O  O46  1  0.332350  0.332100  0.657190  1.0  -0.5809
  O  O47  1  0.167650  0.667900  0.157190  1.0  -0.5812
  O  O48  1  0.667650  0.167900  0.657190  1.0  -0.5812
  O  O49  1  0.167650  0.332100  0.842810  1.0  -0.5807
  O  O50  1  0.667650  0.832100  0.342810  1.0  -0.5807
  O  O51  1  0.832350  0.167900  0.842810  1.0  -0.581
  O  O52  1  0.332350  0.667900  0.342810  1.0  -0.581
  O  O53  1  0.000000  0.250000  0.684600  1.0  -0.7407
  O  O54  1  0.500000  0.750000  0.184600  1.0  -0.7407
  O  O55  1  0.000000  0.750000  0.315400  1.0  -0.7421
  O  O56  1  0.500000  0.250000  0.815400  1.0  -0.7421
