# generated using pymatgen
data_AlC8O4F
_symmetry_space_group_name_H-M   'P 1'
_cell_length_a   6.55810000
_cell_length_b   16.42500000
_cell_length_c   13.15920000
_cell_angle_alpha   90.00000000
_cell_angle_beta   90.00000000
_cell_angle_gamma   90.50280000
_symmetry_Int_Tables_number   1
_chemical_formula_structural   AlC8O4F
_chemical_formula_sum   'Al4 C32 O16 F4'
_cell_volume   1417.41223689
_cell_formula_units_Z   4
loop_
 _symmetry_equiv_pos_site_id
 _symmetry_equiv_pos_as_xyz
  1  'x, y, z'
loop_
 _atom_site_type_symbol
 _atom_site_label
 _atom_site_symmetry_multiplicity
 _atom_site_fract_x
 _atom_site_fract_y
 _atom_site_fract_z
 _atom_site_occupancy
 _atom_site_charge
  Al  Al1  1  0.250000  0.250000  0.750000  1.0  1.824
  Al  Al2  1  0.750000  0.250000  0.750000  1.0  1.824
  Al  Al3  1  0.750000  0.750000  0.250000  1.0  1.824
  Al  Al4  1  0.250000  0.750000  0.250000  1.0  1.824
  C  C5  1  0.807100  0.024800  0.952400  1.0  -0.0462
  C  C6  1  0.004500  0.066000  0.943600  1.0  -0.0539
  C  C7  1  0.991900  0.135000  0.865500  1.0  0.662
  C  C8  1  0.197700  0.539900  0.024300  1.0  -0.0202
  C  C9  1  0.307100  0.524800  0.452400  1.0  -0.0449
  C  C10  1  0.504500  0.566000  0.443600  1.0  -0.05
  C  C11  1  0.491900  0.635000  0.365500  1.0  0.662
  C  C12  1  0.697700  0.039900  0.524300  1.0  -0.0202
  C  C13  1  0.192900  0.475200  0.952400  1.0  -0.0501
  C  C14  1  0.995500  0.434000  0.943600  1.0  -0.0491
  C  C15  1  0.008100  0.365000  0.865500  1.0  0.6613
  C  C16  1  0.802300  0.960100  0.024300  1.0  -0.0207
  C  C17  1  0.692900  0.975200  0.452400  1.0  -0.0501
  C  C18  1  0.495500  0.934000  0.443600  1.0  -0.0491
  C  C19  1  0.508100  0.865000  0.365500  1.0  0.6613
  C  C20  1  0.302300  0.460100  0.524300  1.0  -0.0207
  C  C21  1  0.192900  0.975200  0.047600  1.0  -0.0489
  C  C22  1  0.995500  0.934000  0.056400  1.0  -0.0495
  C  C23  1  0.008100  0.865000  0.134500  1.0  0.6626
  C  C24  1  0.802300  0.460100  0.975700  1.0  -0.0215
  C  C25  1  0.692900  0.475200  0.547600  1.0  -0.0489
  C  C26  1  0.495500  0.434000  0.556400  1.0  -0.0539
  C  C27  1  0.508100  0.365000  0.634500  1.0  0.6626
  C  C28  1  0.302300  0.960100  0.475700  1.0  -0.0215
  C  C29  1  0.807100  0.524800  0.047600  1.0  -0.0469
  C  C30  1  0.004500  0.566000  0.056400  1.0  -0.0544
  C  C31  1  0.991900  0.635000  0.134500  1.0  0.6613
  C  C32  1  0.197700  0.039900  0.975700  1.0  -0.0201
  C  C33  1  0.307100  0.024800  0.547600  1.0  -0.0469
  C  C34  1  0.504500  0.066000  0.556400  1.0  -0.0544
  C  C35  1  0.491900  0.135000  0.634500  1.0  0.6613
  C  C36  1  0.697700  0.539900  0.475700  1.0  -0.0201
  O  O37  1  0.160500  0.173100  0.848400  1.0  -0.5906
  O  O38  1  0.819800  0.661400  0.168200  1.0  -0.5839
  O  O39  1  0.660500  0.673100  0.348400  1.0  -0.5905
  O  O40  1  0.319800  0.161400  0.668200  1.0  -0.5839
  O  O41  1  0.839500  0.326900  0.848400  1.0  -0.5915
  O  O42  1  0.180200  0.838600  0.168200  1.0  -0.5845
  O  O43  1  0.339500  0.826900  0.348400  1.0  -0.5915
  O  O44  1  0.680200  0.338600  0.668200  1.0  -0.5845
  O  O45  1  0.839500  0.826900  0.151600  1.0  -0.5914
  O  O46  1  0.180200  0.338600  0.831800  1.0  -0.5847
  O  O47  1  0.339500  0.326900  0.651600  1.0  -0.5914
  O  O48  1  0.680200  0.838600  0.331800  1.0  -0.5847
  O  O49  1  0.160500  0.673100  0.151600  1.0  -0.5912
  O  O50  1  0.819800  0.161400  0.831800  1.0  -0.584
  O  O51  1  0.660500  0.173100  0.651600  1.0  -0.5911
  O  O52  1  0.319800  0.661400  0.331800  1.0  -0.584
  F  F53  1  0.000000  0.250000  0.691200  1.0  -0.5553
  F  F54  1  0.500000  0.750000  0.191200  1.0  -0.5553
  F  F55  1  0.000000  0.750000  0.308800  1.0  -0.557
  F  F56  1  0.500000  0.250000  0.808800  1.0  -0.557
