# generated using pymatgen
data_AlC8O4F
_symmetry_space_group_name_H-M   'P 1'
_cell_length_a   6.56200000
_cell_length_b   16.41710000
_cell_length_c   13.17170000
_cell_angle_alpha   90.00000000
_cell_angle_beta   90.00000000
_cell_angle_gamma   90.39830000
_symmetry_Int_Tables_number   1
_chemical_formula_structural   AlC8O4F
_chemical_formula_sum   'Al4 C32 O16 F4'
_cell_volume   1418.93991755
_cell_formula_units_Z   4
loop_
 _symmetry_equiv_pos_site_id
 _symmetry_equiv_pos_as_xyz
  1  'x, y, z'
loop_
 _atom_site_type_symbol
 _atom_site_label
 _atom_site_symmetry_multiplicity
 _atom_site_fract_x
 _atom_site_fract_y
 _atom_site_fract_z
 _atom_site_occupancy
 _atom_site_charge
  Al  Al1  1  0.250000  0.250000  0.750000  1.0  1.8272
  Al  Al2  1  0.750000  0.250000  0.750000  1.0  1.8272
  Al  Al3  1  0.750000  0.750000  0.250000  1.0  1.8272
  Al  Al4  1  0.250000  0.750000  0.250000  1.0  1.8272
  C  C5  1  0.806400  0.023200  0.953300  1.0  -0.0339
  C  C6  1  0.996400  0.065900  0.943800  1.0  -0.0735
  C  C7  1  0.995200  0.135500  0.869700  1.0  0.6505
  C  C8  1  0.200100  0.535700  0.029200  1.0  -0.0113
  C  C9  1  0.306400  0.523200  0.453300  1.0  -0.0339
  C  C10  1  0.496400  0.565900  0.443800  1.0  -0.0735
  C  C11  1  0.495200  0.635500  0.369700  1.0  0.6505
  C  C12  1  0.700100  0.035700  0.529200  1.0  -0.0113
  C  C13  1  0.193600  0.476800  0.953300  1.0  -0.0334
  C  C14  1  0.003600  0.434100  0.943800  1.0  -0.0737
  C  C15  1  0.004800  0.364500  0.869700  1.0  0.6507
  C  C16  1  0.799900  0.964300  0.029200  1.0  -0.0098
  C  C17  1  0.693600  0.976800  0.453300  1.0  -0.0334
  C  C18  1  0.503600  0.934100  0.443800  1.0  -0.0737
  C  C19  1  0.504800  0.864500  0.369700  1.0  0.6507
  C  C20  1  0.299900  0.464300  0.529200  1.0  -0.0098
  C  C21  1  0.193600  0.976800  0.046700  1.0  -0.035
  C  C22  1  0.003600  0.934100  0.056200  1.0  -0.0757
  C  C23  1  0.004800  0.864500  0.130300  1.0  0.6502
  C  C24  1  0.799900  0.464300  0.970800  1.0  -0.0094
  C  C25  1  0.693600  0.476800  0.546700  1.0  -0.035
  C  C26  1  0.503600  0.434100  0.556200  1.0  -0.0757
  C  C27  1  0.504800  0.364500  0.630300  1.0  0.6502
  C  C28  1  0.299900  0.964300  0.470800  1.0  -0.0094
  C  C29  1  0.806400  0.523200  0.046700  1.0  -0.0337
  C  C30  1  0.996400  0.565900  0.056200  1.0  -0.0738
  C  C31  1  0.995200  0.635500  0.130300  1.0  0.6503
  C  C32  1  0.200100  0.035700  0.970800  1.0  -0.0107
  C  C33  1  0.306400  0.023200  0.546700  1.0  -0.0337
  C  C34  1  0.496400  0.065900  0.556200  1.0  -0.0738
  C  C35  1  0.495200  0.135500  0.630300  1.0  0.6503
  C  C36  1  0.700100  0.535700  0.470800  1.0  -0.0107
  O  O37  1  0.161800  0.172300  0.846600  1.0  -0.5853
  O  O38  1  0.825800  0.662100  0.168600  1.0  -0.5844
  O  O39  1  0.661800  0.672300  0.346600  1.0  -0.5853
  O  O40  1  0.325800  0.162100  0.668600  1.0  -0.5844
  O  O41  1  0.838200  0.327700  0.846600  1.0  -0.5853
  O  O42  1  0.174200  0.837900  0.168600  1.0  -0.5843
  O  O43  1  0.338200  0.827700  0.346600  1.0  -0.5853
  O  O44  1  0.674200  0.337900  0.668600  1.0  -0.5843
  O  O45  1  0.838200  0.827700  0.153400  1.0  -0.5841
  O  O46  1  0.174200  0.337900  0.831400  1.0  -0.5842
  O  O47  1  0.338200  0.327700  0.653400  1.0  -0.5841
  O  O48  1  0.674200  0.837900  0.331400  1.0  -0.5842
  O  O49  1  0.161800  0.672300  0.153400  1.0  -0.584
  O  O50  1  0.825800  0.162100  0.831400  1.0  -0.5842
  O  O51  1  0.661800  0.172300  0.653400  1.0  -0.584
  O  O52  1  0.325800  0.662100  0.331400  1.0  -0.5842
  F  F53  1  0.000000  0.250000  0.690500  1.0  -0.5525
  F  F54  1  0.500000  0.750000  0.190500  1.0  -0.5525
  F  F55  1  0.000000  0.750000  0.309500  1.0  -0.554
  F  F56  1  0.500000  0.250000  0.809500  1.0  -0.554
