# generated using pymatgen
data_AlC8O5
_symmetry_space_group_name_H-M   'P 1'
_cell_length_a   6.63020000
_cell_length_b   16.77000000
_cell_length_c   12.77780000
_cell_angle_alpha   90.00000000
_cell_angle_beta   90.00000000
_cell_angle_gamma   90.00000000
_symmetry_Int_Tables_number   1
_chemical_formula_structural   AlC8O5
_chemical_formula_sum   'Al4 C32 O20'
_cell_volume   1420.74382752
_cell_formula_units_Z   4
loop_
 _symmetry_equiv_pos_site_id
 _symmetry_equiv_pos_as_xyz
  1  'x, y, z'
loop_
 _atom_site_type_symbol
 _atom_site_label
 _atom_site_symmetry_multiplicity
 _atom_site_fract_x
 _atom_site_fract_y
 _atom_site_fract_z
 _atom_site_occupancy
 _atom_site_charge
  Al  Al1  1  0.250000  0.250000  0.750000  1.0  1.8119
  Al  Al2  1  0.750000  0.250000  0.750000  1.0  1.8119
  Al  Al3  1  0.750000  0.750000  0.250000  1.0  1.8119
  Al  Al4  1  0.250000  0.750000  0.250000  1.0  1.8119
  C  C5  1  0.808900  0.035350  0.968800  1.0  -0.0137
  C  C6  1  0.308900  0.535350  0.468800  1.0  -0.0137
  C  C7  1  0.191100  0.464650  0.968800  1.0  -0.0097
  C  C8  1  0.691100  0.964650  0.468800  1.0  -0.0097
  C  C9  1  0.191100  0.535350  0.031200  1.0  -0.0109
  C  C10  1  0.691100  0.035350  0.531200  1.0  -0.0109
  C  C11  1  0.808900  0.964650  0.031200  1.0  -0.0131
  C  C12  1  0.308900  0.464650  0.531200  1.0  -0.0135
  C  C13  1  0.191100  0.964650  0.031200  1.0  -0.0111
  C  C14  1  0.691100  0.464650  0.531200  1.0  -0.0104
  C  C15  1  0.808900  0.535350  0.031200  1.0  -0.0136
  C  C16  1  0.308900  0.035350  0.531200  1.0  -0.0136
  C  C17  1  0.808900  0.464650  0.968800  1.0  -0.013
  C  C18  1  0.308900  0.964650  0.468800  1.0  -0.0137
  C  C19  1  0.191100  0.035350  0.968800  1.0  -0.011
  C  C20  1  0.691100  0.535350  0.468800  1.0  -0.011
  C  C21  1  0.000000  0.063000  0.945600  1.0  -0.0364
  C  C22  1  0.000000  0.137180  0.870100  1.0  0.6924
  C  C23  1  0.500000  0.563000  0.445600  1.0  -0.0419
  C  C24  1  0.500000  0.637180  0.370100  1.0  0.6924
  C  C25  1  0.000000  0.437000  0.945600  1.0  -0.0434
  C  C26  1  0.000000  0.362820  0.870100  1.0  0.6918
  C  C27  1  0.500000  0.937000  0.445600  1.0  -0.0434
  C  C28  1  0.500000  0.862820  0.370100  1.0  0.6918
  C  C29  1  0.000000  0.563000  0.054400  1.0  -0.0353
  C  C30  1  0.000000  0.637180  0.129900  1.0  0.6927
  C  C31  1  0.500000  0.063000  0.554400  1.0  -0.0353
  C  C32  1  0.500000  0.137180  0.629900  1.0  0.6927
  C  C33  1  0.000000  0.937000  0.054400  1.0  -0.0427
  C  C34  1  0.000000  0.862820  0.129900  1.0  0.6922
  C  C35  1  0.500000  0.437000  0.554400  1.0  -0.0423
  C  C36  1  0.500000  0.362820  0.629900  1.0  0.6922
  O  O37  1  0.166460  0.168150  0.843000  1.0  -0.5813
  O  O38  1  0.666460  0.668150  0.343000  1.0  -0.5813
  O  O39  1  0.833540  0.331850  0.843000  1.0  -0.5806
  O  O40  1  0.333540  0.831850  0.343000  1.0  -0.5806
  O  O41  1  0.833540  0.668150  0.157000  1.0  -0.5812
  O  O42  1  0.333540  0.168150  0.657000  1.0  -0.5812
  O  O43  1  0.166460  0.831850  0.157000  1.0  -0.5808
  O  O44  1  0.666460  0.331850  0.657000  1.0  -0.5808
  O  O45  1  0.833540  0.831850  0.157000  1.0  -0.5807
  O  O46  1  0.333540  0.331850  0.657000  1.0  -0.5807
  O  O47  1  0.166460  0.668150  0.157000  1.0  -0.5811
  O  O48  1  0.666460  0.168150  0.657000  1.0  -0.5811
  O  O49  1  0.166460  0.331850  0.843000  1.0  -0.581
  O  O50  1  0.666460  0.831850  0.343000  1.0  -0.581
  O  O51  1  0.833540  0.168150  0.843000  1.0  -0.5811
  O  O52  1  0.333540  0.668150  0.343000  1.0  -0.5811
  O  O53  1  0.000000  0.250000  0.685600  1.0  -0.7438
  O  O54  1  0.500000  0.750000  0.185600  1.0  -0.7438
  O  O55  1  0.000000  0.750000  0.314400  1.0  -0.7445
  O  O56  1  0.500000  0.250000  0.814400  1.0  -0.7445
