# generated using pymatgen
data_AlC8O4F
_symmetry_space_group_name_H-M   'P 1'
_cell_length_a   6.56780000
_cell_length_b   16.40550000
_cell_length_c   13.16870000
_cell_angle_alpha   90.00000000
_cell_angle_beta   90.00000000
_cell_angle_gamma   90.00000000
_symmetry_Int_Tables_number   1
_chemical_formula_structural   AlC8O4F
_chemical_formula_sum   'Al4 C32 O16 F4'
_cell_volume   1418.90165254
_cell_formula_units_Z   4
loop_
 _symmetry_equiv_pos_site_id
 _symmetry_equiv_pos_as_xyz
  1  'x, y, z'
loop_
 _atom_site_type_symbol
 _atom_site_label
 _atom_site_symmetry_multiplicity
 _atom_site_fract_x
 _atom_site_fract_y
 _atom_site_fract_z
 _atom_site_occupancy
 _atom_site_charge
  Al  Al1  1  0.250000  0.250000  0.750000  1.0  1.8072
  Al  Al2  1  0.750000  0.250000  0.750000  1.0  1.8072
  Al  Al3  1  0.750000  0.750000  0.250000  1.0  1.8072
  Al  Al4  1  0.250000  0.750000  0.250000  1.0  1.8072
  C  C5  1  0.806800  0.029800  0.959100  1.0  -0.0253
  C  C6  1  0.306800  0.529800  0.459100  1.0  -0.0253
  C  C7  1  0.193200  0.470200  0.959100  1.0  -0.0256
  C  C8  1  0.693200  0.970200  0.459100  1.0  -0.0256
  C  C9  1  0.193200  0.529800  0.040900  1.0  -0.0264
  C  C10  1  0.693200  0.029800  0.540900  1.0  -0.0264
  C  C11  1  0.806800  0.970200  0.040900  1.0  -0.0271
  C  C12  1  0.306800  0.470200  0.540900  1.0  -0.0271
  C  C13  1  0.193200  0.970200  0.040900  1.0  -0.0248
  C  C14  1  0.693200  0.470200  0.540900  1.0  -0.0264
  C  C15  1  0.806800  0.529800  0.040900  1.0  -0.027
  C  C16  1  0.306800  0.029800  0.540900  1.0  -0.0255
  C  C17  1  0.806800  0.470200  0.959100  1.0  -0.0254
  C  C18  1  0.306800  0.970200  0.459100  1.0  -0.0254
  C  C19  1  0.193200  0.029800  0.959100  1.0  -0.0253
  C  C20  1  0.693200  0.529800  0.459100  1.0  -0.0253
  C  C21  1  0.000000  0.064400  0.947900  1.0  -0.0554
  C  C22  1  0.000000  0.137600  0.869800  1.0  0.6756
  C  C23  1  0.500000  0.564400  0.447900  1.0  -0.0554
  C  C24  1  0.500000  0.637600  0.369800  1.0  0.6756
  C  C25  1  0.000000  0.435600  0.947900  1.0  -0.0562
  C  C26  1  0.000000  0.362400  0.869800  1.0  0.6764
  C  C27  1  0.500000  0.935600  0.447900  1.0  -0.0562
  C  C28  1  0.500000  0.862400  0.369800  1.0  0.6764
  C  C29  1  0.000000  0.564400  0.052100  1.0  -0.0556
  C  C30  1  0.000000  0.637600  0.130200  1.0  0.6749
  C  C31  1  0.500000  0.064400  0.552100  1.0  -0.0556
  C  C32  1  0.500000  0.137600  0.630200  1.0  0.6749
  C  C33  1  0.000000  0.935600  0.052100  1.0  -0.0563
  C  C34  1  0.000000  0.862400  0.130200  1.0  0.6765
  C  C35  1  0.500000  0.435600  0.552100  1.0  -0.0563
  C  C36  1  0.500000  0.362400  0.630200  1.0  0.6765
  O  O37  1  0.169400  0.168050  0.840150  1.0  -0.5938
  O  O38  1  0.669400  0.668050  0.340150  1.0  -0.5958
  O  O39  1  0.830600  0.331950  0.840150  1.0  -0.5965
  O  O40  1  0.330600  0.831950  0.340150  1.0  -0.5965
  O  O41  1  0.830600  0.668050  0.159850  1.0  -0.5966
  O  O42  1  0.330600  0.168050  0.659850  1.0  -0.5946
  O  O43  1  0.169400  0.831950  0.159850  1.0  -0.5949
  O  O44  1  0.669400  0.331950  0.659850  1.0  -0.5949
  O  O45  1  0.830600  0.831950  0.159850  1.0  -0.596
  O  O46  1  0.330600  0.331950  0.659850  1.0  -0.596
  O  O47  1  0.169400  0.668050  0.159850  1.0  -0.5953
  O  O48  1  0.669400  0.168050  0.659850  1.0  -0.5953
  O  O49  1  0.169400  0.331950  0.840150  1.0  -0.5958
  O  O50  1  0.669400  0.831950  0.340150  1.0  -0.5968
  O  O51  1  0.830600  0.168050  0.840150  1.0  -0.595
  O  O52  1  0.330600  0.668050  0.340150  1.0  -0.595
  F  F53  1  0.000000  0.250000  0.693900  1.0  -0.5614
  F  F54  1  0.500000  0.750000  0.193900  1.0  -0.5614
  F  F55  1  0.000000  0.750000  0.306100  1.0  -0.5617
  F  F56  1  0.500000  0.250000  0.806100  1.0  -0.5617
