# generated using pymatgen
data_AlC8O4F
_symmetry_space_group_name_H-M   'P 1'
_cell_length_a   6.55250000
_cell_length_b   16.43620000
_cell_length_c   13.14170000
_cell_angle_alpha   90.00000000
_cell_angle_beta   90.00000000
_cell_angle_gamma   90.58190000
_symmetry_Int_Tables_number   1
_chemical_formula_structural   AlC8O4F
_chemical_formula_sum   'Al4 C32 O16 F4'
_cell_volume   1415.26444910
_cell_formula_units_Z   4
loop_
 _symmetry_equiv_pos_site_id
 _symmetry_equiv_pos_as_xyz
  1  'x, y, z'
loop_
 _atom_site_type_symbol
 _atom_site_label
 _atom_site_symmetry_multiplicity
 _atom_site_fract_x
 _atom_site_fract_y
 _atom_site_fract_z
 _atom_site_occupancy
 _atom_site_charge
  Al  Al1  1  0.250000  0.250000  0.750000  1.0  1.8352
  Al  Al2  1  0.750000  0.250000  0.750000  1.0  1.8352
  Al  Al3  1  0.750000  0.750000  0.250000  1.0  1.8352
  Al  Al4  1  0.250000  0.750000  0.250000  1.0  1.8352
  C  C5  1  0.797000  0.023700  0.949800  1.0  -0.0333
  C  C6  1  0.002800  0.063200  0.945500  1.0  -0.095
  C  C7  1  0.000500  0.137200  0.865900  1.0  0.6619
  C  C8  1  0.194600  0.540300  0.025400  1.0  -0.0332
  C  C9  1  0.297000  0.523700  0.449800  1.0  -0.0333
  C  C10  1  0.502800  0.563200  0.445500  1.0  -0.095
  C  C11  1  0.500500  0.637200  0.365900  1.0  0.6619
  C  C12  1  0.694600  0.040300  0.525400  1.0  -0.0332
  C  C13  1  0.203000  0.476300  0.949800  1.0  -0.0354
  C  C14  1  0.997200  0.436800  0.945500  1.0  -0.0951
  C  C15  1  0.999500  0.362800  0.865900  1.0  0.6624
  C  C16  1  0.805400  0.959700  0.025400  1.0  -0.0376
  C  C17  1  0.703000  0.976300  0.449800  1.0  -0.0354
  C  C18  1  0.497200  0.936800  0.445500  1.0  -0.0951
  C  C19  1  0.499500  0.862800  0.365900  1.0  0.6624
  C  C20  1  0.305400  0.459700  0.525400  1.0  -0.0376
  C  C21  1  0.203000  0.976300  0.050200  1.0  -0.0366
  C  C22  1  0.997200  0.936800  0.054500  1.0  -0.0944
  C  C23  1  0.999500  0.862800  0.134100  1.0  0.6635
  C  C24  1  0.805400  0.459700  0.974600  1.0  -0.0342
  C  C25  1  0.703000  0.476300  0.550200  1.0  -0.0366
  C  C26  1  0.497200  0.436800  0.554500  1.0  -0.0944
  C  C27  1  0.499500  0.362800  0.634100  1.0  0.6635
  C  C28  1  0.305400  0.959700  0.474600  1.0  -0.0342
  C  C29  1  0.797000  0.523700  0.050200  1.0  -0.0342
  C  C30  1  0.002800  0.563200  0.054500  1.0  -0.0947
  C  C31  1  0.000500  0.637200  0.134100  1.0  0.6625
  C  C32  1  0.194600  0.040300  0.974600  1.0  -0.0351
  C  C33  1  0.297000  0.023700  0.550200  1.0  -0.0342
  C  C34  1  0.502800  0.063200  0.554500  1.0  -0.0947
  C  C35  1  0.500500  0.137200  0.634100  1.0  0.6625
  C  C36  1  0.694600  0.540300  0.474600  1.0  -0.0351
  O  O37  1  0.156800  0.174400  0.854800  1.0  -0.5582
  O  O38  1  0.818300  0.657610  0.167800  1.0  -0.5716
  O  O39  1  0.656800  0.674400  0.354800  1.0  -0.5582
  O  O40  1  0.318300  0.157610  0.667800  1.0  -0.5716
  O  O41  1  0.843200  0.325600  0.854800  1.0  -0.5579
  O  O42  1  0.181700  0.842390  0.167800  1.0  -0.5687
  O  O43  1  0.343200  0.825600  0.354800  1.0  -0.5579
  O  O44  1  0.681700  0.342390  0.667800  1.0  -0.5687
  O  O45  1  0.843200  0.825600  0.145200  1.0  -0.5576
  O  O46  1  0.181700  0.342390  0.832200  1.0  -0.5689
  O  O47  1  0.343200  0.325600  0.645200  1.0  -0.5576
  O  O48  1  0.681700  0.842390  0.332200  1.0  -0.5689
  O  O49  1  0.156800  0.674400  0.145200  1.0  -0.5579
  O  O50  1  0.818300  0.157610  0.832200  1.0  -0.5715
  O  O51  1  0.656800  0.174400  0.645200  1.0  -0.5579
  O  O52  1  0.318300  0.657610  0.332200  1.0  -0.5715
  F  F53  1  0.000000  0.250000  0.690200  1.0  -0.5749
  F  F54  1  0.500000  0.750000  0.190200  1.0  -0.5748
  F  F55  1  0.000000  0.750000  0.309800  1.0  -0.5745
  F  F56  1  0.500000  0.250000  0.809800  1.0  -0.5748
