# generated using pymatgen
data_AlC8O5
_symmetry_space_group_name_H-M   'P 1'
_cell_length_a   6.63030000
_cell_length_b   16.79020000
_cell_length_c   12.75380000
_cell_angle_alpha   90.00000000
_cell_angle_beta   90.00000000
_cell_angle_gamma   90.00000000
_symmetry_Int_Tables_number   1
_chemical_formula_structural   AlC8O5
_chemical_formula_sum   'Al4 C32 O20'
_cell_volume   1419.80483545
_cell_formula_units_Z   4
loop_
 _symmetry_equiv_pos_site_id
 _symmetry_equiv_pos_as_xyz
  1  'x, y, z'
loop_
 _atom_site_type_symbol
 _atom_site_label
 _atom_site_symmetry_multiplicity
 _atom_site_fract_x
 _atom_site_fract_y
 _atom_site_fract_z
 _atom_site_occupancy
 _atom_site_charge
  Al  Al1  1  0.250000  0.250000  0.750000  1.0  1.8086
  Al  Al2  1  0.750000  0.250000  0.750000  1.0  1.8086
  Al  Al3  1  0.750000  0.750000  0.250000  1.0  1.8086
  Al  Al4  1  0.250000  0.750000  0.250000  1.0  1.8086
  C  C5  1  0.807800  0.035650  0.969600  1.0  -0.0137
  C  C6  1  0.307800  0.535650  0.469600  1.0  -0.0137
  C  C7  1  0.192200  0.464350  0.969600  1.0  -0.0093
  C  C8  1  0.692200  0.964350  0.469600  1.0  -0.0111
  C  C9  1  0.192200  0.535650  0.030400  1.0  -0.0093
  C  C10  1  0.692200  0.035650  0.530400  1.0  -0.0093
  C  C11  1  0.807800  0.964350  0.030400  1.0  -0.0138
  C  C12  1  0.307800  0.464350  0.530400  1.0  -0.0138
  C  C13  1  0.192200  0.964350  0.030400  1.0  -0.0093
  C  C14  1  0.692200  0.464350  0.530400  1.0  -0.0093
  C  C15  1  0.807800  0.535650  0.030400  1.0  -0.0126
  C  C16  1  0.307800  0.035650  0.530400  1.0  -0.0135
  C  C17  1  0.807800  0.464350  0.969600  1.0  -0.0143
  C  C18  1  0.307800  0.964350  0.469600  1.0  -0.0143
  C  C19  1  0.192200  0.035650  0.969600  1.0  -0.0108
  C  C20  1  0.692200  0.535650  0.469600  1.0  -0.0108
  C  C21  1  0.000000  0.062650  0.945000  1.0  -0.043
  C  C22  1  0.000000  0.137560  0.871100  1.0  0.6849
  C  C23  1  0.500000  0.562650  0.445000  1.0  -0.043
  C  C24  1  0.500000  0.637560  0.371100  1.0  0.6849
  C  C25  1  0.000000  0.437350  0.945000  1.0  -0.043
  C  C26  1  0.000000  0.362440  0.871100  1.0  0.6859
  C  C27  1  0.500000  0.937350  0.445000  1.0  -0.043
  C  C28  1  0.500000  0.862440  0.371100  1.0  0.6859
  C  C29  1  0.000000  0.562650  0.055000  1.0  -0.0421
  C  C30  1  0.000000  0.637560  0.128900  1.0  0.6853
  C  C31  1  0.500000  0.062650  0.555000  1.0  -0.0421
  C  C32  1  0.500000  0.137560  0.628900  1.0  0.6853
  C  C33  1  0.000000  0.937350  0.055000  1.0  -0.0424
  C  C34  1  0.000000  0.862440  0.128900  1.0  0.6863
  C  C35  1  0.500000  0.437350  0.555000  1.0  -0.0424
  C  C36  1  0.500000  0.362440  0.628900  1.0  0.6863
  O  O37  1  0.167560  0.168080  0.843510  1.0  -0.5774
  O  O38  1  0.667560  0.668080  0.343510  1.0  -0.5774
  O  O39  1  0.832440  0.331920  0.843510  1.0  -0.5774
  O  O40  1  0.332440  0.831920  0.343510  1.0  -0.5774
  O  O41  1  0.832440  0.668080  0.156490  1.0  -0.5786
  O  O42  1  0.332440  0.168080  0.656490  1.0  -0.5786
  O  O43  1  0.167560  0.831920  0.156490  1.0  -0.5775
  O  O44  1  0.667560  0.331920  0.656490  1.0  -0.5775
  O  O45  1  0.832440  0.831920  0.156490  1.0  -0.5779
  O  O46  1  0.332440  0.331920  0.656490  1.0  -0.5779
  O  O47  1  0.167560  0.668080  0.156490  1.0  -0.5777
  O  O48  1  0.667560  0.168080  0.656490  1.0  -0.5777
  O  O49  1  0.167560  0.331920  0.843510  1.0  -0.5773
  O  O50  1  0.667560  0.831920  0.343510  1.0  -0.5773
  O  O51  1  0.832440  0.168080  0.843510  1.0  -0.5778
  O  O52  1  0.332440  0.668080  0.343510  1.0  -0.5778
  O  O53  1  0.000000  0.250000  0.684600  1.0  -0.7359
  O  O54  1  0.500000  0.750000  0.184600  1.0  -0.7359
  O  O55  1  0.000000  0.750000  0.315400  1.0  -0.7372
  O  O56  1  0.500000  0.250000  0.815400  1.0  -0.7372
