# generated using pymatgen
data_AlC8O5
_symmetry_space_group_name_H-M   'P 1'
_cell_length_a   6.62980000
_cell_length_b   16.76380000
_cell_length_c   12.78590000
_cell_angle_alpha   90.00000000
_cell_angle_beta   90.00000000
_cell_angle_gamma   90.00000000
_symmetry_Int_Tables_number   1
_chemical_formula_structural   AlC8O5
_chemical_formula_sum   'Al4 C32 O20'
_cell_volume   1421.03312483
_cell_formula_units_Z   4
loop_
 _symmetry_equiv_pos_site_id
 _symmetry_equiv_pos_as_xyz
  1  'x, y, z'
loop_
 _atom_site_type_symbol
 _atom_site_label
 _atom_site_symmetry_multiplicity
 _atom_site_fract_x
 _atom_site_fract_y
 _atom_site_fract_z
 _atom_site_occupancy
 _atom_site_charge
  Al  Al1  1  0.250000  0.250000  0.750000  1.0  1.813
  Al  Al2  1  0.750000  0.250000  0.750000  1.0  1.813
  Al  Al3  1  0.750000  0.750000  0.250000  1.0  1.813
  Al  Al4  1  0.250000  0.750000  0.250000  1.0  1.813
  C  C5  1  0.809600  0.035630  0.969200  1.0  -0.0176
  C  C6  1  0.309600  0.535630  0.469200  1.0  -0.0176
  C  C7  1  0.190400  0.464370  0.969200  1.0  -0.0116
  C  C8  1  0.690400  0.964370  0.469200  1.0  -0.0129
  C  C9  1  0.190400  0.535630  0.030800  1.0  -0.0108
  C  C10  1  0.690400  0.035630  0.530800  1.0  -0.0108
  C  C11  1  0.809600  0.964370  0.030800  1.0  -0.0167
  C  C12  1  0.309600  0.464370  0.530800  1.0  -0.0167
  C  C13  1  0.190400  0.964370  0.030800  1.0  -0.01
  C  C14  1  0.690400  0.464370  0.530800  1.0  -0.01
  C  C15  1  0.809600  0.535630  0.030800  1.0  -0.0149
  C  C16  1  0.309600  0.035630  0.530800  1.0  -0.0168
  C  C17  1  0.809600  0.464370  0.969200  1.0  -0.0181
  C  C18  1  0.309600  0.964370  0.469200  1.0  -0.0181
  C  C19  1  0.190400  0.035630  0.969200  1.0  -0.0127
  C  C20  1  0.690400  0.535630  0.469200  1.0  -0.0127
  C  C21  1  0.000000  0.063200  0.945800  1.0  -0.0355
  C  C22  1  0.000000  0.136860  0.870900  1.0  0.6843
  C  C23  1  0.500000  0.563200  0.445800  1.0  -0.0355
  C  C24  1  0.500000  0.636860  0.370900  1.0  0.6843
  C  C25  1  0.000000  0.436800  0.945800  1.0  -0.0355
  C  C26  1  0.000000  0.363140  0.870900  1.0  0.6852
  C  C27  1  0.500000  0.936800  0.445800  1.0  -0.0355
  C  C28  1  0.500000  0.863140  0.370900  1.0  0.6852
  C  C29  1  0.000000  0.563200  0.054200  1.0  -0.0343
  C  C30  1  0.000000  0.636860  0.129100  1.0  0.6843
  C  C31  1  0.500000  0.063200  0.554200  1.0  -0.0343
  C  C32  1  0.500000  0.136860  0.629100  1.0  0.6843
  C  C33  1  0.000000  0.936800  0.054200  1.0  -0.0347
  C  C34  1  0.000000  0.863140  0.129100  1.0  0.6853
  C  C35  1  0.500000  0.436800  0.554200  1.0  -0.0347
  C  C36  1  0.500000  0.363140  0.629100  1.0  0.6853
  O  O37  1  0.166310  0.168190  0.842780  1.0  -0.5782
  O  O38  1  0.666310  0.668190  0.342780  1.0  -0.5782
  O  O39  1  0.833690  0.331810  0.842780  1.0  -0.5783
  O  O40  1  0.333690  0.831810  0.342780  1.0  -0.5783
  O  O41  1  0.833690  0.668190  0.157220  1.0  -0.5795
  O  O42  1  0.333690  0.168190  0.657220  1.0  -0.5795
  O  O43  1  0.166310  0.831810  0.157220  1.0  -0.578
  O  O44  1  0.666310  0.331810  0.657220  1.0  -0.578
  O  O45  1  0.833690  0.831810  0.157220  1.0  -0.5789
  O  O46  1  0.333690  0.331810  0.657220  1.0  -0.5789
  O  O47  1  0.166310  0.668190  0.157220  1.0  -0.5784
  O  O48  1  0.666310  0.168190  0.657220  1.0  -0.5784
  O  O49  1  0.166310  0.331810  0.842780  1.0  -0.5778
  O  O50  1  0.666310  0.831810  0.342780  1.0  -0.5778
  O  O51  1  0.833690  0.168190  0.842780  1.0  -0.5788
  O  O52  1  0.333690  0.668190  0.342780  1.0  -0.5788
  O  O53  1  0.000000  0.250000  0.685200  1.0  -0.7411
  O  O54  1  0.500000  0.750000  0.185200  1.0  -0.7411
  O  O55  1  0.000000  0.750000  0.314800  1.0  -0.7424
  O  O56  1  0.500000  0.250000  0.814800  1.0  -0.7424
