# generated using pymatgen
data_CuH2(C3O2)2
_symmetry_space_group_name_H-M   'P 1'
_cell_length_a   18.57650000
_cell_length_b   18.57650000
_cell_length_c   18.57650000
_cell_angle_alpha   60.00000000
_cell_angle_beta   60.00000000
_cell_angle_gamma   60.00000000
_symmetry_Int_Tables_number   1
_chemical_formula_structural   CuH2(C3O2)2
_chemical_formula_sum   'Cu12 H24 C72 O48'
_cell_volume   4532.90563259
_cell_formula_units_Z   12
loop_
 _symmetry_equiv_pos_site_id
 _symmetry_equiv_pos_as_xyz
  1  'x, y, z'
loop_
 _atom_site_type_symbol
 _atom_site_label
 _atom_site_symmetry_multiplicity
 _atom_site_fract_x
 _atom_site_fract_y
 _atom_site_fract_z
 _atom_site_occupancy
 _atom_site_charge
  Cu  Cu1  1  0.567020  0.432980  0.000000  1.0  0.9016
  Cu  Cu2  1  0.000000  0.567020  0.432980  1.0  0.9024
  Cu  Cu3  1  0.000000  0.432980  0.000000  1.0  0.902
  Cu  Cu4  1  0.567020  0.000000  0.000000  1.0  0.9021
  Cu  Cu5  1  0.432980  0.000000  0.567020  1.0  0.9031
  Cu  Cu6  1  0.000000  0.000000  0.432980  1.0  0.9005
  Cu  Cu7  1  0.000000  0.567020  0.000000  1.0  0.9015
  Cu  Cu8  1  0.000000  0.432980  0.567020  1.0  0.9022
  Cu  Cu9  1  0.432980  0.567020  0.000000  1.0  0.9026
  Cu  Cu10  1  0.000000  0.000000  0.567020  1.0  0.9006
  Cu  Cu11  1  0.432980  0.000000  0.000000  1.0  0.9033
  Cu  Cu12  1  0.567020  0.000000  0.432980  1.0  0.9024
  H  H13  1  0.970400  0.271200  0.271200  1.0  0.1133
  H  H14  1  0.512800  0.728800  0.728800  1.0  0.1134
  H  H15  1  0.728800  0.728800  0.029600  1.0  0.1134
  H  H16  1  0.487200  0.271200  0.970400  1.0  0.1134
  H  H17  1  0.970400  0.271200  0.487200  1.0  0.1134
  H  H18  1  0.728800  0.512800  0.029600  1.0  0.1147
  H  H19  1  0.487200  0.271200  0.271200  1.0  0.1134
  H  H20  1  0.728800  0.029600  0.512800  1.0  0.1136
  H  H21  1  0.029600  0.512800  0.728800  1.0  0.1147
  H  H22  1  0.728800  0.728800  0.512800  1.0  0.1134
  H  H23  1  0.487200  0.970400  0.271200  1.0  0.1135
  H  H24  1  0.728800  0.029600  0.728800  1.0  0.1134
  H  H25  1  0.271200  0.271200  0.970400  1.0  0.1131
  H  H26  1  0.029600  0.728800  0.512800  1.0  0.1137
  H  H27  1  0.029600  0.728800  0.728800  1.0  0.1137
  H  H28  1  0.271200  0.271200  0.487200  1.0  0.1134
  H  H29  1  0.512800  0.029600  0.728800  1.0  0.1134
  H  H30  1  0.512800  0.728800  0.029600  1.0  0.1135
  H  H31  1  0.271200  0.487200  0.970400  1.0  0.1145
  H  H32  1  0.271200  0.970400  0.487200  1.0  0.1134
  H  H33  1  0.970400  0.487200  0.271200  1.0  0.1141
  H  H34  1  0.728800  0.512800  0.728800  1.0  0.1146
  H  H35  1  0.271200  0.970400  0.271200  1.0  0.1134
  H  H36  1  0.271200  0.487200  0.271200  1.0  0.1145
  C  C37  1  0.386290  0.386290  0.256570  1.0  -0.1667
  C  C38  1  0.299980  0.299980  0.429400  1.0  0.0369
  C  C39  1  0.256570  0.386290  0.970850  1.0  -0.1672
  C  C40  1  0.430920  0.161900  0.430920  1.0  0.6824
  C  C41  1  0.429400  0.299980  0.299980  1.0  0.0368
  C  C42  1  0.386290  0.386290  0.970850  1.0  -0.1667
  C  C43  1  0.299980  0.970640  0.299980  1.0  0.0355
  C  C44  1  0.023740  0.569080  0.838100  1.0  0.683
  C  C45  1  0.029360  0.700020  0.570600  1.0  0.0357
  C  C46  1  0.700020  0.700020  0.570600  1.0  0.0363
  C  C47  1  0.613710  0.743430  0.613710  1.0  -0.1661
  C  C48  1  0.430920  0.161900  0.976260  1.0  0.6823
  C  C49  1  0.386290  0.256570  0.386290  1.0  -0.1665
  C  C50  1  0.299980  0.970640  0.429400  1.0  0.0361
  C  C51  1  0.570600  0.700020  0.700020  1.0  0.0365
  C  C52  1  0.386290  0.256570  0.970850  1.0  -0.1667
  C  C53  1  0.970850  0.386290  0.256570  1.0  -0.1669
  C  C54  1  0.569080  0.569080  0.023740  1.0  0.6818
  C  C55  1  0.430920  0.976260  0.161900  1.0  0.6825
  C  C56  1  0.299980  0.299980  0.970640  1.0  0.0357
  C  C57  1  0.299980  0.429400  0.970640  1.0  0.0377
  C  C58  1  0.029360  0.700020  0.700020  1.0  0.0369
  C  C59  1  0.386290  0.970850  0.256570  1.0  -0.1663
  C  C60  1  0.700020  0.029360  0.570600  1.0  0.0354
  C  C61  1  0.976260  0.430920  0.161900  1.0  0.683
  C  C62  1  0.570600  0.029360  0.700020  1.0  0.0348
  C  C63  1  0.613710  0.613710  0.029150  1.0  -0.1671
  C  C64  1  0.569080  0.023740  0.569080  1.0  0.6825
  C  C65  1  0.029360  0.570600  0.700020  1.0  0.0376
  C  C66  1  0.970640  0.299980  0.429400  1.0  0.0362
  C  C67  1  0.161900  0.976260  0.430920  1.0  0.6815
  C  C68  1  0.430920  0.430920  0.976260  1.0  0.6822
  C  C69  1  0.023740  0.838100  0.569080  1.0  0.6828
  C  C70  1  0.743430  0.613710  0.613710  1.0  -0.1668
  C  C71  1  0.029150  0.613710  0.743430  1.0  -0.1672
  C  C72  1  0.430920  0.976260  0.430920  1.0  0.6829
  C  C73  1  0.838100  0.569080  0.023740  1.0  0.6819
  C  C74  1  0.743430  0.029150  0.613710  1.0  -0.1667
  C  C75  1  0.838100  0.569080  0.569080  1.0  0.6817
  C  C76  1  0.569080  0.023740  0.838100  1.0  0.683
  C  C77  1  0.838100  0.023740  0.569080  1.0  0.6817
  C  C78  1  0.570600  0.700020  0.029360  1.0  0.0367
  C  C79  1  0.613710  0.613710  0.743430  1.0  -0.167
  C  C80  1  0.299980  0.429400  0.299980  1.0  0.0379
  C  C81  1  0.161900  0.430920  0.430920  1.0  0.6814
  C  C82  1  0.976260  0.430920  0.430920  1.0  0.6834
  C  C83  1  0.613710  0.743430  0.029150  1.0  -0.1661
  C  C84  1  0.569080  0.838100  0.023740  1.0  0.6826
  C  C85  1  0.161900  0.430920  0.976260  1.0  0.6813
  C  C86  1  0.430920  0.430920  0.161900  1.0  0.6822
  C  C87  1  0.970850  0.386290  0.386290  1.0  -0.1673
  C  C88  1  0.029150  0.743430  0.613710  1.0  -0.1661
  C  C89  1  0.970850  0.256570  0.386290  1.0  -0.1664
  C  C90  1  0.700020  0.029360  0.700020  1.0  0.0369
  C  C91  1  0.429400  0.970640  0.299980  1.0  0.036
  C  C92  1  0.613710  0.029150  0.743430  1.0  -0.1671
  C  C93  1  0.386290  0.970850  0.386290  1.0  -0.1665
  C  C94  1  0.700020  0.570600  0.700020  1.0  0.0378
  C  C95  1  0.970640  0.429400  0.299980  1.0  0.0385
  C  C96  1  0.256570  0.386290  0.386290  1.0  -0.1673
  C  C97  1  0.569080  0.569080  0.838100  1.0  0.6818
  C  C98  1  0.429400  0.299980  0.970640  1.0  0.0368
  C  C99  1  0.970640  0.299980  0.299980  1.0  0.0355
  C  C100  1  0.029150  0.613710  0.613710  1.0  -0.1669
  C  C101  1  0.700020  0.700020  0.029360  1.0  0.0368
  C  C102  1  0.613710  0.029150  0.613710  1.0  -0.1667
  C  C103  1  0.023740  0.569080  0.569080  1.0  0.6825
  C  C104  1  0.256570  0.970850  0.386290  1.0  -0.1665
  C  C105  1  0.743430  0.613710  0.029150  1.0  -0.1668
  C  C106  1  0.569080  0.838100  0.569080  1.0  0.6824
  C  C107  1  0.700020  0.570600  0.029360  1.0  0.0381
  C  C108  1  0.976260  0.161900  0.430920  1.0  0.683
  O  O109  1  0.020590  0.612550  0.874890  1.0  -0.5585
  O  O110  1  0.491970  0.612550  0.874890  1.0  -0.559
  O  O111  1  0.387450  0.125110  0.979410  1.0  -0.5586
  O  O112  1  0.508030  0.979410  0.125110  1.0  -0.5588
  O  O113  1  0.125110  0.508030  0.387450  1.0  -0.5584
  O  O114  1  0.979410  0.387450  0.125110  1.0  -0.5587
  O  O115  1  0.125110  0.387450  0.979410  1.0  -0.5585
  O  O116  1  0.125110  0.979410  0.387450  1.0  -0.5585
  O  O117  1  0.612550  0.491970  0.874890  1.0  -0.5593
  O  O118  1  0.020590  0.874890  0.612550  1.0  -0.5583
  O  O119  1  0.874890  0.020590  0.491970  1.0  -0.5576
  O  O120  1  0.125110  0.979410  0.508030  1.0  -0.5585
  O  O121  1  0.979410  0.125110  0.508030  1.0  -0.5586
  O  O122  1  0.020590  0.491970  0.874890  1.0  -0.5583
  O  O123  1  0.508030  0.387450  0.125110  1.0  -0.5588
  O  O124  1  0.491970  0.874890  0.612550  1.0  -0.5579
  O  O125  1  0.612550  0.874890  0.020590  1.0  -0.5587
  O  O126  1  0.508030  0.979410  0.387450  1.0  -0.559
  O  O127  1  0.491970  0.020590  0.612550  1.0  -0.5588
  O  O128  1  0.979410  0.125110  0.387450  1.0  -0.5581
  O  O129  1  0.387450  0.508030  0.125110  1.0  -0.5584
  O  O130  1  0.491970  0.874890  0.020590  1.0  -0.5583
  O  O131  1  0.612550  0.020590  0.491970  1.0  -0.5578
  O  O132  1  0.387450  0.979410  0.125110  1.0  -0.558
  O  O133  1  0.979410  0.508030  0.387450  1.0  -0.558
  O  O134  1  0.020590  0.874890  0.491970  1.0  -0.5583
  O  O135  1  0.020590  0.491970  0.612550  1.0  -0.5585
  O  O136  1  0.125110  0.387450  0.508030  1.0  -0.5584
  O  O137  1  0.508030  0.125110  0.979410  1.0  -0.5581
  O  O138  1  0.508030  0.387450  0.979410  1.0  -0.5592
  O  O139  1  0.387450  0.125110  0.508030  1.0  -0.5588
  O  O140  1  0.387450  0.979410  0.508030  1.0  -0.5579
  O  O141  1  0.125110  0.508030  0.979410  1.0  -0.5587
  O  O142  1  0.874890  0.612550  0.020590  1.0  -0.5585
  O  O143  1  0.020590  0.612550  0.491970  1.0  -0.5582
  O  O144  1  0.874890  0.491970  0.612550  1.0  -0.5588
  O  O145  1  0.508030  0.125110  0.387450  1.0  -0.5581
  O  O146  1  0.491970  0.020590  0.874890  1.0  -0.5581
  O  O147  1  0.387450  0.508030  0.979410  1.0  -0.5588
  O  O148  1  0.874890  0.491970  0.020590  1.0  -0.5592
  O  O149  1  0.612550  0.491970  0.020590  1.0  -0.5592
  O  O150  1  0.979410  0.387450  0.508030  1.0  -0.5587
  O  O151  1  0.874890  0.612550  0.491970  1.0  -0.5584
  O  O152  1  0.874890  0.020590  0.612550  1.0  -0.5578
  O  O153  1  0.491970  0.612550  0.020590  1.0  -0.5586
  O  O154  1  0.979410  0.508030  0.125110  1.0  -0.5582
  O  O155  1  0.612550  0.020590  0.874890  1.0  -0.5583
  O  O156  1  0.612550  0.874890  0.491970  1.0  -0.5587
