# generated using pymatgen
data_AlC8O5
_symmetry_space_group_name_H-M   'P 1'
_cell_length_a   6.63050000
_cell_length_b   16.78320000
_cell_length_c   12.76180000
_cell_angle_alpha   90.00000000
_cell_angle_beta   90.00000000
_cell_angle_gamma   90.00000000
_symmetry_Int_Tables_number   1
_chemical_formula_structural   AlC8O5
_chemical_formula_sum   'Al4 C32 O20'
_cell_volume   1420.14596279
_cell_formula_units_Z   4
loop_
 _symmetry_equiv_pos_site_id
 _symmetry_equiv_pos_as_xyz
  1  'x, y, z'
loop_
 _atom_site_type_symbol
 _atom_site_label
 _atom_site_symmetry_multiplicity
 _atom_site_fract_x
 _atom_site_fract_y
 _atom_site_fract_z
 _atom_site_occupancy
 _atom_site_charge
  Al  Al1  1  0.250000  0.250000  0.750000  1.0  1.8076
  Al  Al2  1  0.750000  0.250000  0.750000  1.0  1.8076
  Al  Al3  1  0.750000  0.750000  0.250000  1.0  1.8076
  Al  Al4  1  0.250000  0.750000  0.250000  1.0  1.8076
  C  C5  1  0.808300  0.035080  0.968200  1.0  -0.0153
  C  C6  1  0.308300  0.535080  0.468200  1.0  -0.0153
  C  C7  1  0.191700  0.464920  0.968200  1.0  -0.0131
  C  C8  1  0.691700  0.964920  0.468200  1.0  -0.0132
  C  C9  1  0.191700  0.535080  0.031800  1.0  -0.0125
  C  C10  1  0.691700  0.035080  0.531800  1.0  -0.0125
  C  C11  1  0.808300  0.964920  0.031800  1.0  -0.0154
  C  C12  1  0.308300  0.464920  0.531800  1.0  -0.0154
  C  C13  1  0.191700  0.964920  0.031800  1.0  -0.0116
  C  C14  1  0.691700  0.464920  0.531800  1.0  -0.0116
  C  C15  1  0.808300  0.535080  0.031800  1.0  -0.0141
  C  C16  1  0.308300  0.035080  0.531800  1.0  -0.0157
  C  C17  1  0.808300  0.464920  0.968200  1.0  -0.0154
  C  C18  1  0.308300  0.964920  0.468200  1.0  -0.0154
  C  C19  1  0.191700  0.035080  0.968200  1.0  -0.0132
  C  C20  1  0.691700  0.535080  0.468200  1.0  -0.0132
  C  C21  1  0.000000  0.062800  0.944400  1.0  -0.0347
  C  C22  1  0.000000  0.138350  0.870400  1.0  0.694
  C  C23  1  0.500000  0.562800  0.444400  1.0  -0.0347
  C  C24  1  0.500000  0.638350  0.370400  1.0  0.694
  C  C25  1  0.000000  0.437200  0.944400  1.0  -0.035
  C  C26  1  0.000000  0.361650  0.870400  1.0  0.6945
  C  C27  1  0.500000  0.937200  0.444400  1.0  -0.035
  C  C28  1  0.500000  0.861650  0.370400  1.0  0.6945
  C  C29  1  0.000000  0.562800  0.055600  1.0  -0.0335
  C  C30  1  0.000000  0.638350  0.129600  1.0  0.6943
  C  C31  1  0.500000  0.062800  0.555600  1.0  -0.0335
  C  C32  1  0.500000  0.138350  0.629600  1.0  0.6943
  C  C33  1  0.000000  0.937200  0.055600  1.0  -0.0342
  C  C34  1  0.000000  0.861650  0.129600  1.0  0.6948
  C  C35  1  0.500000  0.437200  0.555600  1.0  -0.0342
  C  C36  1  0.500000  0.361650  0.629600  1.0  0.6948
  O  O37  1  0.167830  0.167690  0.843080  1.0  -0.5815
  O  O38  1  0.667830  0.667690  0.343080  1.0  -0.5815
  O  O39  1  0.832170  0.332310  0.843080  1.0  -0.5813
  O  O40  1  0.332170  0.832310  0.343080  1.0  -0.5813
  O  O41  1  0.832170  0.667690  0.156920  1.0  -0.5823
  O  O42  1  0.332170  0.167690  0.656920  1.0  -0.5823
  O  O43  1  0.167830  0.832310  0.156920  1.0  -0.5818
  O  O44  1  0.667830  0.332310  0.656920  1.0  -0.5818
  O  O45  1  0.832170  0.832310  0.156920  1.0  -0.5819
  O  O46  1  0.332170  0.332310  0.656920  1.0  -0.5819
  O  O47  1  0.167830  0.667690  0.156920  1.0  -0.582
  O  O48  1  0.667830  0.167690  0.656920  1.0  -0.582
  O  O49  1  0.167830  0.332310  0.843080  1.0  -0.5813
  O  O50  1  0.667830  0.832310  0.343080  1.0  -0.5813
  O  O51  1  0.832170  0.167690  0.843080  1.0  -0.5815
  O  O52  1  0.332170  0.667690  0.343080  1.0  -0.5815
  O  O53  1  0.000000  0.250000  0.685000  1.0  -0.7446
  O  O54  1  0.500000  0.750000  0.185000  1.0  -0.7446
  O  O55  1  0.000000  0.750000  0.315000  1.0  -0.7458
  O  O56  1  0.500000  0.250000  0.815000  1.0  -0.7458
