# generated using pymatgen
data_AlH4C8O4F
_symmetry_space_group_name_H-M   'P 1'
_cell_length_a   13.13950000
_cell_length_b   16.41440000
_cell_length_c   13.31410000
_cell_angle_alpha   89.99840000
_cell_angle_beta   90.00350000
_cell_angle_gamma   90.60470000
_symmetry_Int_Tables_number   1
_chemical_formula_structural   AlH4C8O4F
_chemical_formula_sum   'Al8 H32 C64 O32 F8'
_cell_volume   2871.38533146
_cell_formula_units_Z   8
loop_
 _symmetry_equiv_pos_site_id
 _symmetry_equiv_pos_as_xyz
  1  'x, y, z'
loop_
 _atom_site_type_symbol
 _atom_site_label
 _atom_site_symmetry_multiplicity
 _atom_site_fract_x
 _atom_site_fract_y
 _atom_site_fract_z
 _atom_site_occupancy
 _atom_site_charge
  Al  Al1  1  0.125010  0.249930  0.748280  1.0  1.7951
  Al  Al2  1  0.374960  0.749930  0.248250  1.0  1.8023
  Al  Al3  1  0.375010  0.249910  0.748280  1.0  1.7963
  Al  Al4  1  0.124960  0.749910  0.248240  1.0  1.8013
  Al  Al5  1  0.625020  0.249950  0.748250  1.0  1.796
  Al  Al6  1  0.874980  0.749950  0.248240  1.0  1.7955
  Al  Al7  1  0.875030  0.249930  0.748290  1.0  1.7956
  Al  Al8  1  0.624980  0.749930  0.248260  1.0  1.8021
  H  H9  1  0.411960  0.459840  0.580960  1.0  0.0949
  H  H10  1  0.407780  0.581210  0.465860  1.0  0.0993
  H  H11  1  0.088190  0.540260  0.415890  1.0  0.0971
  H  H12  1  0.092370  0.418910  0.531010  1.0  0.0994
  H  H13  1  0.407760  0.081150  0.530730  1.0  0.0999
  H  H14  1  0.088140  0.040280  0.580570  1.0  0.0966
  H  H15  1  0.157740  0.080540  0.965000  1.0  0.1007
  H  H16  1  0.342310  0.918180  0.029820  1.0  0.1001
  H  H17  1  0.161860  0.959130  0.080030  1.0  0.0966
  H  H18  1  0.338210  0.039580  0.914770  1.0  0.0969
  H  H19  1  0.342250  0.418220  0.966450  1.0  0.1001
  H  H20  1  0.161870  0.459170  0.916630  1.0  0.0968
  H  H21  1  0.092290  0.918990  0.465370  1.0  0.0994
  H  H22  1  0.411900  0.959850  0.415530  1.0  0.0959
  H  H23  1  0.157640  0.580510  0.031750  1.0  0.0997
  H  H24  1  0.338040  0.539550  0.081590  1.0  0.0958
  H  H25  1  0.912030  0.459930  0.581040  1.0  0.0961
  H  H26  1  0.907850  0.581300  0.465960  1.0  0.1
  H  H27  1  0.588260  0.540380  0.416010  1.0  0.0971
  H  H28  1  0.592430  0.419010  0.531110  1.0  0.0993
  H  H29  1  0.907850  0.081240  0.530640  1.0  0.0997
  H  H30  1  0.588220  0.040400  0.580450  1.0  0.0961
  H  H31  1  0.657840  0.080360  0.964740  1.0  0.096
  H  H32  1  0.842370  0.918030  0.029600  1.0  0.1002
  H  H33  1  0.661930  0.958960  0.079780  1.0  0.0965
  H  H34  1  0.838250  0.039430  0.914570  1.0  0.0961
  H  H35  1  0.842310  0.418120  0.966600  1.0  0.1001
  H  H36  1  0.661910  0.459030  0.916820  1.0  0.0967
  H  H37  1  0.592360  0.919100  0.465250  1.0  0.0989
  H  H38  1  0.911980  0.959950  0.415430  1.0  0.0978
  H  H39  1  0.657710  0.580370  0.031960  1.0  0.0985
  H  H40  1  0.838090  0.539460  0.081740  1.0  0.0965
  C  C41  1  0.408500  0.021440  0.951480  1.0  -0.0846
  C  C42  1  0.997780  0.066800  0.933420  1.0  -0.098
  C  C43  1  0.495700  0.138730  0.864980  1.0  0.7152
  C  C44  1  0.089280  0.544340  0.017050  1.0  -0.117
  C  C45  1  0.158480  0.522180  0.452630  1.0  -0.0813
  C  C46  1  0.247770  0.567520  0.434460  1.0  -0.099
  C  C47  1  0.245660  0.639280  0.365750  1.0  0.7124
  C  C48  1  0.339350  0.045040  0.515970  1.0  -0.1169
  C  C49  1  0.091570  0.477230  0.953360  1.0  -0.0835
  C  C50  1  0.502270  0.431910  0.935110  1.0  -0.1012
  C  C51  1  0.004330  0.360400  0.866020  1.0  0.7152
  C  C52  1  0.410720  0.954300  0.015140  1.0  -0.1111
  C  C53  1  0.341600  0.977960  0.452230  1.0  -0.0848
  C  C54  1  0.252280  0.932680  0.433960  1.0  -0.1004
  C  C55  1  0.254330  0.860960  0.365170  1.0  0.7099
  C  C56  1  0.160760  0.455060  0.516310  1.0  -0.1185
  C  C57  1  0.091600  0.977200  0.043220  1.0  -0.0797
  C  C58  1  0.502300  0.931850  0.061330  1.0  -0.0972
  C  C59  1  0.004310  0.860330  0.130410  1.0  0.7143
  C  C60  1  0.410650  0.454340  0.981230  1.0  -0.111
  C  C61  1  0.341660  0.477940  0.544250  1.0  -0.0829
  C  C62  1  0.252350  0.432630  0.562480  1.0  -0.1017
  C  C63  1  0.254390  0.360920  0.631270  1.0  0.7124
  C  C64  1  0.160690  0.955110  0.480110  1.0  -0.1174
  C  C65  1  0.408370  0.521440  0.044940  1.0  -0.0851
  C  C66  1  0.997650  0.566790  0.063120  1.0  -0.096
  C  C67  1  0.495570  0.638700  0.131600  1.0  0.7149
  C  C68  1  0.089360  0.044340  0.979580  1.0  -0.1177
  C  C69  1  0.158440  0.022200  0.543840  1.0  -0.0824
  C  C70  1  0.247740  0.067500  0.562080  1.0  -0.0985
  C  C71  1  0.245670  0.139230  0.630830  1.0  0.7127
  C  C72  1  0.339380  0.545070  0.480580  1.0  -0.1175
  C  C73  1  0.908520  0.021360  0.951370  1.0  -0.0841
  C  C74  1  0.497800  0.066790  0.933400  1.0  -0.1029
  C  C75  1  0.995670  0.138750  0.865010  1.0  0.7149
  C  C76  1  0.589310  0.544250  0.017180  1.0  -0.1167
  C  C77  1  0.658550  0.522280  0.452740  1.0  -0.0845
  C  C78  1  0.747840  0.567620  0.434570  1.0  -0.1001
  C  C79  1  0.745710  0.639360  0.365830  1.0  0.7132
  C  C80  1  0.839430  0.045130  0.515870  1.0  -0.1158
  C  C81  1  0.591590  0.477150  0.953480  1.0  -0.0836
  C  C82  1  0.002280  0.431930  0.935090  1.0  -0.1033
  C  C83  1  0.504320  0.360390  0.866020  1.0  0.7144
  C  C84  1  0.910760  0.954220  0.015020  1.0  -0.1163
  C  C85  1  0.841680  0.978050  0.452130  1.0  -0.0841
  C  C86  1  0.752360  0.932770  0.433860  1.0  -0.102
  C  C87  1  0.754390  0.861040  0.365090  1.0  0.7101
  C  C88  1  0.660820  0.455160  0.516410  1.0  -0.1186
  C  C89  1  0.591640  0.977100  0.043080  1.0  -0.0849
  C  C90  1  0.002300  0.931860  0.061340  1.0  -0.1002
  C  C91  1  0.504290  0.860340  0.130430  1.0  0.7135
  C  C92  1  0.910690  0.454280  0.981310  1.0  -0.1189
  C  C93  1  0.841720  0.478030  0.544350  1.0  -0.087
  C  C94  1  0.752420  0.432720  0.562560  1.0  -0.0999
  C  C95  1  0.754440  0.360990  0.631340  1.0  0.7123
  C  C96  1  0.660760  0.955220  0.479990  1.0  -0.1129
  C  C97  1  0.908390  0.521390  0.045010  1.0  -0.086
  C  C98  1  0.497660  0.566770  0.063150  1.0  -0.0997
  C  C99  1  0.995550  0.638710  0.131580  1.0  0.7154
  C  C100  1  0.589420  0.044240  0.979420  1.0  -0.119
  C  C101  1  0.658520  0.022300  0.543730  1.0  -0.0869
  C  C102  1  0.747820  0.067600  0.561970  1.0  -0.0989
  C  C103  1  0.745730  0.139310  0.630750  1.0  0.7124
  C  C104  1  0.839450  0.545160  0.480670  1.0  -0.1137
  O  O105  1  0.080230  0.174800  0.847350  1.0  -0.6126
  O  O106  1  0.409470  0.659280  0.167190  1.0  -0.6089
  O  O107  1  0.330210  0.675280  0.347890  1.0  -0.6132
  O  O108  1  0.159580  0.159730  0.666510  1.0  -0.6089
  O  O109  1  0.419720  0.324540  0.847930  1.0  -0.6119
  O  O110  1  0.090360  0.839990  0.166320  1.0  -0.6053
  O  O111  1  0.169740  0.825020  0.347330  1.0  -0.6121
  O  O112  1  0.340470  0.340410  0.666990  1.0  -0.6073
  O  O113  1  0.419680  0.824500  0.148510  1.0  -0.6123
  O  O114  1  0.090400  0.340050  0.830160  1.0  -0.6081
  O  O115  1  0.169780  0.325020  0.649160  1.0  -0.6117
  O  O116  1  0.340410  0.840490  0.329420  1.0  -0.6082
  O  O117  1  0.080120  0.674770  0.149230  1.0  -0.6129
  O  O118  1  0.409590  0.159330  0.829420  1.0  -0.6088
  O  O119  1  0.330250  0.175180  0.648740  1.0  -0.6127
  O  O120  1  0.159570  0.659720  0.330020  1.0  -0.6087
  O  O121  1  0.580270  0.174770  0.847280  1.0  -0.6131
  O  O122  1  0.909470  0.659260  0.167220  1.0  -0.609
  O  O123  1  0.830260  0.675360  0.347950  1.0  -0.6131
  O  O124  1  0.659640  0.159790  0.666430  1.0  -0.6087
  O  O125  1  0.919740  0.324520  0.847980  1.0  -0.6122
  O  O126  1  0.590360  0.839960  0.166280  1.0  -0.6054
  O  O127  1  0.669800  0.825090  0.347280  1.0  -0.6121
  O  O128  1  0.840510  0.340470  0.667060  1.0  -0.6073
  O  O129  1  0.919710  0.824450  0.148440  1.0  -0.6126
  O  O130  1  0.590390  0.340030  0.830180  1.0  -0.608
  O  O131  1  0.669830  0.325080  0.649190  1.0  -0.6118
  O  O132  1  0.840460  0.840560  0.329340  1.0  -0.6081
  O  O133  1  0.580140  0.674720  0.149290  1.0  -0.6132
  O  O134  1  0.909570  0.159320  0.829400  1.0  -0.6088
  O  O135  1  0.830310  0.175250  0.648690  1.0  -0.6121
  O  O136  1  0.659610  0.659800  0.330110  1.0  -0.6085
  F  F137  1  0.000020  0.250040  0.687870  1.0  -0.5756
  F  F138  1  0.249960  0.749860  0.187840  1.0  -0.5756
  F  F139  1  0.499980  0.750060  0.308670  1.0  -0.5745
  F  F140  1  0.250010  0.249870  0.808680  1.0  -0.5747
  F  F141  1  0.500020  0.250040  0.687860  1.0  -0.5757
  F  F142  1  0.749970  0.749850  0.187850  1.0  -0.5757
  F  F143  1  0.999980  0.750060  0.308660  1.0  -0.5745
  F  F144  1  0.750020  0.249880  0.808670  1.0  -0.5749
