# generated using pymatgen
data_AlC8O4F
_symmetry_space_group_name_H-M   'P 1'
_cell_length_a   6.56770000
_cell_length_b   16.39840000
_cell_length_c   13.16400000
_cell_angle_alpha   90.00000000
_cell_angle_beta   90.00000000
_cell_angle_gamma   90.00000000
_symmetry_Int_Tables_number   1
_chemical_formula_structural   AlC8O4F
_chemical_formula_sum   'Al4 C32 O16 F4'
_cell_volume   1417.75979440
_cell_formula_units_Z   4
loop_
 _symmetry_equiv_pos_site_id
 _symmetry_equiv_pos_as_xyz
  1  'x, y, z'
loop_
 _atom_site_type_symbol
 _atom_site_label
 _atom_site_symmetry_multiplicity
 _atom_site_fract_x
 _atom_site_fract_y
 _atom_site_fract_z
 _atom_site_occupancy
 _atom_site_charge
  Al  Al1  1  0.250000  0.250000  0.750000  1.0  1.8204
  Al  Al2  1  0.750000  0.250000  0.750000  1.0  1.8204
  Al  Al3  1  0.750000  0.750000  0.250000  1.0  1.8204
  Al  Al4  1  0.250000  0.750000  0.250000  1.0  1.8204
  C  C5  1  0.807100  0.026500  0.954300  1.0  -0.0521
  C  C6  1  0.307100  0.526500  0.454300  1.0  -0.0521
  C  C7  1  0.192900  0.473500  0.954300  1.0  -0.0503
  C  C8  1  0.692900  0.973500  0.454300  1.0  -0.0503
  C  C9  1  0.192900  0.526500  0.045700  1.0  -0.0496
  C  C10  1  0.692900  0.026500  0.545700  1.0  -0.0496
  C  C11  1  0.807100  0.973500  0.045700  1.0  -0.0521
  C  C12  1  0.307100  0.473500  0.545700  1.0  -0.0521
  C  C13  1  0.192900  0.973500  0.045700  1.0  -0.0512
  C  C14  1  0.692900  0.473500  0.545700  1.0  -0.0512
  C  C15  1  0.807100  0.526500  0.045700  1.0  -0.0532
  C  C16  1  0.307100  0.026500  0.545700  1.0  -0.0532
  C  C17  1  0.807100  0.473500  0.954300  1.0  -0.0516
  C  C18  1  0.307100  0.973500  0.454300  1.0  -0.0516
  C  C19  1  0.192900  0.026500  0.954300  1.0  -0.0498
  C  C20  1  0.692900  0.526500  0.454300  1.0  -0.0498
  C  C21  1  0.000000  0.064100  0.949800  1.0  -0.0132
  C  C22  1  0.000000  0.138900  0.870500  1.0  0.6767
  C  C23  1  0.500000  0.564100  0.449800  1.0  -0.0158
  C  C24  1  0.500000  0.638900  0.370500  1.0  0.6767
  C  C25  1  0.000000  0.435900  0.949800  1.0  -0.0138
  C  C26  1  0.000000  0.361100  0.870500  1.0  0.6772
  C  C27  1  0.500000  0.935900  0.449800  1.0  -0.0163
  C  C28  1  0.500000  0.861100  0.370500  1.0  0.6772
  C  C29  1  0.000000  0.564100  0.050200  1.0  -0.0134
  C  C30  1  0.000000  0.638900  0.129500  1.0  0.6757
  C  C31  1  0.500000  0.064100  0.550200  1.0  -0.0162
  C  C32  1  0.500000  0.138900  0.629500  1.0  0.6757
  C  C33  1  0.000000  0.935900  0.050200  1.0  -0.0143
  C  C34  1  0.000000  0.861100  0.129500  1.0  0.6771
  C  C35  1  0.500000  0.435900  0.550200  1.0  -0.017
  C  C36  1  0.500000  0.361100  0.629500  1.0  0.6771
  O  O37  1  0.169000  0.168180  0.839970  1.0  -0.5992
  O  O38  1  0.669000  0.668180  0.339970  1.0  -0.6005
  O  O39  1  0.831000  0.331820  0.839970  1.0  -0.5991
  O  O40  1  0.331000  0.831820  0.339970  1.0  -0.5991
  O  O41  1  0.831000  0.668180  0.160030  1.0  -0.6001
  O  O42  1  0.331000  0.168180  0.660030  1.0  -0.5988
  O  O43  1  0.169000  0.831820  0.160030  1.0  -0.5996
  O  O44  1  0.669000  0.331820  0.660030  1.0  -0.5996
  O  O45  1  0.831000  0.831820  0.160030  1.0  -0.5985
  O  O46  1  0.331000  0.331820  0.660030  1.0  -0.5987
  O  O47  1  0.169000  0.668180  0.160030  1.0  -0.6002
  O  O48  1  0.669000  0.168180  0.660030  1.0  -0.6002
  O  O49  1  0.169000  0.331820  0.839970  1.0  -0.5997
  O  O50  1  0.669000  0.831820  0.339970  1.0  -0.6007
  O  O51  1  0.831000  0.168180  0.839970  1.0  -0.599
  O  O52  1  0.331000  0.668180  0.339970  1.0  -0.599
  F  F53  1  0.000000  0.250000  0.693700  1.0  -0.5402
  F  F54  1  0.500000  0.750000  0.193700  1.0  -0.5402
  F  F55  1  0.000000  0.750000  0.306300  1.0  -0.5415
  F  F56  1  0.500000  0.250000  0.806300  1.0  -0.5415
