# generated using pymatgen
data_AlH4C8O4F
_symmetry_space_group_name_H-M   'P 1'
_cell_length_a   13.14850000
_cell_length_b   16.40800000
_cell_length_c   13.34400000
_cell_angle_alpha   90.00000000
_cell_angle_beta   90.00000000
_cell_angle_gamma   90.00000000
_symmetry_Int_Tables_number   1
_chemical_formula_structural   AlH4C8O4F
_chemical_formula_sum   'Al8 H32 C64 O32 F8'
_cell_volume   2878.84240627
_cell_formula_units_Z   8
loop_
 _symmetry_equiv_pos_site_id
 _symmetry_equiv_pos_as_xyz
  1  'x, y, z'
loop_
 _atom_site_type_symbol
 _atom_site_label
 _atom_site_symmetry_multiplicity
 _atom_site_fract_x
 _atom_site_fract_y
 _atom_site_fract_z
 _atom_site_occupancy
 _atom_site_charge
  Al  Al1  1  0.118610  0.248670  0.748550  1.0  1.7965
  Al  Al2  1  0.369210  0.748690  0.248700  1.0  1.7977
  Al  Al3  1  0.368610  0.248670  0.748730  1.0  1.7979
  Al  Al4  1  0.119210  0.748680  0.248640  1.0  1.7964
  Al  Al5  1  0.618620  0.248670  0.748540  1.0  1.7965
  Al  Al6  1  0.869220  0.748690  0.248680  1.0  1.7976
  Al  Al7  1  0.868630  0.248670  0.748760  1.0  1.7977
  Al  Al8  1  0.619220  0.748690  0.248650  1.0  1.7977
  H  H9  1  0.404440  0.457650  0.584130  1.0  0.0928
  H  H10  1  0.402170  0.578940  0.468990  1.0  0.0992
  H  H11  1  0.083460  0.541000  0.415060  1.0  0.0893
  H  H12  1  0.085730  0.419720  0.530180  1.0  0.0972
  H  H13  1  0.401910  0.079100  0.528700  1.0  0.099
  H  H14  1  0.083290  0.040440  0.582430  1.0  0.0909
  H  H15  1  0.151820  0.078090  0.967140  1.0  0.098
  H  H16  1  0.335960  0.918210  0.028650  1.0  0.0997
  H  H17  1  0.154620  0.956860  0.082330  1.0  0.0907
  H  H18  1  0.333150  0.039480  0.913520  1.0  0.0937
  H  H19  1  0.335750  0.418320  0.969180  1.0  0.0988
  H  H20  1  0.154410  0.456360  0.914970  1.0  0.0887
  H  H21  1  0.086100  0.919160  0.467310  1.0  0.0978
  H  H22  1  0.404700  0.957840  0.413540  1.0  0.0943
  H  H23  1  0.152170  0.577650  0.030070  1.0  0.0975
  H  H24  1  0.333500  0.539600  0.084310  1.0  0.0932
  H  H25  1  0.904500  0.457680  0.584150  1.0  0.0927
  H  H26  1  0.902220  0.578950  0.469000  1.0  0.099
  H  H27  1  0.583520  0.541010  0.415060  1.0  0.0893
  H  H28  1  0.585790  0.419730  0.530180  1.0  0.0972
  H  H29  1  0.901980  0.079110  0.528680  1.0  0.0999
  H  H30  1  0.583360  0.040440  0.582430  1.0  0.0903
  H  H31  1  0.651810  0.078050  0.967080  1.0  0.0973
  H  H32  1  0.836000  0.918190  0.028600  1.0  0.0994
  H  H33  1  0.654610  0.956830  0.082280  1.0  0.0896
  H  H34  1  0.833180  0.039470  0.913490  1.0  0.0922
  H  H35  1  0.835770  0.418300  0.969190  1.0  0.0988
  H  H36  1  0.654400  0.456350  0.914990  1.0  0.0889
  H  H37  1  0.586170  0.919170  0.467310  1.0  0.0979
  H  H38  1  0.904770  0.957850  0.413520  1.0  0.0944
  H  H39  1  0.652160  0.577630  0.030110  1.0  0.0978
  H  H40  1  0.833520  0.539600  0.084310  1.0  0.0929
  C  C41  1  0.402950  0.020870  0.951030  1.0  -0.091
  C  C42  1  0.992380  0.065510  0.933810  1.0  -0.0986
  C  C43  1  0.490730  0.137240  0.865120  1.0  0.7173
  C  C44  1  0.083560  0.542150  0.016380  1.0  -0.1055
  C  C45  1  0.153130  0.522260  0.452690  1.0  -0.1023
  C  C46  1  0.242700  0.566720  0.435540  1.0  -0.1004
  C  C47  1  0.241260  0.638280  0.366600  1.0  0.7082
  C  C48  1  0.333420  0.043490  0.514820  1.0  -0.1034
  C  C49  1  0.084760  0.475080  0.952660  1.0  -0.1022
  C  C50  1  0.495190  0.430590  0.935590  1.0  -0.1002
  C  C51  1  0.996610  0.359010  0.866670  1.0  0.7084
  C  C52  1  0.404460  0.953810  0.014760  1.0  -0.1007
  C  C53  1  0.334920  0.976430  0.451090  1.0  -0.0927
  C  C54  1  0.245530  0.931770  0.433920  1.0  -0.0991
  C  C55  1  0.247150  0.860040  0.365250  1.0  0.716
  C  C56  1  0.154350  0.455200  0.516420  1.0  -0.1024
  C  C57  1  0.084850  0.975420  0.044740  1.0  -0.0891
  C  C58  1  0.495440  0.930750  0.061930  1.0  -0.1004
  C  C59  1  0.997120  0.859120  0.130770  1.0  0.7099
  C  C60  1  0.404370  0.453790  0.982930  1.0  -0.1002
  C  C61  1  0.334760  0.476420  0.546540  1.0  -0.0918
  C  C62  1  0.245200  0.431940  0.563650  1.0  -0.0988
  C  C63  1  0.246620  0.360140  0.632220  1.0  0.7165
  C  C64  1  0.154570  0.954810  0.481120  1.0  -0.1005
  C  C65  1  0.403170  0.520860  0.046660  1.0  -0.0918
  C  C66  1  0.992720  0.565390  0.063670  1.0  -0.0991
  C  C67  1  0.491290  0.637210  0.132240  1.0  0.7163
  C  C68  1  0.083350  0.042460  0.980990  1.0  -0.1027
  C  C69  1  0.153060  0.021870  0.544840  1.0  -0.0893
  C  C70  1  0.242440  0.066560  0.562000  1.0  -0.1007
  C  C71  1  0.240760  0.138230  0.630760  1.0  0.7097
  C  C72  1  0.333540  0.543490  0.482810  1.0  -0.102
  C  C73  1  0.902970  0.020860  0.951020  1.0  -0.0895
  C  C74  1  0.492350  0.065500  0.933790  1.0  -0.0993
  C  C75  1  0.990750  0.137260  0.865160  1.0  0.717
  C  C76  1  0.583550  0.542140  0.016400  1.0  -0.1056
  C  C77  1  0.653190  0.522270  0.452700  1.0  -0.102
  C  C78  1  0.742750  0.566720  0.435540  1.0  -0.1006
  C  C79  1  0.741290  0.638300  0.366620  1.0  0.7087
  C  C80  1  0.833490  0.043500  0.514820  1.0  -0.105
  C  C81  1  0.584740  0.475070  0.952680  1.0  -0.1045
  C  C82  1  0.995210  0.430580  0.935600  1.0  -0.1
  C  C83  1  0.496600  0.359010  0.866660  1.0  0.7088
  C  C84  1  0.904490  0.953800  0.014740  1.0  -0.1009
  C  C85  1  0.834990  0.976450  0.451080  1.0  -0.0902
  C  C86  1  0.745600  0.931770  0.433910  1.0  -0.0977
  C  C87  1  0.747200  0.860060  0.365220  1.0  0.7163
  C  C88  1  0.654400  0.455210  0.516420  1.0  -0.1022
  C  C89  1  0.584840  0.975400  0.044710  1.0  -0.0894
  C  C90  1  0.995460  0.930750  0.061930  1.0  -0.1008
  C  C91  1  0.497100  0.859120  0.130780  1.0  0.7099
  C  C92  1  0.904390  0.453790  0.982940  1.0  -0.1001
  C  C93  1  0.834810  0.476440  0.546560  1.0  -0.0919
  C  C94  1  0.745260  0.431960  0.563670  1.0  -0.0987
  C  C95  1  0.746660  0.360160  0.632250  1.0  0.7167
  C  C96  1  0.654640  0.954820  0.481120  1.0  -0.1005
  C  C97  1  0.903190  0.520860  0.046660  1.0  -0.0918
  C  C98  1  0.492710  0.565380  0.063690  1.0  -0.0987
  C  C99  1  0.991290  0.637220  0.132210  1.0  0.7161
  C  C100  1  0.583330  0.042440  0.980950  1.0  -0.1025
  C  C101  1  0.653130  0.021880  0.544830  1.0  -0.1041
  C  C102  1  0.742510  0.066570  0.561990  1.0  -0.1004
  C  C103  1  0.740800  0.138250  0.630740  1.0  0.7098
  C  C104  1  0.833600  0.543500  0.482820  1.0  -0.1022
  O  O105  1  0.075370  0.172070  0.846580  1.0  -0.6128
  O  O106  1  0.405140  0.658840  0.167220  1.0  -0.6049
  O  O107  1  0.325890  0.673060  0.347940  1.0  -0.613
  O  O108  1  0.154490  0.159710  0.665610  1.0  -0.6054
  O  O109  1  0.411950  0.324250  0.848010  1.0  -0.6199
  O  O110  1  0.083360  0.837700  0.165760  1.0  -0.6062
  O  O111  1  0.162560  0.825140  0.346790  1.0  -0.6126
  O  O112  1  0.332750  0.338560  0.667280  1.0  -0.6053
  O  O113  1  0.412520  0.824310  0.149490  1.0  -0.6116
  O  O114  1  0.082760  0.337600  0.831500  1.0  -0.6055
  O  O115  1  0.161960  0.325310  0.650590  1.0  -0.6126
  O  O116  1  0.333333  0.838560  0.330200  1.0  -0.6056
  O  O117  1  0.075940  0.672060  0.150590  1.0  -0.6129
  O  O118  1  0.404530  0.158820  0.830220  1.0  -0.6045
  O  O119  1  0.325340  0.173050  0.649500  1.0  -0.6125
  O  O120  1  0.155080  0.659690  0.331480  1.0  -0.6043
  O  O121  1  0.575360  0.172040  0.846530  1.0  -0.6129
  O  O122  1  0.905150  0.658840  0.167210  1.0  -0.6049
  O  O123  1  0.825930  0.673070  0.347930  1.0  -0.6128
  O  O124  1  0.654530  0.159730  0.665570  1.0  -0.6055
  O  O125  1  0.911970  0.324220  0.848060  1.0  -0.6198
  O  O126  1  0.583340  0.837700  0.165760  1.0  -0.606
  O  O127  1  0.662600  0.825160  0.346780  1.0  -0.6126
  O  O128  1  0.832780  0.338570  0.667330  1.0  -0.6053
  O  O129  1  0.912540  0.824300  0.149460  1.0  -0.6118
  O  O130  1  0.582750  0.337590  0.831510  1.0  -0.6056
  O  O131  1  0.661990  0.325330  0.650600  1.0  -0.6125
  O  O132  1  0.833370  0.838570  0.330160  1.0  -0.6056
  O  O133  1  0.575940  0.672040  0.150640  1.0  -0.6125
  O  O134  1  0.904550  0.158820  0.830240  1.0  -0.6043
  O  O135  1  0.825380  0.173060  0.649510  1.0  -0.6123
  O  O136  1  0.655110  0.659710  0.331520  1.0  -0.6043
  F  F137  1  0.993570  0.249160  0.688690  1.0  -0.5733
  F  F138  1  0.244230  0.748290  0.188730  1.0  -0.5736
  F  F139  1  0.494190  0.749180  0.308610  1.0  -0.5711
  F  F140  1  0.243580  0.248160  0.808590  1.0  -0.5711
  F  F141  1  0.493570  0.249170  0.688670  1.0  -0.5735
  F  F142  1  0.744230  0.748280  0.188730  1.0  -0.5734
  F  F143  1  0.994200  0.749170  0.308590  1.0  -0.5712
  F  F144  1  0.743580  0.248140  0.808600  1.0  -0.5724
