# generated using pymatgen
data_AlC8O4F
_symmetry_space_group_name_H-M   'P 1'
_cell_length_a   6.56750000
_cell_length_b   16.40260000
_cell_length_c   13.16430000
_cell_angle_alpha   90.00000000
_cell_angle_beta   90.00000000
_cell_angle_gamma   90.00000000
_symmetry_Int_Tables_number   1
_chemical_formula_structural   AlC8O4F
_chemical_formula_sum   'Al4 C32 O16 F4'
_cell_volume   1418.11204710
_cell_formula_units_Z   4
loop_
 _symmetry_equiv_pos_site_id
 _symmetry_equiv_pos_as_xyz
  1  'x, y, z'
loop_
 _atom_site_type_symbol
 _atom_site_label
 _atom_site_symmetry_multiplicity
 _atom_site_fract_x
 _atom_site_fract_y
 _atom_site_fract_z
 _atom_site_occupancy
 _atom_site_charge
  Al  Al1  1  0.250000  0.250000  0.750000  1.0  1.8303
  Al  Al2  1  0.750000  0.250000  0.750000  1.0  1.8303
  Al  Al3  1  0.750000  0.750000  0.250000  1.0  1.8303
  Al  Al4  1  0.250000  0.750000  0.250000  1.0  1.8303
  C  C5  1  0.806100  0.026400  0.953700  1.0  -0.0445
  C  C6  1  0.306100  0.526400  0.453700  1.0  -0.0445
  C  C7  1  0.193900  0.473600  0.953700  1.0  -0.0443
  C  C8  1  0.693900  0.973600  0.453700  1.0  -0.0443
  C  C9  1  0.193900  0.526400  0.046300  1.0  -0.0453
  C  C10  1  0.693900  0.026400  0.546300  1.0  -0.0453
  C  C11  1  0.806100  0.973600  0.046300  1.0  -0.0455
  C  C12  1  0.306100  0.473600  0.546300  1.0  -0.0455
  C  C13  1  0.193900  0.973600  0.046300  1.0  -0.0455
  C  C14  1  0.693900  0.473600  0.546300  1.0  -0.0455
  C  C15  1  0.806100  0.526400  0.046300  1.0  -0.0456
  C  C16  1  0.306100  0.026400  0.546300  1.0  -0.0456
  C  C17  1  0.806100  0.473600  0.953700  1.0  -0.0447
  C  C18  1  0.306100  0.973600  0.453700  1.0  -0.0447
  C  C19  1  0.193900  0.026400  0.953700  1.0  -0.0454
  C  C20  1  0.693900  0.526400  0.453700  1.0  -0.0454
  C  C21  1  0.000000  0.064100  0.949000  1.0  -0.0082
  C  C22  1  0.000000  0.136300  0.868300  1.0  0.6564
  C  C23  1  0.500000  0.564100  0.449000  1.0  -0.0065
  C  C24  1  0.500000  0.636300  0.368300  1.0  0.6564
  C  C25  1  0.000000  0.435900  0.949000  1.0  -0.0083
  C  C26  1  0.000000  0.363700  0.868300  1.0  0.6561
  C  C27  1  0.500000  0.935900  0.449000  1.0  -0.0067
  C  C28  1  0.500000  0.863700  0.368300  1.0  0.6561
  C  C29  1  0.000000  0.564100  0.051000  1.0  -0.0089
  C  C30  1  0.000000  0.636300  0.131700  1.0  0.6567
  C  C31  1  0.500000  0.064100  0.551000  1.0  -0.0076
  C  C32  1  0.500000  0.136300  0.631700  1.0  0.6567
  C  C33  1  0.000000  0.935900  0.051000  1.0  -0.0092
  C  C34  1  0.000000  0.863700  0.131700  1.0  0.6561
  C  C35  1  0.500000  0.435900  0.551000  1.0  -0.008
  C  C36  1  0.500000  0.363700  0.631700  1.0  0.6561
  O  O37  1  0.167200  0.169030  0.840360  1.0  -0.6036
  O  O38  1  0.667200  0.669030  0.340360  1.0  -0.6037
  O  O39  1  0.832800  0.330970  0.840360  1.0  -0.6023
  O  O40  1  0.332800  0.830970  0.340360  1.0  -0.6023
  O  O41  1  0.832800  0.669030  0.159640  1.0  -0.6036
  O  O42  1  0.332800  0.169030  0.659640  1.0  -0.6031
  O  O43  1  0.167200  0.830970  0.159640  1.0  -0.6039
  O  O44  1  0.667200  0.330970  0.659640  1.0  -0.6034
  O  O45  1  0.832800  0.830970  0.159640  1.0  -0.6022
  O  O46  1  0.332800  0.330970  0.659640  1.0  -0.6022
  O  O47  1  0.167200  0.669030  0.159640  1.0  -0.604
  O  O48  1  0.667200  0.169030  0.659640  1.0  -0.604
  O  O49  1  0.167200  0.330970  0.840360  1.0  -0.6036
  O  O50  1  0.667200  0.830970  0.340360  1.0  -0.6035
  O  O51  1  0.832800  0.169030  0.840360  1.0  -0.6028
  O  O52  1  0.332800  0.669030  0.340360  1.0  -0.6031
  F  F53  1  0.000000  0.250000  0.693100  1.0  -0.5334
  F  F54  1  0.500000  0.750000  0.193100  1.0  -0.5334
  F  F55  1  0.000000  0.750000  0.306900  1.0  -0.5345
  F  F56  1  0.500000  0.250000  0.806900  1.0  -0.5345
