# generated using pymatgen
data_AlC8O4F
_symmetry_space_group_name_H-M   'P 1'
_cell_length_a   6.56770000
_cell_length_b   16.40420000
_cell_length_c   13.16570000
_cell_angle_alpha   90.00000000
_cell_angle_beta   90.00000000
_cell_angle_gamma   90.00000000
_symmetry_Int_Tables_number   1
_chemical_formula_structural   AlC8O4F
_chemical_formula_sum   'Al4 C32 O16 F4'
_cell_volume   1418.44440054
_cell_formula_units_Z   4
loop_
 _symmetry_equiv_pos_site_id
 _symmetry_equiv_pos_as_xyz
  1  'x, y, z'
loop_
 _atom_site_type_symbol
 _atom_site_label
 _atom_site_symmetry_multiplicity
 _atom_site_fract_x
 _atom_site_fract_y
 _atom_site_fract_z
 _atom_site_occupancy
 _atom_site_charge
  Al  Al1  1  0.250000  0.250000  0.750000  1.0  1.8181
  Al  Al2  1  0.750000  0.250000  0.750000  1.0  1.8181
  Al  Al3  1  0.750000  0.750000  0.250000  1.0  1.8181
  Al  Al4  1  0.250000  0.750000  0.250000  1.0  1.8181
  C  C5  1  0.806700  0.028700  0.956000  1.0  -0.0398
  C  C6  1  0.306700  0.528700  0.456000  1.0  -0.0398
  C  C7  1  0.193300  0.471300  0.956000  1.0  -0.037
  C  C8  1  0.693300  0.971300  0.456000  1.0  -0.037
  C  C9  1  0.193300  0.528700  0.044000  1.0  -0.0398
  C  C10  1  0.693300  0.028700  0.544000  1.0  -0.0398
  C  C11  1  0.806700  0.971300  0.044000  1.0  -0.0431
  C  C12  1  0.306700  0.471300  0.544000  1.0  -0.0431
  C  C13  1  0.193300  0.971300  0.044000  1.0  -0.0403
  C  C14  1  0.693300  0.471300  0.544000  1.0  -0.0398
  C  C15  1  0.806700  0.528700  0.044000  1.0  -0.0426
  C  C16  1  0.306700  0.028700  0.544000  1.0  -0.0431
  C  C17  1  0.806700  0.471300  0.956000  1.0  -0.0409
  C  C18  1  0.306700  0.971300  0.456000  1.0  -0.0409
  C  C19  1  0.193300  0.028700  0.956000  1.0  -0.0383
  C  C20  1  0.693300  0.528700  0.456000  1.0  -0.0383
  C  C21  1  0.000000  0.063300  0.948900  1.0  -0.0287
  C  C22  1  0.000000  0.138000  0.870700  1.0  0.6662
  C  C23  1  0.500000  0.563300  0.448900  1.0  -0.0287
  C  C24  1  0.500000  0.638000  0.370700  1.0  0.6662
  C  C25  1  0.000000  0.436700  0.948900  1.0  -0.0291
  C  C26  1  0.000000  0.362000  0.870700  1.0  0.6672
  C  C27  1  0.500000  0.936700  0.448900  1.0  -0.0291
  C  C28  1  0.500000  0.862000  0.370700  1.0  0.6672
  C  C29  1  0.000000  0.563300  0.051100  1.0  -0.0297
  C  C30  1  0.000000  0.638000  0.129300  1.0  0.6653
  C  C31  1  0.500000  0.063300  0.551100  1.0  -0.0297
  C  C32  1  0.500000  0.138000  0.629300  1.0  0.6653
  C  C33  1  0.000000  0.936700  0.051100  1.0  -0.0302
  C  C34  1  0.000000  0.862000  0.129300  1.0  0.6669
  C  C35  1  0.500000  0.436700  0.551100  1.0  -0.0302
  C  C36  1  0.500000  0.362000  0.629300  1.0  0.6669
  O  O37  1  0.170000  0.167650  0.839450  1.0  -0.5925
  O  O38  1  0.670000  0.667650  0.339450  1.0  -0.5925
  O  O39  1  0.830000  0.332350  0.839450  1.0  -0.5942
  O  O40  1  0.330000  0.832350  0.339450  1.0  -0.5942
  O  O41  1  0.830000  0.667650  0.160550  1.0  -0.594
  O  O42  1  0.330000  0.167650  0.660550  1.0  -0.594
  O  O43  1  0.170000  0.832350  0.160550  1.0  -0.5936
  O  O44  1  0.670000  0.332350  0.660550  1.0  -0.5936
  O  O45  1  0.830000  0.832350  0.160550  1.0  -0.5943
  O  O46  1  0.330000  0.332350  0.660550  1.0  -0.5943
  O  O47  1  0.170000  0.667650  0.160550  1.0  -0.593
  O  O48  1  0.670000  0.167650  0.660550  1.0  -0.593
  O  O49  1  0.170000  0.332350  0.839450  1.0  -0.5933
  O  O50  1  0.670000  0.832350  0.339450  1.0  -0.5933
  O  O51  1  0.830000  0.167650  0.839450  1.0  -0.5936
  O  O52  1  0.330000  0.667650  0.339450  1.0  -0.5936
  F  F53  1  0.000000  0.250000  0.693100  1.0  -0.5566
  F  F54  1  0.500000  0.750000  0.193100  1.0  -0.5566
  F  F55  1  0.000000  0.750000  0.306900  1.0  -0.5575
  F  F56  1  0.500000  0.250000  0.806900  1.0  -0.5575
