# generated using pymatgen
data_CdPC9N3O7
_symmetry_space_group_name_H-M   'P 1'
_cell_length_a   30.80900000
_cell_length_b   5.36900000
_cell_length_c   25.12600000
_cell_angle_alpha   90.00000000
_cell_angle_beta   127.61000000
_cell_angle_gamma   90.00000000
_symmetry_Int_Tables_number   1
_chemical_formula_structural   CdPC9N3O7
_chemical_formula_sum   'Cd8 P8 C72 N24 O56'
_cell_volume   3292.45582832
_cell_formula_units_Z   8
loop_
 _symmetry_equiv_pos_site_id
 _symmetry_equiv_pos_as_xyz
  1  'x, y, z'
loop_
 _atom_site_type_symbol
 _atom_site_label
 _atom_site_symmetry_multiplicity
 _atom_site_fract_x
 _atom_site_fract_y
 _atom_site_fract_z
 _atom_site_occupancy
 _atom_site_charge
  Cd  Cd1  1  0.264000  0.885000  0.576800  1.0  1.0228
  Cd  Cd2  1  0.686500  0.000000  0.958000  1.0  1.0916
  Cd  Cd3  1  0.236000  0.385000  0.423200  1.0  1.0234
  Cd  Cd4  1  0.813500  0.500000  0.042000  1.0  1.0916
  Cd  Cd5  1  0.764000  0.385000  0.576800  1.0  1.0228
  Cd  Cd6  1  0.186500  0.500000  0.958000  1.0  1.0916
  Cd  Cd7  1  0.736000  0.885000  0.423200  1.0  1.0234
  Cd  Cd8  1  0.313500  0.000000  0.042000  1.0  1.0916
  P  P9  1  0.701800  0.542000  0.042500  1.0  1.7493
  P  P10  1  0.331000  0.440000  0.592100  1.0  1.8015
  P  P11  1  0.798200  0.042000  0.957500  1.0  1.7474
  P  P12  1  0.169000  0.940000  0.407900  1.0  1.8035
  P  P13  1  0.201800  0.042000  0.042500  1.0  1.7493
  P  P14  1  0.831000  0.940000  0.592100  1.0  1.8015
  P  P15  1  0.298200  0.542000  0.957500  1.0  1.7474
  P  P16  1  0.669000  0.440000  0.407900  1.0  1.8035
  C  C17  1  0.753600  0.200000  0.342200  1.0  0.5263
  C  C18  1  0.590800  0.253000  0.846400  1.0  0.4645
  C  C19  1  0.668600  0.968000  0.253300  1.0  0.472
  C  C20  1  0.543600  0.982000  0.863900  1.0  0.3236
  C  C21  1  0.660400  0.135000  0.196900  1.0  0.0441
  C  C22  1  0.489900  0.085000  0.809600  1.0  0.1297
  C  C23  1  0.699100  0.320000  0.218100  1.0  0.1689
  C  C24  1  0.483500  0.289000  0.767700  1.0  0.0256
  C  C25  1  0.790600  0.507000  0.308500  1.0  0.3094
  C  C26  1  0.546300  0.571000  0.752600  1.0  0.1918
  C  C27  1  0.841600  0.406000  0.322500  1.0  0.0351
  C  C28  1  0.548100  0.456000  0.694500  1.0  0.0371
  C  C29  1  0.825100  0.449000  0.255000  1.0  0.1673
  C  C30  1  0.491700  0.532000  0.634300  1.0  0.1085
  C  C31  1  0.803300  0.724000  0.235000  1.0  0.0756
  C  C32  1  0.468900  0.739000  0.649600  1.0  0.1378
  C  C33  1  0.762400  0.796000  0.157100  1.0  0.096
  C  C34  1  0.407500  0.718000  0.615800  1.0  0.1139
  C  C35  1  0.746400  0.700000  0.657800  1.0  0.5286
  C  C36  1  0.909200  0.753000  0.153600  1.0  0.4633
  C  C37  1  0.831400  0.468000  0.746700  1.0  0.4712
  C  C38  1  0.956400  0.482000  0.136100  1.0  0.3281
  C  C39  1  0.839600  0.635000  0.803100  1.0  0.0415
  C  C40  1  0.010100  0.585000  0.190400  1.0  0.1326
  C  C41  1  0.800900  0.820000  0.781900  1.0  0.1663
  C  C42  1  0.016500  0.789000  0.232300  1.0  0.0279
  C  C43  1  0.709400  0.007000  0.691500  1.0  0.3101
  C  C44  1  0.953700  0.071000  0.247400  1.0  0.1895
  C  C45  1  0.658400  0.906000  0.677500  1.0  0.0339
  C  C46  1  0.951900  0.956000  0.305500  1.0  0.0339
  C  C47  1  0.674900  0.949000  0.745000  1.0  0.1671
  C  C48  1  0.008300  0.032000  0.365700  1.0  0.1086
  C  C49  1  0.696700  0.224000  0.765000  1.0  0.0743
  C  C50  1  0.031100  0.239000  0.350400  1.0  0.1375
  C  C51  1  0.737600  0.296000  0.842900  1.0  0.0959
  C  C52  1  0.092500  0.218000  0.384200  1.0  0.1148
  C  C53  1  0.253600  0.700000  0.342200  1.0  0.5263
  C  C54  1  0.090800  0.753000  0.846400  1.0  0.4645
  C  C55  1  0.168600  0.468000  0.253300  1.0  0.472
  C  C56  1  0.043600  0.482000  0.863900  1.0  0.3236
  C  C57  1  0.160400  0.635000  0.196900  1.0  0.0441
  C  C58  1  0.989900  0.585000  0.809600  1.0  0.1297
  C  C59  1  0.199100  0.820000  0.218100  1.0  0.1689
  C  C60  1  0.983500  0.789000  0.767700  1.0  0.0256
  C  C61  1  0.290600  0.007000  0.308500  1.0  0.3094
  C  C62  1  0.046300  0.071000  0.752600  1.0  0.1918
  C  C63  1  0.341600  0.906000  0.322500  1.0  0.0351
  C  C64  1  0.048100  0.956000  0.694500  1.0  0.0371
  C  C65  1  0.325100  0.949000  0.255000  1.0  0.1673
  C  C66  1  0.991700  0.032000  0.634300  1.0  0.1085
  C  C67  1  0.303300  0.224000  0.235000  1.0  0.0756
  C  C68  1  0.968900  0.239000  0.649600  1.0  0.1378
  C  C69  1  0.262400  0.296000  0.157100  1.0  0.096
  C  C70  1  0.907500  0.218000  0.615800  1.0  0.1139
  C  C71  1  0.246400  0.200000  0.657800  1.0  0.5286
  C  C72  1  0.409200  0.253000  0.153600  1.0  0.4633
  C  C73  1  0.331400  0.968000  0.746700  1.0  0.4712
  C  C74  1  0.456400  0.982000  0.136100  1.0  0.3281
  C  C75  1  0.339600  0.135000  0.803100  1.0  0.0415
  C  C76  1  0.510100  0.085000  0.190400  1.0  0.1326
  C  C77  1  0.300900  0.320000  0.781900  1.0  0.1663
  C  C78  1  0.516500  0.289000  0.232300  1.0  0.0279
  C  C79  1  0.209400  0.507000  0.691500  1.0  0.3101
  C  C80  1  0.453700  0.571000  0.247400  1.0  0.1895
  C  C81  1  0.158400  0.406000  0.677500  1.0  0.0339
  C  C82  1  0.451900  0.456000  0.305500  1.0  0.0339
  C  C83  1  0.174900  0.449000  0.745000  1.0  0.1671
  C  C84  1  0.508300  0.532000  0.365700  1.0  0.1086
  C  C85  1  0.196700  0.724000  0.765000  1.0  0.0743
  C  C86  1  0.531100  0.739000  0.350400  1.0  0.1375
  C  C87  1  0.237600  0.796000  0.842900  1.0  0.0959
  C  C88  1  0.592500  0.718000  0.384200  1.0  0.1148
  N  N89  1  0.745800  0.353000  0.284700  1.0  -0.1213
  N  N90  1  0.540200  0.348000  0.790300  1.0  -0.2095
  N  N91  1  0.714000  0.044000  0.316900  1.0  -0.2669
  N  N92  1  0.596300  0.049000  0.886000  1.0  -0.2305
  N  N93  1  0.634000  0.787000  0.241000  1.0  -0.2506
  N  N94  1  0.544100  0.781000  0.899600  1.0  -0.1659
  N  N95  1  0.754200  0.853000  0.715300  1.0  -0.1217
  N  N96  1  0.959800  0.848000  0.209700  1.0  -0.2101
  N  N97  1  0.786000  0.544000  0.683100  1.0  -0.2669
  N  N98  1  0.903700  0.549000  0.114000  1.0  -0.2312
  N  N99  1  0.866000  0.287000  0.759000  1.0  -0.2475
  N  N100  1  0.955900  0.281000  0.100400  1.0  -0.1662
  N  N101  1  0.245800  0.853000  0.284700  1.0  -0.1213
  N  N102  1  0.040200  0.848000  0.790300  1.0  -0.2095
  N  N103  1  0.214000  0.544000  0.316900  1.0  -0.2669
  N  N104  1  0.096300  0.549000  0.886000  1.0  -0.2305
  N  N105  1  0.134000  0.287000  0.241000  1.0  -0.2506
  N  N106  1  0.044100  0.281000  0.899600  1.0  -0.1659
  N  N107  1  0.254200  0.353000  0.715300  1.0  -0.1217
  N  N108  1  0.459800  0.348000  0.209700  1.0  -0.2101
  N  N109  1  0.286000  0.044000  0.683100  1.0  -0.2669
  N  N110  1  0.403700  0.049000  0.114000  1.0  -0.2312
  N  N111  1  0.366000  0.787000  0.759000  1.0  -0.2475
  N  N112  1  0.455900  0.781000  0.100400  1.0  -0.1662
  O  O113  1  0.730400  0.586000  0.121300  1.0  -0.3937
  O  O114  1  0.392100  0.492000  0.620800  1.0  -0.3648
  O  O115  1  0.740300  0.674000  0.029000  1.0  -0.8552
  O  O116  1  0.296500  0.580000  0.525600  1.0  -0.8547
  O  O117  1  0.645500  0.663000  0.007900  1.0  -0.5748
  O  O118  1  0.321600  0.565000  0.638700  1.0  -0.7439
  O  O119  1  0.702900  0.282000  0.037600  1.0  -0.6059
  O  O120  1  0.326100  0.167000  0.587400  1.0  -0.7171
  O  O121  1  0.795900  0.226000  0.400600  1.0  -0.4698
  O  O122  1  0.634000  0.317000  0.861500  1.0  -0.5024
  O  O123  1  0.765100  0.716000  0.254900  1.0  -0.4316
  O  O124  1  0.498200  0.702000  0.721800  1.0  -0.3364
  O  O125  1  0.873700  0.453000  0.254800  1.0  -0.5176
  O  O126  1  0.495000  0.542000  0.574300  1.0  -0.4788
  O  O127  1  0.769600  0.086000  0.878700  1.0  -0.3936
  O  O128  1  0.107900  0.992000  0.379200  1.0  -0.366
  O  O129  1  0.759700  0.174000  0.971000  1.0  -0.8562
  O  O130  1  0.203500  0.080000  0.474400  1.0  -0.8553
  O  O131  1  0.854500  0.163000  0.992100  1.0  -0.5754
  O  O132  1  0.178400  0.065000  0.361300  1.0  -0.7423
  O  O133  1  0.797100  0.782000  0.962400  1.0  -0.6058
  O  O134  1  0.173900  0.667000  0.412600  1.0  -0.7177
  O  O135  1  0.704100  0.726000  0.599400  1.0  -0.468
  O  O136  1  0.866000  0.817000  0.138500  1.0  -0.5035
  O  O137  1  0.734900  0.216000  0.745100  1.0  -0.4336
  O  O138  1  0.001800  0.202000  0.278200  1.0  -0.3353
  O  O139  1  0.626300  0.953000  0.745200  1.0  -0.5193
  O  O140  1  0.005000  0.042000  0.425700  1.0  -0.4769
  O  O141  1  0.230400  0.086000  0.121300  1.0  -0.3937
  O  O142  1  0.892100  0.992000  0.620800  1.0  -0.3648
  O  O143  1  0.240300  0.174000  0.029000  1.0  -0.8552
  O  O144  1  0.796500  0.080000  0.525600  1.0  -0.8547
  O  O145  1  0.145500  0.163000  0.007900  1.0  -0.5748
  O  O146  1  0.821600  0.065000  0.638700  1.0  -0.7439
  O  O147  1  0.202900  0.782000  0.037600  1.0  -0.6059
  O  O148  1  0.826100  0.667000  0.587400  1.0  -0.7171
  O  O149  1  0.295900  0.726000  0.400600  1.0  -0.4698
  O  O150  1  0.134000  0.817000  0.861500  1.0  -0.5024
  O  O151  1  0.265100  0.216000  0.254900  1.0  -0.4316
  O  O152  1  0.998200  0.202000  0.721800  1.0  -0.3364
  O  O153  1  0.373700  0.953000  0.254800  1.0  -0.5176
  O  O154  1  0.995000  0.042000  0.574300  1.0  -0.4782
  O  O155  1  0.269600  0.586000  0.878700  1.0  -0.3936
  O  O156  1  0.607900  0.492000  0.379200  1.0  -0.366
  O  O157  1  0.259700  0.674000  0.971000  1.0  -0.8562
  O  O158  1  0.703500  0.580000  0.474400  1.0  -0.8553
  O  O159  1  0.354500  0.663000  0.992100  1.0  -0.5754
  O  O160  1  0.678400  0.565000  0.361300  1.0  -0.7423
  O  O161  1  0.297100  0.282000  0.962400  1.0  -0.6058
  O  O162  1  0.673900  0.167000  0.412600  1.0  -0.7177
  O  O163  1  0.204100  0.226000  0.599400  1.0  -0.468
  O  O164  1  0.366000  0.317000  0.138500  1.0  -0.5035
  O  O165  1  0.234900  0.716000  0.745100  1.0  -0.4336
  O  O166  1  0.501800  0.702000  0.278200  1.0  -0.3353
  O  O167  1  0.126300  0.453000  0.745200  1.0  -0.5193
  O  O168  1  0.505000  0.542000  0.425700  1.0  -0.4763
