# generated using pymatgen
data_Zn2H6PdC14N2Cl2O9
_symmetry_space_group_name_H-M   'P 1'
_cell_length_a   13.51000000
_cell_length_b   27.37000000
_cell_length_c   27.99100000
_cell_angle_alpha   90.00000000
_cell_angle_beta   90.00000000
_cell_angle_gamma   90.00000000
_symmetry_Int_Tables_number   1
_chemical_formula_structural   Zn2H6PdC14N2Cl2O9
_chemical_formula_sum   'Zn16 H48 Pd8 C112 N16 Cl16 O72'
_cell_volume   10350.19568170
_cell_formula_units_Z   8
loop_
 _symmetry_equiv_pos_site_id
 _symmetry_equiv_pos_as_xyz
  1  'x, y, z'
loop_
 _atom_site_type_symbol
 _atom_site_label
 _atom_site_symmetry_multiplicity
 _atom_site_fract_x
 _atom_site_fract_y
 _atom_site_fract_z
 _atom_site_occupancy
 _atom_site_charge
  Zn  Zn1  1  0.384020  0.503700  0.041420  1.0  1.1062
  Zn  Zn2  1  0.591910  0.463800  0.972950  1.0  1.1274
  Zn  Zn3  1  0.260010  0.687000  0.744800  1.0  1.0975
  Zn  Zn4  1  0.063820  0.764780  0.784830  1.0  1.153
  Zn  Zn5  1  0.115980  0.496300  0.541420  1.0  1.1076
  Zn  Zn6  1  0.908090  0.536200  0.472950  1.0  1.128
  Zn  Zn7  1  0.239990  0.313000  0.244800  1.0  1.094
  Zn  Zn8  1  0.436180  0.235220  0.284830  1.0  1.1496
  Zn  Zn9  1  0.615980  0.003700  0.458580  1.0  1.1067
  Zn  Zn10  1  0.408090  0.963800  0.527050  1.0  1.1273
  Zn  Zn11  1  0.739990  0.187000  0.755200  1.0  1.0937
  Zn  Zn12  1  0.936180  0.264780  0.715170  1.0  1.1526
  Zn  Zn13  1  0.884020  0.996300  0.958580  1.0  1.1043
  Zn  Zn14  1  0.091910  0.036200  0.027050  1.0  1.1297
  Zn  Zn15  1  0.760010  0.813000  0.255200  1.0  1.0972
  Zn  Zn16  1  0.563820  0.735220  0.215170  1.0  1.1517
  H  H17  1  0.023000  0.681000  0.907000  1.0  0.1105
  H  H18  1  0.280400  0.611700  0.879000  1.0  0.1302
  H  H19  1  0.131600  0.589000  0.002600  1.0  0.1254
  H  H20  1  0.691100  0.374300  0.075400  1.0  0.1118
  H  H21  1  0.433700  0.389700  0.145500  1.0  0.1237
  H  H22  1  0.627600  0.282800  0.179600  1.0  0.1214
  H  H23  1  0.745900  0.584700  0.990200  1.0  0.1125
  H  H24  1  0.569200  0.622100  0.100100  1.0  0.1342
  H  H25  1  0.840000  0.683600  0.084200  1.0  0.1285
  H  H26  1  0.505600  0.206800  0.851100  1.0  0.1246
  H  H27  1  0.648400  0.329800  0.892700  1.0  0.1326
  H  H28  1  0.371900  0.298700  0.937800  1.0  0.1043
  H  H29  1  0.477000  0.319000  0.407000  1.0  0.1105
  H  H30  1  0.219600  0.388300  0.379000  1.0  0.1305
  H  H31  1  0.368400  0.411000  0.502600  1.0  0.1249
  H  H32  1  0.808900  0.625700  0.575400  1.0  0.1111
  H  H33  1  0.066300  0.610300  0.645500  1.0  0.1242
  H  H34  1  0.872400  0.717200  0.679600  1.0  0.1217
  H  H35  1  0.754100  0.415300  0.490200  1.0  0.1122
  H  H36  1  0.930800  0.377900  0.600100  1.0  0.1343
  H  H37  1  0.660000  0.316400  0.584200  1.0  0.1285
  H  H38  1  0.994400  0.793200  0.351100  1.0  0.1248
  H  H39  1  0.851600  0.670200  0.392700  1.0  0.1322
  H  H40  1  0.128100  0.701300  0.437800  1.0  0.1041
  H  H41  1  0.977000  0.181000  0.593000  1.0  0.1102
  H  H42  1  0.719600  0.111700  0.621000  1.0  0.1309
  H  H43  1  0.868400  0.089000  0.497400  1.0  0.1266
  H  H44  1  0.308900  0.874300  0.424600  1.0  0.1111
  H  H45  1  0.566300  0.889700  0.354500  1.0  0.1246
  H  H46  1  0.372400  0.782800  0.320400  1.0  0.122
  H  H47  1  0.254100  0.084700  0.509800  1.0  0.112
  H  H48  1  0.430800  0.122100  0.399900  1.0  0.1344
  H  H49  1  0.160000  0.183600  0.415800  1.0  0.1285
  H  H50  1  0.494400  0.706800  0.648900  1.0  0.1244
  H  H51  1  0.351600  0.829800  0.607300  1.0  0.1324
  H  H52  1  0.628100  0.798700  0.562200  1.0  0.1042
  H  H53  1  0.523000  0.819000  0.093000  1.0  0.1103
  H  H54  1  0.780400  0.888300  0.121000  1.0  0.1307
  H  H55  1  0.631600  0.911000  0.997400  1.0  0.1256
  H  H56  1  0.191100  0.125700  0.924600  1.0  0.1116
  H  H57  1  0.933700  0.110300  0.854500  1.0  0.1242
  H  H58  1  0.127600  0.217200  0.820400  1.0  0.1216
  H  H59  1  0.245900  0.915300  0.009800  1.0  0.112
  H  H60  1  0.069200  0.877900  0.899900  1.0  0.1343
  H  H61  1  0.340000  0.816400  0.915800  1.0  0.1281
  H  H62  1  0.005600  0.293200  0.148900  1.0  0.1252
  H  H63  1  0.148400  0.170200  0.107300  1.0  0.132
  H  H64  1  0.871900  0.201300  0.062200  1.0  0.1044
  Pd  Pd65  1  0.934920  0.637250  0.995680  1.0  0.4361
  Pd  Pd66  1  0.799780  0.288680  0.114570  1.0  0.4766
  Pd  Pd67  1  0.565080  0.362750  0.495680  1.0  0.4363
  Pd  Pd68  1  0.700220  0.711320  0.614570  1.0  0.477
  Pd  Pd69  1  0.065080  0.137250  0.504320  1.0  0.4362
  Pd  Pd70  1  0.200220  0.788680  0.385430  1.0  0.4767
  Pd  Pd71  1  0.434920  0.862750  0.004320  1.0  0.4361
  Pd  Pd72  1  0.299780  0.211320  0.885430  1.0  0.4764
  C  C73  1  0.072600  0.658200  0.916100  1.0  0.195
  C  C74  1  0.152300  0.651200  0.885900  1.0  -0.184
  C  C75  1  0.226000  0.618300  0.899500  1.0  0.0374
  C  C76  1  0.218100  0.595500  0.943500  1.0  -0.1588
  C  C77  1  0.136000  0.604300  0.972300  1.0  0.1639
  C  C78  1  0.156600  0.677300  0.838500  1.0  0.7456
  C  C79  1  0.296300  0.559400  0.961300  1.0  0.7024
  C  C80  1  0.646700  0.363500  0.099400  1.0  0.197
  C  C81  1  0.556400  0.388000  0.105900  1.0  -0.1604
  C  C82  1  0.494400  0.372900  0.140400  1.0  0.0186
  C  C83  1  0.518500  0.332900  0.168500  1.0  -0.1737
  C  C84  1  0.609200  0.309900  0.160500  1.0  0.1779
  C  C85  1  0.531200  0.430600  0.073500  1.0  0.7193
  C  C86  1  0.452300  0.312400  0.206900  1.0  0.7467
  C  C87  1  0.735000  0.603600  0.018200  1.0  0.1636
  C  C88  1  0.647300  0.597800  0.042600  1.0  -0.1826
  C  C89  1  0.629600  0.625200  0.083000  1.0  0.0321
  C  C90  1  0.702800  0.657900  0.098100  1.0  -0.1601
  C  C91  1  0.790000  0.662000  0.073100  1.0  0.1609
  C  C92  1  0.690700  0.687000  0.143700  1.0  0.7268
  C  C93  1  0.575700  0.559300  0.024600  1.0  0.7479
  C  C94  1  0.506900  0.236500  0.868700  1.0  0.1811
  C  C95  1  0.591900  0.266000  0.867600  1.0  -0.1301
  C  C96  1  0.592400  0.308800  0.893500  1.0  0.0358
  C  C97  1  0.511000  0.320900  0.920800  1.0  -0.1858
  C  C98  1  0.428800  0.290200  0.919700  1.0  0.1916
  C  C99  1  0.674500  0.253300  0.833000  1.0  0.684
  C  C100  1  0.504800  0.368600  0.947400  1.0  0.701
  C  C101  1  0.427400  0.341800  0.416100  1.0  0.1947
  C  C102  1  0.347700  0.348800  0.385900  1.0  -0.1847
  C  C103  1  0.274000  0.381700  0.399500  1.0  0.037
  C  C104  1  0.281900  0.404500  0.443500  1.0  -0.1584
  C  C105  1  0.364000  0.395700  0.472300  1.0  0.1643
  C  C106  1  0.343400  0.322700  0.338500  1.0  0.7449
  C  C107  1  0.203700  0.440600  0.461300  1.0  0.7015
  C  C108  1  0.853300  0.636500  0.599400  1.0  0.1972
  C  C109  1  0.943600  0.612000  0.605900  1.0  -0.1611
  C  C110  1  0.005600  0.627100  0.640400  1.0  0.0188
  C  C111  1  0.981500  0.667100  0.668500  1.0  -0.1737
  C  C112  1  0.890800  0.690100  0.660500  1.0  0.177
  C  C113  1  0.968800  0.569400  0.573500  1.0  0.7198
  C  C114  1  0.047700  0.687600  0.706900  1.0  0.7471
  C  C115  1  0.765000  0.396400  0.518200  1.0  0.1628
  C  C116  1  0.852700  0.402200  0.542600  1.0  -0.1826
  C  C117  1  0.870400  0.374800  0.583000  1.0  0.0332
  C  C118  1  0.797200  0.342100  0.598100  1.0  -0.1597
  C  C119  1  0.710000  0.338000  0.573100  1.0  0.1609
  C  C120  1  0.809300  0.313000  0.643700  1.0  0.7258
  C  C121  1  0.924300  0.440700  0.524600  1.0  0.7475
  C  C122  1  0.993100  0.763500  0.368700  1.0  0.1807
  C  C123  1  0.908100  0.734000  0.367600  1.0  -0.1306
  C  C124  1  0.907600  0.691200  0.393500  1.0  0.0355
  C  C125  1  0.989000  0.679100  0.420800  1.0  -0.1856
  C  C126  1  0.071200  0.709800  0.419700  1.0  0.1928
  C  C127  1  0.825500  0.746700  0.333000  1.0  0.6848
  C  C128  1  0.995200  0.631400  0.447400  1.0  0.7004
  C  C129  1  0.927400  0.158200  0.583900  1.0  0.1948
  C  C130  1  0.847700  0.151200  0.614100  1.0  -0.1842
  C  C131  1  0.774000  0.118300  0.600500  1.0  0.0344
  C  C132  1  0.781900  0.095500  0.556500  1.0  -0.1593
  C  C133  1  0.864000  0.104300  0.527700  1.0  0.1625
  C  C134  1  0.843400  0.177300  0.661500  1.0  0.7458
  C  C135  1  0.703700  0.059400  0.538700  1.0  0.7024
  C  C136  1  0.353300  0.863500  0.400600  1.0  0.197
  C  C137  1  0.443600  0.888000  0.394100  1.0  -0.1607
  C  C138  1  0.505600  0.872900  0.359600  1.0  0.0181
  C  C139  1  0.481500  0.832900  0.331500  1.0  -0.1721
  C  C140  1  0.390800  0.809900  0.339500  1.0  0.177
  C  C141  1  0.468800  0.930600  0.426500  1.0  0.7197
  C  C142  1  0.547700  0.812400  0.293100  1.0  0.7464
  C  C143  1  0.265000  0.103600  0.481800  1.0  0.1633
  C  C144  1  0.352700  0.097800  0.457400  1.0  -0.1823
  C  C145  1  0.370400  0.125200  0.417000  1.0  0.0327
  C  C146  1  0.297200  0.157900  0.401900  1.0  -0.1602
  C  C147  1  0.210000  0.162000  0.426900  1.0  0.1605
  C  C148  1  0.309300  0.187000  0.356300  1.0  0.7263
  C  C149  1  0.424300  0.059300  0.475400  1.0  0.7482
  C  C150  1  0.493100  0.736500  0.631300  1.0  0.1812
  C  C151  1  0.408100  0.766000  0.632400  1.0  -0.1303
  C  C152  1  0.407600  0.808800  0.606500  1.0  0.0356
  C  C153  1  0.489000  0.820900  0.579200  1.0  -0.1859
  C  C154  1  0.571200  0.790200  0.580300  1.0  0.1918
  C  C155  1  0.325500  0.753300  0.667000  1.0  0.6846
  C  C156  1  0.495200  0.868600  0.552600  1.0  0.7
  C  C157  1  0.572600  0.841800  0.083900  1.0  0.1949
  C  C158  1  0.652300  0.848800  0.114100  1.0  -0.1841
  C  C159  1  0.726000  0.881700  0.100500  1.0  0.0375
  C  C160  1  0.718100  0.904500  0.056500  1.0  -0.1586
  C  C161  1  0.636000  0.895700  0.027700  1.0  0.1642
  C  C162  1  0.656600  0.822700  0.161500  1.0  0.7456
  C  C163  1  0.796300  0.940600  0.038700  1.0  0.7016
  C  C164  1  0.146700  0.136500  0.900600  1.0  0.1977
  C  C165  1  0.056400  0.112000  0.894100  1.0  -0.1612
  C  C166  1  0.994400  0.127100  0.859600  1.0  0.0211
  C  C167  1  0.018500  0.167100  0.831500  1.0  -0.1727
  C  C168  1  0.109200  0.190100  0.839500  1.0  0.176
  C  C169  1  0.031200  0.069400  0.926500  1.0  0.72
  C  C170  1  0.952300  0.187600  0.793100  1.0  0.7467
  C  C171  1  0.235000  0.896400  0.981800  1.0  0.1643
  C  C172  1  0.147300  0.902200  0.957400  1.0  -0.1828
  C  C173  1  0.129600  0.874800  0.917000  1.0  0.0321
  C  C174  1  0.202800  0.842100  0.901900  1.0  -0.1609
  C  C175  1  0.290000  0.838000  0.926900  1.0  0.1615
  C  C176  1  0.190700  0.813000  0.856300  1.0  0.7263
  C  C177  1  0.075700  0.940700  0.975400  1.0  0.7486
  C  C178  1  0.006900  0.263500  0.131300  1.0  0.1804
  C  C179  1  0.091900  0.234000  0.132400  1.0  -0.131
  C  C180  1  0.092400  0.191200  0.106500  1.0  0.0357
  C  C181  1  0.011000  0.179100  0.079200  1.0  -0.1862
  C  C182  1  0.928800  0.209800  0.080300  1.0  0.1913
  C  C183  1  0.174500  0.246700  0.167000  1.0  0.6842
  C  C184  1  0.004800  0.131400  0.052600  1.0  0.7016
  N  N185  1  0.061700  0.634500  0.957600  1.0  -0.279
  N  N186  1  0.805800  0.635000  0.032100  1.0  -0.2604
  N  N187  1  0.670900  0.325600  0.126000  1.0  -0.2702
  N  N188  1  0.427500  0.249700  0.894400  1.0  -0.2359
  N  N189  1  0.438300  0.365500  0.457600  1.0  -0.2787
  N  N190  1  0.694200  0.365000  0.532100  1.0  -0.2619
  N  N191  1  0.829100  0.674400  0.626000  1.0  -0.2706
  N  N192  1  0.072500  0.750300  0.394400  1.0  -0.2369
  N  N193  1  0.938300  0.134500  0.542400  1.0  -0.2787
  N  N194  1  0.194200  0.135000  0.467900  1.0  -0.2622
  N  N195  1  0.329100  0.825600  0.374000  1.0  -0.2706
  N  N196  1  0.572500  0.749700  0.605600  1.0  -0.2347
  N  N197  1  0.561700  0.865500  0.042400  1.0  -0.2793
  N  N198  1  0.305800  0.865000  0.967900  1.0  -0.2606
  N  N199  1  0.170900  0.174400  0.874000  1.0  -0.27
  N  N200  1  0.927500  0.250300  0.105600  1.0  -0.2365
  Cl  Cl201  1  0.847640  0.632180  0.924520  1.0  -0.3839
  Cl  Cl202  1  0.021730  0.640390  0.065910  1.0  -0.3936
  Cl  Cl203  1  0.883070  0.361100  0.105840  1.0  -0.3971
  Cl  Cl204  1  0.718100  0.216260  0.124520  1.0  -0.3755
  Cl  Cl205  1  0.652360  0.367820  0.424520  1.0  -0.3829
  Cl  Cl206  1  0.478270  0.359610  0.565910  1.0  -0.3953
  Cl  Cl207  1  0.616930  0.638900  0.605840  1.0  -0.3993
  Cl  Cl208  1  0.781900  0.783740  0.624520  1.0  -0.3747
  Cl  Cl209  1  0.152360  0.132180  0.575480  1.0  -0.383
  Cl  Cl210  1  0.978270  0.140390  0.434090  1.0  -0.3948
  Cl  Cl211  1  0.116930  0.861100  0.394160  1.0  -0.3984
  Cl  Cl212  1  0.281900  0.716260  0.375480  1.0  -0.3751
  Cl  Cl213  1  0.347640  0.867820  0.075480  1.0  -0.3826
  Cl  Cl214  1  0.521730  0.859610  0.934090  1.0  -0.3939
  Cl  Cl215  1  0.383070  0.138900  0.894160  1.0  -0.398
  Cl  Cl216  1  0.218100  0.283740  0.875480  1.0  -0.3749
  O  O217  1  0.087800  0.707100  0.831000  1.0  -0.5824
  O  O218  1  0.225200  0.664800  0.811110  1.0  -0.6043
  O  O219  1  0.293800  0.549800  0.004300  1.0  -0.5837
  O  O220  1  0.354300  0.543000  0.930900  1.0  -0.4588
  O  O221  1  0.451000  0.450900  0.080660  1.0  -0.5792
  O  O222  1  0.596900  0.442100  0.042840  1.0  -0.5969
  O  O223  1  0.368600  0.332700  0.211100  1.0  -0.619
  O  O224  1  0.484900  0.276900  0.229700  1.0  -0.5945
  O  O225  1  0.606100  0.687800  0.162100  1.0  -0.6169
  O  O226  1  0.766400  0.708200  0.159000  1.0  -0.4465
  O  O227  1  0.497900  0.553800  0.047000  1.0  -0.5961
  O  O228  1  0.605500  0.535700  0.988830  1.0  -0.5927
  O  O229  1  0.673200  0.211000  0.816800  1.0  -0.5731
  O  O230  1  0.730700  0.287400  0.822500  1.0  -0.4939
  O  O231  1  0.421700  0.379400  0.965400  1.0  -0.4987
  O  O232  1  0.581600  0.393800  0.949400  1.0  -0.5858
  O  O233  1  0.436400  0.472200  0.975570  1.0  -0.5877
  O  O234  1  0.211800  0.759000  0.760400  1.0  -0.6373
  O  O235  1  0.412200  0.292900  0.331000  1.0  -0.5833
  O  O236  1  0.274800  0.335200  0.311110  1.0  -0.604
  O  O237  1  0.206200  0.450200  0.504300  1.0  -0.5832
  O  O238  1  0.145700  0.457000  0.430900  1.0  -0.459
  O  O239  1  0.049000  0.549100  0.580660  1.0  -0.5806
  O  O240  1  0.903100  0.557900  0.542840  1.0  -0.5962
  O  O241  1  0.131400  0.667300  0.711100  1.0  -0.6192
  O  O242  1  0.015100  0.723100  0.729700  1.0  -0.5962
  O  O243  1  0.893900  0.312200  0.662100  1.0  -0.616
  O  O244  1  0.733600  0.291800  0.659000  1.0  -0.4488
  O  O245  1  0.002100  0.446200  0.547000  1.0  -0.5954
  O  O246  1  0.894500  0.464300  0.488830  1.0  -0.5918
  O  O247  1  0.826800  0.789000  0.316800  1.0  -0.5729
  O  O248  1  0.769300  0.712600  0.322500  1.0  -0.4926
  O  O249  1  0.078300  0.620600  0.465400  1.0  -0.5
  O  O250  1  0.918400  0.606200  0.449400  1.0  -0.5852
  O  O251  1  0.063600  0.527800  0.475570  1.0  -0.589
  O  O252  1  0.288200  0.241000  0.260400  1.0  -0.6379
  O  O253  1  0.912200  0.207100  0.669000  1.0  -0.5833
  O  O254  1  0.774800  0.164800  0.688890  1.0  -0.6044
  O  O255  1  0.706200  0.049800  0.495700  1.0  -0.5813
  O  O256  1  0.645700  0.043000  0.569100  1.0  -0.4555
  O  O257  1  0.549000  0.950900  0.419340  1.0  -0.5799
  O  O258  1  0.403100  0.942100  0.457160  1.0  -0.5966
  O  O259  1  0.631400  0.832700  0.288900  1.0  -0.62
  O  O260  1  0.515100  0.776900  0.270300  1.0  -0.5949
  O  O261  1  0.393900  0.187800  0.337900  1.0  -0.6183
  O  O262  1  0.233600  0.208200  0.341000  1.0  -0.4475
  O  O263  1  0.502100  0.053800  0.453000  1.0  -0.5968
  O  O264  1  0.394500  0.035700  0.511170  1.0  -0.5909
  O  O265  1  0.326800  0.711000  0.683200  1.0  -0.5735
  O  O266  1  0.269300  0.787400  0.677500  1.0  -0.4936
  O  O267  1  0.578300  0.879400  0.534600  1.0  -0.4991
  O  O268  1  0.418400  0.893800  0.550600  1.0  -0.585
  O  O269  1  0.563600  0.972200  0.524430  1.0  -0.5865
  O  O270  1  0.788200  0.259000  0.739600  1.0  -0.6382
  O  O271  1  0.587800  0.792900  0.169000  1.0  -0.5832
  O  O272  1  0.725200  0.835200  0.188890  1.0  -0.6043
  O  O273  1  0.793800  0.950200  0.995700  1.0  -0.5827
  O  O274  1  0.854300  0.957000  0.069100  1.0  -0.457
  O  O275  1  0.951000  0.049100  0.919340  1.0  -0.5802
  O  O276  1  0.096900  0.057900  0.957160  1.0  -0.5974
  O  O277  1  0.868600  0.167300  0.788900  1.0  -0.6184
  O  O278  1  0.984900  0.223100  0.770300  1.0  -0.5959
  O  O279  1  0.106100  0.812200  0.837900  1.0  -0.6208
  O  O280  1  0.266400  0.791800  0.841000  1.0  -0.4469
  O  O281  1  0.997900  0.946200  0.953000  1.0  -0.5966
  O  O282  1  0.105500  0.964300  0.011170  1.0  -0.5899
  O  O283  1  0.173200  0.289000  0.183200  1.0  -0.5739
  O  O284  1  0.230700  0.212600  0.177500  1.0  -0.492
  O  O285  1  0.921700  0.120600  0.034600  1.0  -0.4997
  O  O286  1  0.081600  0.106200  0.050600  1.0  -0.5857
  O  O287  1  0.936400  0.027800  0.024430  1.0  -0.5861
  O  O288  1  0.711800  0.741000  0.239600  1.0  -0.6377
