# generated using pymatgen
data_Mn4Si2H32C56N32Cl
_symmetry_space_group_name_H-M   'P 1'
_cell_length_a   18.82660000
_cell_length_b   18.82660000
_cell_length_c   25.46380000
_cell_angle_alpha   90.00000000
_cell_angle_beta   90.00000000
_cell_angle_gamma   90.00000000
_symmetry_Int_Tables_number   1
_chemical_formula_structural   Mn4Si2H32C56N32Cl
_chemical_formula_sum   'Mn8 Si4 H64 C112 N64 Cl2'
_cell_volume   9025.41136337
_cell_formula_units_Z   2
loop_
 _symmetry_equiv_pos_site_id
 _symmetry_equiv_pos_as_xyz
  1  'x, y, z'
loop_
 _atom_site_type_symbol
 _atom_site_label
 _atom_site_symmetry_multiplicity
 _atom_site_fract_x
 _atom_site_fract_y
 _atom_site_fract_z
 _atom_site_occupancy
 _atom_site_charge
  Mn  Mn1  1  0.500000  0.500000  0.392160  1.0  0.9968
  Mn  Mn2  1  0.000000  0.000000  0.107840  1.0  0.9953
  Mn  Mn3  1  0.601400  0.398600  0.500000  1.0  1.0167
  Mn  Mn4  1  0.898600  0.898600  0.000000  1.0  1.017
  Mn  Mn5  1  0.000000  0.000000  0.892160  1.0  0.9968
  Mn  Mn6  1  0.101400  0.101400  0.000000  1.0  1.0163
  Mn  Mn7  1  0.398600  0.601400  0.500000  1.0  1.0169
  Mn  Mn8  1  0.500000  0.500000  0.607840  1.0  0.9953
  Si  Si9  1  0.000000  0.500000  0.750000  1.0  0.9143
  Si  Si10  1  0.500000  0.000000  0.250000  1.0  0.9143
  Si  Si11  1  0.000000  0.500000  0.250000  1.0  0.9143
  Si  Si12  1  0.500000  0.000000  0.750000  1.0  0.9143
  H  H13  1  0.755200  0.563000  0.292700  1.0  0.1033
  H  H14  1  0.066100  0.350400  0.898600  1.0  0.1019
  H  H15  1  0.568300  0.860900  0.245200  1.0  0.0776
  H  H16  1  0.068300  0.639100  0.745200  1.0  0.0766
  H  H17  1  0.149600  0.566100  0.601400  1.0  0.1021
  H  H18  1  0.244800  0.437000  0.292700  1.0  0.104
  H  H19  1  0.955000  0.440500  0.649500  1.0  0.0861
  H  H20  1  0.566100  0.149600  0.601400  1.0  0.1026
  H  H21  1  0.933900  0.649600  0.898600  1.0  0.1022
  H  H22  1  0.255200  0.937000  0.207300  1.0  0.1039
  H  H23  1  0.059500  0.455000  0.850500  1.0  0.084
  H  H24  1  0.649600  0.933900  0.101400  1.0  0.1021
  H  H25  1  0.568300  0.860900  0.754800  1.0  0.0778
  H  H26  1  0.360900  0.931700  0.254800  1.0  0.0772
  H  H27  1  0.437000  0.244800  0.707300  1.0  0.1036
  H  H28  1  0.933900  0.649600  0.101400  1.0  0.1023
  H  H29  1  0.649600  0.933900  0.898600  1.0  0.1021
  H  H30  1  0.068300  0.639100  0.254800  1.0  0.0771
  H  H31  1  0.455000  0.059500  0.149500  1.0  0.0842
  H  H32  1  0.566100  0.149600  0.398600  1.0  0.1021
  H  H33  1  0.066100  0.350400  0.101400  1.0  0.1025
  H  H34  1  0.955000  0.440500  0.350500  1.0  0.0866
  H  H35  1  0.440500  0.955000  0.649500  1.0  0.0861
  H  H36  1  0.755200  0.563000  0.707300  1.0  0.1033
  H  H37  1  0.559500  0.045000  0.649500  1.0  0.0858
  H  H38  1  0.850400  0.433900  0.601400  1.0  0.102
  H  H39  1  0.744800  0.063000  0.792700  1.0  0.1037
  H  H40  1  0.940500  0.545000  0.850500  1.0  0.0849
  H  H41  1  0.937000  0.255200  0.792700  1.0  0.1029
  H  H42  1  0.139100  0.431700  0.245200  1.0  0.0758
  H  H43  1  0.744800  0.063000  0.207300  1.0  0.1035
  H  H44  1  0.545000  0.940500  0.149500  1.0  0.085
  H  H45  1  0.639100  0.068300  0.254800  1.0  0.0758
  H  H46  1  0.433900  0.850400  0.601400  1.0  0.1024
  H  H47  1  0.059500  0.455000  0.149500  1.0  0.0839
  H  H48  1  0.850400  0.433900  0.398600  1.0  0.1019
  H  H49  1  0.255200  0.937000  0.792700  1.0  0.1039
  H  H50  1  0.931700  0.360900  0.745200  1.0  0.0771
  H  H51  1  0.563000  0.755200  0.707300  1.0  0.1031
  H  H52  1  0.063000  0.744800  0.792700  1.0  0.1034
  H  H53  1  0.931700  0.360900  0.254800  1.0  0.0775
  H  H54  1  0.350400  0.066100  0.898600  1.0  0.1019
  H  H55  1  0.360900  0.931700  0.745200  1.0  0.0766
  H  H56  1  0.937000  0.255200  0.207300  1.0  0.1034
  H  H57  1  0.350400  0.066100  0.101400  1.0  0.1022
  H  H58  1  0.563000  0.755200  0.292700  1.0  0.1033
  H  H59  1  0.139100  0.431700  0.754800  1.0  0.0761
  H  H60  1  0.440500  0.955000  0.350500  1.0  0.0863
  H  H61  1  0.433900  0.850400  0.398600  1.0  0.1021
  H  H62  1  0.559500  0.045000  0.350500  1.0  0.0856
  H  H63  1  0.860900  0.568300  0.754800  1.0  0.0767
  H  H64  1  0.545000  0.940500  0.850500  1.0  0.0855
  H  H65  1  0.063000  0.744800  0.207300  1.0  0.1032
  H  H66  1  0.860900  0.568300  0.245200  1.0  0.0762
  H  H67  1  0.149600  0.566100  0.398600  1.0  0.1019
  H  H68  1  0.431700  0.139100  0.245200  1.0  0.0763
  H  H69  1  0.244800  0.437000  0.707300  1.0  0.1039
  H  H70  1  0.437000  0.244800  0.292700  1.0  0.1036
  H  H71  1  0.455000  0.059500  0.850500  1.0  0.0849
  H  H72  1  0.940500  0.545000  0.149500  1.0  0.0841
  H  H73  1  0.639100  0.068300  0.745200  1.0  0.0756
  H  H74  1  0.045000  0.559500  0.649500  1.0  0.0871
  H  H75  1  0.045000  0.559500  0.350500  1.0  0.087
  H  H76  1  0.431700  0.139100  0.754800  1.0  0.077
  C  C77  1  0.007500  0.226600  0.881100  1.0  0.3565
  C  C78  1  0.585800  0.965100  0.161700  1.0  -0.0572
  C  C79  1  0.726600  0.492500  0.618900  1.0  0.3571
  C  C80  1  0.273400  0.507500  0.381100  1.0  0.3572
  C  C81  1  0.147700  0.538400  0.367400  1.0  -0.0892
  C  C82  1  0.358900  0.959600  0.223700  1.0  -0.0249
  C  C83  1  0.462000  0.204100  0.695300  1.0  -0.0921
  C  C84  1  0.085800  0.534900  0.661700  1.0  -0.0571
  C  C85  1  0.919000  0.503100  0.708100  1.0  -0.3183
  C  C86  1  0.961600  0.647700  0.132600  1.0  -0.0875
  C  C87  1  0.462000  0.204100  0.304700  1.0  -0.0916
  C  C88  1  0.792800  0.499100  0.649500  1.0  -0.0766
  C  C89  1  0.352300  0.038400  0.132600  1.0  -0.087
  C  C90  1  0.585800  0.965100  0.838300  1.0  -0.0554
  C  C91  1  0.465100  0.914200  0.338300  1.0  -0.0571
  C  C92  1  0.996900  0.419000  0.791900  1.0  -0.3134
  C  C93  1  0.414200  0.034900  0.838300  1.0  -0.0558
  C  C94  1  0.273400  0.507500  0.618900  1.0  0.3573
  C  C95  1  0.992500  0.773400  0.118900  1.0  0.3565
  C  C96  1  0.141100  0.459600  0.276300  1.0  -0.0269
  C  C97  1  0.858900  0.540400  0.276300  1.0  -0.0263
  C  C98  1  0.852300  0.461600  0.632600  1.0  -0.0882
  C  C99  1  0.773400  0.992500  0.881100  1.0  0.3573
  C  C100  1  0.965100  0.585800  0.838300  1.0  -0.0568
  C  C101  1  0.204100  0.462000  0.304700  1.0  -0.0928
  C  C102  1  0.496900  0.081000  0.291900  1.0  -0.3143
  C  C103  1  0.204100  0.462000  0.695300  1.0  -0.0924
  C  C104  1  0.292800  0.000900  0.149500  1.0  -0.0766
  C  C105  1  0.961600  0.647700  0.867400  1.0  -0.0884
  C  C106  1  0.207200  0.500900  0.649500  1.0  -0.0757
  C  C107  1  0.965100  0.585800  0.161700  1.0  -0.0571
  C  C108  1  0.496900  0.081000  0.708100  1.0  -0.3141
  C  C109  1  0.538400  0.147700  0.632600  1.0  -0.0879
  C  C110  1  0.704100  0.038000  0.195300  1.0  -0.0927
  C  C111  1  0.492500  0.726600  0.618900  1.0  0.3567
  C  C112  1  0.038400  0.352300  0.867400  1.0  -0.0875
  C  C113  1  0.419000  0.996900  0.208100  1.0  -0.3167
  C  C114  1  0.000900  0.292800  0.149500  1.0  -0.0758
  C  C115  1  0.534900  0.085800  0.661700  1.0  -0.0591
  C  C116  1  0.500900  0.207200  0.649500  1.0  -0.0755
  C  C117  1  0.040400  0.641100  0.776300  1.0  -0.0288
  C  C118  1  0.358900  0.959600  0.776300  1.0  -0.0257
  C  C119  1  0.085800  0.534900  0.338300  1.0  -0.0565
  C  C120  1  0.858900  0.540400  0.723700  1.0  -0.0263
  C  C121  1  0.226600  0.007500  0.881100  1.0  0.3569
  C  C122  1  0.141100  0.459600  0.723700  1.0  -0.0266
  C  C123  1  0.007500  0.226600  0.118900  1.0  0.3567
  C  C124  1  0.461600  0.852300  0.367400  1.0  -0.089
  C  C125  1  0.038400  0.352300  0.132600  1.0  -0.0882
  C  C126  1  0.914200  0.465100  0.338300  1.0  -0.0559
  C  C127  1  0.292800  0.000900  0.850500  1.0  -0.0764
  C  C128  1  0.726600  0.492500  0.381100  1.0  0.3571
  C  C129  1  0.999100  0.707200  0.850500  1.0  -0.0756
  C  C130  1  0.500900  0.207200  0.350500  1.0  -0.0756
  C  C131  1  0.641100  0.040400  0.776300  1.0  -0.0268
  C  C132  1  0.038000  0.704100  0.804700  1.0  -0.0917
  C  C133  1  0.581000  0.003100  0.791900  1.0  -0.3132
  C  C134  1  0.414200  0.034900  0.161700  1.0  -0.0576
  C  C135  1  0.034900  0.414200  0.838300  1.0  -0.0574
  C  C136  1  0.459600  0.141100  0.723700  1.0  -0.0293
  C  C137  1  0.081000  0.496900  0.291900  1.0  -0.3165
  C  C138  1  0.704100  0.038000  0.804700  1.0  -0.0924
  C  C139  1  0.503100  0.919000  0.708100  1.0  -0.3129
  C  C140  1  0.540400  0.858900  0.276300  1.0  -0.0285
  C  C141  1  0.499100  0.792800  0.649500  1.0  -0.0759
  C  C142  1  0.226600  0.007500  0.118900  1.0  0.3572
  C  C143  1  0.459600  0.141100  0.276300  1.0  -0.0287
  C  C144  1  0.207200  0.500900  0.350500  1.0  -0.076
  C  C145  1  0.003100  0.581000  0.791900  1.0  -0.3138
  C  C146  1  0.795900  0.538000  0.304700  1.0  -0.0934
  C  C147  1  0.507500  0.273400  0.618900  1.0  0.3564
  C  C148  1  0.538400  0.147700  0.367400  1.0  -0.0877
  C  C149  1  0.795900  0.538000  0.695300  1.0  -0.0938
  C  C150  1  0.534900  0.085800  0.338300  1.0  -0.0564
  C  C151  1  0.540400  0.858900  0.723700  1.0  -0.0285
  C  C152  1  0.034900  0.414200  0.161700  1.0  -0.059
  C  C153  1  0.503100  0.919000  0.291900  1.0  -0.3128
  C  C154  1  0.914200  0.465100  0.661700  1.0  -0.058
  C  C155  1  0.538000  0.795900  0.695300  1.0  -0.0927
  C  C156  1  0.962000  0.295900  0.195300  1.0  -0.0918
  C  C157  1  0.773400  0.992500  0.118900  1.0  0.3573
  C  C158  1  0.081000  0.496900  0.708100  1.0  -0.3146
  C  C159  1  0.581000  0.003100  0.208100  1.0  -0.3161
  C  C160  1  0.038000  0.704100  0.195300  1.0  -0.0916
  C  C161  1  0.352300  0.038400  0.867400  1.0  -0.0885
  C  C162  1  0.538000  0.795900  0.304700  1.0  -0.0933
  C  C163  1  0.919000  0.503100  0.291900  1.0  -0.3153
  C  C164  1  0.999100  0.707200  0.149500  1.0  -0.0756
  C  C165  1  0.295900  0.962000  0.804700  1.0  -0.0931
  C  C166  1  0.792800  0.499100  0.350500  1.0  -0.0764
  C  C167  1  0.461600  0.852300  0.632600  1.0  -0.0885
  C  C168  1  0.507500  0.273400  0.381100  1.0  0.3566
  C  C169  1  0.647700  0.961600  0.132600  1.0  -0.0864
  C  C170  1  0.959600  0.358900  0.223700  1.0  -0.0278
  C  C171  1  0.000900  0.292800  0.850500  1.0  -0.0757
  C  C172  1  0.003100  0.581000  0.208100  1.0  -0.3135
  C  C173  1  0.147700  0.538400  0.632600  1.0  -0.0863
  C  C174  1  0.641100  0.040400  0.223700  1.0  -0.0266
  C  C175  1  0.295900  0.962000  0.195300  1.0  -0.0925
  C  C176  1  0.040400  0.641100  0.223700  1.0  -0.0299
  C  C177  1  0.492500  0.726600  0.381100  1.0  0.3565
  C  C178  1  0.707200  0.999100  0.850500  1.0  -0.0761
  C  C179  1  0.707200  0.999100  0.149500  1.0  -0.0756
  C  C180  1  0.962000  0.295900  0.804700  1.0  -0.0926
  C  C181  1  0.419000  0.996900  0.791900  1.0  -0.3129
  C  C182  1  0.959600  0.358900  0.776300  1.0  -0.0281
  C  C183  1  0.852300  0.461600  0.367400  1.0  -0.0873
  C  C184  1  0.499100  0.792800  0.350500  1.0  -0.0759
  C  C185  1  0.992500  0.773400  0.881100  1.0  0.3564
  C  C186  1  0.647700  0.961600  0.867400  1.0  -0.088
  C  C187  1  0.996900  0.419000  0.208100  1.0  -0.3136
  C  C188  1  0.465100  0.914200  0.661700  1.0  -0.0571
  N  N189  1  0.482900  0.335600  0.637610  1.0  -0.3637
  N  N190  1  0.042100  0.220400  0.074980  1.0  -0.3091
  N  N191  1  0.496250  0.617200  0.600600  1.0  -0.0705
  N  N192  1  0.720400  0.457900  0.425020  1.0  -0.3078
  N  N193  1  0.720400  0.457900  0.574980  1.0  -0.3087
  N  N194  1  0.517100  0.664400  0.637610  1.0  -0.3643
  N  N195  1  0.539400  0.348700  0.436750  1.0  -0.0293
  N  N196  1  0.151300  0.039400  0.063250  1.0  -0.0309
  N  N197  1  0.779600  0.957900  0.925020  1.0  -0.3064
  N  N198  1  0.151300  0.039400  0.936750  1.0  -0.0311
  N  N199  1  0.957900  0.779600  0.925020  1.0  -0.3053
  N  N200  1  0.003750  0.117200  0.100600  1.0  -0.0717
  N  N201  1  0.664400  0.517100  0.362390  1.0  -0.3656
  N  N202  1  0.617200  0.496250  0.600600  1.0  -0.0687
  N  N203  1  0.482900  0.335600  0.362390  1.0  -0.3651
  N  N204  1  0.503750  0.382800  0.399400  1.0  -0.071
  N  N205  1  0.835600  0.017100  0.137610  1.0  -0.3631
  N  N206  1  0.457900  0.720400  0.574980  1.0  -0.3084
  N  N207  1  0.517100  0.664400  0.362390  1.0  -0.3656
  N  N208  1  0.279600  0.542100  0.425020  1.0  -0.3075
  N  N209  1  0.996250  0.882800  0.899400  1.0  -0.0703
  N  N210  1  0.779600  0.957900  0.074980  1.0  -0.3086
  N  N211  1  0.017100  0.835600  0.137610  1.0  -0.3642
  N  N212  1  0.542100  0.279600  0.425020  1.0  -0.3054
  N  N213  1  0.460600  0.651300  0.436750  1.0  -0.0308
  N  N214  1  0.279600  0.542100  0.574980  1.0  -0.309
  N  N215  1  0.164400  0.982900  0.137610  1.0  -0.3628
  N  N216  1  0.960600  0.848700  0.936750  1.0  -0.0304
  N  N217  1  0.220400  0.042100  0.925020  1.0  -0.3075
  N  N218  1  0.117200  0.003750  0.100600  1.0  -0.0699
  N  N219  1  0.651300  0.460600  0.563250  1.0  -0.0318
  N  N220  1  0.164400  0.982900  0.862390  1.0  -0.3661
  N  N221  1  0.542100  0.279600  0.574980  1.0  -0.3073
  N  N222  1  0.848700  0.960600  0.936750  1.0  -0.0303
  N  N223  1  0.017100  0.835600  0.862390  1.0  -0.3656
  N  N224  1  0.039400  0.151300  0.063250  1.0  -0.03
  N  N225  1  0.348700  0.539400  0.436750  1.0  -0.0299
  N  N226  1  0.539400  0.348700  0.563250  1.0  -0.0295
  N  N227  1  0.848700  0.960600  0.063250  1.0  -0.0313
  N  N228  1  0.220400  0.042100  0.074980  1.0  -0.3089
  N  N229  1  0.382800  0.503750  0.600600  1.0  -0.0698
  N  N230  1  0.496250  0.617200  0.399400  1.0  -0.0706
  N  N231  1  0.957900  0.779600  0.074980  1.0  -0.3069
  N  N232  1  0.457900  0.720400  0.425020  1.0  -0.3066
  N  N233  1  0.335600  0.482900  0.637610  1.0  -0.3636
  N  N234  1  0.117200  0.003750  0.899400  1.0  -0.07
  N  N235  1  0.042100  0.220400  0.925020  1.0  -0.3072
  N  N236  1  0.003750  0.117200  0.899400  1.0  -0.0714
  N  N237  1  0.882800  0.996250  0.100600  1.0  -0.0692
  N  N238  1  0.982900  0.164400  0.862390  1.0  -0.3662
  N  N239  1  0.960600  0.848700  0.063250  1.0  -0.0299
  N  N240  1  0.617200  0.496250  0.399400  1.0  -0.0686
  N  N241  1  0.996250  0.882800  0.100600  1.0  -0.07
  N  N242  1  0.503750  0.382800  0.600600  1.0  -0.071
  N  N243  1  0.039400  0.151300  0.936750  1.0  -0.0299
  N  N244  1  0.651300  0.460600  0.436750  1.0  -0.0314
  N  N245  1  0.348700  0.539400  0.563250  1.0  -0.0303
  N  N246  1  0.664400  0.517100  0.637610  1.0  -0.3645
  N  N247  1  0.982900  0.164400  0.137610  1.0  -0.3639
  N  N248  1  0.460600  0.651300  0.563250  1.0  -0.0303
  N  N249  1  0.382800  0.503750  0.399400  1.0  -0.0702
  N  N250  1  0.335600  0.482900  0.362390  1.0  -0.3664
  N  N251  1  0.835600  0.017100  0.862390  1.0  -0.3659
  N  N252  1  0.882800  0.996250  0.899400  1.0  -0.0694
  Cl  Cl253  1  0.500000  0.500000  0.500000  1.0  -0.2247
  Cl  Cl254  1  0.000000  0.000000  0.000000  1.0  -0.2247
