# generated using pymatgen
data_KVPH3CO5
_symmetry_space_group_name_H-M   'P 1'
_cell_length_a   11.11200000
_cell_length_b   11.11200000
_cell_length_c   10.04000000
_cell_angle_alpha   90.00000000
_cell_angle_beta   90.00000000
_cell_angle_gamma   120.00000000
_symmetry_Int_Tables_number   1
_chemical_formula_structural   KVPH3CO5
_chemical_formula_sum   'K6 V6 P6 H18 C6 O30'
_cell_volume   1073.61559171
_cell_formula_units_Z   6
loop_
 _symmetry_equiv_pos_site_id
 _symmetry_equiv_pos_as_xyz
  1  'x, y, z'
loop_
 _atom_site_type_symbol
 _atom_site_label
 _atom_site_symmetry_multiplicity
 _atom_site_fract_x
 _atom_site_fract_y
 _atom_site_fract_z
 _atom_site_occupancy
 _atom_site_charge
  K  K1  1  0.772020  0.306820  0.752670  1.0  0.9094
  K  K2  1  0.693180  0.465200  0.086000  1.0  0.91
  K  K3  1  0.534800  0.227980  0.419340  1.0  0.9085
  K  K4  1  0.306820  0.772020  0.247330  1.0  0.908
  K  K5  1  0.465200  0.693180  0.914000  1.0  0.9092
  K  K6  1  0.227980  0.534800  0.580660  1.0  0.9099
  V  V7  1  0.492080  0.063520  0.027860  1.0  1.9588
  V  V8  1  0.936480  0.428560  0.361190  1.0  1.9599
  V  V9  1  0.571440  0.507920  0.694530  1.0  1.9583
  V  V10  1  0.063520  0.492080  0.972140  1.0  1.9531
  V  V11  1  0.428560  0.936480  0.638810  1.0  1.954
  V  V12  1  0.507920  0.571440  0.305470  1.0  1.9544
  P  P13  1  0.222180  0.816210  0.898500  1.0  1.5884
  P  P14  1  0.183790  0.405970  0.231830  1.0  1.586
  P  P15  1  0.594030  0.777820  0.565170  1.0  1.5865
  P  P16  1  0.816210  0.222180  0.101500  1.0  1.5851
  P  P17  1  0.405970  0.183790  0.768170  1.0  1.5878
  P  P18  1  0.777820  0.594030  0.434830  1.0  1.5871
  H  H19  1  0.010000  0.806000  0.888000  1.0  0.2857
  H  H20  1  0.071000  0.851000  0.759000  1.0  0.1174
  H  H21  1  0.022000  0.720000  0.777000  1.0  0.1417
  H  H22  1  0.194000  0.204000  0.221330  1.0  0.2903
  H  H23  1  0.149000  0.220000  0.092330  1.0  0.116
  H  H24  1  0.280000  0.302000  0.110330  1.0  0.1456
  H  H25  1  0.796000  0.990000  0.554670  1.0  0.2904
  H  H26  1  0.780000  0.929000  0.425670  1.0  0.1206
  H  H27  1  0.698000  0.978000  0.443670  1.0  0.1436
  H  H28  1  0.806000  0.010000  0.112000  1.0  0.2888
  H  H29  1  0.851000  0.071000  0.241000  1.0  0.1228
  H  H30  1  0.720000  0.022000  0.223000  1.0  0.1433
  H  H31  1  0.204000  0.194000  0.778670  1.0  0.2803
  H  H32  1  0.220000  0.149000  0.907670  1.0  0.1166
  H  H33  1  0.302000  0.280000  0.889670  1.0  0.1423
  H  H34  1  0.990000  0.796000  0.445330  1.0  0.29
  H  H35  1  0.929000  0.780000  0.574330  1.0  0.1175
  H  H36  1  0.978000  0.698000  0.556330  1.0  0.1465
  C  C37  1  0.064300  0.796000  0.835300  1.0  -0.5789
  C  C38  1  0.204000  0.268300  0.168630  1.0  -0.5773
  C  C39  1  0.731700  0.935700  0.501970  1.0  -0.5764
  C  C40  1  0.796000  0.064300  0.164700  1.0  -0.5737
  C  C41  1  0.268300  0.204000  0.831370  1.0  -0.5759
  C  C42  1  0.935700  0.731700  0.498030  1.0  -0.5718
  O  O43  1  0.290700  0.951800  0.977300  1.0  -0.8625
  O  O44  1  0.468300  0.105100  0.173300  1.0  -0.8768
  O  O45  1  0.192200  0.694400  0.989900  1.0  -0.911
  O  O46  1  0.314400  0.817700  0.786800  1.0  -0.9285
  O  O47  1  0.504700  0.924200  0.044100  1.0  -0.8461
  O  O48  1  0.048200  0.338900  0.310630  1.0  -0.8638
  O  O49  1  0.894900  0.363200  0.506630  1.0  -0.8763
  O  O50  1  0.305600  0.497800  0.323230  1.0  -0.9112
  O  O51  1  0.182300  0.496700  0.120130  1.0  -0.9316
  O  O52  1  0.075800  0.580500  0.377430  1.0  -0.8463
  O  O53  1  0.661100  0.709300  0.643970  1.0  -0.8621
  O  O54  1  0.636800  0.531700  0.839970  1.0  -0.8777
  O  O55  1  0.502200  0.807800  0.656570  1.0  -0.9105
  O  O56  1  0.503300  0.685600  0.453470  1.0  -0.9304
  O  O57  1  0.419500  0.495300  0.710770  1.0  -0.8457
  O  O58  1  0.951800  0.290700  0.022700  1.0  -0.8607
  O  O59  1  0.105100  0.468300  0.826700  1.0  -0.8795
  O  O60  1  0.694400  0.192200  0.010100  1.0  -0.9091
  O  O61  1  0.817700  0.314400  0.213200  1.0  -0.9317
  O  O62  1  0.924200  0.504700  0.955900  1.0  -0.8454
  O  O63  1  0.338900  0.048200  0.689370  1.0  -0.8615
  O  O64  1  0.363200  0.894900  0.493370  1.0  -0.877
  O  O65  1  0.497800  0.305600  0.676770  1.0  -0.9095
  O  O66  1  0.496700  0.182300  0.879870  1.0  -0.9296
  O  O67  1  0.580500  0.075800  0.622570  1.0  -0.8463
  O  O68  1  0.709300  0.661100  0.356030  1.0  -0.8625
  O  O69  1  0.531700  0.636800  0.160030  1.0  -0.8777
  O  O70  1  0.807800  0.502200  0.343430  1.0  -0.9104
  O  O71  1  0.685600  0.503300  0.546530  1.0  -0.9331
  O  O72  1  0.495300  0.419500  0.289230  1.0  -0.8455
