# generated using pymatgen
data_MnH4C4O5
_symmetry_space_group_name_H-M   'P 1'
_cell_length_a   7.95390000
_cell_length_b   7.95390000
_cell_length_c   13.18900000
_cell_angle_alpha   90.00000000
_cell_angle_beta   90.00000000
_cell_angle_gamma   90.00000000
_symmetry_Int_Tables_number   1
_chemical_formula_structural   MnH4C4O5
_chemical_formula_sum   'Mn4 H16 C16 O20'
_cell_volume   834.39582299
_cell_formula_units_Z   4
loop_
 _symmetry_equiv_pos_site_id
 _symmetry_equiv_pos_as_xyz
  1  'x, y, z'
loop_
 _atom_site_type_symbol
 _atom_site_label
 _atom_site_symmetry_multiplicity
 _atom_site_fract_x
 _atom_site_fract_y
 _atom_site_fract_z
 _atom_site_occupancy
 _atom_site_charge
  Mn  Mn1  1  0.535100  0.135380  0.842230  1.0  1.2013
  Mn  Mn2  1  0.464900  0.864620  0.342230  1.0  1.1965
  Mn  Mn3  1  0.864620  0.535100  0.092230  1.0  1.2011
  Mn  Mn4  1  0.135380  0.464900  0.592230  1.0  1.2028
  H  H5  1  0.611000  0.084500  0.650700  1.0  0.3988
  H  H6  1  0.708400  0.846000  0.635000  1.0  0.0884
  H  H7  1  0.389000  0.752200  0.709400  1.0  0.1451
  H  H8  1  0.523200  0.616000  0.681600  1.0  0.1433
  H  H9  1  0.389000  0.915500  0.150700  1.0  0.3978
  H  H10  1  0.291600  0.154000  0.135000  1.0  0.0915
  H  H11  1  0.611000  0.247800  0.209400  1.0  0.1434
  H  H12  1  0.476800  0.384000  0.181600  1.0  0.1374
  H  H13  1  0.915500  0.611000  0.900700  1.0  0.3981
  H  H14  1  0.154000  0.708400  0.885000  1.0  0.0889
  H  H15  1  0.247800  0.389000  0.959400  1.0  0.1435
  H  H16  1  0.384000  0.523200  0.931600  1.0  0.1395
  H  H17  1  0.084500  0.389000  0.400700  1.0  0.398
  H  H18  1  0.846000  0.291600  0.385000  1.0  0.0892
  H  H19  1  0.752200  0.611000  0.459400  1.0  0.1422
  H  H20  1  0.616000  0.476800  0.431600  1.0  0.1454
  C  C21  1  0.707400  0.810100  0.790400  1.0  0.6264
  C  C22  1  0.623600  0.853000  0.688700  1.0  0.1467
  C  C23  1  0.483700  0.728200  0.665400  1.0  -0.432
  C  C24  1  0.423700  0.729900  0.557200  1.0  0.8038
  C  C25  1  0.292600  0.189900  0.290400  1.0  0.6268
  C  C26  1  0.376400  0.147000  0.188700  1.0  0.1439
  C  C27  1  0.516300  0.271800  0.165400  1.0  -0.4314
  C  C28  1  0.576300  0.270100  0.057200  1.0  0.7997
  C  C29  1  0.189900  0.707400  0.040400  1.0  0.6268
  C  C30  1  0.147000  0.623600  0.938700  1.0  0.1461
  C  C31  1  0.271800  0.483700  0.915400  1.0  -0.4325
  C  C32  1  0.270100  0.423700  0.807200  1.0  0.8002
  C  C33  1  0.810100  0.292600  0.540400  1.0  0.6269
  C  C34  1  0.853000  0.376400  0.438700  1.0  0.1471
  C  C35  1  0.728200  0.516300  0.415400  1.0  -0.4323
  C  C36  1  0.729900  0.576300  0.307200  1.0  0.8008
  O  O37  1  0.791900  0.680300  0.791600  1.0  -0.5866
  O  O38  1  0.682600  0.904300  0.864320  1.0  -0.6412
  O  O39  1  0.321600  0.620900  0.529410  1.0  -0.679
  O  O40  1  0.483700  0.836900  0.499400  1.0  -0.6107
  O  O41  1  0.559000  0.020400  0.691640  1.0  -0.5982
  O  O42  1  0.208100  0.319700  0.291600  1.0  -0.5878
  O  O43  1  0.317400  0.095700  0.364320  1.0  -0.641
  O  O44  1  0.678400  0.379100  0.029410  1.0  -0.6797
  O  O45  1  0.516300  0.163100  0.999400  1.0  -0.6095
  O  O46  1  0.441000  0.979600  0.191640  1.0  -0.6003
  O  O47  1  0.319700  0.791900  0.041600  1.0  -0.5864
  O  O48  1  0.095700  0.682600  0.114320  1.0  -0.6402
  O  O49  1  0.379100  0.321600  0.779410  1.0  -0.6813
  O  O50  1  0.163100  0.483700  0.749400  1.0  -0.608
  O  O51  1  0.979600  0.559000  0.941640  1.0  -0.5972
  O  O52  1  0.680300  0.208100  0.541600  1.0  -0.5852
  O  O53  1  0.904300  0.317400  0.614320  1.0  -0.6384
  O  O54  1  0.620900  0.678400  0.279410  1.0  -0.6812
  O  O55  1  0.836900  0.516300  0.249400  1.0  -0.6099
  O  O56  1  0.020400  0.441000  0.441640  1.0  -0.5972
