# generated using pymatgen
data_MgPO4
_symmetry_space_group_name_H-M   'P 1'
_cell_length_a   10.02200000
_cell_length_b   14.33500000
_cell_length_c   14.63600000
_cell_angle_alpha   90.00000000
_cell_angle_beta   90.00000000
_cell_angle_gamma   90.00000000
_symmetry_Int_Tables_number   1
_chemical_formula_structural   MgPO4
_chemical_formula_sum   'Mg16 P16 O64'
_cell_volume   2102.68635532
_cell_formula_units_Z   16
loop_
 _symmetry_equiv_pos_site_id
 _symmetry_equiv_pos_as_xyz
  1  'x, y, z'
loop_
 _atom_site_type_symbol
 _atom_site_label
 _atom_site_symmetry_multiplicity
 _atom_site_fract_x
 _atom_site_fract_y
 _atom_site_fract_z
 _atom_site_occupancy
 _atom_site_charge
  Mg  Mg1  1  0.875000  0.875000  0.523700  1.0  1.801
  Mg  Mg2  1  0.875000  0.375000  0.023700  1.0  1.801
  Mg  Mg3  1  0.375000  0.875000  0.023700  1.0  1.801
  Mg  Mg4  1  0.375000  0.375000  0.523700  1.0  1.801
  Mg  Mg5  1  0.875000  0.875000  0.226300  1.0  1.8002
  Mg  Mg6  1  0.875000  0.375000  0.726300  1.0  1.8002
  Mg  Mg7  1  0.375000  0.875000  0.726300  1.0  1.8002
  Mg  Mg8  1  0.375000  0.375000  0.226300  1.0  1.8002
  Mg  Mg9  1  0.125000  0.125000  0.476300  1.0  1.8002
  Mg  Mg10  1  0.125000  0.625000  0.976300  1.0  1.8002
  Mg  Mg11  1  0.625000  0.125000  0.976300  1.0  1.8002
  Mg  Mg12  1  0.625000  0.625000  0.476300  1.0  1.8002
  Mg  Mg13  1  0.125000  0.125000  0.773700  1.0  1.801
  Mg  Mg14  1  0.125000  0.625000  0.273700  1.0  1.801
  Mg  Mg15  1  0.625000  0.125000  0.273700  1.0  1.801
  Mg  Mg16  1  0.625000  0.625000  0.773700  1.0  1.801
  P  P17  1  0.875000  0.032800  0.375000  1.0  2.0853
  P  P18  1  0.875000  0.532800  0.875000  1.0  2.0853
  P  P19  1  0.375000  0.032800  0.875000  1.0  2.0853
  P  P20  1  0.375000  0.532800  0.375000  1.0  2.0853
  P  P21  1  0.875000  0.717200  0.375000  1.0  2.0849
  P  P22  1  0.875000  0.217200  0.875000  1.0  2.0849
  P  P23  1  0.375000  0.717200  0.875000  1.0  2.0849
  P  P24  1  0.375000  0.217200  0.375000  1.0  2.0849
  P  P25  1  0.125000  0.967200  0.625000  1.0  2.0848
  P  P26  1  0.125000  0.467200  0.125000  1.0  2.0848
  P  P27  1  0.625000  0.967200  0.125000  1.0  2.0848
  P  P28  1  0.625000  0.467200  0.625000  1.0  2.0848
  P  P29  1  0.125000  0.282800  0.625000  1.0  2.0853
  P  P30  1  0.125000  0.782800  0.125000  1.0  2.0853
  P  P31  1  0.625000  0.282800  0.125000  1.0  2.0853
  P  P32  1  0.625000  0.782800  0.625000  1.0  2.0853
  O  O33  1  0.829600  0.972100  0.454500  1.0  -0.9923
  O  O34  1  0.760500  0.095000  0.343300  1.0  -0.9516
  O  O35  1  0.829600  0.472100  0.954500  1.0  -0.9923
  O  O36  1  0.760500  0.595000  0.843300  1.0  -0.9516
  O  O37  1  0.329600  0.972100  0.954500  1.0  -0.9923
  O  O38  1  0.260500  0.095000  0.843300  1.0  -0.9516
  O  O39  1  0.329600  0.472100  0.454500  1.0  -0.9923
  O  O40  1  0.260500  0.595000  0.343300  1.0  -0.9516
  O  O41  1  0.920400  0.777900  0.454500  1.0  -0.993
  O  O42  1  0.989500  0.655000  0.343300  1.0  -0.9485
  O  O43  1  0.920400  0.277900  0.954500  1.0  -0.993
  O  O44  1  0.989500  0.155000  0.843300  1.0  -0.9485
  O  O45  1  0.420400  0.777900  0.954500  1.0  -0.993
  O  O46  1  0.489500  0.655000  0.843300  1.0  -0.9485
  O  O47  1  0.420400  0.277900  0.454500  1.0  -0.993
  O  O48  1  0.489500  0.155000  0.343300  1.0  -0.9485
  O  O49  1  0.920400  0.972100  0.295500  1.0  -0.9923
  O  O50  1  0.989500  0.095000  0.406700  1.0  -0.9495
  O  O51  1  0.920400  0.472100  0.795500  1.0  -0.9923
  O  O52  1  0.989500  0.595000  0.906700  1.0  -0.9495
  O  O53  1  0.420400  0.972100  0.795500  1.0  -0.9923
  O  O54  1  0.489500  0.095000  0.906700  1.0  -0.9495
  O  O55  1  0.420400  0.472100  0.295500  1.0  -0.9923
  O  O56  1  0.489500  0.595000  0.406700  1.0  -0.9495
  O  O57  1  0.829600  0.777900  0.295500  1.0  -0.9923
  O  O58  1  0.760500  0.655000  0.406700  1.0  -0.9474
  O  O59  1  0.829600  0.277900  0.795500  1.0  -0.9923
  O  O60  1  0.760500  0.155000  0.906700  1.0  -0.9474
  O  O61  1  0.329600  0.777900  0.795500  1.0  -0.9923
  O  O62  1  0.260500  0.655000  0.906700  1.0  -0.9474
  O  O63  1  0.329600  0.277900  0.295500  1.0  -0.9923
  O  O64  1  0.260500  0.155000  0.406700  1.0  -0.9474
  O  O65  1  0.170400  0.027900  0.545500  1.0  -0.9919
  O  O66  1  0.239500  0.905000  0.656700  1.0  -0.9511
  O  O67  1  0.170400  0.527900  0.045500  1.0  -0.9919
  O  O68  1  0.239500  0.405000  0.156700  1.0  -0.9511
  O  O69  1  0.670400  0.027900  0.045500  1.0  -0.9919
  O  O70  1  0.739500  0.905000  0.156700  1.0  -0.9511
  O  O71  1  0.670400  0.527900  0.545500  1.0  -0.9919
  O  O72  1  0.739500  0.405000  0.656700  1.0  -0.9511
  O  O73  1  0.079600  0.222100  0.545500  1.0  -0.9923
  O  O74  1  0.010500  0.345000  0.656700  1.0  -0.9512
  O  O75  1  0.079600  0.722100  0.045500  1.0  -0.9923
  O  O76  1  0.010500  0.845000  0.156700  1.0  -0.9512
  O  O77  1  0.579600  0.222100  0.045500  1.0  -0.9923
  O  O78  1  0.510500  0.345000  0.156700  1.0  -0.9512
  O  O79  1  0.579600  0.722100  0.545500  1.0  -0.9923
  O  O80  1  0.510500  0.845000  0.656700  1.0  -0.9512
  O  O81  1  0.079600  0.027900  0.704500  1.0  -0.992
  O  O82  1  0.010500  0.905000  0.593300  1.0  -0.9513
  O  O83  1  0.079600  0.527900  0.204500  1.0  -0.992
  O  O84  1  0.010500  0.405000  0.093300  1.0  -0.9513
  O  O85  1  0.579600  0.027900  0.204500  1.0  -0.992
  O  O86  1  0.510500  0.905000  0.093300  1.0  -0.9513
  O  O87  1  0.579600  0.527900  0.704500  1.0  -0.992
  O  O88  1  0.510500  0.405000  0.593300  1.0  -0.9513
  O  O89  1  0.170400  0.222100  0.704500  1.0  -0.9936
  O  O90  1  0.239500  0.345000  0.593300  1.0  -0.9523
  O  O91  1  0.170400  0.722100  0.204500  1.0  -0.9936
  O  O92  1  0.239500  0.845000  0.093300  1.0  -0.9523
  O  O93  1  0.670400  0.222100  0.204500  1.0  -0.9936
  O  O94  1  0.739500  0.345000  0.093300  1.0  -0.9523
  O  O95  1  0.670400  0.722100  0.704500  1.0  -0.9936
  O  O96  1  0.739500  0.845000  0.593300  1.0  -0.9523
