# generated using pymatgen
data_AlPO4
_symmetry_space_group_name_H-M   'P 1'
_cell_length_a   13.70900000
_cell_length_b   13.70900000
_cell_length_c   15.43600000
_cell_angle_alpha   90.00000000
_cell_angle_beta   90.00000000
_cell_angle_gamma   120.00000000
_symmetry_Int_Tables_number   1
_chemical_formula_structural   AlPO4
_chemical_formula_sum   'Al18 P18 O72'
_cell_volume   2512.33156260
_cell_formula_units_Z   18
loop_
 _symmetry_equiv_pos_site_id
 _symmetry_equiv_pos_as_xyz
  1  'x, y, z'
loop_
 _atom_site_type_symbol
 _atom_site_label
 _atom_site_symmetry_multiplicity
 _atom_site_fract_x
 _atom_site_fract_y
 _atom_site_fract_z
 _atom_site_occupancy
 _atom_site_charge
  Al  Al1  1  0.429500  0.103400  0.238700  1.0  1.9255
  Al  Al2  1  0.096170  0.436730  0.572030  1.0  1.9255
  Al  Al3  1  0.762830  0.770070  0.905370  1.0  1.9255
  Al  Al4  1  0.896600  0.326100  0.238700  1.0  1.9234
  Al  Al5  1  0.563270  0.659430  0.572030  1.0  1.9242
  Al  Al6  1  0.229930  0.992770  0.905370  1.0  1.9234
  Al  Al7  1  0.673900  0.570500  0.238700  1.0  1.9234
  Al  Al8  1  0.340570  0.903830  0.572030  1.0  1.9235
  Al  Al9  1  0.007230  0.237170  0.905370  1.0  1.9226
  Al  Al10  1  0.570500  0.896600  0.761300  1.0  1.9267
  Al  Al11  1  0.237170  0.229930  0.094630  1.0  1.9267
  Al  Al12  1  0.903830  0.563270  0.427970  1.0  1.9267
  Al  Al13  1  0.103400  0.673900  0.761300  1.0  1.9234
  Al  Al14  1  0.770070  0.007230  0.094630  1.0  1.9234
  Al  Al15  1  0.436730  0.340570  0.427970  1.0  1.9242
  Al  Al16  1  0.326100  0.429500  0.761300  1.0  1.9248
  Al  Al17  1  0.992770  0.762830  0.094630  1.0  1.924
  Al  Al18  1  0.659430  0.096170  0.427970  1.0  1.9249
  P  P19  1  0.658300  0.096100  0.227300  1.0  2.0339
  P  P20  1  0.324970  0.429430  0.560630  1.0  2.0339
  P  P21  1  0.991630  0.762770  0.893970  1.0  2.0339
  P  P22  1  0.903900  0.562200  0.227300  1.0  2.0056
  P  P23  1  0.570570  0.895530  0.560630  1.0  2.0056
  P  P24  1  0.237230  0.228870  0.893970  1.0  2.0061
  P  P25  1  0.437800  0.341700  0.227300  1.0  2.0053
  P  P26  1  0.104470  0.675030  0.560630  1.0  2.0053
  P  P27  1  0.771130  0.008370  0.893970  1.0  2.0053
  P  P28  1  0.341700  0.903900  0.772700  1.0  2.0155
  P  P29  1  0.008370  0.237230  0.106030  1.0  2.0155
  P  P30  1  0.675030  0.570570  0.439370  1.0  2.0155
  P  P31  1  0.096100  0.437800  0.772700  1.0  2.0052
  P  P32  1  0.762770  0.771130  0.106030  1.0  2.0057
  P  P33  1  0.429430  0.104470  0.439370  1.0  2.0052
  P  P34  1  0.562200  0.658300  0.772700  1.0  2.0057
  P  P35  1  0.228870  0.991630  0.106030  1.0  2.0057
  P  P36  1  0.895530  0.324970  0.439370  1.0  2.0057
  O  O37  1  0.548000  0.089900  0.207700  1.0  -0.9967
  O  O38  1  0.752600  0.216200  0.220300  1.0  -1.0225
  O  O39  1  0.656300  0.050000  0.317700  1.0  -0.9346
  O  O40  1  0.672400  0.022500  0.161900  1.0  -0.9813
  O  O41  1  0.214670  0.423230  0.541030  1.0  -0.9967
  O  O42  1  0.419270  0.549530  0.553630  1.0  -1.0225
  O  O43  1  0.322970  0.383330  0.651030  1.0  -0.9464
  O  O44  1  0.339070  0.355830  0.495230  1.0  -0.9845
  O  O45  1  0.881330  0.756570  0.874370  1.0  -0.9966
  O  O46  1  0.085930  0.882870  0.886970  1.0  -1.0171
  O  O47  1  0.989630  0.716670  0.984370  1.0  -0.9345
  O  O48  1  0.005730  0.689170  0.828570  1.0  -0.9813
  O  O49  1  0.910100  0.458100  0.207700  1.0  -0.9966
  O  O50  1  0.783800  0.536400  0.220300  1.0  -1.0163
  O  O51  1  0.950000  0.606300  0.317700  1.0  -0.9343
  O  O52  1  0.977500  0.649900  0.161900  1.0  -0.9821
  O  O53  1  0.576770  0.791430  0.541030  1.0  -0.9966
  O  O54  1  0.450470  0.869730  0.553630  1.0  -1.0163
  O  O55  1  0.616670  0.939630  0.651030  1.0  -0.9412
  O  O56  1  0.644170  0.983230  0.495230  1.0  -0.9867
  O  O57  1  0.243430  0.124770  0.874370  1.0  -0.9966
  O  O58  1  0.117130  0.203070  0.886970  1.0  -1.0193
  O  O59  1  0.283330  0.272970  0.984370  1.0  -0.9343
  O  O60  1  0.310830  0.316570  0.828570  1.0  -0.9821
  O  O61  1  0.541900  0.452000  0.207700  1.0  -0.9985
  O  O62  1  0.463600  0.247400  0.220300  1.0  -1.0133
  O  O63  1  0.393700  0.343700  0.317700  1.0  -0.9392
  O  O64  1  0.350100  0.327600  0.161900  1.0  -0.99
  O  O65  1  0.208570  0.785330  0.541030  1.0  -0.9985
  O  O66  1  0.130270  0.580730  0.553630  1.0  -1.0133
  O  O67  1  0.060370  0.677030  0.651030  1.0  -0.9407
  O  O68  1  0.016770  0.660930  0.495230  1.0  -0.9814
  O  O69  1  0.875230  0.118670  0.874370  1.0  -0.9985
  O  O70  1  0.796930  0.914070  0.886970  1.0  -1.0183
  O  O71  1  0.727030  0.010370  0.984370  1.0  -0.9392
  O  O72  1  0.683430  0.994270  0.828570  1.0  -0.99
  O  O73  1  0.452000  0.910100  0.792300  1.0  -0.9956
  O  O74  1  0.247400  0.783800  0.779700  1.0  -1.0207
  O  O75  1  0.343700  0.950000  0.682300  1.0  -0.9341
  O  O76  1  0.327600  0.977500  0.838100  1.0  -0.9814
  O  O77  1  0.118670  0.243430  0.125630  1.0  -0.9956
  O  O78  1  0.914070  0.117130  0.113030  1.0  -1.0153
  O  O79  1  0.010370  0.283330  0.015630  1.0  -0.934
  O  O80  1  0.994270  0.310830  0.171430  1.0  -0.9814
  O  O81  1  0.785330  0.576770  0.458970  1.0  -0.9955
  O  O82  1  0.580730  0.450470  0.446370  1.0  -1.0207
  O  O83  1  0.677030  0.616670  0.348970  1.0  -0.9465
  O  O84  1  0.660930  0.644170  0.504770  1.0  -0.9848
  O  O85  1  0.089900  0.541900  0.792300  1.0  -0.9969
  O  O86  1  0.216200  0.463600  0.779700  1.0  -1.018
  O  O87  1  0.050000  0.393700  0.682300  1.0  -0.933
  O  O88  1  0.022500  0.350100  0.838100  1.0  -0.9834
  O  O89  1  0.756570  0.875230  0.125630  1.0  -0.9969
  O  O90  1  0.882870  0.796930  0.113030  1.0  -1.0201
  O  O91  1  0.716670  0.727030  0.015630  1.0  -0.933
  O  O92  1  0.689170  0.683430  0.171430  1.0  -0.9834
  O  O93  1  0.423230  0.208570  0.458970  1.0  -0.9969
  O  O94  1  0.549530  0.130270  0.446370  1.0  -1.018
  O  O95  1  0.383330  0.060370  0.348970  1.0  -0.9392
  O  O96  1  0.355830  0.016770  0.504770  1.0  -0.9888
  O  O97  1  0.458100  0.548000  0.792300  1.0  -0.9976
  O  O98  1  0.536400  0.752600  0.779700  1.0  -1.0121
  O  O99  1  0.606300  0.656300  0.682300  1.0  -0.9401
  O  O100  1  0.649900  0.672400  0.838100  1.0  -0.9858
  O  O101  1  0.124770  0.881330  0.125630  1.0  -0.9976
  O  O102  1  0.203070  0.085930  0.113030  1.0  -1.018
  O  O103  1  0.272970  0.989630  0.015630  1.0  -0.9401
  O  O104  1  0.316570  0.005730  0.171430  1.0  -0.9858
  O  O105  1  0.791430  0.214670  0.458970  1.0  -0.9976
  O  O106  1  0.869730  0.419270  0.446370  1.0  -1.0121
  O  O107  1  0.939630  0.322970  0.348970  1.0  -0.9415
  O  O108  1  0.983230  0.339070  0.504770  1.0  -0.9772
