# generated using pymatgen
data_GdH12(C5O3)3
_symmetry_space_group_name_H-M   'P 1'
_cell_length_a   8.86900000
_cell_length_b   12.07000000
_cell_length_c   16.60000000
_cell_angle_alpha   90.00000000
_cell_angle_beta   90.00000000
_cell_angle_gamma   109.34100000
_symmetry_Int_Tables_number   1
_chemical_formula_structural   GdH12(C5O3)3
_chemical_formula_sum   'Gd4 H48 C60 O36'
_cell_volume   1676.72356233
_cell_formula_units_Z   4
loop_
 _symmetry_equiv_pos_site_id
 _symmetry_equiv_pos_as_xyz
  1  'x, y, z'
loop_
 _atom_site_type_symbol
 _atom_site_label
 _atom_site_symmetry_multiplicity
 _atom_site_fract_x
 _atom_site_fract_y
 _atom_site_fract_z
 _atom_site_occupancy
 _atom_site_charge
  Gd  Gd1  1  0.433000  0.452670  0.882130  1.0  2.2081
  Gd  Gd2  1  0.067000  0.547330  0.382130  1.0  2.2064
  Gd  Gd3  1  0.567000  0.547330  0.117870  1.0  2.2059
  Gd  Gd4  1  0.933000  0.452670  0.617870  1.0  2.2071
  H  H5  1  0.909600  0.225100  0.822200  1.0  0.0951
  H  H6  1  0.529900  0.219900  0.433900  1.0  0.0931
  H  H7  1  0.371100  0.035800  0.433800  1.0  0.1067
  H  H8  1  0.377700  0.860900  0.532900  1.0  0.0852
  H  H9  1  0.752700  0.295100  0.070100  1.0  0.0953
  H  H10  1  0.470100  0.780100  0.566100  1.0  0.0934
  H  H11  1  0.628900  0.964200  0.566200  1.0  0.1062
  H  H12  1  0.747300  0.704900  0.570100  1.0  0.0949
  H  H13  1  0.321900  0.141000  0.901300  1.0  0.1053
  H  H14  1  0.409600  0.225100  0.677800  1.0  0.0953
  H  H15  1  0.029900  0.219900  0.066100  1.0  0.0933
  H  H16  1  0.486600  0.833700  0.926800  1.0  0.1138
  H  H17  1  0.403900  0.974400  0.774100  1.0  0.111
  H  H18  1  0.122300  0.139100  0.032900  1.0  0.0859
  H  H19  1  0.701100  0.004000  0.911100  1.0  0.0979
  H  H20  1  0.798900  0.996000  0.411100  1.0  0.0983
  H  H21  1  0.871100  0.035800  0.066200  1.0  0.1071
  H  H22  1  0.903900  0.974400  0.725900  1.0  0.1105
  H  H23  1  0.090400  0.774900  0.177800  1.0  0.0952
  H  H24  1  0.096500  0.152900  0.694600  1.0  0.1195
  H  H25  1  0.013400  0.166300  0.426800  1.0  0.1133
  H  H26  1  0.672900  0.678600  0.331400  1.0  0.1074
  H  H27  1  0.877700  0.860900  0.967100  1.0  0.0857
  H  H28  1  0.178100  0.859000  0.401300  1.0  0.1051
  H  H29  1  0.247300  0.704900  0.929900  1.0  0.0943
  H  H30  1  0.172900  0.678600  0.168600  1.0  0.1063
  H  H31  1  0.821900  0.141000  0.598700  1.0  0.1056
  H  H32  1  0.617900  0.638700  0.506700  1.0  0.1234
  H  H33  1  0.298900  0.996000  0.088900  1.0  0.0983
  H  H34  1  0.201100  0.004000  0.588900  1.0  0.0984
  H  H35  1  0.678100  0.859000  0.098700  1.0  0.1048
  H  H36  1  0.903500  0.847100  0.305400  1.0  0.1195
  H  H37  1  0.513400  0.166300  0.073200  1.0  0.1136
  H  H38  1  0.882100  0.361300  0.006700  1.0  0.1239
  H  H39  1  0.403500  0.847100  0.194600  1.0  0.1197
  H  H40  1  0.986600  0.833700  0.573200  1.0  0.1147
  H  H41  1  0.327100  0.321400  0.668600  1.0  0.1069
  H  H42  1  0.096100  0.025600  0.274100  1.0  0.1115
  H  H43  1  0.128900  0.964200  0.933800  1.0  0.1066
  H  H44  1  0.590400  0.774900  0.322200  1.0  0.0948
  H  H45  1  0.622300  0.139100  0.467100  1.0  0.0859
  H  H46  1  0.970100  0.780100  0.933900  1.0  0.0932
  H  H47  1  0.596500  0.152900  0.805400  1.0  0.1191
  H  H48  1  0.252700  0.295100  0.429900  1.0  0.0958
  H  H49  1  0.596100  0.025600  0.225900  1.0  0.1113
  H  H50  1  0.827100  0.321400  0.831400  1.0  0.1068
  H  H51  1  0.382100  0.361300  0.493300  1.0  0.1238
  H  H52  1  0.117900  0.638700  0.993300  1.0  0.1231
  C  C53  1  0.938800  0.609500  0.203730  1.0  0.7644
  C  C54  1  0.869400  0.897300  0.490600  1.0  0.2323
  C  C55  1  0.274400  0.306700  0.487200  1.0  -0.0902
  C  C56  1  0.061200  0.390500  0.796270  1.0  0.7642
  C  C57  1  0.775200  0.835500  0.204000  1.0  0.2543
  C  C58  1  0.491300  0.900300  0.956300  1.0  -0.2017
  C  C59  1  0.504900  0.047100  0.333870  1.0  0.2625
  C  C60  1  0.986900  0.008600  0.761740  1.0  -0.1253
  C  C61  1  0.724800  0.164500  0.704000  1.0  0.2548
  C  C62  1  0.897800  0.884800  0.257210  1.0  -0.194
  C  C63  1  0.508700  0.099700  0.043700  1.0  -0.2024
  C  C64  1  0.841100  0.639800  0.476480  1.0  0.748
  C  C65  1  0.120200  0.002600  0.552900  1.0  -0.1804
  C  C66  1  0.495100  0.952900  0.666130  1.0  0.2634
  C  C67  1  0.620200  0.002600  0.947100  1.0  -0.1793
  C  C68  1  0.236500  0.108000  0.866590  1.0  -0.153
  C  C69  1  0.013100  0.991400  0.238260  1.0  -0.1256
  C  C70  1  0.561200  0.390500  0.703730  1.0  0.7644
  C  C71  1  0.130600  0.102700  0.509400  1.0  0.2368
  C  C72  1  0.225600  0.693300  0.987200  1.0  -0.0903
  C  C73  1  0.004900  0.047100  0.166130  1.0  0.2614
  C  C74  1  0.099700  0.703800  0.201250  1.0  -0.0723
  C  C75  1  0.229700  0.693900  0.556290  1.0  0.7555
  C  C76  1  0.878600  0.997900  0.114050  1.0  -0.2098
  C  C77  1  0.275200  0.835500  0.296000  1.0  0.254
  C  C78  1  0.513100  0.991400  0.261740  1.0  -0.1264
  C  C79  1  0.263500  0.892000  0.366590  1.0  -0.1537
  C  C80  1  0.374200  0.801100  0.572520  1.0  -0.067
  C  C81  1  0.486900  0.008600  0.738260  1.0  -0.1284
  C  C82  1  0.736500  0.108000  0.633410  1.0  -0.1542
  C  C83  1  0.991300  0.900300  0.543700  1.0  -0.2015
  C  C84  1  0.874200  0.801100  0.927480  1.0  -0.0669
  C  C85  1  0.438800  0.609500  0.296270  1.0  0.7643
  C  C86  1  0.270300  0.306100  0.056290  1.0  0.7529
  C  C87  1  0.658900  0.360200  0.976480  1.0  0.7456
  C  C88  1  0.400300  0.296200  0.701250  1.0  -0.0728
  C  C89  1  0.729700  0.693900  0.943710  1.0  0.7543
  C  C90  1  0.008700  0.099700  0.456300  1.0  -0.2025
  C  C91  1  0.995100  0.952900  0.833870  1.0  0.2638
  C  C92  1  0.224800  0.164500  0.796000  1.0  0.2547
  C  C93  1  0.774400  0.306700  0.012800  1.0  -0.0917
  C  C94  1  0.621400  0.002100  0.614050  1.0  -0.2094
  C  C95  1  0.900300  0.296200  0.798750  1.0  -0.0739
  C  C96  1  0.369400  0.897300  0.009400  1.0  0.2368
  C  C97  1  0.379800  0.997400  0.052900  1.0  -0.181
  C  C98  1  0.763500  0.892000  0.133410  1.0  -0.1587
  C  C99  1  0.599700  0.703800  0.298750  1.0  -0.0739
  C  C100  1  0.625800  0.198900  0.427480  1.0  -0.0657
  C  C101  1  0.602200  0.115200  0.757210  1.0  -0.1952
  C  C102  1  0.630600  0.102700  0.990600  1.0  0.2369
  C  C103  1  0.725600  0.693300  0.512800  1.0  -0.0908
  C  C104  1  0.125800  0.198900  0.072520  1.0  -0.0679
  C  C105  1  0.121400  0.002100  0.885950  1.0  -0.2086
  C  C106  1  0.378600  0.997900  0.385950  1.0  -0.2091
  C  C107  1  0.341100  0.639800  0.023520  1.0  0.748
  C  C108  1  0.102200  0.115200  0.742790  1.0  -0.1951
  C  C109  1  0.158900  0.360200  0.523520  1.0  0.745
  C  C110  1  0.879800  0.997400  0.447100  1.0  -0.1861
  C  C111  1  0.770300  0.306100  0.443710  1.0  0.7544
  C  C112  1  0.397800  0.884800  0.242790  1.0  -0.1951
  O  O113  1  0.649800  0.399390  0.644160  1.0  -0.7359
  O  O114  1  0.697000  0.679660  0.017030  1.0  -0.6895
  O  O115  1  0.658300  0.725940  0.217400  1.0  -0.3696
  O  O116  1  0.840500  0.370300  0.386340  1.0  -0.7173
  O  O117  1  0.131500  0.442000  0.486220  1.0  -0.7977
  O  O118  1  0.126400  0.151720  0.150650  1.0  -0.2665
  O  O119  1  0.373600  0.848280  0.650650  1.0  -0.2683
  O  O120  1  0.159500  0.629700  0.613660  1.0  -0.7166
  O  O121  1  0.368500  0.558000  0.986220  1.0  -0.7979
  O  O122  1  0.340500  0.370300  0.113660  1.0  -0.7186
  O  O123  1  0.594900  0.455230  0.765060  1.0  -0.7183
  O  O124  1  0.350200  0.600610  0.355840  1.0  -0.7388
  O  O125  1  0.094900  0.455230  0.734940  1.0  -0.7187
  O  O126  1  0.233500  0.802300  0.022270  1.0  -0.2438
  O  O127  1  0.626400  0.151720  0.349350  1.0  -0.2671
  O  O128  1  0.733500  0.802300  0.477730  1.0  -0.2434
  O  O129  1  0.841700  0.274060  0.717400  1.0  -0.3681
  O  O130  1  0.341700  0.274060  0.782600  1.0  -0.3681
  O  O131  1  0.631500  0.442000  0.013780  1.0  -0.7999
  O  O132  1  0.266500  0.197700  0.522270  1.0  -0.2438
  O  O133  1  0.659500  0.629700  0.886340  1.0  -0.7158
  O  O134  1  0.873600  0.848280  0.849350  1.0  -0.2676
  O  O135  1  0.766500  0.197700  0.977730  1.0  -0.2429
  O  O136  1  0.149800  0.399390  0.855840  1.0  -0.7348
  O  O137  1  0.099700  0.328500  0.590790  1.0  -0.6391
  O  O138  1  0.900300  0.671500  0.409210  1.0  -0.6384
  O  O139  1  0.303000  0.320340  0.982970  1.0  -0.6908
  O  O140  1  0.850200  0.600610  0.144160  1.0  -0.7393
  O  O141  1  0.197000  0.679660  0.482970  1.0  -0.6901
  O  O142  1  0.599700  0.328500  0.909210  1.0  -0.6389
  O  O143  1  0.405100  0.544770  0.234940  1.0  -0.7164
  O  O144  1  0.158300  0.725940  0.282600  1.0  -0.3688
  O  O145  1  0.868500  0.558000  0.513780  1.0  -0.7985
  O  O146  1  0.905100  0.544770  0.265060  1.0  -0.7165
  O  O147  1  0.400300  0.671500  0.090790  1.0  -0.6388
  O  O148  1  0.803000  0.320340  0.517030  1.0  -0.6909
