# generated using pymatgen
data_Zn3P4(HO3)4
_symmetry_space_group_name_H-M   'P 1'
_cell_length_a   18.11900000
_cell_length_b   8.39390000
_cell_length_c   12.88700000
_cell_angle_alpha   90.00000000
_cell_angle_beta   90.00000000
_cell_angle_gamma   90.00000000
_symmetry_Int_Tables_number   1
_chemical_formula_structural   Zn3P4(HO3)4
_chemical_formula_sum   'Zn12 P16 H16 O48'
_cell_volume   1959.97189793
_cell_formula_units_Z   4
loop_
 _symmetry_equiv_pos_site_id
 _symmetry_equiv_pos_as_xyz
  1  'x, y, z'
loop_
 _atom_site_type_symbol
 _atom_site_label
 _atom_site_symmetry_multiplicity
 _atom_site_fract_x
 _atom_site_fract_y
 _atom_site_fract_z
 _atom_site_occupancy
 _atom_site_charge
  Zn  Zn1  1  0.591650  0.697940  0.608090  1.0  1.1611
  Zn  Zn2  1  0.294380  0.973980  0.702360  1.0  1.1623
  Zn  Zn3  1  0.330890  0.827480  0.368350  1.0  1.1632
  Zn  Zn4  1  0.408350  0.302060  0.108090  1.0  1.1611
  Zn  Zn5  1  0.705620  0.026020  0.202360  1.0  1.162
  Zn  Zn6  1  0.669110  0.172520  0.868350  1.0  1.164
  Zn  Zn7  1  0.091650  0.802060  0.608090  1.0  1.161
  Zn  Zn8  1  0.794380  0.526020  0.702360  1.0  1.1623
  Zn  Zn9  1  0.830890  0.672520  0.368350  1.0  1.1634
  Zn  Zn10  1  0.908350  0.197940  0.108090  1.0  1.1612
  Zn  Zn11  1  0.205620  0.473980  0.202360  1.0  1.1624
  Zn  Zn12  1  0.169110  0.327480  0.868350  1.0  1.1638
  P  P13  1  0.697250  0.816700  0.792420  1.0  1.5414
  P  P14  1  0.690380  0.871700  0.434150  1.0  1.6317
  P  P15  1  0.646210  0.347100  0.647970  1.0  1.4739
  P  P16  1  0.444520  0.888500  0.555360  1.0  1.4352
  P  P17  1  0.302750  0.183300  0.292420  1.0  1.5417
  P  P18  1  0.309620  0.128300  0.934150  1.0  1.6313
  P  P19  1  0.353790  0.652900  0.147970  1.0  1.4711
  P  P20  1  0.555480  0.111500  0.055360  1.0  1.4359
  P  P21  1  0.197250  0.683300  0.792420  1.0  1.5415
  P  P22  1  0.190380  0.628300  0.434150  1.0  1.6336
  P  P23  1  0.146210  0.152900  0.647970  1.0  1.4731
  P  P24  1  0.944520  0.611500  0.555360  1.0  1.4341
  P  P25  1  0.802750  0.316700  0.292420  1.0  1.5417
  P  P26  1  0.809620  0.371700  0.934150  1.0  1.6345
  P  P27  1  0.853790  0.847100  0.147970  1.0  1.4708
  P  P28  1  0.055480  0.388500  0.055360  1.0  1.4362
  H  H29  1  0.680600  0.725200  0.883900  1.0  -0.045
  H  H30  1  0.696200  0.021400  0.488500  1.0  -0.0193
  H  H31  1  0.620800  0.175900  0.596600  1.0  0.0139
  H  H32  1  0.499000  0.998500  0.566100  1.0  -0.0549
  H  H33  1  0.319400  0.274800  0.383900  1.0  -0.0451
  H  H34  1  0.303800  0.978600  0.988500  1.0  -0.0206
  H  H35  1  0.379200  0.824100  0.096600  1.0  0.0128
  H  H36  1  0.501000  0.001500  0.066100  1.0  -0.0563
  H  H37  1  0.180600  0.774800  0.883900  1.0  -0.0453
  H  H38  1  0.196200  0.478600  0.488500  1.0  -0.0204
  H  H39  1  0.120800  0.324100  0.596600  1.0  0.0146
  H  H40  1  0.999000  0.501500  0.566100  1.0  -0.0558
  H  H41  1  0.819400  0.225200  0.383900  1.0  -0.0452
  H  H42  1  0.803800  0.521400  0.988500  1.0  -0.0195
  H  H43  1  0.879200  0.675900  0.096600  1.0  0.0121
  H  H44  1  0.001000  0.498500  0.066100  1.0  -0.0553
  O  O45  1  0.628800  0.793900  0.730800  1.0  -0.8501
  O  O46  1  0.764900  0.738600  0.745200  1.0  -0.7603
  O  O47  1  0.715800  0.987000  0.814500  1.0  -0.8217
  O  O48  1  0.626500  0.776100  0.476400  1.0  -0.8123
  O  O49  1  0.763900  0.793200  0.450800  1.0  -0.803
  O  O50  1  0.672300  0.911000  0.323400  1.0  -0.8181
  O  O51  1  0.590900  0.467400  0.608300  1.0  -0.7209
  O  O52  1  0.725500  0.394600  0.631100  1.0  -0.7823
  O  O53  1  0.627000  0.299700  0.757900  1.0  -0.7722
  O  O54  1  0.484900  0.742700  0.600000  1.0  -0.7218
  O  O55  1  0.382800  0.940500  0.624300  1.0  -0.8404
  O  O56  1  0.422300  0.862000  0.444100  1.0  -0.759
  O  O57  1  0.371200  0.206100  0.230800  1.0  -0.8504
  O  O58  1  0.235100  0.261400  0.245200  1.0  -0.76
  O  O59  1  0.284200  0.013000  0.314500  1.0  -0.822
  O  O60  1  0.373500  0.223900  0.976400  1.0  -0.8115
  O  O61  1  0.236100  0.206800  0.950800  1.0  -0.8034
  O  O62  1  0.327700  0.089000  0.823400  1.0  -0.8156
  O  O63  1  0.409100  0.532600  0.108300  1.0  -0.7225
  O  O64  1  0.274500  0.605400  0.131100  1.0  -0.7827
  O  O65  1  0.373000  0.700300  0.257900  1.0  -0.7725
  O  O66  1  0.515100  0.257300  0.100000  1.0  -0.719
  O  O67  1  0.617200  0.059500  0.124300  1.0  -0.8426
  O  O68  1  0.577700  0.138000  0.944100  1.0  -0.7589
  O  O69  1  0.128800  0.706100  0.730800  1.0  -0.8504
  O  O70  1  0.264900  0.761400  0.745200  1.0  -0.7613
  O  O71  1  0.215800  0.513000  0.814500  1.0  -0.8216
  O  O72  1  0.126500  0.723900  0.476400  1.0  -0.8129
  O  O73  1  0.263900  0.706800  0.450800  1.0  -0.8029
  O  O74  1  0.172300  0.589000  0.323400  1.0  -0.8182
  O  O75  1  0.090900  0.032600  0.608300  1.0  -0.7208
  O  O76  1  0.225500  0.105400  0.631100  1.0  -0.7821
  O  O77  1  0.127000  0.200300  0.757900  1.0  -0.7708
  O  O78  1  0.984900  0.757300  0.600000  1.0  -0.72
  O  O79  1  0.882800  0.559500  0.624300  1.0  -0.841
  O  O80  1  0.922300  0.638000  0.444100  1.0  -0.7576
  O  O81  1  0.871200  0.293900  0.230800  1.0  -0.85
  O  O82  1  0.735100  0.238600  0.245200  1.0  -0.7607
  O  O83  1  0.784200  0.487000  0.314500  1.0  -0.8227
  O  O84  1  0.873500  0.276100  0.976400  1.0  -0.8117
  O  O85  1  0.736100  0.293200  0.950800  1.0  -0.803
  O  O86  1  0.827700  0.411000  0.823400  1.0  -0.8177
  O  O87  1  0.909100  0.967400  0.108300  1.0  -0.7222
  O  O88  1  0.774500  0.894600  0.131100  1.0  -0.7824
  O  O89  1  0.873000  0.799700  0.257900  1.0  -0.7707
  O  O90  1  0.015100  0.242700  0.100000  1.0  -0.7212
  O  O91  1  0.117200  0.440500  0.124300  1.0  -0.8421
  O  O92  1  0.077700  0.362000  0.944100  1.0  -0.7595
