# generated using pymatgen
data_Zn3P4(HO3)4
_symmetry_space_group_name_H-M   'P 1'
_cell_length_a   8.33190000
_cell_length_b   16.48620000
_cell_length_c   15.26770000
_cell_angle_alpha   90.00000000
_cell_angle_beta   91.65100000
_cell_angle_gamma   90.00000000
_symmetry_Int_Tables_number   1
_chemical_formula_structural   Zn3P4(HO3)4
_chemical_formula_sum   'Zn12 P16 H16 O48'
_cell_volume   2096.32156854
_cell_formula_units_Z   4
loop_
 _symmetry_equiv_pos_site_id
 _symmetry_equiv_pos_as_xyz
  1  'x, y, z'
loop_
 _atom_site_type_symbol
 _atom_site_label
 _atom_site_symmetry_multiplicity
 _atom_site_fract_x
 _atom_site_fract_y
 _atom_site_fract_z
 _atom_site_occupancy
 _atom_site_charge
  Zn  Zn1  1  0.139050  0.142340  0.241960  1.0  1.1298
  Zn  Zn2  1  0.359680  0.040240  0.611540  1.0  1.1668
  Zn  Zn3  1  0.428480  0.060300  0.887430  1.0  1.1451
  Zn  Zn4  1  0.360950  0.642340  0.258040  1.0  1.1302
  Zn  Zn5  1  0.140320  0.540240  0.888460  1.0  1.1667
  Zn  Zn6  1  0.071520  0.560300  0.612570  1.0  1.1447
  Zn  Zn7  1  0.860950  0.857660  0.758040  1.0  1.1292
  Zn  Zn8  1  0.640320  0.959760  0.388460  1.0  1.1666
  Zn  Zn9  1  0.571520  0.939700  0.112570  1.0  1.1448
  Zn  Zn10  1  0.639050  0.357660  0.741960  1.0  1.1287
  Zn  Zn11  1  0.859680  0.459760  0.111540  1.0  1.1666
  Zn  Zn12  1  0.928480  0.439700  0.387430  1.0  1.1454
  P  P13  1  0.311300  0.055490  0.404170  1.0  1.5034
  P  P14  1  0.152400  0.981710  0.770550  1.0  1.5559
  P  P15  1  0.547650  0.163330  0.735110  1.0  1.5744
  P  P16  1  0.269100  0.052730  0.067820  1.0  1.5495
  P  P17  1  0.188700  0.555490  0.095830  1.0  1.5014
  P  P18  1  0.347600  0.481710  0.729450  1.0  1.5634
  P  P19  1  0.952350  0.663330  0.764890  1.0  1.5749
  P  P20  1  0.230900  0.552730  0.432180  1.0  1.5558
  P  P21  1  0.688700  0.944510  0.595830  1.0  1.5018
  P  P22  1  0.847600  0.018290  0.229450  1.0  1.5622
  P  P23  1  0.452350  0.836670  0.264890  1.0  1.5771
  P  P24  1  0.730900  0.947270  0.932180  1.0  1.557
  P  P25  1  0.811300  0.444510  0.904170  1.0  1.5039
  P  P26  1  0.652400  0.518290  0.270550  1.0  1.5554
  P  P27  1  0.047650  0.336670  0.235110  1.0  1.5768
  P  P28  1  0.769100  0.447270  0.567820  1.0  1.5499
  H  H29  1  0.238700  0.986000  0.394100  1.0  -0.0555
  H  H30  1  0.035000  0.027900  0.800300  1.0  -0.0799
  H  H31  1  0.682500  0.105300  0.740600  1.0  -0.0434
  H  H32  1  0.124200  0.038800  0.051600  1.0  -0.0211
  H  H33  1  0.261300  0.486000  0.105900  1.0  -0.0547
  H  H34  1  0.465000  0.527900  0.699700  1.0  -0.0775
  H  H35  1  0.817500  0.605300  0.759400  1.0  -0.0434
  H  H36  1  0.375800  0.538800  0.448400  1.0  -0.0214
  H  H37  1  0.761300  0.014000  0.605900  1.0  -0.054
  H  H38  1  0.965000  0.972100  0.199700  1.0  -0.0752
  H  H39  1  0.317500  0.894700  0.259400  1.0  -0.0426
  H  H40  1  0.875800  0.961200  0.948400  1.0  -0.0211
  H  H41  1  0.738700  0.514000  0.894100  1.0  -0.0559
  H  H42  1  0.535000  0.472100  0.300300  1.0  -0.0781
  H  H43  1  0.182500  0.394700  0.240600  1.0  -0.0428
  H  H44  1  0.624200  0.461200  0.551600  1.0  -0.0211
  O  O45  1  0.628600  0.242900  0.722200  1.0  -0.8291
  O  O46  1  0.264600  0.106100  0.146700  1.0  -0.8268
  O  O47  1  0.241900  0.123800  0.351900  1.0  -0.807
  O  O48  1  0.484900  0.043100  0.387800  1.0  -0.8328
  O  O49  1  0.272200  0.067800  0.498100  1.0  -0.79
  O  O50  1  0.435600  0.144500  0.657400  1.0  -0.744
  O  O51  1  0.461000  0.157900  0.820100  1.0  -0.7408
  O  O52  1  0.175700  0.013600  0.681700  1.0  -0.7479
  O  O53  1  0.077900  0.897400  0.771300  1.0  -0.7581
  O  O54  1  0.299100  0.980200  0.830100  1.0  -0.8021
  O  O55  1  0.355900  0.975000  0.080000  1.0  -0.8032
  O  O56  1  0.331400  0.103100  0.992600  1.0  -0.7575
  O  O57  1  0.871400  0.742900  0.777800  1.0  -0.8304
  O  O58  1  0.235400  0.606100  0.353300  1.0  -0.827
  O  O59  1  0.258100  0.623800  0.148100  1.0  -0.8081
  O  O60  1  0.015100  0.543100  0.112200  1.0  -0.8349
  O  O61  1  0.227800  0.567800  0.001900  1.0  -0.7879
  O  O62  1  0.064400  0.644500  0.842600  1.0  -0.7445
  O  O63  1  0.039000  0.657900  0.679900  1.0  -0.7405
  O  O64  1  0.324300  0.513600  0.818300  1.0  -0.7464
  O  O65  1  0.422100  0.397400  0.728700  1.0  -0.7589
  O  O66  1  0.200900  0.480200  0.669900  1.0  -0.8017
  O  O67  1  0.144100  0.475000  0.420000  1.0  -0.8027
  O  O68  1  0.168600  0.603100  0.507400  1.0  -0.7563
  O  O69  1  0.371400  0.757100  0.277800  1.0  -0.828
  O  O70  1  0.735400  0.893900  0.853300  1.0  -0.8259
  O  O71  1  0.758100  0.876200  0.648100  1.0  -0.8075
  O  O72  1  0.515100  0.956900  0.612200  1.0  -0.8328
  O  O73  1  0.727800  0.932200  0.501900  1.0  -0.7876
  O  O74  1  0.564400  0.855500  0.342600  1.0  -0.744
  O  O75  1  0.539000  0.842100  0.179900  1.0  -0.7386
  O  O76  1  0.824300  0.986400  0.318300  1.0  -0.7466
  O  O77  1  0.922100  0.102600  0.228700  1.0  -0.757
  O  O78  1  0.700900  0.019800  0.169900  1.0  -0.8016
  O  O79  1  0.644100  0.025000  0.920000  1.0  -0.8026
  O  O80  1  0.668600  0.896900  0.007400  1.0  -0.7578
  O  O81  1  0.128600  0.257100  0.222200  1.0  -0.8274
  O  O82  1  0.764600  0.393900  0.646700  1.0  -0.8276
  O  O83  1  0.741900  0.376200  0.851900  1.0  -0.8056
  O  O84  1  0.984900  0.456900  0.887800  1.0  -0.8315
  O  O85  1  0.772200  0.432200  0.998100  1.0  -0.7894
  O  O86  1  0.935600  0.355500  0.157400  1.0  -0.7429
  O  O87  1  0.961000  0.342100  0.320100  1.0  -0.7405
  O  O88  1  0.675700  0.486400  0.181700  1.0  -0.7482
  O  O89  1  0.577900  0.602600  0.271300  1.0  -0.7557
  O  O90  1  0.799100  0.519800  0.330100  1.0  -0.802
  O  O91  1  0.855900  0.525000  0.580000  1.0  -0.8032
  O  O92  1  0.831400  0.396900  0.492600  1.0  -0.7569
