# generated using pymatgen
data_CeH12(C5O3)3
_symmetry_space_group_name_H-M   'P 1'
_cell_length_a   8.93220000
_cell_length_b   12.15980000
_cell_length_c   16.84360000
_cell_angle_alpha   90.00000000
_cell_angle_beta   90.00000000
_cell_angle_gamma   109.04000000
_symmetry_Int_Tables_number   1
_chemical_formula_structural   CeH12(C5O3)3
_chemical_formula_sum   'Ce4 H48 C60 O36'
_cell_volume   1729.35971742
_cell_formula_units_Z   4
loop_
 _symmetry_equiv_pos_site_id
 _symmetry_equiv_pos_as_xyz
  1  'x, y, z'
loop_
 _atom_site_type_symbol
 _atom_site_label
 _atom_site_symmetry_multiplicity
 _atom_site_fract_x
 _atom_site_fract_y
 _atom_site_fract_z
 _atom_site_occupancy
 _atom_site_charge
  Ce  Ce1  1  0.569090  0.048390  0.883530  1.0  2.2616
  Ce  Ce2  1  0.430910  0.951610  0.116470  1.0  2.2597
  Ce  Ce3  1  0.069090  0.048390  0.616470  1.0  2.2613
  Ce  Ce4  1  0.930910  0.951610  0.383530  1.0  2.2607
  H  H5  1  0.326000  0.814800  0.333800  1.0  0.113
  H  H6  1  0.087200  0.277700  0.821600  1.0  0.104
  H  H7  1  0.093000  0.526100  0.724200  1.0  0.1152
  H  H8  1  0.296800  0.496900  0.914900  1.0  0.1056
  H  H9  1  0.470300  0.283100  0.430200  1.0  0.0988
  H  H10  1  0.587200  0.277700  0.678400  1.0  0.1042
  H  H11  1  0.099500  0.648500  0.308300  1.0  0.1226
  H  H12  1  0.880000  0.364100  0.036400  1.0  0.0891
  H  H13  1  0.989600  0.336800  0.427000  1.0  0.1159
  H  H14  1  0.174000  0.185200  0.833800  1.0  0.1129
  H  H15  1  0.796800  0.496900  0.585100  1.0  0.1057
  H  H16  1  0.203200  0.503100  0.414900  1.0  0.1054
  H  H17  1  0.120000  0.635900  0.963600  1.0  0.0899
  H  H18  1  0.529700  0.716900  0.569800  1.0  0.0983
  H  H19  1  0.912800  0.722300  0.178400  1.0  0.1045
  H  H20  1  0.756100  0.206300  0.429800  1.0  0.0999
  H  H21  1  0.125500  0.469100  0.068600  1.0  0.1067
  H  H22  1  0.029700  0.716900  0.930200  1.0  0.0981
  H  H23  1  0.316600  0.643500  0.101100  1.0  0.1093
  H  H24  1  0.400500  0.351500  0.808300  1.0  0.1227
  H  H25  1  0.243900  0.793700  0.570200  1.0  0.101
  H  H26  1  0.743900  0.793700  0.929800  1.0  0.1004
  H  H27  1  0.900500  0.351500  0.691700  1.0  0.122
  H  H28  1  0.412800  0.722300  0.321600  1.0  0.1043
  H  H29  1  0.489600  0.336800  0.073000  1.0  0.1171
  H  H30  1  0.816600  0.643500  0.398900  1.0  0.109
  H  H31  1  0.703200  0.503100  0.085100  1.0  0.1058
  H  H32  1  0.010400  0.663200  0.573000  1.0  0.1155
  H  H33  1  0.907000  0.473900  0.275800  1.0  0.1144
  H  H34  1  0.625500  0.469100  0.431400  1.0  0.1068
  H  H35  1  0.970300  0.283100  0.069800  1.0  0.0991
  H  H36  1  0.510400  0.663200  0.927000  1.0  0.1156
  H  H37  1  0.876700  0.858100  0.990400  1.0  0.1327
  H  H38  1  0.256100  0.206300  0.070200  1.0  0.1007
  H  H39  1  0.593000  0.526100  0.775800  1.0  0.1153
  H  H40  1  0.826000  0.814800  0.166200  1.0  0.1132
  H  H41  1  0.623300  0.141900  0.490400  1.0  0.1326
  H  H42  1  0.374500  0.530900  0.568600  1.0  0.1071
  H  H43  1  0.123300  0.141900  0.009600  1.0  0.1329
  H  H44  1  0.380000  0.364100  0.463600  1.0  0.0895
  H  H45  1  0.376700  0.858100  0.509600  1.0  0.1327
  H  H46  1  0.599500  0.648500  0.191700  1.0  0.1221
  H  H47  1  0.874500  0.530900  0.931400  1.0  0.1064
  H  H48  1  0.407000  0.473900  0.224200  1.0  0.1141
  H  H49  1  0.683400  0.356500  0.898900  1.0  0.1089
  H  H50  1  0.620000  0.635900  0.536400  1.0  0.0899
  H  H51  1  0.183400  0.356500  0.601100  1.0  0.1086
  H  H52  1  0.674000  0.185200  0.666200  1.0  0.1123
  C  C53  1  0.270100  0.803400  0.514100  1.0  -0.0896
  C  C54  1  0.266800  0.390200  0.635810  1.0  -0.1544
  C  C55  1  0.495000  0.454800  0.331690  1.0  0.2555
  C  C56  1  0.396500  0.386900  0.759810  1.0  -0.1968
  C  C57  1  0.103500  0.613100  0.259810  1.0  -0.1962
  C  C58  1  0.878600  0.498100  0.550630  1.0  -0.1771
  C  C59  1  0.776800  0.336100  0.793330  1.0  0.2553
  C  C60  1  0.943700  0.111500  0.798300  1.0  0.7582
  C  C61  1  0.119100  0.505400  0.116480  1.0  -0.2283
  C  C62  1  0.600400  0.207300  0.699830  1.0  -0.0911
  C  C63  1  0.993200  0.402300  0.456370  1.0  -0.2082
  C  C64  1  0.380900  0.494600  0.616480  1.0  -0.2286
  C  C65  1  0.896500  0.386900  0.740190  1.0  -0.1959
  C  C66  1  0.733200  0.609800  0.364190  1.0  -0.1512
  C  C67  1  0.124400  0.695200  0.924310  1.0  -0.0753
  C  C68  1  0.233200  0.609800  0.135810  1.0  -0.1556
  C  C69  1  0.603500  0.613100  0.240190  1.0  -0.1965
  C  C70  1  0.770100  0.803400  0.985900  1.0  -0.089
  C  C71  1  0.656900  0.854200  0.026430  1.0  0.7222
  C  C72  1  0.731900  0.199500  0.059830  1.0  0.7566
  C  C73  1  0.768100  0.800500  0.559830  1.0  0.7563
  C  C74  1  0.011300  0.491700  0.759710  1.0  -0.1797
  C  C75  1  0.880900  0.494600  0.883520  1.0  -0.2281
  C  C76  1  0.988700  0.508300  0.240290  1.0  -0.1785
  C  C77  1  0.869000  0.398900  0.507050  1.0  0.1907
  C  C78  1  0.268100  0.800500  0.940170  1.0  0.7577
  C  C79  1  0.005000  0.545200  0.831690  1.0  0.2552
  C  C80  1  0.223200  0.663900  0.206670  1.0  0.2559
  C  C81  1  0.276800  0.336100  0.706670  1.0  0.2554
  C  C82  1  0.156900  0.854200  0.473570  1.0  0.7213
  C  C83  1  0.511300  0.491700  0.740290  1.0  -0.1794
  C  C84  1  0.488700  0.508300  0.259710  1.0  -0.1794
  C  C85  1  0.899600  0.792700  0.199830  1.0  -0.0916
  C  C86  1  0.729900  0.196600  0.485900  1.0  -0.0878
  C  C87  1  0.723200  0.663900  0.293330  1.0  0.2557
  C  C88  1  0.843100  0.145800  0.526430  1.0  0.7223
  C  C89  1  0.624400  0.695200  0.575690  1.0  -0.0788
  C  C90  1  0.506800  0.597700  0.956370  1.0  -0.2101
  C  C91  1  0.100400  0.207300  0.800170  1.0  -0.0929
  C  C92  1  0.131000  0.601100  0.492950  1.0  0.1901
  C  C93  1  0.556300  0.888500  0.298300  1.0  0.7579
  C  C94  1  0.056300  0.888500  0.201700  1.0  0.7582
  C  C95  1  0.378600  0.498100  0.949370  1.0  -0.1715
  C  C96  1  0.631000  0.601100  0.007050  1.0  0.1903
  C  C97  1  0.121400  0.501900  0.449370  1.0  -0.1713
  C  C98  1  0.621400  0.501900  0.050630  1.0  -0.1719
  C  C99  1  0.443700  0.111500  0.701700  1.0  0.7581
  C  C100  1  0.231900  0.199500  0.440170  1.0  0.7566
  C  C101  1  0.006800  0.597700  0.543630  1.0  -0.2094
  C  C102  1  0.369000  0.398900  0.992950  1.0  0.1906
  C  C103  1  0.399600  0.792700  0.300170  1.0  -0.0937
  C  C104  1  0.875600  0.304800  0.075690  1.0  -0.078
  C  C105  1  0.343100  0.145800  0.973570  1.0  0.7206
  C  C106  1  0.766800  0.390200  0.864190  1.0  -0.1539
  C  C107  1  0.505000  0.545200  0.668310  1.0  0.248
  C  C108  1  0.493200  0.402300  0.043630  1.0  -0.209
  C  C109  1  0.995000  0.454800  0.168310  1.0  0.256
  C  C110  1  0.375600  0.304800  0.424310  1.0  -0.0759
  C  C111  1  0.229900  0.196600  0.014100  1.0  -0.0877
  C  C112  1  0.619100  0.505400  0.383520  1.0  -0.2247
  O  O113  1  0.591000  0.952340  0.237630  1.0  -0.7141
  O  O114  1  0.839000  0.862560  0.616520  1.0  -0.6922
  O  O115  1  0.161300  0.227870  0.720350  1.0  -0.3649
  O  O116  1  0.232600  0.305250  0.982460  1.0  -0.2462
  O  O117  1  0.642300  0.900150  0.358220  1.0  -0.7205
  O  O118  1  0.374100  0.351740  0.347350  1.0  -0.2612
  O  O119  1  0.338700  0.772130  0.220350  1.0  -0.3655
  O  O120  1  0.402900  0.183430  0.908470  1.0  -0.6195
  O  O121  1  0.867000  0.059500  0.493140  1.0  -0.8307
  O  O122  1  0.125900  0.648260  0.847350  1.0  -0.2606
  O  O123  1  0.091000  0.952340  0.262370  1.0  -0.7131
  O  O124  1  0.661000  0.137440  0.116520  1.0  -0.6923
  O  O125  1  0.633000  0.940500  0.993140  1.0  -0.831
  O  O126  1  0.838700  0.772130  0.279650  1.0  -0.3658
  O  O127  1  0.767400  0.694750  0.017540  1.0  -0.2453
  O  O128  1  0.799300  0.817820  0.487740  1.0  -0.6662
  O  O129  1  0.700700  0.182180  0.987740  1.0  -0.6641
  O  O130  1  0.857700  0.099850  0.858220  1.0  -0.7203
  O  O131  1  0.161000  0.137440  0.383480  1.0  -0.6917
  O  O132  1  0.200700  0.182180  0.512260  1.0  -0.6663
  O  O133  1  0.339000  0.862560  0.883480  1.0  -0.6918
  O  O134  1  0.909000  0.047660  0.737630  1.0  -0.7142
  O  O135  1  0.142300  0.900150  0.141780  1.0  -0.7202
  O  O136  1  0.409000  0.047660  0.762370  1.0  -0.7137
  O  O137  1  0.732600  0.305250  0.517540  1.0  -0.2458
  O  O138  1  0.133000  0.940500  0.506860  1.0  -0.832
  O  O139  1  0.597100  0.816570  0.091530  1.0  -0.6193
  O  O140  1  0.661300  0.227870  0.779650  1.0  -0.3644
  O  O141  1  0.874100  0.351740  0.152650  1.0  -0.2618
  O  O142  1  0.902900  0.183430  0.591530  1.0  -0.6184
  O  O143  1  0.097100  0.816570  0.408470  1.0  -0.6193
  O  O144  1  0.299300  0.817820  0.012260  1.0  -0.6638
  O  O145  1  0.625900  0.648260  0.652650  1.0  -0.2607
  O  O146  1  0.367000  0.059500  0.006860  1.0  -0.8303
  O  O147  1  0.267400  0.694750  0.482460  1.0  -0.2454
  O  O148  1  0.357700  0.099850  0.641780  1.0  -0.7202
