# generated using pymatgen
data_SmH12(C5O3)3
_symmetry_space_group_name_H-M   'P 1'
_cell_length_a   8.91740000
_cell_length_b   12.11210000
_cell_length_c   16.62620000
_cell_angle_alpha   90.00000000
_cell_angle_beta   90.00000000
_cell_angle_gamma   109.36100000
_symmetry_Int_Tables_number   1
_chemical_formula_structural   SmH12(C5O3)3
_chemical_formula_sum   'Sm4 H48 C60 O36'
_cell_volume   1694.21651233
_cell_formula_units_Z   4
loop_
 _symmetry_equiv_pos_site_id
 _symmetry_equiv_pos_as_xyz
  1  'x, y, z'
loop_
 _atom_site_type_symbol
 _atom_site_label
 _atom_site_symmetry_multiplicity
 _atom_site_fract_x
 _atom_site_fract_y
 _atom_site_fract_z
 _atom_site_occupancy
 _atom_site_charge
  Sm  Sm1  1  0.433580  0.452280  0.117250  1.0  2.3208
  Sm  Sm2  1  0.066420  0.547720  0.617250  1.0  2.3195
  Sm  Sm3  1  0.566420  0.547720  0.882750  1.0  2.3192
  Sm  Sm4  1  0.933580  0.452280  0.382750  1.0  2.3214
  H  H5  1  0.529400  0.218500  0.567300  1.0  0.0923
  H  H6  1  0.905700  0.974300  0.274900  1.0  0.1095
  H  H7  1  0.596800  0.153100  0.193600  1.0  0.1188
  H  H8  1  0.990500  0.835400  0.426600  1.0  0.1116
  H  H9  1  0.970600  0.781500  0.067300  1.0  0.0928
  H  H10  1  0.412700  0.224600  0.322200  1.0  0.0976
  H  H11  1  0.370800  0.034800  0.567000  1.0  0.1108
  H  H12  1  0.704600  0.005000  0.086400  1.0  0.1053
  H  H13  1  0.622800  0.638600  0.489600  1.0  0.1271
  H  H14  1  0.490500  0.835400  0.073400  1.0  0.1125
  H  H15  1  0.903200  0.846900  0.693600  1.0  0.119
  H  H16  1  0.671000  0.680600  0.666900  1.0  0.1059
  H  H17  1  0.629200  0.965200  0.433000  1.0  0.1106
  H  H18  1  0.509500  0.164600  0.926600  1.0  0.1112
  H  H19  1  0.829000  0.319400  0.166900  1.0  0.1066
  H  H20  1  0.620300  0.137400  0.533900  1.0  0.0778
  H  H21  1  0.879700  0.862600  0.033900  1.0  0.0772
  H  H22  1  0.322200  0.142100  0.099800  1.0  0.1043
  H  H23  1  0.009500  0.164600  0.573400  1.0  0.1115
  H  H24  1  0.379700  0.862600  0.466100  1.0  0.0776
  H  H25  1  0.244300  0.295100  0.571600  1.0  0.0977
  H  H26  1  0.122800  0.638600  0.010400  1.0  0.1275
  H  H27  1  0.795400  0.995000  0.586400  1.0  0.1051
  H  H28  1  0.295400  0.995000  0.913600  1.0  0.1051
  H  H29  1  0.120300  0.137400  0.966100  1.0  0.0777
  H  H30  1  0.129200  0.965200  0.067000  1.0  0.1105
  H  H31  1  0.029400  0.218500  0.932700  1.0  0.0922
  H  H32  1  0.096800  0.153100  0.306400  1.0  0.1191
  H  H33  1  0.870800  0.034800  0.933000  1.0  0.1103
  H  H34  1  0.329000  0.319400  0.333100  1.0  0.1066
  H  H35  1  0.255700  0.704900  0.071600  1.0  0.0977
  H  H36  1  0.171000  0.680600  0.833100  1.0  0.1072
  H  H37  1  0.087300  0.775400  0.822200  1.0  0.0971
  H  H38  1  0.403200  0.846900  0.806400  1.0  0.1194
  H  H39  1  0.177800  0.857900  0.599800  1.0  0.1039
  H  H40  1  0.587300  0.775400  0.677800  1.0  0.0975
  H  H41  1  0.677800  0.857900  0.900200  1.0  0.1043
  H  H42  1  0.755700  0.704900  0.428400  1.0  0.097
  H  H43  1  0.204600  0.005000  0.413600  1.0  0.1049
  H  H44  1  0.744300  0.295100  0.928400  1.0  0.0975
  H  H45  1  0.877200  0.361400  0.989600  1.0  0.1274
  H  H46  1  0.094300  0.025700  0.725100  1.0  0.1101
  H  H47  1  0.470600  0.781500  0.432700  1.0  0.0927
  H  H48  1  0.822200  0.142100  0.400200  1.0  0.1043
  H  H49  1  0.405700  0.974300  0.225100  1.0  0.1093
  H  H50  1  0.377200  0.361400  0.510400  1.0  0.1274
  H  H51  1  0.912700  0.224600  0.177800  1.0  0.0977
  H  H52  1  0.594300  0.025700  0.774900  1.0  0.1103
  C  C53  1  0.657300  0.358500  0.024540  1.0  0.74
  C  C54  1  0.231000  0.696300  0.442750  1.0  0.7575
  C  C55  1  0.124500  0.197100  0.926520  1.0  -0.0631
  C  C56  1  0.560900  0.390500  0.296920  1.0  0.7653
  C  C57  1  0.769000  0.303700  0.557250  1.0  0.7562
  C  C58  1  0.493800  0.901400  0.043850  1.0  -0.2055
  C  C59  1  0.877700  0.996800  0.551480  1.0  -0.1847
  C  C60  1  0.098200  0.704600  0.799600  1.0  -0.0811
  C  C61  1  0.377700  0.996800  0.948520  1.0  -0.1899
  C  C62  1  0.731000  0.696300  0.057250  1.0  0.7588
  C  C63  1  0.401800  0.295400  0.299600  1.0  -0.0814
  C  C64  1  0.869600  0.897300  0.507840  1.0  0.2205
  C  C65  1  0.488000  0.008900  0.260900  1.0  -0.1797
  C  C66  1  0.875500  0.802900  0.073480  1.0  -0.0652
  C  C67  1  0.375500  0.802900  0.426520  1.0  -0.0648
  C  C68  1  0.774400  0.835100  0.794950  1.0  0.2552
  C  C69  1  0.369600  0.897300  0.992160  1.0  0.2205
  C  C70  1  0.270000  0.306300  0.514800  1.0  -0.0983
  C  C71  1  0.622300  0.003200  0.051480  1.0  -0.1848
  C  C72  1  0.730000  0.693700  0.485200  1.0  -0.0965
  C  C73  1  0.901800  0.295400  0.200400  1.0  -0.0798
  C  C74  1  0.060900  0.390500  0.203080  1.0  0.7656
  C  C75  1  0.622000  0.003100  0.385200  1.0  -0.2301
  C  C76  1  0.996000  0.954200  0.167160  1.0  0.2566
  C  C77  1  0.725600  0.164900  0.294950  1.0  0.2505
  C  C78  1  0.602900  0.115600  0.241670  1.0  -0.1699
  C  C79  1  0.397100  0.884400  0.758330  1.0  -0.1691
  C  C80  1  0.506200  0.098600  0.956150  1.0  -0.2073
  C  C81  1  0.598200  0.704600  0.700400  1.0  -0.0798
  C  C82  1  0.762800  0.891000  0.865550  1.0  -0.1483
  C  C83  1  0.274400  0.835100  0.705050  1.0  0.2553
  C  C84  1  0.504000  0.045800  0.667160  1.0  0.2463
  C  C85  1  0.988000  0.008900  0.239100  1.0  -0.1795
  C  C86  1  0.006200  0.098600  0.543850  1.0  -0.206
  C  C87  1  0.262800  0.891000  0.634450  1.0  -0.1483
  C  C88  1  0.897100  0.884400  0.741670  1.0  -0.1684
  C  C89  1  0.842700  0.641500  0.524540  1.0  0.7419
  C  C90  1  0.770000  0.306300  0.985200  1.0  -0.0974
  C  C91  1  0.130400  0.102700  0.492160  1.0  0.22
  C  C92  1  0.878000  0.996900  0.885200  1.0  -0.2299
  C  C93  1  0.157300  0.358500  0.475460  1.0  0.7393
  C  C94  1  0.342700  0.641500  0.975460  1.0  0.741
  C  C95  1  0.378000  0.996900  0.614800  1.0  -0.2302
  C  C96  1  0.624500  0.197100  0.573480  1.0  -0.0658
  C  C97  1  0.439100  0.609500  0.703080  1.0  0.7649
  C  C98  1  0.993800  0.901400  0.456150  1.0  -0.2042
  C  C99  1  0.737200  0.109000  0.365550  1.0  -0.1432
  C  C100  1  0.237200  0.109000  0.134450  1.0  -0.1437
  C  C101  1  0.012000  0.991100  0.760900  1.0  -0.1794
  C  C102  1  0.630400  0.102700  0.007840  1.0  0.2202
  C  C103  1  0.102900  0.115600  0.258330  1.0  -0.1707
  C  C104  1  0.122300  0.003200  0.448520  1.0  -0.1891
  C  C105  1  0.230000  0.693700  0.014800  1.0  -0.0986
  C  C106  1  0.225600  0.164900  0.205050  1.0  0.2506
  C  C107  1  0.512000  0.991100  0.739100  1.0  -0.1809
  C  C108  1  0.269000  0.303700  0.942750  1.0  0.7571
  C  C109  1  0.004000  0.045800  0.832840  1.0  0.248
  C  C110  1  0.122000  0.003100  0.114800  1.0  -0.2281
  C  C111  1  0.496000  0.954200  0.332840  1.0  0.2566
  C  C112  1  0.939100  0.609500  0.796920  1.0  0.765
  O  O113  1  0.351300  0.600020  0.643040  1.0  -0.7354
  O  O114  1  0.339600  0.367170  0.885520  1.0  -0.7061
  O  O115  1  0.374600  0.849730  0.348580  1.0  -0.2667
  O  O116  1  0.301500  0.318400  0.016050  1.0  -0.693
  O  O117  1  0.660400  0.632830  0.114480  1.0  -0.706
  O  O118  1  0.594500  0.454940  0.235840  1.0  -0.7241
  O  O119  1  0.766400  0.197460  0.018900  1.0  -0.2484
  O  O120  1  0.266400  0.197460  0.481100  1.0  -0.2482
  O  O121  1  0.370200  0.557670  0.010440  1.0  -0.8222
  O  O122  1  0.198500  0.681600  0.516050  1.0  -0.6932
  O  O123  1  0.625400  0.150270  0.651420  1.0  -0.2658
  O  O124  1  0.341400  0.273880  0.218650  1.0  -0.3723
  O  O125  1  0.098600  0.323550  0.408410  1.0  -0.6379
  O  O126  1  0.129800  0.442330  0.510440  1.0  -0.8228
  O  O127  1  0.841400  0.273880  0.281350  1.0  -0.3724
  O  O128  1  0.094500  0.454940  0.264160  1.0  -0.7241
  O  O129  1  0.658600  0.726120  0.781350  1.0  -0.3722
  O  O130  1  0.733600  0.802540  0.518900  1.0  -0.25
  O  O131  1  0.598600  0.323550  0.091590  1.0  -0.6387
  O  O132  1  0.839600  0.367170  0.614480  1.0  -0.7063
  O  O133  1  0.233600  0.802540  0.981100  1.0  -0.2491
  O  O134  1  0.629800  0.442330  0.989560  1.0  -0.8217
  O  O135  1  0.648700  0.399980  0.356960  1.0  -0.7344
  O  O136  1  0.158600  0.726120  0.718650  1.0  -0.3726
  O  O137  1  0.801500  0.318400  0.483950  1.0  -0.695
  O  O138  1  0.874600  0.849730  0.151420  1.0  -0.2675
  O  O139  1  0.401400  0.676450  0.908410  1.0  -0.6376
  O  O140  1  0.148700  0.399980  0.143040  1.0  -0.7355
  O  O141  1  0.698500  0.681600  0.983950  1.0  -0.6955
  O  O142  1  0.851300  0.600020  0.856960  1.0  -0.7349
  O  O143  1  0.125400  0.150270  0.848580  1.0  -0.2664
  O  O144  1  0.405500  0.545060  0.764160  1.0  -0.7226
  O  O145  1  0.901400  0.676450  0.591590  1.0  -0.638
  O  O146  1  0.160400  0.632830  0.385520  1.0  -0.7061
  O  O147  1  0.870200  0.557670  0.489560  1.0  -0.8223
  O  O148  1  0.905500  0.545060  0.735840  1.0  -0.7232
