# generated using pymatgen
data_NdH2C5O6
_symmetry_space_group_name_H-M   'P 1'
_cell_length_a   9.13040000
_cell_length_b   9.13040000
_cell_length_c   14.70990000
_cell_angle_alpha   100.16900000
_cell_angle_beta   100.16900000
_cell_angle_gamma   115.53900000
_symmetry_Int_Tables_number   1
_chemical_formula_structural   NdH2C5O6
_chemical_formula_sum   'Nd4 H8 C20 O24'
_cell_volume   1044.07609993
_cell_formula_units_Z   4
loop_
 _symmetry_equiv_pos_site_id
 _symmetry_equiv_pos_as_xyz
  1  'x, y, z'
loop_
 _atom_site_type_symbol
 _atom_site_label
 _atom_site_symmetry_multiplicity
 _atom_site_fract_x
 _atom_site_fract_y
 _atom_site_fract_z
 _atom_site_occupancy
 _atom_site_charge
  Nd  Nd1  1  0.740600  0.990600  0.981200  1.0  2.2733
  Nd  Nd2  1  0.509400  0.759400  0.518800  1.0  2.2723
  Nd  Nd3  1  0.259400  0.009400  0.018800  1.0  2.2723
  Nd  Nd4  1  0.490600  0.240600  0.481200  1.0  2.2733
  H  H5  1  0.302000  0.364000  0.926000  1.0  0.1252
  H  H6  1  0.124000  0.562000  0.926000  1.0  0.1279
  H  H7  1  0.136000  0.198000  0.574000  1.0  0.1275
  H  H8  1  0.938000  0.376000  0.574000  1.0  0.128
  H  H9  1  0.698000  0.636000  0.074000  1.0  0.1269
  H  H10  1  0.876000  0.438000  0.074000  1.0  0.128
  H  H11  1  0.864000  0.802000  0.426000  1.0  0.1271
  H  H12  1  0.062000  0.624000  0.426000  1.0  0.1267
  C  C13  1  0.060920  0.247920  0.941640  1.0  0.7662
  C  C14  1  0.213710  0.394110  0.935020  1.0  -0.1725
  C  C15  1  0.380720  0.693720  0.941640  1.0  0.7634
  C  C16  1  0.221310  0.540910  0.935020  1.0  -0.1727
  C  C17  1  0.252080  0.439080  0.558360  1.0  0.7653
  C  C18  1  0.105890  0.286290  0.564980  1.0  -0.1744
  C  C19  1  0.806280  0.119280  0.558360  1.0  0.764
  C  C20  1  0.959090  0.278690  0.564980  1.0  -0.1736
  C  C21  1  0.939080  0.752080  0.058360  1.0  0.7647
  C  C22  1  0.786290  0.605890  0.064980  1.0  -0.1726
  C  C23  1  0.619280  0.306280  0.058360  1.0  0.7641
  C  C24  1  0.778690  0.459090  0.064980  1.0  -0.1722
  C  C25  1  0.747920  0.560920  0.441640  1.0  0.766
  C  C26  1  0.894110  0.713710  0.435020  1.0  -0.1738
  C  C27  1  0.193720  0.880720  0.441640  1.0  0.7639
  C  C28  1  0.040910  0.721310  0.435020  1.0  -0.1732
  C  C29  1  0.675300  0.824700  0.750000  1.0  0.5648
  C  C30  1  0.574700  0.925300  0.750000  1.0  0.5652
  C  C31  1  0.324700  0.175300  0.250000  1.0  0.5652
  C  C32  1  0.425300  0.074700  0.250000  1.0  0.5648
  O  O33  1  0.762290  0.839070  0.829960  1.0  -0.6414
  O  O34  1  0.917360  0.239420  0.923980  1.0  -0.6631
  O  O35  1  0.084310  0.134270  0.967380  1.0  -0.8349
  O  O36  1  0.567670  0.990890  0.829960  1.0  -0.6394
  O  O37  1  0.506620  0.684560  0.923980  1.0  -0.6613
  O  O38  1  0.383070  0.833110  0.967380  1.0  -0.8382
  O  O39  1  0.660930  0.737710  0.670040  1.0  -0.6407
  O  O40  1  0.260580  0.582640  0.576020  1.0  -0.6593
  O  O41  1  0.365730  0.415690  0.532620  1.0  -0.8369
  O  O42  1  0.509110  0.932330  0.670040  1.0  -0.6408
  O  O43  1  0.815440  0.993380  0.576020  1.0  -0.6606
  O  O44  1  0.666890  0.116930  0.532620  1.0  -0.834
  O  O45  1  0.237710  0.160930  0.170040  1.0  -0.6399
  O  O46  1  0.082640  0.760580  0.076020  1.0  -0.6629
  O  O47  1  0.915690  0.865730  0.032620  1.0  -0.8379
  O  O48  1  0.432330  0.009110  0.170040  1.0  -0.6409
  O  O49  1  0.493380  0.315440  0.076020  1.0  -0.66
  O  O50  1  0.616930  0.166890  0.032620  1.0  -0.8364
  O  O51  1  0.339070  0.262290  0.329960  1.0  -0.6411
  O  O52  1  0.739420  0.417360  0.423980  1.0  -0.6593
  O  O53  1  0.634270  0.584310  0.467380  1.0  -0.8339
  O  O54  1  0.490890  0.067670  0.329960  1.0  -0.6412
  O  O55  1  0.184560  0.006620  0.423980  1.0  -0.6606
  O  O56  1  0.333110  0.883070  0.467380  1.0  -0.8365
