# generated using pymatgen
data_PrH2C5O6
_symmetry_space_group_name_H-M   'P 1'
_cell_length_a   9.14320000
_cell_length_b   9.14320000
_cell_length_c   14.77300000
_cell_angle_alpha   100.12100000
_cell_angle_beta   100.12200000
_cell_angle_gamma   115.60200000
_symmetry_Int_Tables_number   1
_chemical_formula_structural   PrH2C5O6
_chemical_formula_sum   'Pr4 H8 C20 O24'
_cell_volume   1051.42820095
_cell_formula_units_Z   4
loop_
 _symmetry_equiv_pos_site_id
 _symmetry_equiv_pos_as_xyz
  1  'x, y, z'
loop_
 _atom_site_type_symbol
 _atom_site_label
 _atom_site_symmetry_multiplicity
 _atom_site_fract_x
 _atom_site_fract_y
 _atom_site_fract_z
 _atom_site_occupancy
 _atom_site_charge
  Pr  Pr1  1  0.509190  0.259190  0.518380  1.0  2.1825
  Pr  Pr2  1  0.740810  0.490810  0.981620  1.0  2.1825
  Pr  Pr3  1  0.490810  0.740810  0.481620  1.0  2.1825
  Pr  Pr4  1  0.259190  0.509190  0.018380  1.0  2.1825
  H  H5  1  0.868000  0.312000  0.430000  1.0  0.1338
  H  H6  1  0.062000  0.118000  0.430000  1.0  0.134
  H  H7  1  0.688000  0.132000  0.070000  1.0  0.1336
  H  H8  1  0.882000  0.938000  0.070000  1.0  0.1348
  H  H9  1  0.132000  0.688000  0.570000  1.0  0.1338
  H  H10  1  0.938000  0.882000  0.570000  1.0  0.1347
  H  H11  1  0.312000  0.868000  0.930000  1.0  0.1333
  H  H12  1  0.118000  0.062000  0.930000  1.0  0.1337
  C  C13  1  0.748990  0.060390  0.441580  1.0  0.7634
  C  C14  1  0.893980  0.213780  0.435160  1.0  -0.1783
  C  C15  1  0.192590  0.381190  0.441580  1.0  0.7628
  C  C16  1  0.041180  0.221380  0.435160  1.0  -0.1765
  C  C17  1  0.939610  0.251010  0.058420  1.0  0.7623
  C  C18  1  0.786220  0.106020  0.064840  1.0  -0.1738
  C  C19  1  0.618810  0.807410  0.058420  1.0  0.7634
  C  C20  1  0.778620  0.958820  0.064840  1.0  -0.1738
  C  C21  1  0.251010  0.939610  0.558420  1.0  0.7629
  C  C22  1  0.106020  0.786220  0.564840  1.0  -0.1782
  C  C23  1  0.807410  0.618810  0.558420  1.0  0.7628
  C  C24  1  0.958820  0.778620  0.564840  1.0  -0.1767
  C  C25  1  0.060390  0.748990  0.941580  1.0  0.7635
  C  C26  1  0.213780  0.893980  0.935160  1.0  -0.1737
  C  C27  1  0.381190  0.192590  0.941580  1.0  0.7627
  C  C28  1  0.221380  0.041180  0.935160  1.0  -0.1739
  C  C29  1  0.675500  0.324500  0.750000  1.0  0.5758
  C  C30  1  0.574500  0.425500  0.750000  1.0  0.5769
  C  C31  1  0.324500  0.675500  0.250000  1.0  0.5769
  C  C32  1  0.425500  0.574500  0.250000  1.0  0.5758
  O  O33  1  0.660710  0.237910  0.670420  1.0  -0.6301
  O  O34  1  0.633750  0.081690  0.466840  1.0  -0.8159
  O  O35  1  0.742210  0.917350  0.424160  1.0  -0.6515
  O  O36  1  0.509710  0.432510  0.670420  1.0  -0.6296
  O  O37  1  0.333090  0.385150  0.466840  1.0  -0.8172
  O  O38  1  0.181950  0.506810  0.424160  1.0  -0.6563
  O  O39  1  0.762090  0.339290  0.829580  1.0  -0.6299
  O  O40  1  0.918310  0.366250  0.033160  1.0  -0.8185
  O  O41  1  0.082650  0.257790  0.075840  1.0  -0.6529
  O  O42  1  0.567490  0.490290  0.829580  1.0  -0.6287
  O  O43  1  0.614850  0.666910  0.033160  1.0  -0.818
  O  O44  1  0.493190  0.818050  0.075840  1.0  -0.6514
  O  O45  1  0.339290  0.762090  0.329580  1.0  -0.6301
  O  O46  1  0.366250  0.918310  0.533160  1.0  -0.8178
  O  O47  1  0.257790  0.082650  0.575840  1.0  -0.6553
  O  O48  1  0.490290  0.567490  0.329580  1.0  -0.6298
  O  O49  1  0.666910  0.614850  0.533160  1.0  -0.8151
  O  O50  1  0.818050  0.493190  0.575840  1.0  -0.6516
  O  O51  1  0.237910  0.660710  0.170420  1.0  -0.6293
  O  O52  1  0.081690  0.633750  0.966840  1.0  -0.8168
  O  O53  1  0.917350  0.742210  0.924160  1.0  -0.656
  O  O54  1  0.432510  0.509710  0.170420  1.0  -0.6299
  O  O55  1  0.385150  0.333090  0.966840  1.0  -0.8185
  O  O56  1  0.506810  0.181950  0.924160  1.0  -0.6558
