# generated using pymatgen
data_TbH12(C5O3)3
_symmetry_space_group_name_H-M   'P 1'
_cell_length_a   8.75190000
_cell_length_b   12.02800000
_cell_length_c   16.73630000
_cell_angle_alpha   90.00000000
_cell_angle_beta   90.00000000
_cell_angle_gamma   108.93200000
_symmetry_Int_Tables_number   1
_chemical_formula_structural   TbH12(C5O3)3
_chemical_formula_sum   'Tb4 H48 C60 O36'
_cell_volume   1666.48887467
_cell_formula_units_Z   4
loop_
 _symmetry_equiv_pos_site_id
 _symmetry_equiv_pos_as_xyz
  1  'x, y, z'
loop_
 _atom_site_type_symbol
 _atom_site_label
 _atom_site_symmetry_multiplicity
 _atom_site_fract_x
 _atom_site_fract_y
 _atom_site_fract_z
 _atom_site_occupancy
 _atom_site_charge
  Tb  Tb1  1  0.571290  0.047600  0.880990  1.0  2.2855
  Tb  Tb2  1  0.928710  0.952400  0.380990  1.0  2.2855
  Tb  Tb3  1  0.071290  0.047600  0.619010  1.0  2.2874
  Tb  Tb4  1  0.428710  0.952400  0.119010  1.0  2.2869
  H  H5  1  0.319400  0.821100  0.327100  1.0  0.0823
  H  H6  1  0.974500  0.329800  0.428800  1.0  0.1124
  H  H7  1  0.224000  0.210500  0.063300  1.0  0.0932
  H  H8  1  0.399600  0.470200  0.228000  1.0  0.1081
  H  H9  1  0.132900  0.642700  0.967200  1.0  0.0803
  H  H10  1  0.899600  0.470200  0.272000  1.0  0.1082
  H  H11  1  0.877800  0.536300  0.936100  1.0  0.103
  H  H12  1  0.394300  0.855300  0.495600  1.0  0.1159
  H  H13  1  0.025500  0.670200  0.571200  1.0  0.1123
  H  H14  1  0.906800  0.351500  0.696300  1.0  0.1121
  H  H15  1  0.183400  0.359300  0.595800  1.0  0.0963
  H  H16  1  0.402200  0.723200  0.320800  1.0  0.0797
  H  H17  1  0.367100  0.357300  0.467200  1.0  0.0804
  H  H18  1  0.808900  0.502500  0.594100  1.0  0.0934
  H  H19  1  0.377800  0.536300  0.563900  1.0  0.1034
  H  H20  1  0.097800  0.276800  0.820800  1.0  0.0794
  H  H21  1  0.597800  0.276800  0.679200  1.0  0.0797
  H  H22  1  0.191100  0.497500  0.405900  1.0  0.0938
  H  H23  1  0.100400  0.529800  0.728000  1.0  0.1087
  H  H24  1  0.819400  0.821100  0.172900  1.0  0.0826
  H  H25  1  0.468300  0.280300  0.435500  1.0  0.0911
  H  H26  1  0.031700  0.719700  0.935500  1.0  0.09
  H  H27  1  0.724000  0.210500  0.436700  1.0  0.0925
  H  H28  1  0.105700  0.144700  0.995600  1.0  0.1158
  H  H29  1  0.683400  0.359300  0.904200  1.0  0.0966
  H  H30  1  0.276000  0.789500  0.563300  1.0  0.0937
  H  H31  1  0.776000  0.789500  0.936700  1.0  0.093
  H  H32  1  0.406800  0.351500  0.803700  1.0  0.1124
  H  H33  1  0.180600  0.178900  0.827100  1.0  0.0826
  H  H34  1  0.600400  0.529800  0.772000  1.0  0.1088
  H  H35  1  0.691100  0.497500  0.094100  1.0  0.0939
  H  H36  1  0.316600  0.640700  0.095800  1.0  0.0969
  H  H37  1  0.525500  0.670200  0.928800  1.0  0.1126
  H  H38  1  0.531700  0.719700  0.564500  1.0  0.0893
  H  H39  1  0.093200  0.648500  0.303700  1.0  0.1098
  H  H40  1  0.593200  0.648500  0.196300  1.0  0.1097
  H  H41  1  0.622200  0.463700  0.436100  1.0  0.1033
  H  H42  1  0.816600  0.640700  0.404200  1.0  0.0968
  H  H43  1  0.680600  0.178900  0.672900  1.0  0.0818
  H  H44  1  0.122200  0.463700  0.063900  1.0  0.1025
  H  H45  1  0.902200  0.723200  0.179200  1.0  0.0798
  H  H46  1  0.867100  0.357300  0.032800  1.0  0.0797
  H  H47  1  0.968300  0.280300  0.064500  1.0  0.0909
  H  H48  1  0.605700  0.144700  0.504400  1.0  0.1156
  H  H49  1  0.474500  0.329800  0.071200  1.0  0.1136
  H  H50  1  0.632900  0.642700  0.532800  1.0  0.08
  H  H51  1  0.308900  0.502500  0.905900  1.0  0.0937
  H  H52  1  0.894300  0.855300  0.004400  1.0  0.1156
  C  C53  1  0.731800  0.606900  0.369070  1.0  -0.1652
  C  C54  1  0.884100  0.499100  0.888060  1.0  -0.2345
  C  C55  1  0.982700  0.504900  0.236300  1.0  -0.1838
  C  C56  1  0.278300  0.337700  0.701550  1.0  0.265
  C  C57  1  0.778300  0.337700  0.798450  1.0  0.2586
  C  C58  1  0.868900  0.298300  0.071940  1.0  -0.0929
  C  C59  1  0.517300  0.495100  0.736300  1.0  -0.1847
  C  C60  1  0.490400  0.450400  0.335350  1.0  0.2267
  C  C61  1  0.615900  0.500900  0.388060  1.0  -0.2337
  C  C62  1  0.786000  0.802500  0.994000  1.0  -0.0892
  C  C63  1  0.166700  0.861600  0.480200  1.0  0.7425
  C  C64  1  0.868600  0.399700  0.513800  1.0  0.2432
  C  C65  1  0.394400  0.794200  0.296220  1.0  -0.0649
  C  C66  1  0.268200  0.393100  0.630930  1.0  -0.1686
  C  C67  1  0.515700  0.601900  0.957400  1.0  -0.2195
  C  C68  1  0.885800  0.501400  0.556000  1.0  -0.177
  C  C69  1  0.773000  0.811700  0.557180  1.0  0.7299
  C  C70  1  0.598400  0.611600  0.244610  1.0  -0.1632
  C  C71  1  0.057800  0.887600  0.205890  1.0  0.7457
  C  C72  1  0.442200  0.112400  0.705890  1.0  0.7453
  C  C73  1  0.557800  0.887600  0.294110  1.0  0.7458
  C  C74  1  0.509600  0.549600  0.664650  1.0  0.2277
  C  C75  1  0.484300  0.398100  0.042600  1.0  -0.219
  C  C76  1  0.721700  0.662300  0.298450  1.0  0.2649
  C  C77  1  0.984300  0.398100  0.457400  1.0  -0.2191
  C  C78  1  0.286000  0.802500  0.506000  1.0  -0.0881
  C  C79  1  0.114200  0.498600  0.444000  1.0  -0.1706
  C  C80  1  0.131100  0.701700  0.928060  1.0  -0.0886
  C  C81  1  0.333333  0.138400  0.980200  1.0  0.7435
  C  C82  1  0.901600  0.388400  0.744610  1.0  -0.1637
  C  C83  1  0.368600  0.399700  0.986200  1.0  0.2429
  C  C84  1  0.631100  0.701700  0.571940  1.0  -0.0949
  C  C85  1  0.401600  0.388400  0.755390  1.0  -0.1637
  C  C86  1  0.017300  0.495100  0.763700  1.0  -0.1866
  C  C87  1  0.385800  0.501400  0.944000  1.0  -0.1716
  C  C88  1  0.273000  0.811700  0.942820  1.0  0.7306
  C  C89  1  0.614200  0.498600  0.056000  1.0  -0.1739
  C  C90  1  0.231800  0.606900  0.130930  1.0  -0.169
  C  C91  1  0.942200  0.112400  0.794110  1.0  0.7452
  C  C92  1  0.482700  0.504900  0.263700  1.0  -0.1899
  C  C93  1  0.227000  0.188300  0.442820  1.0  0.7298
  C  C94  1  0.714000  0.197500  0.494000  1.0  -0.0883
  C  C95  1  0.221700  0.662300  0.201550  1.0  0.2589
  C  C96  1  0.105600  0.205800  0.796220  1.0  -0.0657
  C  C97  1  0.214000  0.197500  0.006000  1.0  -0.088
  C  C98  1  0.009600  0.549600  0.835350  1.0  0.2359
  C  C99  1  0.990400  0.450400  0.164650  1.0  0.237
  C  C100  1  0.768200  0.393100  0.869070  1.0  -0.166
  C  C101  1  0.894400  0.794200  0.203780  1.0  -0.0642
  C  C102  1  0.384100  0.499100  0.611940  1.0  -0.2343
  C  C103  1  0.666667  0.861600  0.019800  1.0  0.7418
  C  C104  1  0.098400  0.611600  0.255390  1.0  -0.1634
  C  C105  1  0.727000  0.188300  0.057180  1.0  0.731
  C  C106  1  0.833300  0.138400  0.519800  1.0  0.7436
  C  C107  1  0.131400  0.600300  0.486200  1.0  0.2434
  C  C108  1  0.631400  0.600300  0.013800  1.0  0.2432
  C  C109  1  0.368900  0.298300  0.428060  1.0  -0.0898
  C  C110  1  0.115900  0.500900  0.111940  1.0  -0.2337
  C  C111  1  0.015700  0.601900  0.542600  1.0  -0.2192
  C  C112  1  0.605600  0.205800  0.703780  1.0  -0.0632
  O  O113  1  0.732900  0.306300  0.532200  1.0  -0.2656
  O  O114  1  0.142200  0.934100  0.526300  1.0  -0.7012
  O  O115  1  0.868300  0.345130  0.149540  1.0  -0.2714
  O  O116  1  0.695000  0.171800  0.984360  1.0  -0.6669
  O  O117  1  0.896400  0.160200  0.586610  1.0  -0.6378
  O  O118  1  0.357800  0.065900  0.026300  1.0  -0.7003
  O  O119  1  0.103600  0.839800  0.413390  1.0  -0.638
  O  O120  1  0.158400  0.124700  0.385930  1.0  -0.7064
  O  O121  1  0.857800  0.065900  0.473700  1.0  -0.7011
  O  O122  1  0.267100  0.693700  0.467800  1.0  -0.2665
  O  O123  1  0.854700  0.102660  0.854180  1.0  -0.7203
  O  O124  1  0.131700  0.654870  0.850460  1.0  -0.271
  O  O125  1  0.368300  0.345130  0.350460  1.0  -0.2707
  O  O126  1  0.805000  0.828200  0.484360  1.0  -0.6686
  O  O127  1  0.305000  0.828200  0.015640  1.0  -0.6686
  O  O128  1  0.645300  0.897340  0.354180  1.0  -0.717
  O  O129  1  0.603600  0.839800  0.086610  1.0  -0.6384
  O  O130  1  0.658400  0.124700  0.114070  1.0  -0.7061
  O  O131  1  0.145300  0.897340  0.145820  1.0  -0.7177
  O  O132  1  0.841600  0.875300  0.614070  1.0  -0.7053
  O  O133  1  0.767100  0.693700  0.032200  1.0  -0.2659
  O  O134  1  0.405600  0.050100  0.767500  1.0  -0.6923
  O  O135  1  0.905600  0.050100  0.732500  1.0  -0.6933
  O  O136  1  0.839000  0.771030  0.285080  1.0  -0.3585
  O  O137  1  0.594400  0.949900  0.232500  1.0  -0.6942
  O  O138  1  0.232900  0.306300  0.967800  1.0  -0.2649
  O  O139  1  0.631700  0.654870  0.649540  1.0  -0.2693
  O  O140  1  0.396400  0.160200  0.913390  1.0  -0.6384
  O  O141  1  0.341600  0.875300  0.885930  1.0  -0.7062
  O  O142  1  0.661000  0.228970  0.785080  1.0  -0.3592
  O  O143  1  0.642200  0.934100  0.973700  1.0  -0.7004
  O  O144  1  0.094400  0.949900  0.267500  1.0  -0.6939
  O  O145  1  0.354700  0.102660  0.645820  1.0  -0.7203
  O  O146  1  0.339000  0.771030  0.214920  1.0  -0.3594
  O  O147  1  0.195000  0.171800  0.515640  1.0  -0.6672
  O  O148  1  0.161000  0.228970  0.714920  1.0  -0.3604
