# generated using pymatgen
data_Zn3H46C56(N2O3)4
_symmetry_space_group_name_H-M   'P 1'
_cell_length_a   9.48060000
_cell_length_b   18.12700000
_cell_length_c   18.69300000
_cell_angle_alpha   61.88000000
_cell_angle_beta   83.98000000
_cell_angle_gamma   86.35000000
_symmetry_Int_Tables_number   1
_chemical_formula_structural   Zn3H46C56(N2O3)4
_chemical_formula_sum   'Zn6 H92 C112 N16 O24'
_cell_volume   2817.29319567
_cell_formula_units_Z   2
loop_
 _symmetry_equiv_pos_site_id
 _symmetry_equiv_pos_as_xyz
  1  'x, y, z'
loop_
 _atom_site_type_symbol
 _atom_site_label
 _atom_site_symmetry_multiplicity
 _atom_site_fract_x
 _atom_site_fract_y
 _atom_site_fract_z
 _atom_site_occupancy
 _atom_site_charge
  Zn  Zn1  1  0.341680  0.080690  0.642480  1.0  0.929
  Zn  Zn2  1  0.510990  0.500340  0.744840  1.0  0.8516
  Zn  Zn3  1  0.658320  0.919310  0.357520  1.0  0.9287
  Zn  Zn4  1  0.643570  0.071870  0.129460  1.0  0.9575
  Zn  Zn5  1  0.356430  0.928130  0.870540  1.0  0.9573
  Zn  Zn6  1  0.489010  0.499660  0.255160  1.0  0.8515
  H  H7  1  0.114200  0.044600  0.895000  1.0  0.1138
  H  H8  1  0.432900  0.593100  0.498000  1.0  0.1172
  H  H9  1  0.825200  0.893500  0.589700  1.0  0.0745
  H  H10  1  0.064000  0.860200  0.595400  1.0  0.0874
  H  H11  1  0.268900  0.429000  0.695800  1.0  0.1033
  H  H12  1  0.764400  0.316000  0.547400  1.0  0.0706
  H  H13  1  0.457000  0.262500  0.175400  1.0  0.0954
  H  H14  1  0.098000  0.209000  0.943800  1.0  0.1161
  H  H15  1  0.267700  0.996400  0.391100  1.0  0.1264
  H  H16  1  0.478700  0.728500  0.326700  1.0  0.0955
  H  H17  1  0.268900  0.191700  0.042400  1.0  0.0853
  H  H18  1  0.037200  0.616100  0.842500  1.0  0.1001
  H  H19  1  0.468800  0.343600  0.496800  1.0  0.1297
  H  H20  1  0.379300  0.239700  0.061100  1.0  0.0816
  H  H21  1  0.458300  0.439200  0.435500  1.0  0.1294
  H  H22  1  0.692000  0.052800  0.883500  1.0  0.0812
  H  H23  1  0.962800  0.383900  0.157500  1.0  0.0999
  H  H24  1  0.508700  0.911900  0.591900  1.0  0.0991
  H  H25  1  0.083500  0.214000  0.203100  1.0  0.0739
  H  H26  1  0.107400  0.338000  0.698300  1.0  0.1086
  H  H27  1  0.790800  0.686700  0.906400  1.0  0.0683
  H  H28  1  0.308000  0.947200  0.116500  1.0  0.0819
  H  H29  1  0.905900  0.709500  0.946900  1.0  0.0745
  H  H30  1  0.209200  0.313300  0.093600  1.0  0.0682
  H  H31  1  0.174800  0.106500  0.410300  1.0  0.075
  H  H32  1  0.521300  0.271500  0.673300  1.0  0.096
  H  H33  1  0.138900  0.732600  0.874100  1.0  0.1074
  H  H34  1  0.620700  0.760300  0.938900  1.0  0.0783
  H  H35  1  0.016800  0.277000  0.395300  1.0  0.1226
  H  H36  1  0.024800  0.770800  0.339900  1.0  0.1069
  H  H37  1  0.809000  0.204900  0.215900  1.0  0.1098
  H  H38  1  0.671100  0.316400  0.842100  1.0  0.1062
  H  H39  1  0.916500  0.786000  0.796900  1.0  0.0744
  H  H40  1  0.060500  0.166300  0.732900  1.0  0.1224
  H  H41  1  0.975200  0.229200  0.660100  1.0  0.1064
  H  H42  1  0.260300  0.825600  0.476300  1.0  0.0786
  H  H43  1  0.567100  0.406900  0.502000  1.0  0.1161
  H  H44  1  0.491300  0.088100  0.408100  1.0  0.0997
  H  H45  1  0.860400  0.781700  0.353400  1.0  0.1298
  H  H46  1  0.107000  0.722500  0.484600  1.0  0.0735
  H  H47  1  0.936000  0.139800  0.404600  1.0  0.0877
  H  H48  1  0.779200  0.060900  0.381500  1.0  0.1176
  H  H49  1  0.216000  0.162900  0.191700  1.0  0.073
  H  H50  1  0.901200  0.692100  0.736300  1.0  0.0792
  H  H51  1  0.770300  0.178000  0.670700  1.0  0.0725
  H  H52  1  0.694600  0.102600  0.672800  1.0  0.0899
  H  H53  1  0.749100  0.442200  0.175000  1.0  0.1184
  H  H54  1  0.543000  0.737500  0.824600  1.0  0.0966
  H  H55  1  0.459100  0.554600  0.078700  1.0  0.1346
  H  H56  1  0.437800  0.403300  0.000500  1.0  0.1165
  H  H57  1  0.460500  0.105400  0.910200  1.0  0.1016
  H  H58  1  0.250900  0.557800  0.825000  1.0  0.1186
  H  H59  1  0.220800  0.939100  0.618500  1.0  0.1162
  H  H60  1  0.721200  0.217600  0.144300  1.0  0.1319
  H  H61  1  0.739700  0.174400  0.523700  1.0  0.0785
  H  H62  1  0.885800  0.955400  0.105000  1.0  0.1133
  H  H63  1  0.278800  0.782400  0.855700  1.0  0.1336
  H  H64  1  0.562200  0.596700  0.999500  1.0  0.1177
  H  H65  1  0.014200  0.231500  0.823700  1.0  0.0923
  H  H66  1  0.531200  0.656400  0.503200  1.0  0.1316
  H  H67  1  0.902000  0.791000  0.056200  1.0  0.1158
  H  H68  1  0.560300  0.350400  0.982700  1.0  0.1159
  H  H69  1  0.893000  0.277500  0.515400  1.0  0.0712
  H  H70  1  0.105500  0.900200  0.090800  1.0  0.0875
  H  H71  1  0.983200  0.723000  0.604700  1.0  0.1224
  H  H72  1  0.540900  0.445400  0.921300  1.0  0.137
  H  H73  1  0.541700  0.560800  0.564500  1.0  0.1294
  H  H74  1  0.985800  0.768500  0.176300  1.0  0.0925
  H  H75  1  0.383400  0.788900  0.439000  1.0  0.0762
  H  H76  1  0.139600  0.218300  0.646600  1.0  0.1303
  H  H77  1  0.939500  0.833700  0.267100  1.0  0.1237
  H  H78  1  0.894500  0.099800  0.909200  1.0  0.087
  H  H79  1  0.731100  0.571000  0.304200  1.0  0.1037
  H  H80  1  0.094100  0.290500  0.053100  1.0  0.0764
  H  H81  1  0.235600  0.684000  0.452600  1.0  0.0713
  H  H82  1  0.616600  0.211100  0.561000  1.0  0.0748
  H  H83  1  0.098800  0.307900  0.263700  1.0  0.0797
  H  H84  1  0.732300  0.003600  0.608900  1.0  0.1265
  H  H85  1  0.357100  0.321200  0.356500  1.0  0.0987
  H  H86  1  0.784000  0.837100  0.808300  1.0  0.072
  H  H87  1  0.439700  0.649600  0.017300  1.0  0.1168
  H  H88  1  0.305400  0.897400  0.327200  1.0  0.0896
  H  H89  1  0.892600  0.662000  0.301700  1.0  0.1089
  H  H90  1  0.861100  0.267400  0.125900  1.0  0.1071
  H  H91  1  0.328900  0.683600  0.157900  1.0  0.1061
  H  H92  1  0.297400  0.055700  0.149600  1.0  0.1032
  H  H93  1  0.191000  0.795100  0.784100  1.0  0.1108
  H  H94  1  0.229700  0.822000  0.329300  1.0  0.0722
  H  H95  1  0.702600  0.944300  0.850400  1.0  0.1026
  H  H96  1  0.731100  0.808300  0.957600  1.0  0.0848
  H  H97  1  0.539500  0.894600  0.089800  1.0  0.1026
  H  H98  1  0.642900  0.678800  0.643500  1.0  0.0989
  C  C99  1  0.388600  0.282100  0.339300  1.0  -0.0093
  C  C100  1  0.132900  0.252300  0.894300  1.0  -0.1105
  C  C101  1  0.659100  0.389700  0.680800  1.0  0.7233
  C  C102  1  0.884900  0.925600  0.600000  1.0  -0.0919
  C  C103  1  0.595500  0.694600  0.743400  1.0  -0.1435
  C  C104  1  0.532500  0.857700  0.629600  1.0  -0.0288
  C  C105  1  0.365300  0.394200  0.193000  1.0  0.6892
  C  C106  1  0.416700  0.120000  0.766100  1.0  0.6835
  C  C107  1  0.467500  0.142300  0.370400  1.0  -0.0292
  C  C108  1  0.609600  0.826100  0.514200  1.0  0.6279
  C  C109  1  0.404500  0.305400  0.256600  1.0  -0.144
  C  C110  1  0.875900  0.048600  0.382200  1.0  -0.1283
  C  C111  1  0.071400  0.625100  0.790600  1.0  -0.085
  C  C112  1  0.928600  0.374900  0.209400  1.0  -0.0831
  C  C113  1  0.718500  0.202100  0.557200  1.0  -0.1473
  C  C114  1  0.959700  0.040500  0.132700  1.0  0.1619
  C  C115  1  0.030600  0.123700  0.655000  1.0  0.4018
  C  C116  1  0.868200  0.806100  0.832900  1.0  -0.0112
  C  C117  1  0.081100  0.070200  0.145000  1.0  0.1222
  C  C118  1  0.376700  0.717900  0.171400  1.0  -0.0318
  C  C119  1  0.234600  0.304500  0.891100  1.0  0.1165
  C  C120  1  0.176000  0.269100  0.084600  1.0  -0.1415
  C  C121  1  0.498600  0.155300  0.869400  1.0  -0.0625
  C  C122  1  0.551400  0.753100  0.769300  1.0  -0.0512
  C  C123  1  0.623300  0.282100  0.828600  1.0  -0.0298
  C  C124  1  0.010000  0.327600  0.273800  1.0  -0.0975
  C  C125  1  0.131800  0.193900  0.167100  1.0  -0.0114
  C  C126  1  0.397600  0.692000  0.252300  1.0  -0.1364
  C  C127  1  0.519700  0.834800  0.713300  1.0  -0.1438
  C  C128  1  0.395700  0.825500  0.023300  1.0  0.637
  C  C129  1  0.897700  0.146800  0.152700  1.0  0.3864
  C  C130  1  0.902800  0.057300  0.894400  1.0  -0.0826
  C  C131  1  0.529100  0.102300  0.259200  1.0  0.6798
  C  C132  1  0.634700  0.605800  0.807000  1.0  0.6866
  C  C133  1  0.124100  0.951400  0.617800  1.0  -0.129
  C  C134  1  0.583300  0.880000  0.233900  1.0  0.6829
  C  C135  1  0.053400  0.190000  0.675400  1.0  -0.3899
  C  C136  1  0.115100  0.074400  0.400000  1.0  -0.0909
  C  C137  1  0.709700  0.754400  0.962500  1.0  0.0006
  C  C138  1  0.791000  0.286200  0.516300  1.0  -0.0163
  C  C139  1  0.815000  0.215200  0.160400  1.0  -0.3857
  C  C140  1  0.779200  0.027700  0.879600  1.0  -0.1019
  C  C141  1  0.138600  0.331300  0.746600  1.0  -0.103
  C  C142  1  0.448600  0.246900  0.230700  1.0  -0.0502
  C  C143  1  0.199300  0.591400  0.780900  1.0  -0.15
  C  C144  1  0.519700  0.820400  0.212300  1.0  -0.1568
  C  C145  1  0.765500  0.145100  0.642500  1.0  -0.0159
  C  C146  1  0.970000  0.094600  0.396800  1.0  -0.0924
  C  C147  1  0.946600  0.810000  0.324600  1.0  -0.3891
  C  C148  1  0.220800  0.972300  0.120400  1.0  -0.1016
  C  C149  1  0.040300  0.959500  0.867300  1.0  0.1605
  C  C150  1  0.076800  0.963900  0.373000  1.0  0.0806
  C  C151  1  0.084200  0.265800  0.822700  1.0  -0.0839
  C  C152  1  0.861400  0.668700  0.253400  1.0  -0.1055
  C  C153  1  0.602400  0.308000  0.747700  1.0  -0.1352
  C  C154  1  0.288300  0.370500  0.817600  1.0  0.1449
  C  C155  1  0.426700  0.794800  0.110300  1.0  -0.1499
  C  C156  1  0.580400  0.799900  0.603400  1.0  -0.1589
  C  C157  1  0.236700  0.384200  0.744900  1.0  -0.0553
  C  C158  1  0.340900  0.610300  0.319200  1.0  0.7233
  C  C159  1  0.749900  0.390500  0.298500  1.0  0.1309
  C  C160  1  0.962600  0.309300  0.352000  1.0  -0.1223
  C  C161  1  0.507700  0.605100  0.041400  1.0  -0.4094
  C  C162  1  0.209000  0.713800  0.483700  1.0  -0.0142
  C  C163  1  0.521600  0.394100  0.465800  1.0  -0.4063
  C  C164  1  0.030000  0.905400  0.603200  1.0  -0.0911
  C  C165  1  0.097200  0.942700  0.105600  1.0  -0.0823
  C  C166  1  0.216500  0.036300  0.140100  1.0  -0.1767
  C  C167  1  0.102300  0.853200  0.847300  1.0  0.3867
  C  C168  1  0.171600  0.658500  0.636200  1.0  0.0921
  C  C169  1  0.967200  0.975700  0.113000  1.0  -0.0708
  C  C170  1  0.918900  0.929800  0.855000  1.0  0.1217
  C  C171  1  0.480300  0.179600  0.787700  1.0  -0.1569
  C  C172  1  0.480300  0.165200  0.286700  1.0  -0.1437
  C  C173  1  0.932500  0.983900  0.368900  1.0  0.1288
  C  C174  1  0.969400  0.876300  0.345000  1.0  0.3988
  C  C175  1  0.171300  0.009600  0.388700  1.0  -0.1456
  C  C176  1  0.603200  0.627300  0.085500  1.0  0.3853
  C  C177  1  0.478400  0.605900  0.534200  1.0  -0.4056
  C  C178  1  0.368600  0.617600  0.591700  1.0  0.3895
  C  C179  1  0.990000  0.672400  0.726200  1.0  -0.0976
  C  C180  1  0.067500  0.016100  0.631100  1.0  0.1301
  C  C181  1  0.037400  0.690700  0.648000  1.0  -0.1225
  C  C182  1  0.867100  0.747700  0.105700  1.0  -0.1116
  C  C183  1  0.915800  0.734200  0.177300  1.0  -0.0835
  C  C184  1  0.467400  0.744700  0.272400  1.0  -0.0133
  C  C185  1  0.631400  0.382400  0.408300  1.0  0.3905
  C  C186  1  0.711700  0.629500  0.182400  1.0  0.1456
  C  C187  1  0.611400  0.717900  0.660700  1.0  -0.0106
  C  C188  1  0.390400  0.173900  0.485800  1.0  0.6281
  C  C189  1  0.828700  0.990400  0.611300  1.0  -0.1464
  C  C190  1  0.765400  0.695500  0.108900  1.0  0.1147
  C  C191  1  0.396800  0.372700  0.914500  1.0  0.3884
  C  C192  1  0.763300  0.615800  0.255100  1.0  -0.0567
  C  C193  1  0.470900  0.897700  0.740800  1.0  0.6799
  C  C194  1  0.032800  0.024300  0.887000  1.0  -0.0708
  C  C195  1  0.185000  0.784800  0.839600  1.0  -0.3859
  C  C196  1  0.281500  0.797900  0.442800  1.0  -0.1463
  C  C197  1  0.501400  0.844700  0.130600  1.0  -0.065
  C  C198  1  0.532600  0.255300  0.727600  1.0  -0.0115
  C  C199  1  0.573300  0.205200  0.889700  1.0  -0.1502
  C  C200  1  0.290300  0.245600  0.037500  1.0  -0.0005
  C  C201  1  0.800700  0.408600  0.219100  1.0  -0.1492
  C  C202  1  0.492300  0.394900  0.958600  1.0  -0.4087
  C  C203  1  0.604300  0.174500  0.976700  1.0  0.6373
  C  C204  1  0.828400  0.341500  0.363800  1.0  0.0908
  C  C205  1  0.234500  0.854900  0.357500  1.0  -0.016
  C  C206  1  0.824000  0.730900  0.915400  1.0  -0.141
  C  C207  1  0.419600  0.200100  0.396600  1.0  -0.1572
  C  C208  1  0.250100  0.609500  0.701500  1.0  0.1298
  C  C209  1  0.783500  0.963700  0.859900  1.0  -0.1775
  C  C210  1  0.923200  0.036100  0.627000  1.0  0.0803
  N  N211  1  0.131800  0.071800  0.649000  1.0  -0.416
  N  N212  1  0.249000  0.663500  0.567000  1.0  -0.0718
  N  N213  1  0.096400  0.896100  0.358000  1.0  -0.0381
  N  N214  1  0.751000  0.336500  0.433000  1.0  -0.0739
  N  N215  1  0.845300  0.088700  0.139300  1.0  -0.4553
  N  N216  1  0.868200  0.928200  0.351000  1.0  -0.4152
  N  N217  1  0.962700  0.862500  0.841600  1.0  -0.0289
  N  N218  1  0.903600  0.103900  0.642000  1.0  -0.0394
  N  N219  1  0.307500  0.307200  0.950300  1.0  -0.078
  N  N220  1  0.692500  0.692800  0.049700  1.0  -0.0776
  N  N221  1  0.037300  0.137500  0.158400  1.0  -0.0297
  N  N222  1  0.625700  0.415800  0.328700  1.0  -0.4502
  N  N223  1  0.389000  0.411900  0.833600  1.0  -0.3891
  N  N224  1  0.611000  0.588100  0.166400  1.0  -0.3895
  N  N225  1  0.154700  0.911300  0.860700  1.0  -0.4554
  N  N226  1  0.374300  0.584200  0.671300  1.0  -0.4482
  O  O227  1  0.570100  0.899700  0.464900  1.0  -0.6057
  O  O228  1  0.359500  0.450700  0.216200  1.0  -0.6354
  O  O229  1  0.628600  0.948100  0.178300  1.0  -0.6579
  O  O230  1  0.572100  0.099300  0.026800  1.0  -0.6048
  O  O231  1  0.661600  0.220600  0.996300  1.0  -0.5865
  O  O232  1  0.336700  0.404500  0.127400  1.0  -0.5435
  O  O233  1  0.586100  0.037100  0.308600  1.0  -0.641
  O  O234  1  0.427900  0.900700  0.973200  1.0  -0.6069
  O  O235  1  0.486100  0.880400  0.813300  1.0  -0.588
  O  O236  1  0.338400  0.779400  0.003700  1.0  -0.5861
  O  O237  1  0.642500  0.454500  0.689600  1.0  -0.6096
  O  O238  1  0.581900  0.858400  0.309200  1.0  -0.6101
  O  O239  1  0.279700  0.610200  0.380000  1.0  -0.6089
  O  O240  1  0.663300  0.595500  0.872600  1.0  -0.5451
  O  O241  1  0.330500  0.221100  0.509200  1.0  -0.5882
  O  O242  1  0.413900  0.962900  0.691400  1.0  -0.6422
  O  O243  1  0.357500  0.545500  0.310400  1.0  -0.615
  O  O244  1  0.669500  0.778900  0.490800  1.0  -0.5898
  O  O245  1  0.640500  0.549300  0.783800  1.0  -0.6325
  O  O246  1  0.513900  0.119600  0.186700  1.0  -0.5879
  O  O247  1  0.429900  0.100300  0.535100  1.0  -0.6057
  O  O248  1  0.371400  0.051900  0.821700  1.0  -0.6571
  O  O249  1  0.418100  0.141600  0.690800  1.0  -0.6107
  O  O250  1  0.720300  0.389800  0.620000  1.0  -0.6121
