# generated using pymatgen
data_CdH22C25(NO)4
_symmetry_space_group_name_H-M   'P 1'
_cell_length_a   12.15600000
_cell_length_b   18.59000000
_cell_length_c   21.02400000
_cell_angle_alpha   74.05000000
_cell_angle_beta   75.94000000
_cell_angle_gamma   75.58000000
_symmetry_Int_Tables_number   1
_chemical_formula_structural   CdH22C25(NO)4
_chemical_formula_sum   'Cd6 H132 C150 N24 O24'
_cell_volume   4345.81044508
_cell_formula_units_Z   6
loop_
 _symmetry_equiv_pos_site_id
 _symmetry_equiv_pos_as_xyz
  1  'x, y, z'
loop_
 _atom_site_type_symbol
 _atom_site_label
 _atom_site_symmetry_multiplicity
 _atom_site_fract_x
 _atom_site_fract_y
 _atom_site_fract_z
 _atom_site_occupancy
 _atom_site_charge
  Cd  Cd1  1  0.637540  0.337000  0.955740  1.0  0.9127
  Cd  Cd2  1  0.337270  0.083740  0.689530  1.0  0.9746
  Cd  Cd3  1  0.050350  0.660860  0.642530  1.0  0.9592
  Cd  Cd4  1  0.949650  0.339140  0.357470  1.0  0.9569
  Cd  Cd5  1  0.662730  0.916260  0.310470  1.0  0.9757
  Cd  Cd6  1  0.362460  0.663000  0.044260  1.0  0.9133
  H  H7  1  0.355600  0.070000  0.203400  1.0  0.0882
  H  H8  1  0.034800  0.175500  0.446200  1.0  0.1309
  H  H9  1  0.017100  0.774200  0.190100  1.0  0.0981
  H  H10  1  0.719400  0.120700  0.839800  1.0  0.1183
  H  H11  1  0.421100  0.247500  0.416500  1.0  0.0746
  H  H12  1  0.451100  0.313900  0.302300  1.0  0.0703
  H  H13  1  0.713800  0.618000  0.648700  1.0  0.1102
  H  H14  1  0.998100  0.770400  0.025400  1.0  0.0777
  H  H15  1  0.618800  0.006300  0.655500  1.0  0.1061
  H  H16  1  0.206700  0.854400  0.683700  1.0  0.1005
  H  H17  1  0.836300  0.104400  0.694100  1.0  0.0951
  H  H18  1  0.906900  0.453200  0.776300  1.0  0.1059
  H  H19  1  0.240600  0.658900  0.826100  1.0  0.1094
  H  H20  1  0.173700  0.535900  0.349800  1.0  0.0914
  H  H21  1  0.552500  0.232200  0.383400  1.0  0.0759
  H  H22  1  0.065900  0.203000  0.104200  1.0  0.1185
  H  H23  1  0.548100  0.410900  0.698600  1.0  0.0969
  H  H24  1  0.715200  0.824800  0.115100  1.0  0.074
  H  H25  1  0.606700  0.972400  0.155100  1.0  0.1019
  H  H26  1  0.286200  0.382000  0.351300  1.0  0.1102
  H  H27  1  0.907700  0.162900  0.475500  1.0  0.1287
  H  H28  1  0.175700  0.249700  0.990100  1.0  0.0685
  H  H29  1  0.113400  0.527900  0.546800  1.0  0.1253
  H  H30  1  0.841800  0.912600  0.775200  1.0  0.0867
  H  H31  1  0.314800  0.271600  0.783300  1.0  0.1112
  H  H32  1  0.254700  0.779300  0.270800  1.0  0.0861
  H  H33  1  0.001900  0.229600  0.974600  1.0  0.0771
  H  H34  1  0.811600  0.651300  0.334400  1.0  0.1043
  H  H35  1  0.838800  0.713500  0.084800  1.0  0.0808
  H  H36  1  0.268600  0.922300  0.579200  1.0  0.115
  H  H37  1  0.538700  0.779300  0.390800  1.0  0.1308
  H  H38  1  0.381200  0.993700  0.344500  1.0  0.1057
  H  H39  1  0.618500  0.380900  0.797800  1.0  0.1122
  H  H40  1  0.731400  0.077700  0.420800  1.0  0.1134
  H  H41  1  0.650900  0.162000  0.157100  1.0  0.1042
  H  H42  1  0.550000  0.265600  0.615600  1.0  0.1057
  H  H43  1  0.393300  0.027600  0.844900  1.0  0.1013
  H  H44  1  0.954900  0.821600  0.717400  1.0  0.1103
  H  H45  1  0.578900  0.752500  0.583500  1.0  0.0739
  H  H46  1  0.942100  0.203100  0.094400  1.0  0.108
  H  H47  1  0.638900  0.042700  0.935400  1.0  0.082
  H  H48  1  0.559100  0.853900  0.976100  1.0  0.1131
  H  H49  1  0.366300  0.220300  0.045500  1.0  0.1241
  H  H50  1  0.965200  0.824500  0.553800  1.0  0.1301
  H  H51  1  0.769200  0.878000  0.435300  1.0  0.1223
  H  H52  1  0.544200  0.112700  0.374700  1.0  0.0775
  H  H53  1  0.455800  0.887300  0.625300  1.0  0.0779
  H  H54  1  0.002700  0.129200  0.520400  1.0  0.1129
  H  H55  1  0.227500  0.334500  0.419300  1.0  0.1162
  H  H56  1  0.995100  0.142000  0.621700  1.0  0.0813
  H  H57  1  0.793300  0.145600  0.316300  1.0  0.0992
  H  H58  1  0.997300  0.870800  0.479600  1.0  0.1129
  H  H59  1  0.405700  0.808600  0.412400  1.0  0.109
  H  H60  1  0.860600  0.112100  0.910100  1.0  0.1106
  H  H61  1  0.837100  0.531200  0.541300  1.0  0.0891
  H  H62  1  0.600200  0.642700  0.310400  1.0  0.098
  H  H63  1  0.824300  0.750300  0.009900  1.0  0.0693
  H  H64  1  0.548900  0.686100  0.697700  1.0  0.069
  H  H65  1  0.139400  0.887900  0.089900  1.0  0.1091
  H  H66  1  0.739800  0.887400  0.509800  1.0  0.1127
  H  H67  1  0.280600  0.879300  0.160200  1.0  0.1187
  H  H68  1  0.826300  0.464100  0.650200  1.0  0.0916
  H  H69  1  0.501100  0.203800  0.038300  1.0  0.1414
  H  H70  1  0.841500  0.928600  0.112200  1.0  0.1136
  H  H71  1  0.931800  0.809900  0.084500  1.0  0.0698
  H  H72  1  0.461300  0.220700  0.609200  1.0  0.1321
  H  H73  1  0.349100  0.838000  0.842900  1.0  0.1046
  H  H74  1  0.134800  0.667300  0.323500  1.0  0.118
  H  H75  1  0.772500  0.665500  0.580700  1.0  0.115
  H  H76  1  0.793100  0.147500  0.012200  1.0  0.0924
  H  H77  1  0.448200  0.142800  0.239300  1.0  0.1105
  H  H78  1  0.451900  0.589100  0.301400  1.0  0.0971
  H  H79  1  0.219300  0.944700  0.887900  1.0  0.0854
  H  H80  1  0.502100  0.236200  0.280500  1.0  0.0789
  H  H81  1  0.848800  0.607700  0.630200  1.0  0.1284
  H  H82  1  0.780700  0.055300  0.112100  1.0  0.0845
  H  H83  1  0.307000  0.147000  0.959100  1.0  0.0758
  H  H84  1  0.591000  0.871400  0.604000  1.0  0.0744
  H  H85  1  0.158500  0.071400  0.887800  1.0  0.1144
  H  H86  1  0.284800  0.175200  0.884900  1.0  0.0736
  H  H87  1  0.798100  0.141200  0.624400  1.0  0.0766
  H  H88  1  0.594300  0.191400  0.587600  1.0  0.1079
  H  H89  1  0.134800  0.980500  0.509300  1.0  0.0938
  H  H90  1  0.952200  0.198500  0.669900  1.0  0.0904
  H  H91  1  0.151200  0.392300  0.369800  1.0  0.1276
  H  H92  1  0.045100  0.178400  0.282600  1.0  0.1106
  H  H93  1  0.745300  0.220700  0.729200  1.0  0.0858
  H  H94  1  0.551800  0.857200  0.760700  1.0  0.1114
  H  H95  1  0.011700  0.849100  0.841400  1.0  0.1272
  H  H96  1  0.399800  0.357300  0.689600  1.0  0.0971
  H  H97  1  0.988300  0.150900  0.158600  1.0  0.1274
  H  H98  1  0.409000  0.128600  0.396000  1.0  0.0752
  H  H99  1  0.260200  0.112600  0.490200  1.0  0.1124
  H  H100  1  0.734200  0.810500  0.494600  1.0  0.1128
  H  H101  1  0.865200  0.332700  0.676500  1.0  0.1174
  H  H102  1  0.450000  0.734400  0.384400  1.0  0.1055
  H  H103  1  0.188400  0.348700  0.665600  1.0  0.1038
  H  H104  1  0.206900  0.852500  0.987800  1.0  0.0934
  H  H105  1  0.361100  0.957300  0.064600  1.0  0.0812
  H  H106  1  0.298900  0.746800  0.339300  1.0  0.0673
  H  H107  1  0.158200  0.087400  0.224800  1.0  0.0862
  H  H108  1  0.093100  0.546800  0.223700  1.0  0.1058
  H  H109  1  0.068200  0.190100  0.915500  1.0  0.0705
  H  H110  1  0.644400  0.930000  0.796600  1.0  0.0883
  H  H111  1  0.004900  0.858000  0.378300  1.0  0.0815
  H  H112  1  0.497900  0.763800  0.719500  1.0  0.0795
  H  H113  1  0.201900  0.858800  0.375600  1.0  0.076
  H  H114  1  0.381500  0.619100  0.202200  1.0  0.1136
  H  H115  1  0.701100  0.253200  0.660700  1.0  0.0656
  H  H116  1  0.865200  0.019500  0.490700  1.0  0.0928
  H  H117  1  0.092300  0.837100  0.524500  1.0  0.1298
  H  H118  1  0.440900  0.146100  0.023900  1.0  0.1121
  H  H119  1  0.162900  0.468800  0.458700  1.0  0.0904
  H  H120  1  0.811500  0.983500  0.603600  1.0  0.0954
  H  H121  1  0.483100  0.992900  0.938100  1.0  0.0921
  H  H122  1  0.230800  0.122000  0.564700  1.0  0.1218
  H  H123  1  0.057900  0.796900  0.905600  1.0  0.1079
  H  H124  1  0.161200  0.286500  0.915200  1.0  0.0833
  H  H125  1  0.633700  0.779700  0.954500  1.0  0.1241
  H  H126  1  0.685200  0.728400  0.216700  1.0  0.1102
  H  H127  1  0.759400  0.341100  0.173900  1.0  0.11
  H  H128  1  0.163700  0.895600  0.305900  1.0  0.0937
  H  H129  1  0.188500  0.016500  0.396400  1.0  0.0952
  H  H130  1  0.047800  0.801500  0.330100  1.0  0.0911
  H  H131  1  0.516900  0.007100  0.061900  1.0  0.0919
  H  H132  1  0.886600  0.472100  0.453200  1.0  0.1258
  H  H133  1  0.982900  0.225800  0.809900  1.0  0.0978
  H  H134  1  0.934100  0.797000  0.895800  1.0  0.1176
  H  H135  1  0.447500  0.767800  0.616600  1.0  0.079
  H  H136  1  0.498900  0.796200  0.961700  1.0  0.1414
  H  H137  1  0.265800  0.189500  0.505400  1.0  0.1128
  H  H138  1  0.693000  0.853000  0.040900  1.0  0.0748
  C  C139  1  0.227800  0.295600  0.339200  1.0  0.3816
  C  C140  1  0.441300  0.945100  0.431900  1.0  0.2183
  C  C141  1  0.956000  0.408700  0.766900  1.0  -0.0283
  C  C142  1  0.498000  0.688100  0.148700  1.0  0.1592
  C  C143  1  0.277700  0.860500  0.759500  1.0  -0.1813
  C  C144  1  0.990600  0.827800  0.888700  1.0  -0.4246
  C  C145  1  0.312400  0.817200  0.820200  1.0  -0.0793
  C  C146  1  0.882100  0.443400  0.497300  1.0  -0.1501
  C  C147  1  0.874700  0.828500  0.726100  1.0  -0.1227
  C  C148  1  0.910600  0.512200  0.317600  1.0  0.7326
  C  C149  1  0.449300  0.240800  0.947900  1.0  0.3571
  C  C150  1  0.557300  0.360800  0.795100  1.0  -0.1503
  C  C151  1  0.721100  0.865000  0.478700  1.0  -0.389
  C  C152  1  0.785000  0.249200  0.251600  1.0  -0.1594
  C  C153  1  0.681200  0.296300  0.085500  1.0  0.716
  C  C154  1  0.687600  0.182800  0.179800  1.0  -0.0795
  C  C155  1  0.296000  0.940800  0.733700  1.0  0.6632
  C  C156  1  0.463800  0.784100  0.380900  1.0  -0.3974
  C  C157  1  0.424900  0.344900  0.730300  1.0  -0.1255
  C  C158  1  0.821400  0.152100  0.661200  1.0  -0.1222
  C  C159  1  0.699500  0.796300  0.716100  1.0  0.1648
  C  C160  1  0.245100  0.992700  0.422400  1.0  -0.1144
  C  C161  1  0.173300  0.665000  0.141900  1.0  0.6651
  C  C162  1  0.044000  0.591300  0.233100  1.0  -0.0275
  C  C163  1  0.710900  0.808000  0.076100  1.0  0.0171
  C  C164  1  0.640400  0.020200  0.608900  1.0  -0.1636
  C  C165  1  0.058200  0.110300  0.075700  1.0  0.3631
  C  C166  1  0.446300  0.260400  0.313800  1.0  -0.0083
  C  C167  1  0.479500  0.138100  0.403200  1.0  -0.0161
  C  C168  1  0.704000  0.059200  0.266300  1.0  0.6635
  C  C169  1  0.575100  0.655100  0.269700  1.0  -0.1273
  C  C170  1  0.707700  0.255800  0.153900  1.0  -0.1623
  C  C171  1  0.024500  0.828700  0.514100  1.0  -0.4206
  C  C172  1  0.900300  0.323400  0.578800  1.0  0.079
  C  C173  1  0.754900  0.007300  0.577600  1.0  -0.1152
  C  C174  1  0.687900  0.893300  0.773200  1.0  -0.0931
  C  C175  1  0.458100  0.046400  0.843500  1.0  -0.1044
  C  C176  1  0.359600  0.979800  0.391100  1.0  -0.1623
  C  C177  1  0.933000  0.182700  0.634300  1.0  0.0014
  C  C178  1  0.600200  0.123800  0.785100  1.0  0.1034
  C  C179  1  0.000000  0.273000  0.785900  1.0  -0.0225
  C  C180  1  0.292300  0.744200  0.846100  1.0  -0.1614
  C  C181  1  0.941800  0.889700  0.924300  1.0  0.3594
  C  C182  1  0.130300  0.639900  0.368000  1.0  -0.143
  C  C183  1  0.067000  0.817300  0.365700  1.0  0.0022
  C  C184  1  0.222700  0.356400  0.372800  1.0  -0.3879
  C  C185  1  0.053900  0.755700  0.489500  1.0  0.4012
  C  C186  1  0.502000  0.311900  0.851300  1.0  0.1583
  C  C187  1  0.124100  0.346300  0.700200  1.0  -0.0226
  C  C188  1  0.975500  0.171300  0.485900  1.0  -0.4205
  C  C189  1  0.606300  0.055700  0.897100  1.0  -0.0873
  C  C190  1  0.278800  0.793100  0.305800  1.0  -0.0072
  C  C191  1  0.125300  0.171500  0.273900  1.0  -0.1271
  C  C192  1  0.536200  0.215900  0.619100  1.0  -0.3973
  C  C193  1  0.808500  0.040400  0.071500  1.0  -0.0921
  C  C194  1  0.553700  0.739600  0.686200  1.0  -0.009
  C  C195  1  0.846700  0.437800  0.615900  1.0  -0.1014
  C  C196  1  0.926400  0.802700  0.041500  1.0  -0.0355
  C  C197  1  0.193400  0.117300  0.239600  1.0  -0.0748
  C  C198  1  0.772200  0.704400  0.660800  1.0  0.3796
  C  C199  1  0.318800  0.703700  0.914500  1.0  0.7147
  C  C200  1  0.399800  0.876200  0.214900  1.0  0.1029
  C  C201  1  0.806600  0.882700  0.760400  1.0  -0.0738
  C  C202  1  0.372900  0.294400  0.785900  1.0  -0.1494
  C  C203  1  0.171700  0.204900  0.716700  1.0  0.6685
  C  C204  1  0.442700  0.639200  0.204900  1.0  -0.1491
  C  C205  1  0.815100  0.096100  0.011100  1.0  -0.1033
  C  C206  1  0.368000  0.149800  0.248400  1.0  -0.1217
  C  C207  1  0.721200  0.206900  0.694200  1.0  -0.0079
  C  C208  1  0.495600  0.905100  0.213700  1.0  0.1368
  C  C209  1  0.599400  0.894000  0.473100  1.0  0.3972
  C  C210  1  0.191500  0.959600  0.928500  1.0  -0.0925
  C  C211  1  0.825800  0.761600  0.052100  1.0  -0.1169
  C  C212  1  0.346300  0.897100  0.159000  1.0  -0.174
  C  C213  1  0.786900  0.028600  0.509600  1.0  -0.0916
  C  C214  1  0.181200  0.215600  0.295400  1.0  0.1321
  C  C215  1  0.876200  0.944200  0.011700  1.0  0.1312
  C  C216  1  0.073600  0.197300  0.958500  1.0  -0.0348
  C  C217  1  0.158100  0.034800  0.928200  1.0  -0.0962
  C  C218  1  0.751800  0.290400  0.190300  1.0  -0.0229
  C  C219  1  0.095600  0.635200  0.488900  1.0  0.1012
  C  C220  1  0.089400  0.487800  0.682400  1.0  0.7309
  C  C221  1  0.770600  0.173600  0.276000  1.0  -0.0323
  C  C222  1  0.165000  0.716500  0.709100  1.0  0.6804
  C  C223  1  0.818800  0.784400  0.704600  1.0  0.1322
  C  C224  1  0.291200  0.937000  0.532700  1.0  -0.1703
  C  C225  1  0.096200  0.276200  0.734300  1.0  -0.1595
  C  C226  1  0.826700  0.335000  0.858100  1.0  0.6631
  C  C227  1  0.184900  0.903900  0.988900  1.0  -0.1053
  C  C228  1  0.943700  0.586100  0.282900  1.0  -0.2228
  C  C229  1  0.722300  0.139500  0.240500  1.0  -0.1807
  C  C230  1  0.875900  0.653700  0.299800  1.0  -0.0309
  C  C231  1  0.178600  0.847900  0.338800  1.0  -0.1214
  C  C232  1  0.459300  0.830500  0.311800  1.0  0.3919
  C  C233  1  0.632000  0.850200  0.751600  1.0  -0.1218
  C  C234  1  0.215000  0.750800  0.748400  1.0  -0.159
  C  C235  1  0.946100  0.244300  0.510500  1.0  0.4024
  C  C236  1  0.312100  0.106700  0.226800  1.0  -0.093
  C  C237  1  0.278900  0.135000  0.521300  1.0  -0.3903
  C  C238  1  0.777300  0.643600  0.627200  1.0  -0.3885
  C  C239  1  0.000000  0.727000  0.214100  1.0  -0.0229
  C  C240  1  0.511500  0.026300  0.899200  1.0  -0.0954
  C  C241  1  0.071000  0.661100  0.197800  1.0  -0.1853
  C  C242  1  0.438400  0.199000  0.020400  1.0  -0.416
  C  C243  1  0.515700  0.377400  0.736000  1.0  -0.1477
  C  C244  1  0.408300  0.925800  0.500200  1.0  0.1053
  C  C245  1  0.413300  0.281200  0.843400  1.0  0.1448
  C  C246  1  0.558700  0.054900  0.568100  1.0  0.2174
  C  C247  1  0.009400  0.172200  0.111300  1.0  -0.424
  C  C248  1  0.627100  0.705600  0.214100  1.0  -0.1482
  C  C249  1  0.653700  0.102900  0.841000  1.0  -0.1745
  C  C250  1  0.853100  0.478200  0.550200  1.0  -0.0883
  C  C251  1  0.289100  0.192000  0.923900  1.0  0.0163
  C  C252  1  0.591700  0.074200  0.499800  1.0  0.1059
  C  C253  1  0.541900  0.953600  0.156500  1.0  -0.1039
  C  C254  1  0.484300  0.622600  0.264000  1.0  -0.1509
  C  C255  1  0.504400  0.094900  0.786300  1.0  0.1353
  C  C256  1  0.229400  0.826400  0.724000  1.0  -0.0318
  C  C257  1  0.708800  0.063000  0.467300  1.0  -0.1691
  C  C258  1  0.903800  0.723800  0.265700  1.0  -0.1589
  C  C259  1  0.153300  0.562200  0.384100  1.0  -0.1007
  C  C260  1  0.853700  0.075500  0.950400  1.0  -0.1095
  C  C261  1  0.561600  0.801000  0.979600  1.0  -0.4149
  C  C262  1  0.869700  0.360100  0.632000  1.0  -0.1437
  C  C263  1  0.841900  0.965200  0.071800  1.0  -0.0951
  C  C264  1  0.099700  0.676600  0.421200  1.0  0.0807
  C  C265  1  0.828300  0.795100  0.283300  1.0  0.6684
  C  C266  1  0.300500  0.203700  0.283900  1.0  0.1647
  C  C267  1  0.882000  0.998600  0.951300  1.0  0.1614
  C  C268  1  0.550700  0.759200  0.052100  1.0  0.3551
  C  C269  1  0.835000  0.283500  0.290900  1.0  0.68
  C  C270  1  0.488500  0.973700  0.100800  1.0  -0.0947
  C  C271  1  0.056300  0.413900  0.717100  1.0  -0.2211
  C  C272  1  0.540700  0.169500  0.688200  1.0  0.3923
  C  C273  1  0.586700  0.718800  0.156600  1.0  0.1436
  C  C274  1  0.477200  0.223400  0.383300  1.0  -0.1419
  C  C275  1  0.400600  0.106000  0.526900  1.0  0.3972
  C  C276  1  0.146300  0.924500  0.049600  1.0  -0.1089
  C  C277  1  0.123800  0.055800  0.988300  1.0  0.1314
  C  C278  1  0.393700  0.944300  0.102900  1.0  -0.0858
  C  C279  1  0.248200  0.709600  0.809700  1.0  -0.0245
  C  C280  1  0.118000  0.001400  0.048700  1.0  0.1624
  C  C281  1  0.213100  0.971400  0.490400  1.0  -0.0918
  C  C282  1  0.522800  0.776600  0.616700  1.0  -0.1376
  C  C283  1  0.929000  0.338900  0.802200  1.0  -0.1847
  C  C284  1  0.904400  0.364800  0.511100  1.0  0.1041
  C  C285  1  0.174200  0.238400  0.947900  1.0  -0.1195
  C  C286  1  0.117900  0.556600  0.502700  1.0  -0.1507
  C  C287  1  0.520500  0.861900  0.596800  1.0  -0.0182
  C  C288  1  0.146900  0.521800  0.449800  1.0  -0.0896
  N  N289  1  0.925800  0.246900  0.576400  1.0  -0.0728
  N  N290  1  0.479300  0.713200  0.084200  1.0  -0.3846
  N  N291  1  0.074200  0.753100  0.423600  1.0  -0.0724
  N  N292  1  0.862200  0.725500  0.669800  1.0  -0.4374
  N  N293  1  0.379000  0.827800  0.277000  1.0  -0.0365
  N  N294  1  0.509900  0.893700  0.525700  1.0  -0.0896
  N  N295  1  0.924900  0.962600  0.897400  1.0  -0.4482
  N  N296  1  0.381500  0.235600  0.906000  1.0  -0.1098
  N  N297  1  0.935200  0.312300  0.469700  1.0  -0.4073
  N  N298  1  0.520700  0.286800  0.915800  1.0  -0.3808
  N  N299  1  0.439400  0.074900  0.584800  1.0  -0.4941
  N  N300  1  0.064800  0.687700  0.530300  1.0  -0.4065
  N  N301  1  0.531800  0.875100  0.275800  1.0  -0.4873
  N  N302  1  0.560600  0.925100  0.415200  1.0  -0.4929
  N  N303  1  0.490100  0.106300  0.474300  1.0  -0.0893
  N  N304  1  0.468200  0.124900  0.724200  1.0  -0.4888
  N  N305  1  0.330400  0.253900  0.311300  1.0  -0.1622
  N  N306  1  0.618500  0.764400  0.094000  1.0  -0.111
  N  N307  1  0.621000  0.172200  0.723000  1.0  -0.0369
  N  N308  1  0.137800  0.274500  0.330200  1.0  -0.437
  N  N309  1  0.075100  0.037400  0.102600  1.0  -0.4453
  N  N310  1  0.669600  0.746100  0.688700  1.0  -0.164
  N  N311  1  0.085800  0.125100  0.005000  1.0  -0.0855
  N  N312  1  0.914200  0.874900  0.995000  1.0  -0.0854
  O  O313  1  0.233300  0.209700  0.658400  1.0  -0.6243
  O  O314  1  0.629100  0.266400  0.058900  1.0  -0.6035
  O  O315  1  0.370900  0.733600  0.941100  1.0  -0.6028
  O  O316  1  0.009500  0.546300  0.684700  1.0  -0.6237
  O  O317  1  0.809000  0.509800  0.347000  1.0  -0.6009
  O  O318  1  0.990500  0.453700  0.315300  1.0  -0.6235
  O  O319  1  0.144700  0.753600  0.651400  1.0  -0.6124
  O  O320  1  0.246100  0.982900  0.686700  1.0  -0.6068
  O  O321  1  0.760700  0.396200  0.868000  1.0  -0.5962
  O  O322  1  0.855300  0.246400  0.348600  1.0  -0.6136
  O  O323  1  0.239300  0.603800  0.132000  1.0  -0.5939
  O  O324  1  0.191000  0.490200  0.653000  1.0  -0.6017
  O  O325  1  0.862300  0.347700  0.265700  1.0  -0.5981
  O  O326  1  0.640100  0.036500  0.241600  1.0  -0.6188
  O  O327  1  0.359900  0.963500  0.758400  1.0  -0.6198
  O  O328  1  0.808200  0.272300  0.893300  1.0  -0.5828
  O  O329  1  0.753900  0.017100  0.313300  1.0  -0.6097
  O  O330  1  0.137700  0.652300  0.734300  1.0  -0.5949
  O  O331  1  0.766700  0.790300  0.341600  1.0  -0.6257
  O  O332  1  0.174600  0.143000  0.760200  1.0  -0.6083
  O  O333  1  0.288500  0.644500  0.943800  1.0  -0.5997
  O  O334  1  0.711500  0.355500  0.056200  1.0  -0.6022
  O  O335  1  0.825400  0.857000  0.239800  1.0  -0.6082
  O  O336  1  0.191800  0.727700  0.106700  1.0  -0.5818
