# generated using pymatgen
data_Zn6Co(PO4)6
_symmetry_space_group_name_H-M   'P 1'
_cell_length_a   13.53930000
_cell_length_b   13.53930000
_cell_length_c   15.04430000
_cell_angle_alpha   90.00000000
_cell_angle_beta   90.00000000
_cell_angle_gamma   120.00000000
_symmetry_Int_Tables_number   1
_chemical_formula_structural   Zn6Co(PO4)6
_chemical_formula_sum   'Zn18 Co3 P18 O72'
_cell_volume   2388.33388038
_cell_formula_units_Z   3
loop_
 _symmetry_equiv_pos_site_id
 _symmetry_equiv_pos_as_xyz
  1  'x, y, z'
loop_
 _atom_site_type_symbol
 _atom_site_label
 _atom_site_symmetry_multiplicity
 _atom_site_fract_x
 _atom_site_fract_y
 _atom_site_fract_z
 _atom_site_occupancy
 _atom_site_charge
  Zn  Zn1  1  0.088800  0.637930  0.079000  1.0  1.1335
  Zn  Zn2  1  0.755470  0.971260  0.412330  1.0  1.1335
  Zn  Zn3  1  0.422130  0.304600  0.745670  1.0  1.1335
  Zn  Zn4  1  0.362070  0.450870  0.079000  1.0  1.1355
  Zn  Zn5  1  0.028740  0.784200  0.412330  1.0  1.1355
  Zn  Zn6  1  0.695400  0.117540  0.745670  1.0  1.1355
  Zn  Zn7  1  0.549130  0.911200  0.079000  1.0  1.1347
  Zn  Zn8  1  0.215800  0.244530  0.412330  1.0  1.1347
  Zn  Zn9  1  0.882460  0.577870  0.745670  1.0  1.1347
  Zn  Zn10  1  0.911200  0.362070  0.921000  1.0  1.1341
  Zn  Zn11  1  0.577870  0.695400  0.254330  1.0  1.1341
  Zn  Zn12  1  0.244530  0.028740  0.587670  1.0  1.1341
  Zn  Zn13  1  0.637930  0.549130  0.921000  1.0  1.1344
  Zn  Zn14  1  0.304600  0.882460  0.254330  1.0  1.1344
  Zn  Zn15  1  0.971260  0.215800  0.587670  1.0  1.1344
  Zn  Zn16  1  0.450870  0.088800  0.921000  1.0  1.1335
  Zn  Zn17  1  0.117540  0.422130  0.254330  1.0  1.1335
  Zn  Zn18  1  0.784200  0.755470  0.587670  1.0  1.1335
  Co  Co19  1  0.333333  0.666667  0.166670  1.0  0.8032
  Co  Co20  1  0.000000  0.000000  0.500000  1.0  0.8148
  Co  Co21  1  0.666667  0.333333  0.833330  1.0  0.8027
  P  P22  1  0.128500  0.440930  0.056750  1.0  1.903
  P  P23  1  0.795170  0.774260  0.390080  1.0  1.9024
  P  P24  1  0.461830  0.107600  0.723420  1.0  1.903
  P  P25  1  0.559070  0.687570  0.056750  1.0  1.902
  P  P26  1  0.225740  0.020900  0.390080  1.0  1.9014
  P  P27  1  0.892400  0.354240  0.723420  1.0  1.902
  P  P28  1  0.312430  0.871500  0.056750  1.0  1.889
  P  P29  1  0.979100  0.204830  0.390080  1.0  1.8897
  P  P30  1  0.645760  0.538170  0.723420  1.0  1.889
  P  P31  1  0.871500  0.559070  0.943250  1.0  1.9043
  P  P32  1  0.538170  0.892400  0.276580  1.0  1.9043
  P  P33  1  0.204830  0.225740  0.609920  1.0  1.9037
  P  P34  1  0.440930  0.312430  0.943250  1.0  1.8894
  P  P35  1  0.107600  0.645760  0.276580  1.0  1.8894
  P  P36  1  0.774260  0.979100  0.609920  1.0  1.8886
  P  P37  1  0.687570  0.128500  0.943250  1.0  1.9012
  P  P38  1  0.354240  0.461830  0.276580  1.0  1.9012
  P  P39  1  0.020900  0.795170  0.609920  1.0  1.9019
  O  O40  1  0.186200  0.566500  0.087100  1.0  -0.9249
  O  O41  1  0.194200  0.782300  0.027000  1.0  -0.7182
  O  O42  1  0.033600  0.641600  0.199000  1.0  -0.7109
  O  O43  1  0.945300  0.573500  0.023800  1.0  -0.8117
  O  O44  1  0.852870  0.899830  0.420430  1.0  -0.9249
  O  O45  1  0.860870  0.115630  0.360330  1.0  -0.715
  O  O46  1  0.700270  0.974930  0.532330  1.0  -0.7125
  O  O47  1  0.611970  0.906830  0.357130  1.0  -0.8117
  O  O48  1  0.519530  0.233170  0.753770  1.0  -0.9249
  O  O49  1  0.527530  0.448970  0.693670  1.0  -0.7181
  O  O50  1  0.366930  0.308270  0.865670  1.0  -0.7109
  O  O51  1  0.278630  0.240170  0.690470  1.0  -0.8117
  O  O52  1  0.433500  0.619700  0.087100  1.0  -0.9246
  O  O53  1  0.217700  0.411900  0.027000  1.0  -0.7146
  O  O54  1  0.358400  0.392000  0.199000  1.0  -0.7189
  O  O55  1  0.426500  0.371800  0.023800  1.0  -0.8099
  O  O56  1  0.100170  0.953030  0.420430  1.0  -0.9246
  O  O57  1  0.884370  0.745230  0.360330  1.0  -0.7166
  O  O58  1  0.025070  0.725330  0.532330  1.0  -0.7119
  O  O59  1  0.093170  0.705130  0.357130  1.0  -0.8099
  O  O60  1  0.766830  0.286370  0.753770  1.0  -0.9246
  O  O61  1  0.551030  0.078570  0.693670  1.0  -0.7145
  O  O62  1  0.691730  0.058670  0.865670  1.0  -0.7189
  O  O63  1  0.759830  0.038470  0.690470  1.0  -0.8099
  O  O64  1  0.380300  0.813800  0.087100  1.0  -0.9262
  O  O65  1  0.588100  0.805800  0.027000  1.0  -0.7172
  O  O66  1  0.608000  0.966400  0.199000  1.0  -0.7116
  O  O67  1  0.628200  0.054700  0.023800  1.0  -0.8118
  O  O68  1  0.046970  0.147130  0.420430  1.0  -0.9262
  O  O69  1  0.254770  0.139130  0.360330  1.0  -0.7189
  O  O70  1  0.274670  0.299730  0.532330  1.0  -0.716
  O  O71  1  0.294870  0.388030  0.357130  1.0  -0.8118
  O  O72  1  0.713630  0.480470  0.753770  1.0  -0.9262
  O  O73  1  0.921430  0.472470  0.693670  1.0  -0.7171
  O  O74  1  0.941330  0.633070  0.865670  1.0  -0.7116
  O  O75  1  0.961530  0.721370  0.690470  1.0  -0.8118
  O  O76  1  0.813800  0.433500  0.912900  1.0  -0.9258
  O  O77  1  0.805800  0.217700  0.973000  1.0  -0.717
  O  O78  1  0.966400  0.358400  0.801000  1.0  -0.7118
  O  O79  1  0.054700  0.426500  0.976200  1.0  -0.8121
  O  O80  1  0.480470  0.766830  0.246230  1.0  -0.9258
  O  O81  1  0.472470  0.551030  0.306330  1.0  -0.7169
  O  O82  1  0.633070  0.691730  0.134330  1.0  -0.7118
  O  O83  1  0.721370  0.759830  0.309530  1.0  -0.8121
  O  O84  1  0.147130  0.100170  0.579570  1.0  -0.9258
  O  O85  1  0.139130  0.884370  0.639670  1.0  -0.7138
  O  O86  1  0.299730  0.025070  0.467670  1.0  -0.7135
  O  O87  1  0.388030  0.093170  0.642870  1.0  -0.8121
  O  O88  1  0.566500  0.380300  0.912900  1.0  -0.9256
  O  O89  1  0.782300  0.588100  0.973000  1.0  -0.7143
  O  O90  1  0.641600  0.608000  0.801000  1.0  -0.7192
  O  O91  1  0.573500  0.628200  0.976200  1.0  -0.8118
  O  O92  1  0.233170  0.713630  0.246230  1.0  -0.9256
  O  O93  1  0.448970  0.921430  0.306330  1.0  -0.7142
  O  O94  1  0.308270  0.941330  0.134330  1.0  -0.7192
  O  O95  1  0.240170  0.961530  0.309530  1.0  -0.8118
  O  O96  1  0.899830  0.046970  0.579570  1.0  -0.9256
  O  O97  1  0.115630  0.254770  0.639670  1.0  -0.7153
  O  O98  1  0.974930  0.274670  0.467670  1.0  -0.7116
  O  O99  1  0.906830  0.294870  0.642870  1.0  -0.8118
  O  O100  1  0.619700  0.186200  0.912900  1.0  -0.9253
  O  O101  1  0.411900  0.194200  0.973000  1.0  -0.7155
  O  O102  1  0.392000  0.033600  0.801000  1.0  -0.7102
  O  O103  1  0.371800  0.945300  0.976200  1.0  -0.8128
  O  O104  1  0.286370  0.519530  0.246230  1.0  -0.9253
  O  O105  1  0.078570  0.527530  0.306330  1.0  -0.7154
  O  O106  1  0.058670  0.366930  0.134330  1.0  -0.7102
  O  O107  1  0.038470  0.278630  0.309530  1.0  -0.8128
  O  O108  1  0.953030  0.852870  0.579570  1.0  -0.9253
  O  O109  1  0.745230  0.860870  0.639670  1.0  -0.7168
  O  O110  1  0.725330  0.700270  0.467670  1.0  -0.7155
  O  O111  1  0.705130  0.611970  0.642870  1.0  -0.8128
