# generated using pymatgen
data_Zn3P2H25(C14O5)3
_symmetry_space_group_name_H-M   'P 1'
_cell_length_a   22.90790000
_cell_length_b   22.90790000
_cell_length_c   22.90790000
_cell_angle_alpha   90.00000000
_cell_angle_beta   90.00000000
_cell_angle_gamma   90.00000000
_symmetry_Int_Tables_number   1
_chemical_formula_structural   Zn3P2H25(C14O5)3
_chemical_formula_sum   'Zn24 P16 H200 C336 O120'
_cell_volume   12021.42180506
_cell_formula_units_Z   8
loop_
 _symmetry_equiv_pos_site_id
 _symmetry_equiv_pos_as_xyz
  1  'x, y, z'
loop_
 _atom_site_type_symbol
 _atom_site_label
 _atom_site_symmetry_multiplicity
 _atom_site_fract_x
 _atom_site_fract_y
 _atom_site_fract_z
 _atom_site_occupancy
 _atom_site_charge
  Zn  Zn1  1  0.773740  0.288200  0.675000  1.0  1.0355
  Zn  Zn2  1  0.726260  0.711800  0.175000  1.0  1.0348
  Zn  Zn3  1  0.226260  0.788200  0.825000  1.0  1.0374
  Zn  Zn4  1  0.273740  0.211800  0.325000  1.0  1.0357
  Zn  Zn5  1  0.675000  0.773740  0.288200  1.0  1.0342
  Zn  Zn6  1  0.175000  0.726260  0.711800  1.0  1.0362
  Zn  Zn7  1  0.825000  0.226260  0.788200  1.0  1.0349
  Zn  Zn8  1  0.325000  0.273740  0.211800  1.0  1.036
  Zn  Zn9  1  0.288200  0.675000  0.773740  1.0  1.0312
  Zn  Zn10  1  0.711800  0.175000  0.726260  1.0  1.0297
  Zn  Zn11  1  0.788200  0.825000  0.226260  1.0  1.0311
  Zn  Zn12  1  0.211800  0.325000  0.273740  1.0  1.0299
  Zn  Zn13  1  0.226260  0.711800  0.325000  1.0  1.036
  Zn  Zn14  1  0.273740  0.288200  0.825000  1.0  1.037
  Zn  Zn15  1  0.773740  0.211800  0.175000  1.0  1.0347
  Zn  Zn16  1  0.726260  0.788200  0.675000  1.0  1.0358
  Zn  Zn17  1  0.325000  0.226260  0.711800  1.0  1.0359
  Zn  Zn18  1  0.825000  0.273740  0.288200  1.0  1.0348
  Zn  Zn19  1  0.175000  0.773740  0.211800  1.0  1.0363
  Zn  Zn20  1  0.675000  0.726260  0.788200  1.0  1.0345
  Zn  Zn21  1  0.711800  0.325000  0.226260  1.0  1.0297
  Zn  Zn22  1  0.288200  0.825000  0.273740  1.0  1.0313
  Zn  Zn23  1  0.211800  0.175000  0.773740  1.0  1.0297
  Zn  Zn24  1  0.788200  0.675000  0.726260  1.0  1.0313
  P  P25  1  0.640490  0.640490  0.640490  1.0  1.1142
  P  P26  1  0.859510  0.359510  0.140490  1.0  1.1137
  P  P27  1  0.359510  0.140490  0.859510  1.0  1.1151
  P  P28  1  0.140490  0.859510  0.359510  1.0  1.1115
  P  P29  1  0.648170  0.148170  0.351830  1.0  1.1587
  P  P30  1  0.851830  0.851830  0.851830  1.0  1.1579
  P  P31  1  0.351830  0.648170  0.148170  1.0  1.1603
  P  P32  1  0.148170  0.351830  0.648170  1.0  1.1584
  P  P33  1  0.359510  0.359510  0.359510  1.0  1.1129
  P  P34  1  0.140490  0.640490  0.859510  1.0  1.1135
  P  P35  1  0.640490  0.859510  0.140490  1.0  1.1122
  P  P36  1  0.859510  0.140490  0.640490  1.0  1.1159
  P  P37  1  0.351830  0.851830  0.648170  1.0  1.1588
  P  P38  1  0.148170  0.148170  0.148170  1.0  1.1597
  P  P39  1  0.648170  0.351830  0.851830  1.0  1.1574
  P  P40  1  0.851830  0.648170  0.351830  1.0  1.1594
  H  H41  1  0.571800  0.535400  0.660600  1.0  0.1081
  H  H42  1  0.597200  0.436000  0.674300  1.0  0.1053
  H  H43  1  0.765600  0.475300  0.651600  1.0  0.118
  H  H44  1  0.741600  0.574200  0.643300  1.0  0.1122
  H  H45  1  0.655200  0.079000  0.459300  1.0  0.1102
  H  H46  1  0.667500  0.104700  0.557400  1.0  0.1099
  H  H47  1  0.702000  0.267700  0.508800  1.0  0.103
  H  H48  1  0.673500  0.247300  0.415100  1.0  0.1074
  H  H49  1  0.928200  0.464600  0.160600  1.0  0.1072
  H  H50  1  0.902800  0.564000  0.174300  1.0  0.1057
  H  H51  1  0.734400  0.524700  0.151600  1.0  0.1176
  H  H52  1  0.758400  0.425800  0.143300  1.0  0.1104
  H  H53  1  0.844800  0.921000  0.959300  1.0  0.1115
  H  H54  1  0.832500  0.895300  0.057400  1.0  0.1093
  H  H55  1  0.798000  0.732300  0.008800  1.0  0.1023
  H  H56  1  0.826500  0.752700  0.915100  1.0  0.1073
  H  H57  1  0.428200  0.035400  0.839400  1.0  0.1075
  H  H58  1  0.402800  0.936000  0.825700  1.0  0.1057
  H  H59  1  0.234400  0.975300  0.848400  1.0  0.1173
  H  H60  1  0.258400  0.074200  0.856700  1.0  0.1104
  H  H61  1  0.344800  0.579000  0.040700  1.0  0.1106
  H  H62  1  0.332500  0.604700  0.942600  1.0  0.1093
  H  H63  1  0.298000  0.767700  0.991200  1.0  0.1025
  H  H64  1  0.326500  0.747300  0.084900  1.0  0.1066
  H  H65  1  0.071800  0.964600  0.339400  1.0  0.1081
  H  H66  1  0.097200  0.064000  0.325700  1.0  0.1054
  H  H67  1  0.265600  0.024700  0.348400  1.0  0.1176
  H  H68  1  0.241600  0.925800  0.356700  1.0  0.1113
  H  H69  1  0.155200  0.421000  0.540700  1.0  0.1116
  H  H70  1  0.167500  0.395300  0.442600  1.0  0.1097
  H  H71  1  0.202000  0.232300  0.491200  1.0  0.1027
  H  H72  1  0.173500  0.252700  0.584900  1.0  0.1073
  H  H73  1  0.660600  0.571800  0.535400  1.0  0.1102
  H  H74  1  0.674300  0.597200  0.436000  1.0  0.1039
  H  H75  1  0.651600  0.765600  0.475300  1.0  0.1168
  H  H76  1  0.643300  0.741600  0.574200  1.0  0.1089
  H  H77  1  0.459300  0.655200  0.079000  1.0  0.111
  H  H78  1  0.557400  0.667500  0.104700  1.0  0.1093
  H  H79  1  0.508800  0.702000  0.267700  1.0  0.1042
  H  H80  1  0.415100  0.673500  0.247300  1.0  0.1071
  H  H81  1  0.160600  0.928200  0.464600  1.0  0.1107
  H  H82  1  0.174300  0.902800  0.564000  1.0  0.1053
  H  H83  1  0.151600  0.734400  0.524700  1.0  0.1167
  H  H84  1  0.143300  0.758400  0.425800  1.0  0.1094
  H  H85  1  0.959300  0.844800  0.921000  1.0  0.1091
  H  H86  1  0.057400  0.832500  0.895300  1.0  0.1094
  H  H87  1  0.008800  0.798000  0.732300  1.0  0.105
  H  H88  1  0.915100  0.826500  0.752700  1.0  0.1078
  H  H89  1  0.839400  0.428200  0.035400  1.0  0.1108
  H  H90  1  0.825700  0.402800  0.936000  1.0  0.1054
  H  H91  1  0.848400  0.234400  0.975300  1.0  0.1165
  H  H92  1  0.856700  0.258400  0.074200  1.0  0.1093
  H  H93  1  0.040700  0.344800  0.579000  1.0  0.1105
  H  H94  1  0.942600  0.332500  0.604700  1.0  0.1094
  H  H95  1  0.991200  0.298000  0.767700  1.0  0.104
  H  H96  1  0.084900  0.326500  0.747300  1.0  0.1069
  H  H97  1  0.339400  0.071800  0.964600  1.0  0.1107
  H  H98  1  0.325700  0.097200  0.064000  1.0  0.1045
  H  H99  1  0.348400  0.265600  0.024700  1.0  0.1166
  H  H100  1  0.356700  0.241600  0.925800  1.0  0.1091
  H  H101  1  0.540700  0.155200  0.421000  1.0  0.1101
  H  H102  1  0.442600  0.167500  0.395300  1.0  0.1095
  H  H103  1  0.491200  0.202000  0.232300  1.0  0.1051
  H  H104  1  0.584900  0.173500  0.252700  1.0  0.1077
  H  H105  1  0.535400  0.660600  0.571800  1.0  0.1103
  H  H106  1  0.436000  0.674300  0.597200  1.0  0.1065
  H  H107  1  0.475300  0.651600  0.765600  1.0  0.1188
  H  H108  1  0.574200  0.643300  0.741600  1.0  0.1114
  H  H109  1  0.079000  0.459300  0.655200  1.0  0.1075
  H  H110  1  0.104700  0.557400  0.667500  1.0  0.1104
  H  H111  1  0.267700  0.508800  0.702000  1.0  0.1026
  H  H112  1  0.247300  0.415100  0.673500  1.0  0.1097
  H  H113  1  0.464600  0.160600  0.928200  1.0  0.1091
  H  H114  1  0.564000  0.174300  0.902800  1.0  0.1066
  H  H115  1  0.524700  0.151600  0.734400  1.0  0.1181
  H  H116  1  0.425800  0.143300  0.758400  1.0  0.1103
  H  H117  1  0.921000  0.959300  0.844800  1.0  0.1084
  H  H118  1  0.895300  0.057400  0.832500  1.0  0.1092
  H  H119  1  0.732300  0.008800  0.798000  1.0  0.1053
  H  H120  1  0.752700  0.915100  0.826500  1.0  0.1089
  H  H121  1  0.035400  0.839400  0.428200  1.0  0.1095
  H  H122  1  0.936000  0.825700  0.402800  1.0  0.1059
  H  H123  1  0.975300  0.848400  0.234400  1.0  0.1188
  H  H124  1  0.074200  0.856700  0.258400  1.0  0.111
  H  H125  1  0.579000  0.040700  0.344800  1.0  0.1072
  H  H126  1  0.604700  0.942600  0.332500  1.0  0.1103
  H  H127  1  0.767700  0.991200  0.298000  1.0  0.1037
  H  H128  1  0.747300  0.084900  0.326500  1.0  0.1093
  H  H129  1  0.964600  0.339400  0.071800  1.0  0.1105
  H  H130  1  0.064000  0.325700  0.097200  1.0  0.1048
  H  H131  1  0.024700  0.348400  0.265600  1.0  0.1183
  H  H132  1  0.925800  0.356700  0.241600  1.0  0.11
  H  H133  1  0.421000  0.540700  0.155200  1.0  0.1091
  H  H134  1  0.395300  0.442600  0.167500  1.0  0.111
  H  H135  1  0.232300  0.491200  0.202000  1.0  0.1052
  H  H136  1  0.252700  0.584900  0.173500  1.0  0.1091
  H  H137  1  0.726200  0.273800  0.773800  1.0  0.3278
  H  H138  1  0.773800  0.726200  0.273800  1.0  0.3278
  H  H139  1  0.273800  0.773800  0.726200  1.0  0.3251
  H  H140  1  0.226200  0.226200  0.226200  1.0  0.3272
  H  H141  1  0.428200  0.464600  0.339400  1.0  0.1075
  H  H142  1  0.402800  0.564000  0.325700  1.0  0.1055
  H  H143  1  0.234400  0.524700  0.348400  1.0  0.1172
  H  H144  1  0.258400  0.425800  0.356700  1.0  0.1102
  H  H145  1  0.344800  0.921000  0.540700  1.0  0.1116
  H  H146  1  0.332500  0.895300  0.442600  1.0  0.1098
  H  H147  1  0.298000  0.732300  0.491200  1.0  0.1024
  H  H148  1  0.326500  0.752700  0.584900  1.0  0.1072
  H  H149  1  0.071800  0.535400  0.839400  1.0  0.1082
  H  H150  1  0.097200  0.436000  0.825700  1.0  0.1053
  H  H151  1  0.265600  0.475300  0.848400  1.0  0.1176
  H  H152  1  0.241600  0.574200  0.856700  1.0  0.1112
  H  H153  1  0.155200  0.079000  0.040700  1.0  0.1105
  H  H154  1  0.167500  0.104700  0.942600  1.0  0.1091
  H  H155  1  0.202000  0.267700  0.991200  1.0  0.103
  H  H156  1  0.173500  0.247300  0.084900  1.0  0.1068
  H  H157  1  0.571800  0.964600  0.160600  1.0  0.1075
  H  H158  1  0.597200  0.064000  0.174300  1.0  0.1059
  H  H159  1  0.765600  0.024700  0.151600  1.0  0.1182
  H  H160  1  0.741600  0.925800  0.143300  1.0  0.1122
  H  H161  1  0.655200  0.421000  0.959300  1.0  0.1116
  H  H162  1  0.667500  0.395300  0.057400  1.0  0.1098
  H  H163  1  0.702000  0.232300  0.008800  1.0  0.1028
  H  H164  1  0.673500  0.252700  0.915100  1.0  0.1075
  H  H165  1  0.928200  0.035400  0.660600  1.0  0.1075
  H  H166  1  0.902800  0.936000  0.674300  1.0  0.1053
  H  H167  1  0.734400  0.975300  0.651600  1.0  0.1174
  H  H168  1  0.758400  0.074200  0.643300  1.0  0.1107
  H  H169  1  0.844800  0.579000  0.459300  1.0  0.1102
  H  H170  1  0.832500  0.604700  0.557400  1.0  0.1094
  H  H171  1  0.798000  0.767700  0.508800  1.0  0.1025
  H  H172  1  0.826500  0.747300  0.415100  1.0  0.1073
  H  H173  1  0.339400  0.428200  0.464600  1.0  0.1108
  H  H174  1  0.325700  0.402800  0.564000  1.0  0.1047
  H  H175  1  0.348400  0.234400  0.524700  1.0  0.1165
  H  H176  1  0.356700  0.258400  0.425800  1.0  0.1097
  H  H177  1  0.540700  0.344800  0.921000  1.0  0.1095
  H  H178  1  0.442600  0.332500  0.895300  1.0  0.1095
  H  H179  1  0.491200  0.298000  0.732300  1.0  0.1051
  H  H180  1  0.584900  0.326500  0.752700  1.0  0.1077
  H  H181  1  0.839400  0.071800  0.535400  1.0  0.1104
  H  H182  1  0.825700  0.097200  0.436000  1.0  0.1046
  H  H183  1  0.848400  0.265600  0.475300  1.0  0.1167
  H  H184  1  0.856700  0.241600  0.574200  1.0  0.1089
  H  H185  1  0.040700  0.155200  0.079000  1.0  0.1108
  H  H186  1  0.942600  0.167500  0.104700  1.0  0.109
  H  H187  1  0.991200  0.202000  0.267700  1.0  0.1041
  H  H188  1  0.084900  0.173500  0.247300  1.0  0.107
  H  H189  1  0.160600  0.571800  0.964600  1.0  0.1105
  H  H190  1  0.174300  0.597200  0.064000  1.0  0.1046
  H  H191  1  0.151600  0.765600  0.024700  1.0  0.1168
  H  H192  1  0.143300  0.741600  0.925800  1.0  0.1091
  H  H193  1  0.959300  0.655200  0.421000  1.0  0.1091
  H  H194  1  0.057400  0.667500  0.395300  1.0  0.1099
  H  H195  1  0.008800  0.702000  0.232300  1.0  0.105
  H  H196  1  0.915100  0.673500  0.252700  1.0  0.1078
  H  H197  1  0.660600  0.928200  0.035400  1.0  0.1108
  H  H198  1  0.674300  0.902800  0.936000  1.0  0.1048
  H  H199  1  0.651600  0.734400  0.975300  1.0  0.1164
  H  H200  1  0.643300  0.758400  0.074200  1.0  0.1094
  H  H201  1  0.459300  0.844800  0.579000  1.0  0.1108
  H  H202  1  0.557400  0.832500  0.604700  1.0  0.1093
  H  H203  1  0.508800  0.798000  0.767700  1.0  0.1041
  H  H204  1  0.415100  0.826500  0.747300  1.0  0.1071
  H  H205  1  0.464600  0.339400  0.428200  1.0  0.1088
  H  H206  1  0.564000  0.325700  0.402800  1.0  0.1058
  H  H207  1  0.524700  0.348400  0.234400  1.0  0.1185
  H  H208  1  0.425800  0.356700  0.258400  1.0  0.1106
  H  H209  1  0.921000  0.540700  0.344800  1.0  0.1084
  H  H210  1  0.895300  0.442600  0.332500  1.0  0.1096
  H  H211  1  0.732300  0.491200  0.298000  1.0  0.1054
  H  H212  1  0.752700  0.584900  0.326500  1.0  0.109
  H  H213  1  0.535400  0.839400  0.071800  1.0  0.1102
  H  H214  1  0.436000  0.825700  0.097200  1.0  0.1051
  H  H215  1  0.475300  0.848400  0.265600  1.0  0.1187
  H  H216  1  0.574200  0.856700  0.241600  1.0  0.1109
  H  H217  1  0.079000  0.040700  0.155200  1.0  0.1078
  H  H218  1  0.104700  0.942600  0.167500  1.0  0.11
  H  H219  1  0.267700  0.991200  0.202000  1.0  0.1027
  H  H220  1  0.247300  0.084900  0.173500  1.0  0.1097
  H  H221  1  0.964600  0.160600  0.571800  1.0  0.1106
  H  H222  1  0.064000  0.174300  0.597200  1.0  0.1064
  H  H223  1  0.024700  0.151600  0.765600  1.0  0.1182
  H  H224  1  0.925800  0.143300  0.741600  1.0  0.1101
  H  H225  1  0.421000  0.959300  0.655200  1.0  0.1088
  H  H226  1  0.395300  0.057400  0.667500  1.0  0.1111
  H  H227  1  0.232300  0.008800  0.702000  1.0  0.1054
  H  H228  1  0.252700  0.915100  0.673500  1.0  0.109
  H  H229  1  0.035400  0.660600  0.928200  1.0  0.1097
  H  H230  1  0.936000  0.674300  0.902800  1.0  0.1066
  H  H231  1  0.975300  0.651600  0.734400  1.0  0.1183
  H  H232  1  0.074200  0.643300  0.758400  1.0  0.111
  H  H233  1  0.579000  0.459300  0.844800  1.0  0.1074
  H  H234  1  0.604700  0.557400  0.832500  1.0  0.1099
  H  H235  1  0.767700  0.508800  0.798000  1.0  0.1034
  H  H236  1  0.747300  0.415100  0.826500  1.0  0.1095
  H  H237  1  0.273800  0.726200  0.226200  1.0  0.3268
  H  H238  1  0.226200  0.273800  0.726200  1.0  0.3262
  H  H239  1  0.726200  0.226200  0.273800  1.0  0.3285
  H  H240  1  0.773800  0.773800  0.773800  1.0  0.3268
  C  C241  1  0.654800  0.563800  0.651400  1.0  -0.1507
  C  C242  1  0.611600  0.523600  0.659900  1.0  -0.0674
  C  C243  1  0.627000  0.464000  0.667800  1.0  -0.0509
  C  C244  1  0.683000  0.446400  0.666200  1.0  -0.1398
  C  C245  1  0.726000  0.487300  0.655100  1.0  -0.0716
  C  C246  1  0.711600  0.546200  0.649100  1.0  -0.0485
  C  C247  1  0.697700  0.382800  0.675900  1.0  0.7121
  C  C248  1  0.662500  0.162100  0.428000  1.0  -0.1356
  C  C249  1  0.662200  0.118400  0.470000  1.0  -0.0799
  C  C250  1  0.672300  0.133400  0.527800  1.0  -0.0995
  C  C251  1  0.689100  0.188100  0.542700  1.0  -0.0628
  C  C252  1  0.690200  0.229100  0.499300  1.0  -0.0536
  C  C253  1  0.675100  0.217000  0.443300  1.0  -0.1057
  C  C254  1  0.707700  0.203900  0.603500  1.0  0.6627
  C  C255  1  0.845200  0.436200  0.151400  1.0  -0.1505
  C  C256  1  0.888400  0.476400  0.159900  1.0  -0.0673
  C  C257  1  0.873000  0.536000  0.167800  1.0  -0.0494
  C  C258  1  0.817000  0.553600  0.166200  1.0  -0.1389
  C  C259  1  0.774000  0.512700  0.155100  1.0  -0.0727
  C  C260  1  0.788400  0.453800  0.149100  1.0  -0.0474
  C  C261  1  0.802300  0.617200  0.175900  1.0  0.714
  C  C262  1  0.837500  0.837900  0.928000  1.0  -0.1356
  C  C263  1  0.837800  0.881600  0.970000  1.0  -0.0809
  C  C264  1  0.827700  0.866600  0.027800  1.0  -0.0998
  C  C265  1  0.810900  0.811900  0.042700  1.0  -0.0656
  C  C266  1  0.809800  0.770900  0.999300  1.0  -0.0556
  C  C267  1  0.824900  0.783000  0.943300  1.0  -0.1053
  C  C268  1  0.792300  0.796100  0.103500  1.0  0.6647
  C  C269  1  0.345200  0.063800  0.848600  1.0  -0.1494
  C  C270  1  0.388400  0.023600  0.840100  1.0  -0.0676
  C  C271  1  0.373000  0.964000  0.832200  1.0  -0.0508
  C  C272  1  0.317000  0.946400  0.833800  1.0  -0.1399
  C  C273  1  0.274000  0.987300  0.844900  1.0  -0.0727
  C  C274  1  0.288400  0.046200  0.850900  1.0  -0.047
  C  C275  1  0.302300  0.882800  0.824100  1.0  0.7102
  C  C276  1  0.337500  0.662100  0.072000  1.0  -0.1373
  C  C277  1  0.337800  0.618400  0.030000  1.0  -0.0817
  C  C278  1  0.327700  0.633400  0.972200  1.0  -0.101
  C  C279  1  0.310900  0.688100  0.957300  1.0  -0.0661
  C  C280  1  0.309800  0.729100  0.000700  1.0  -0.057
  C  C281  1  0.324900  0.717000  0.056700  1.0  -0.106
  C  C282  1  0.292300  0.703900  0.896500  1.0  0.6632
  C  C283  1  0.154800  0.936200  0.348600  1.0  -0.1508
  C  C284  1  0.111600  0.976400  0.340100  1.0  -0.0679
  C  C285  1  0.127000  0.036000  0.332200  1.0  -0.0511
  C  C286  1  0.183000  0.053600  0.333800  1.0  -0.1404
  C  C287  1  0.226000  0.012700  0.344900  1.0  -0.0728
  C  C288  1  0.211600  0.953800  0.350900  1.0  -0.0485
  C  C289  1  0.197700  0.117200  0.324100  1.0  0.7113
  C  C290  1  0.162500  0.337900  0.572000  1.0  -0.1374
  C  C291  1  0.162200  0.381600  0.530000  1.0  -0.0803
  C  C292  1  0.172300  0.366600  0.472200  1.0  -0.0993
  C  C293  1  0.189100  0.311900  0.457300  1.0  -0.0633
  C  C294  1  0.190200  0.270900  0.500700  1.0  -0.054
  C  C295  1  0.175100  0.283000  0.556700  1.0  -0.1049
  C  C296  1  0.207700  0.296100  0.396500  1.0  0.6624
  C  C297  1  0.651400  0.654800  0.563800  1.0  -0.1526
  C  C298  1  0.659900  0.611600  0.523600  1.0  -0.0746
  C  C299  1  0.667800  0.627000  0.464000  1.0  -0.0517
  C  C300  1  0.666200  0.683000  0.446400  1.0  -0.1449
  C  C301  1  0.655100  0.726000  0.487300  1.0  -0.0689
  C  C302  1  0.649100  0.711600  0.546200  1.0  -0.0493
  C  C303  1  0.675900  0.697700  0.382800  1.0  0.7169
  C  C304  1  0.428000  0.662500  0.162100  1.0  -0.136
  C  C305  1  0.470000  0.662200  0.118400  1.0  -0.0773
  C  C306  1  0.527800  0.672300  0.133400  1.0  -0.1021
  C  C307  1  0.542700  0.689100  0.188100  1.0  -0.0679
  C  C308  1  0.499300  0.690200  0.229100  1.0  -0.0508
  C  C309  1  0.443300  0.675100  0.217000  1.0  -0.1031
  C  C310  1  0.603500  0.707700  0.203900  1.0  0.6614
  C  C311  1  0.151400  0.845200  0.436200  1.0  -0.1524
  C  C312  1  0.159900  0.888400  0.476400  1.0  -0.0748
  C  C313  1  0.167800  0.873000  0.536000  1.0  -0.05
  C  C314  1  0.166200  0.817000  0.553600  1.0  -0.1444
  C  C315  1  0.155100  0.774000  0.512700  1.0  -0.0699
  C  C316  1  0.149100  0.788400  0.453800  1.0  -0.0482
  C  C317  1  0.175900  0.802300  0.617200  1.0  0.7168
  C  C318  1  0.928000  0.837500  0.837900  1.0  -0.1359
  C  C319  1  0.970000  0.837800  0.881600  1.0  -0.0778
  C  C320  1  0.027800  0.827700  0.866600  1.0  -0.0996
  C  C321  1  0.042700  0.810900  0.811900  1.0  -0.0673
  C  C322  1  0.999300  0.809800  0.770900  1.0  -0.0488
  C  C323  1  0.943300  0.824900  0.783000  1.0  -0.1037
  C  C324  1  0.103500  0.792300  0.796100  1.0  0.6609
  C  C325  1  0.848600  0.345200  0.063800  1.0  -0.1524
  C  C326  1  0.840100  0.388400  0.023600  1.0  -0.0738
  C  C327  1  0.832200  0.373000  0.964000  1.0  -0.0509
  C  C328  1  0.833800  0.317000  0.946400  1.0  -0.1453
  C  C329  1  0.844900  0.274000  0.987300  1.0  -0.0717
  C  C330  1  0.850900  0.288400  0.046200  1.0  -0.05
  C  C331  1  0.824100  0.302300  0.882800  1.0  0.7159
  C  C332  1  0.072000  0.337500  0.662100  1.0  -0.1352
  C  C333  1  0.030000  0.337800  0.618400  1.0  -0.0775
  C  C334  1  0.972200  0.327700  0.633400  1.0  -0.1009
  C  C335  1  0.957300  0.310900  0.688100  1.0  -0.0676
  C  C336  1  0.000700  0.309800  0.729100  1.0  -0.0557
  C  C337  1  0.056700  0.324900  0.717000  1.0  -0.1031
  C  C338  1  0.896500  0.292300  0.703900  1.0  0.6601
  C  C339  1  0.348600  0.154800  0.936200  1.0  -0.1511
  C  C340  1  0.340100  0.111600  0.976400  1.0  -0.0728
  C  C341  1  0.332200  0.127000  0.036000  1.0  -0.0498
  C  C342  1  0.333800  0.183000  0.053600  1.0  -0.1475
  C  C343  1  0.344900  0.226000  0.012700  1.0  -0.0701
  C  C344  1  0.350900  0.211600  0.953800  1.0  -0.0492
  C  C345  1  0.324100  0.197700  0.117200  1.0  0.716
  C  C346  1  0.572000  0.162500  0.337900  1.0  -0.1353
  C  C347  1  0.530000  0.162200  0.381600  1.0  -0.0773
  C  C348  1  0.472200  0.172300  0.366600  1.0  -0.0994
  C  C349  1  0.457300  0.189100  0.311900  1.0  -0.0674
  C  C350  1  0.500700  0.190200  0.270900  1.0  -0.0535
  C  C351  1  0.556700  0.175100  0.283000  1.0  -0.1028
  C  C352  1  0.396500  0.207700  0.296100  1.0  0.6614
  C  C353  1  0.563800  0.651400  0.654800  1.0  -0.154
  C  C354  1  0.523600  0.659900  0.611600  1.0  -0.0653
  C  C355  1  0.464000  0.667800  0.627000  1.0  -0.0502
  C  C356  1  0.446400  0.666200  0.683000  1.0  -0.1475
  C  C357  1  0.487300  0.655100  0.726000  1.0  -0.0754
  C  C358  1  0.546200  0.649100  0.711600  1.0  -0.0484
  C  C359  1  0.382800  0.675900  0.697700  1.0  0.7109
  C  C360  1  0.162100  0.428000  0.662500  1.0  -0.1366
  C  C361  1  0.118400  0.470000  0.662200  1.0  -0.0777
  C  C362  1  0.133400  0.527800  0.672300  1.0  -0.0992
  C  C363  1  0.188100  0.542700  0.689100  1.0  -0.0651
  C  C364  1  0.229100  0.499300  0.690200  1.0  -0.0488
  C  C365  1  0.217000  0.443300  0.675100  1.0  -0.1042
  C  C366  1  0.203900  0.603500  0.707700  1.0  0.6599
  C  C367  1  0.436200  0.151400  0.845200  1.0  -0.1525
  C  C368  1  0.476400  0.159900  0.888400  1.0  -0.0655
  C  C369  1  0.536000  0.167800  0.873000  1.0  -0.0487
  C  C370  1  0.553600  0.166200  0.817000  1.0  -0.1471
  C  C371  1  0.512700  0.155100  0.774000  1.0  -0.0718
  C  C372  1  0.453800  0.149100  0.788400  1.0  -0.0455
  C  C373  1  0.617200  0.175900  0.802300  1.0  0.7115
  C  C374  1  0.837900  0.928000  0.837500  1.0  -0.1357
  C  C375  1  0.881600  0.970000  0.837800  1.0  -0.0781
  C  C376  1  0.866600  0.027800  0.827700  1.0  -0.0985
  C  C377  1  0.811900  0.042700  0.810900  1.0  -0.0621
  C  C378  1  0.770900  0.999300  0.809800  1.0  -0.0514
  C  C379  1  0.783000  0.943300  0.824900  1.0  -0.1046
  C  C380  1  0.796100  0.103500  0.792300  1.0  0.6567
  C  C381  1  0.063800  0.848600  0.345200  1.0  -0.1535
  C  C382  1  0.023600  0.840100  0.388400  1.0  -0.0662
  C  C383  1  0.964000  0.832200  0.373000  1.0  -0.0484
  C  C384  1  0.946400  0.833800  0.317000  1.0  -0.148
  C  C385  1  0.987300  0.844900  0.274000  1.0  -0.0719
  C  C386  1  0.046200  0.850900  0.288400  1.0  -0.0485
  C  C387  1  0.882800  0.824100  0.302300  1.0  0.7109
  C  C388  1  0.662100  0.072000  0.337500  1.0  -0.1373
  C  C389  1  0.618400  0.030000  0.337800  1.0  -0.0782
  C  C390  1  0.633400  0.972200  0.327700  1.0  -0.0988
  C  C391  1  0.688100  0.957300  0.310900  1.0  -0.0615
  C  C392  1  0.729100  0.000700  0.309800  1.0  -0.0493
  C  C393  1  0.717000  0.056700  0.324900  1.0  -0.1041
  C  C394  1  0.703900  0.896500  0.292300  1.0  0.6581
  C  C395  1  0.936200  0.348600  0.154800  1.0  -0.1525
  C  C396  1  0.976400  0.340100  0.111600  1.0  -0.0653
  C  C397  1  0.036000  0.332200  0.127000  1.0  -0.0495
  C  C398  1  0.053600  0.333800  0.183000  1.0  -0.149
  C  C399  1  0.012700  0.344900  0.226000  1.0  -0.0727
  C  C400  1  0.953800  0.350900  0.211600  1.0  -0.0454
  C  C401  1  0.117200  0.324100  0.197700  1.0  0.7113
  C  C402  1  0.337900  0.572000  0.162500  1.0  -0.1355
  C  C403  1  0.381600  0.530000  0.162200  1.0  -0.0776
  C  C404  1  0.366600  0.472200  0.172300  1.0  -0.1007
  C  C405  1  0.311900  0.457300  0.189100  1.0  -0.0655
  C  C406  1  0.270900  0.500700  0.190200  1.0  -0.0511
  C  C407  1  0.283000  0.556700  0.175100  1.0  -0.1046
  C  C408  1  0.296100  0.396500  0.207700  1.0  0.6588
  C  C409  1  0.345200  0.436200  0.348600  1.0  -0.1501
  C  C410  1  0.388400  0.476400  0.340100  1.0  -0.067
  C  C411  1  0.373000  0.536000  0.332200  1.0  -0.0499
  C  C412  1  0.317000  0.553600  0.333800  1.0  -0.1404
  C  C413  1  0.274000  0.512700  0.344900  1.0  -0.0744
  C  C414  1  0.288400  0.453800  0.350900  1.0  -0.0474
  C  C415  1  0.302300  0.617200  0.324100  1.0  0.7114
  C  C416  1  0.337500  0.837900  0.572000  1.0  -0.1372
  C  C417  1  0.337800  0.881600  0.530000  1.0  -0.0807
  C  C418  1  0.327700  0.866600  0.472200  1.0  -0.0993
  C  C419  1  0.310900  0.811900  0.457300  1.0  -0.0659
  C  C420  1  0.309800  0.770900  0.500700  1.0  -0.0557
  C  C421  1  0.324900  0.783000  0.556700  1.0  -0.1052
  C  C422  1  0.292300  0.796100  0.396500  1.0  0.6635
  C  C423  1  0.154800  0.563800  0.848600  1.0  -0.1502
  C  C424  1  0.111600  0.523600  0.840100  1.0  -0.0659
  C  C425  1  0.127000  0.464000  0.832200  1.0  -0.0519
  C  C426  1  0.183000  0.446400  0.833800  1.0  -0.1395
  C  C427  1  0.226000  0.487300  0.844900  1.0  -0.0725
  C  C428  1  0.211600  0.546200  0.850900  1.0  -0.0483
  C  C429  1  0.197700  0.382800  0.824100  1.0  0.7101
  C  C430  1  0.162500  0.162100  0.072000  1.0  -0.1375
  C  C431  1  0.162200  0.118400  0.030000  1.0  -0.0812
  C  C432  1  0.172300  0.133400  0.972200  1.0  -0.1001
  C  C433  1  0.189100  0.188100  0.957300  1.0  -0.0633
  C  C434  1  0.190200  0.229100  0.000700  1.0  -0.0539
  C  C435  1  0.175100  0.217000  0.056700  1.0  -0.1058
  C  C436  1  0.207700  0.203900  0.896500  1.0  0.663
  C  C437  1  0.654800  0.936200  0.151400  1.0  -0.1515
  C  C438  1  0.611600  0.976400  0.159900  1.0  -0.0684
  C  C439  1  0.627000  0.036000  0.167800  1.0  -0.0499
  C  C440  1  0.683000  0.053600  0.166200  1.0  -0.139
  C  C441  1  0.726000  0.012700  0.155100  1.0  -0.0713
  C  C442  1  0.711600  0.953800  0.149100  1.0  -0.0486
  C  C443  1  0.697700  0.117200  0.175900  1.0  0.7139
  C  C444  1  0.662500  0.337900  0.928000  1.0  -0.1355
  C  C445  1  0.662200  0.381600  0.970000  1.0  -0.0799
  C  C446  1  0.672300  0.366600  0.027800  1.0  -0.0997
  C  C447  1  0.689100  0.311900  0.042700  1.0  -0.0625
  C  C448  1  0.690200  0.270900  0.999300  1.0  -0.0535
  C  C449  1  0.675100  0.283000  0.943300  1.0  -0.105
  C  C450  1  0.707700  0.296100  0.103500  1.0  0.6628
  C  C451  1  0.845200  0.063800  0.651400  1.0  -0.1497
  C  C452  1  0.888400  0.023600  0.659900  1.0  -0.0681
  C  C453  1  0.873000  0.964000  0.667800  1.0  -0.0502
  C  C454  1  0.817000  0.946400  0.666200  1.0  -0.1403
  C  C455  1  0.774000  0.987300  0.655100  1.0  -0.0719
  C  C456  1  0.788400  0.046200  0.649100  1.0  -0.0467
  C  C457  1  0.802300  0.882800  0.675900  1.0  0.7123
  C  C458  1  0.837500  0.662100  0.428000  1.0  -0.1357
  C  C459  1  0.837800  0.618400  0.470000  1.0  -0.0808
  C  C460  1  0.827700  0.633400  0.527800  1.0  -0.1002
  C  C461  1  0.810900  0.688100  0.542700  1.0  -0.0662
  C  C462  1  0.809800  0.729100  0.499300  1.0  -0.057
  C  C463  1  0.824900  0.717000  0.443300  1.0  -0.1058
  C  C464  1  0.792300  0.703900  0.603500  1.0  0.6642
  C  C465  1  0.348600  0.345200  0.436200  1.0  -0.1513
  C  C466  1  0.340100  0.388400  0.476400  1.0  -0.0749
  C  C467  1  0.332200  0.373000  0.536000  1.0  -0.0492
  C  C468  1  0.333800  0.317000  0.553600  1.0  -0.1464
  C  C469  1  0.344900  0.274000  0.512700  1.0  -0.0716
  C  C470  1  0.350900  0.288400  0.453800  1.0  -0.0488
  C  C471  1  0.324100  0.302300  0.617200  1.0  0.7161
  C  C472  1  0.572000  0.337500  0.837900  1.0  -0.1354
  C  C473  1  0.530000  0.337800  0.881600  1.0  -0.0774
  C  C474  1  0.472200  0.327700  0.866600  1.0  -0.1005
  C  C475  1  0.457300  0.310900  0.811900  1.0  -0.0676
  C  C476  1  0.500700  0.309800  0.770900  1.0  -0.0529
  C  C477  1  0.556700  0.324900  0.783000  1.0  -0.1029
  C  C478  1  0.396500  0.292300  0.796100  1.0  0.6613
  C  C479  1  0.848600  0.154800  0.563800  1.0  -0.152
  C  C480  1  0.840100  0.111600  0.523600  1.0  -0.0742
  C  C481  1  0.832200  0.127000  0.464000  1.0  -0.0515
  C  C482  1  0.833800  0.183000  0.446400  1.0  -0.1448
  C  C483  1  0.844900  0.226000  0.487300  1.0  -0.0692
  C  C484  1  0.850900  0.211600  0.546200  1.0  -0.0502
  C  C485  1  0.824100  0.197700  0.382800  1.0  0.716
  C  C486  1  0.072000  0.162500  0.162100  1.0  -0.1351
  C  C487  1  0.030000  0.162200  0.118400  1.0  -0.0768
  C  C488  1  0.972200  0.172300  0.133400  1.0  -0.1006
  C  C489  1  0.957300  0.189100  0.188100  1.0  -0.0672
  C  C490  1  0.000700  0.190200  0.229100  1.0  -0.0552
  C  C491  1  0.056700  0.175100  0.217000  1.0  -0.1026
  C  C492  1  0.896500  0.207700  0.203900  1.0  0.6611
  C  C493  1  0.151400  0.654800  0.936200  1.0  -0.1523
  C  C494  1  0.159900  0.611600  0.976400  1.0  -0.073
  C  C495  1  0.167800  0.627000  0.036000  1.0  -0.0512
  C  C496  1  0.166200  0.683000  0.053600  1.0  -0.1449
  C  C497  1  0.155100  0.726000  0.012700  1.0  -0.0698
  C  C498  1  0.149100  0.711600  0.953800  1.0  -0.0482
  C  C499  1  0.175900  0.697700  0.117200  1.0  0.7164
  C  C500  1  0.928000  0.662500  0.337900  1.0  -0.1362
  C  C501  1  0.970000  0.662200  0.381600  1.0  -0.0777
  C  C502  1  0.027800  0.672300  0.366600  1.0  -0.1001
  C  C503  1  0.042700  0.689100  0.311900  1.0  -0.0678
  C  C504  1  0.999300  0.690200  0.270900  1.0  -0.0493
  C  C505  1  0.943300  0.675100  0.283000  1.0  -0.1037
  C  C506  1  0.103500  0.707700  0.296100  1.0  0.6613
  C  C507  1  0.651400  0.845200  0.063800  1.0  -0.153
  C  C508  1  0.659900  0.888400  0.023600  1.0  -0.0737
  C  C509  1  0.667800  0.873000  0.964000  1.0  -0.0507
  C  C510  1  0.666200  0.817000  0.946400  1.0  -0.1458
  C  C511  1  0.655100  0.774000  0.987300  1.0  -0.0698
  C  C512  1  0.649100  0.788400  0.046200  1.0  -0.0492
  C  C513  1  0.675900  0.802300  0.882800  1.0  0.7169
  C  C514  1  0.428000  0.837500  0.662100  1.0  -0.1358
  C  C515  1  0.470000  0.837800  0.618400  1.0  -0.0782
  C  C516  1  0.527800  0.827700  0.633400  1.0  -0.101
  C  C517  1  0.542700  0.810900  0.688100  1.0  -0.0677
  C  C518  1  0.499300  0.809800  0.729100  1.0  -0.0505
  C  C519  1  0.443300  0.824900  0.717000  1.0  -0.1034
  C  C520  1  0.603500  0.792300  0.703900  1.0  0.6602
  C  C521  1  0.436200  0.348600  0.345200  1.0  -0.1524
  C  C522  1  0.476400  0.340100  0.388400  1.0  -0.0653
  C  C523  1  0.536000  0.332200  0.373000  1.0  -0.0475
  C  C524  1  0.553600  0.333800  0.317000  1.0  -0.1488
  C  C525  1  0.512700  0.344900  0.274000  1.0  -0.0717
  C  C526  1  0.453800  0.350900  0.288400  1.0  -0.0456
  C  C527  1  0.617200  0.324100  0.302300  1.0  0.7119
  C  C528  1  0.837900  0.572000  0.337500  1.0  -0.136
  C  C529  1  0.881600  0.530000  0.337800  1.0  -0.0784
  C  C530  1  0.866600  0.472200  0.327700  1.0  -0.0991
  C  C531  1  0.811900  0.457300  0.310900  1.0  -0.0615
  C  C532  1  0.770900  0.500700  0.309800  1.0  -0.0505
  C  C533  1  0.783000  0.556700  0.324900  1.0  -0.1044
  C  C534  1  0.796100  0.396500  0.292300  1.0  0.6555
  C  C535  1  0.563800  0.848600  0.154800  1.0  -0.1547
  C  C536  1  0.523600  0.840100  0.111600  1.0  -0.0643
  C  C537  1  0.464000  0.832200  0.127000  1.0  -0.05
  C  C538  1  0.446400  0.833800  0.183000  1.0  -0.1475
  C  C539  1  0.487300  0.844900  0.226000  1.0  -0.0739
  C  C540  1  0.546200  0.850900  0.211600  1.0  -0.0485
  C  C541  1  0.382800  0.824100  0.197700  1.0  0.7104
  C  C542  1  0.162100  0.072000  0.162500  1.0  -0.137
  C  C543  1  0.118400  0.030000  0.162200  1.0  -0.0784
  C  C544  1  0.133400  0.972200  0.172300  1.0  -0.1002
  C  C545  1  0.188100  0.957300  0.189100  1.0  -0.066
  C  C546  1  0.229100  0.000700  0.190200  1.0  -0.0492
  C  C547  1  0.217000  0.056700  0.175100  1.0  -0.1044
  C  C548  1  0.203900  0.896500  0.207700  1.0  0.6591
  C  C549  1  0.936200  0.151400  0.654800  1.0  -0.1524
  C  C550  1  0.976400  0.159900  0.611600  1.0  -0.0658
  C  C551  1  0.036000  0.167800  0.627000  1.0  -0.0506
  C  C552  1  0.053600  0.166200  0.683000  1.0  -0.1476
  C  C553  1  0.012700  0.155100  0.726000  1.0  -0.0743
  C  C554  1  0.953800  0.149100  0.711600  1.0  -0.0455
  C  C555  1  0.117200  0.175900  0.697700  1.0  0.7112
  C  C556  1  0.337900  0.928000  0.662500  1.0  -0.1356
  C  C557  1  0.381600  0.970000  0.662200  1.0  -0.0767
  C  C558  1  0.366600  0.027800  0.672300  1.0  -0.0993
  C  C559  1  0.311900  0.042700  0.689100  1.0  -0.064
  C  C560  1  0.270900  0.999300  0.690200  1.0  -0.0517
  C  C561  1  0.283000  0.943300  0.675100  1.0  -0.1046
  C  C562  1  0.296100  0.103500  0.707700  1.0  0.6596
  C  C563  1  0.063800  0.651400  0.845200  1.0  -0.153
  C  C564  1  0.023600  0.659900  0.888400  1.0  -0.0663
  C  C565  1  0.964000  0.667800  0.873000  1.0  -0.0487
  C  C566  1  0.946400  0.666200  0.817000  1.0  -0.1475
  C  C567  1  0.987300  0.655100  0.774000  1.0  -0.072
  C  C568  1  0.046200  0.649100  0.788400  1.0  -0.0482
  C  C569  1  0.882800  0.675900  0.802300  1.0  0.7111
  C  C570  1  0.662100  0.428000  0.837500  1.0  -0.1364
  C  C571  1  0.618400  0.470000  0.837800  1.0  -0.0784
  C  C572  1  0.633400  0.527800  0.827700  1.0  -0.0994
  C  C573  1  0.688100  0.542700  0.810900  1.0  -0.0622
  C  C574  1  0.729100  0.499300  0.809800  1.0  -0.0493
  C  C575  1  0.717000  0.443300  0.824900  1.0  -0.1039
  C  C576  1  0.703900  0.603500  0.792300  1.0  0.6591
  O  O577  1  0.751900  0.369600  0.674100  1.0  -0.5995
  O  O578  1  0.660200  0.346600  0.678900  1.0  -0.5184
  O  O579  1  0.734400  0.252900  0.608900  1.0  -0.6132
  O  O580  1  0.697900  0.165900  0.643100  1.0  -0.5943
  O  O581  1  0.748100  0.630400  0.174100  1.0  -0.5966
  O  O582  1  0.839800  0.653400  0.178900  1.0  -0.5187
  O  O583  1  0.765600  0.747100  0.108900  1.0  -0.6124
  O  O584  1  0.802100  0.834100  0.143100  1.0  -0.5952
  O  O585  1  0.248100  0.869600  0.825900  1.0  -0.5987
  O  O586  1  0.339800  0.846600  0.821100  1.0  -0.5184
  O  O587  1  0.265600  0.752900  0.891100  1.0  -0.6116
  O  O588  1  0.302100  0.665900  0.856900  1.0  -0.5956
  O  O589  1  0.251900  0.130400  0.325900  1.0  -0.599
  O  O590  1  0.160200  0.153400  0.321100  1.0  -0.5176
  O  O591  1  0.234400  0.247100  0.391100  1.0  -0.612
  O  O592  1  0.197900  0.334100  0.356900  1.0  -0.5947
  O  O593  1  0.674100  0.751900  0.369600  1.0  -0.6028
  O  O594  1  0.678900  0.660200  0.346600  1.0  -0.5235
  O  O595  1  0.608900  0.734400  0.252900  1.0  -0.6118
  O  O596  1  0.643100  0.697900  0.165900  1.0  -0.5964
  O  O597  1  0.174100  0.748100  0.630400  1.0  -0.6008
  O  O598  1  0.178900  0.839800  0.653400  1.0  -0.5201
  O  O599  1  0.108900  0.765600  0.747100  1.0  -0.6121
  O  O600  1  0.143100  0.802100  0.834100  1.0  -0.5971
  O  O601  1  0.825900  0.248100  0.869600  1.0  -0.602
  O  O602  1  0.821100  0.339800  0.846600  1.0  -0.5216
  O  O603  1  0.891100  0.265600  0.752900  1.0  -0.6112
  O  O604  1  0.856900  0.302100  0.665900  1.0  -0.5965
  O  O605  1  0.325900  0.251900  0.130400  1.0  -0.5999
  O  O606  1  0.321100  0.160200  0.153400  1.0  -0.5228
  O  O607  1  0.391100  0.234400  0.247100  1.0  -0.6123
  O  O608  1  0.356900  0.197900  0.334100  1.0  -0.5967
  O  O609  1  0.369600  0.674100  0.751900  1.0  -0.5996
  O  O610  1  0.346600  0.678900  0.660200  1.0  -0.5177
  O  O611  1  0.252900  0.608900  0.734400  1.0  -0.6093
  O  O612  1  0.165900  0.643100  0.697900  1.0  -0.5933
  O  O613  1  0.630400  0.174100  0.748100  1.0  -0.6004
  O  O614  1  0.653400  0.178900  0.839800  1.0  -0.5177
  O  O615  1  0.747100  0.108900  0.765600  1.0  -0.6088
  O  O616  1  0.834100  0.143100  0.802100  1.0  -0.5962
  O  O617  1  0.869600  0.825900  0.248100  1.0  -0.6
  O  O618  1  0.846600  0.821100  0.339800  1.0  -0.5169
  O  O619  1  0.752900  0.891100  0.265600  1.0  -0.6109
  O  O620  1  0.665900  0.856900  0.302100  1.0  -0.5967
  O  O621  1  0.130400  0.325900  0.251900  1.0  -0.5997
  O  O622  1  0.153400  0.321100  0.160200  1.0  -0.5185
  O  O623  1  0.247100  0.391100  0.234400  1.0  -0.6094
  O  O624  1  0.334100  0.356900  0.197900  1.0  -0.5943
  O  O625  1  0.678100  0.678100  0.678100  1.0  -0.6663
  O  O626  1  0.821900  0.321900  0.178100  1.0  -0.6664
  O  O627  1  0.321900  0.178100  0.821900  1.0  -0.6655
  O  O628  1  0.178100  0.821900  0.321900  1.0  -0.6658
  O  O629  1  0.686600  0.186600  0.313400  1.0  -0.7128
  O  O630  1  0.813400  0.813400  0.813400  1.0  -0.7134
  O  O631  1  0.313400  0.686600  0.186600  1.0  -0.713
  O  O632  1  0.186600  0.313400  0.686600  1.0  -0.7118
  O  O633  1  0.751400  0.248600  0.748600  1.0  -0.8722
  O  O634  1  0.748600  0.751400  0.248600  1.0  -0.8716
  O  O635  1  0.248600  0.748600  0.751400  1.0  -0.872
  O  O636  1  0.251400  0.251400  0.251400  1.0  -0.8729
  O  O637  1  0.248100  0.630400  0.325900  1.0  -0.5981
  O  O638  1  0.339800  0.653400  0.321100  1.0  -0.518
  O  O639  1  0.265600  0.747100  0.391100  1.0  -0.612
  O  O640  1  0.302100  0.834100  0.356900  1.0  -0.5952
  O  O641  1  0.251900  0.369600  0.825900  1.0  -0.5993
  O  O642  1  0.160200  0.346600  0.821100  1.0  -0.5175
  O  O643  1  0.234400  0.252900  0.891100  1.0  -0.6129
  O  O644  1  0.197900  0.165900  0.856900  1.0  -0.5949
  O  O645  1  0.751900  0.130400  0.174100  1.0  -0.5985
  O  O646  1  0.660200  0.153400  0.178900  1.0  -0.5183
  O  O647  1  0.734400  0.247100  0.108900  1.0  -0.6124
  O  O648  1  0.697900  0.334100  0.143100  1.0  -0.5943
  O  O649  1  0.748100  0.869600  0.674100  1.0  -0.5977
  O  O650  1  0.839800  0.846600  0.678900  1.0  -0.5191
  O  O651  1  0.765600  0.752900  0.608900  1.0  -0.6117
  O  O652  1  0.802100  0.665900  0.643100  1.0  -0.5956
  O  O653  1  0.325900  0.248100  0.630400  1.0  -0.6019
  O  O654  1  0.321100  0.339800  0.653400  1.0  -0.5232
  O  O655  1  0.391100  0.265600  0.747100  1.0  -0.6119
  O  O656  1  0.356900  0.302100  0.834100  1.0  -0.5969
  O  O657  1  0.825900  0.251900  0.369600  1.0  -0.5999
  O  O658  1  0.821100  0.160200  0.346600  1.0  -0.5231
  O  O659  1  0.891100  0.234400  0.252900  1.0  -0.6107
  O  O660  1  0.856900  0.197900  0.165900  1.0  -0.5963
  O  O661  1  0.174100  0.751900  0.130400  1.0  -0.6023
  O  O662  1  0.178900  0.660200  0.153400  1.0  -0.5198
  O  O663  1  0.108900  0.734400  0.247100  1.0  -0.6125
  O  O664  1  0.143100  0.697900  0.334100  1.0  -0.5969
  O  O665  1  0.674100  0.748100  0.869600  1.0  -0.6014
  O  O666  1  0.678900  0.839800  0.846600  1.0  -0.522
  O  O667  1  0.608900  0.765600  0.752900  1.0  -0.6121
  O  O668  1  0.643100  0.802100  0.665900  1.0  -0.5969
  O  O669  1  0.630400  0.325900  0.248100  1.0  -0.6006
  O  O670  1  0.653400  0.321100  0.339800  1.0  -0.5171
  O  O671  1  0.747100  0.391100  0.265600  1.0  -0.6094
  O  O672  1  0.834100  0.356900  0.302100  1.0  -0.5959
  O  O673  1  0.369600  0.825900  0.251900  1.0  -0.5989
  O  O674  1  0.346600  0.821100  0.160200  1.0  -0.5187
  O  O675  1  0.252900  0.891100  0.234400  1.0  -0.6096
  O  O676  1  0.165900  0.856900  0.197900  1.0  -0.5941
  O  O677  1  0.130400  0.174100  0.751900  1.0  -0.5998
  O  O678  1  0.153400  0.178900  0.660200  1.0  -0.5184
  O  O679  1  0.247100  0.108900  0.734400  1.0  -0.6088
  O  O680  1  0.334100  0.143100  0.697900  1.0  -0.5943
  O  O681  1  0.869600  0.674100  0.748100  1.0  -0.6008
  O  O682  1  0.846600  0.678900  0.839800  1.0  -0.5166
  O  O683  1  0.752900  0.608900  0.765600  1.0  -0.6106
  O  O684  1  0.665900  0.643100  0.802100  1.0  -0.5962
  O  O685  1  0.321900  0.321900  0.321900  1.0  -0.6658
  O  O686  1  0.178100  0.678100  0.821900  1.0  -0.6655
  O  O687  1  0.678100  0.821900  0.178100  1.0  -0.6666
  O  O688  1  0.821900  0.178100  0.678100  1.0  -0.666
  O  O689  1  0.313400  0.813400  0.686600  1.0  -0.7127
  O  O690  1  0.186600  0.186600  0.186600  1.0  -0.7122
  O  O691  1  0.686600  0.313400  0.813400  1.0  -0.7126
  O  O692  1  0.813400  0.686600  0.313400  1.0  -0.7135
  O  O693  1  0.248600  0.751400  0.251400  1.0  -0.8723
  O  O694  1  0.251400  0.248600  0.751400  1.0  -0.8727
  O  O695  1  0.751400  0.251400  0.248600  1.0  -0.8722
  O  O696  1  0.748600  0.748600  0.748600  1.0  -0.8714
