# generated using pymatgen
data_Zn3CuH26C40(N2O7)2
_symmetry_space_group_name_H-M   'P 1'
_cell_length_a   9.45920000
_cell_length_b   41.25400000
_cell_length_c   18.41380000
_cell_angle_alpha   98.64500000
_cell_angle_beta   90.00000000
_cell_angle_gamma   90.00000000
_symmetry_Int_Tables_number   1
_chemical_formula_structural   Zn3CuH26C40(N2O7)2
_chemical_formula_sum   'Zn12 Cu4 H104 C160 N16 O56'
_cell_volume   7103.97575709
_cell_formula_units_Z   4
loop_
 _symmetry_equiv_pos_site_id
 _symmetry_equiv_pos_as_xyz
  1  'x, y, z'
loop_
 _atom_site_type_symbol
 _atom_site_label
 _atom_site_symmetry_multiplicity
 _atom_site_fract_x
 _atom_site_fract_y
 _atom_site_fract_z
 _atom_site_occupancy
 _atom_site_charge
  Zn  Zn1  1  0.456390  0.579810  0.529500  1.0  0.9421
  Zn  Zn2  1  0.042690  0.920250  0.469250  1.0  0.9737
  Zn  Zn3  1  0.956390  0.420190  0.970500  1.0  0.9416
  Zn  Zn4  1  0.542690  0.079750  0.030750  1.0  0.9745
  Zn  Zn5  1  0.543610  0.420190  0.470500  1.0  0.9419
  Zn  Zn6  1  0.957310  0.079750  0.530750  1.0  0.9743
  Zn  Zn7  1  0.043610  0.579810  0.029500  1.0  0.9423
  Zn  Zn8  1  0.457310  0.920250  0.969250  1.0  0.9736
  Zn  Zn9  1  0.500000  0.500000  0.500000  1.0  1.0927
  Zn  Zn10  1  0.000000  0.500000  0.000000  1.0  1.0927
  Zn  Zn11  1  0.000000  0.000000  0.500000  1.0  1.1043
  Zn  Zn12  1  0.500000  0.000000  0.000000  1.0  1.1043
  Cu  Cu13  1  0.191450  0.749920  0.532040  1.0  0.7816
  Cu  Cu14  1  0.691450  0.250080  0.967960  1.0  0.7813
  Cu  Cu15  1  0.808550  0.250080  0.467960  1.0  0.7812
  Cu  Cu16  1  0.308550  0.749920  0.032040  1.0  0.7812
  H  H17  1  0.742800  0.599100  0.362000  1.0  0.1133
  H  H18  1  0.843200  0.601600  0.247600  1.0  0.1085
  H  H19  1  0.851600  0.503200  0.207200  1.0  0.0996
  H  H20  1  0.751700  0.500600  0.320800  1.0  0.1171
  H  H21  1  0.194000  0.497200  0.416600  1.0  0.1025
  H  H22  1  0.001000  0.540000  0.598200  1.0  0.0933
  H  H23  1  0.836300  0.901000  0.262200  1.0  0.1258
  H  H24  1  0.735400  0.900500  0.146200  1.0  0.1119
  H  H25  1  0.750200  0.999100  0.172700  1.0  0.1084
  H  H26  1  0.859000  0.999500  0.285900  1.0  0.1138
  H  H27  1  0.514400  0.625100  0.424100  1.0  0.0604
  H  H28  1  0.262000  0.629900  0.583000  1.0  0.1371
  H  H29  1  0.549900  0.664300  0.348400  1.0  0.1501
  H  H30  1  0.544200  0.700800  0.392300  1.0  0.1432
  H  H31  1  0.413600  0.686600  0.342000  1.0  0.1372
  H  H32  1  0.176900  0.685500  0.650500  1.0  0.1214
  H  H33  1  0.905100  0.730400  0.616000  1.0  0.1443
  H  H34  1  0.002200  0.722700  0.682000  1.0  0.1054
  H  H35  1  0.077500  0.772000  0.706400  1.0  0.118
  H  H36  1  0.923100  0.778500  0.674700  1.0  0.1334
  H  H37  1  0.014000  0.825400  0.627900  1.0  0.1054
  H  H38  1  0.029000  0.869400  0.571500  1.0  0.107
  H  H39  1  0.214000  0.866900  0.365400  1.0  0.0984
  H  H40  1  0.320200  0.823300  0.307900  1.0  0.1294
  H  H41  1  0.252200  0.789300  0.322000  1.0  0.1289
  H  H42  1  0.396400  0.801900  0.362100  1.0  0.135
  H  H43  1  0.242800  0.400900  0.138000  1.0  0.1138
  H  H44  1  0.343200  0.398400  0.252400  1.0  0.1077
  H  H45  1  0.351600  0.496800  0.292800  1.0  0.0994
  H  H46  1  0.251700  0.499400  0.179200  1.0  0.1175
  H  H47  1  0.694000  0.502800  0.083400  1.0  0.1027
  H  H48  1  0.501000  0.460000  0.901800  1.0  0.0947
  H  H49  1  0.336300  0.099000  0.237800  1.0  0.1262
  H  H50  1  0.235400  0.099500  0.353800  1.0  0.1127
  H  H51  1  0.250200  0.000900  0.327300  1.0  0.1083
  H  H52  1  0.359000  0.000500  0.214100  1.0  0.1135
  H  H53  1  0.014400  0.374900  0.075900  1.0  0.0598
  H  H54  1  0.762000  0.370100  0.917000  1.0  0.1368
  H  H55  1  0.049900  0.335700  0.151600  1.0  0.1486
  H  H56  1  0.044200  0.299200  0.107700  1.0  0.1445
  H  H57  1  0.913600  0.313400  0.158000  1.0  0.1385
  H  H58  1  0.676900  0.314500  0.849500  1.0  0.1216
  H  H59  1  0.405100  0.269600  0.884000  1.0  0.1447
  H  H60  1  0.502200  0.277300  0.818000  1.0  0.106
  H  H61  1  0.577500  0.228000  0.793600  1.0  0.1166
  H  H62  1  0.423100  0.221500  0.825300  1.0  0.1324
  H  H63  1  0.514000  0.174600  0.872100  1.0  0.1042
  H  H64  1  0.529000  0.130600  0.928500  1.0  0.1064
  H  H65  1  0.714000  0.133100  0.134600  1.0  0.0993
  H  H66  1  0.820200  0.176700  0.192100  1.0  0.13
  H  H67  1  0.752200  0.210700  0.178000  1.0  0.1294
  H  H68  1  0.896400  0.198100  0.137900  1.0  0.1356
  H  H69  1  0.257200  0.400900  0.638000  1.0  0.1136
  H  H70  1  0.156800  0.398400  0.752400  1.0  0.1078
  H  H71  1  0.148400  0.496800  0.792800  1.0  0.0994
  H  H72  1  0.248300  0.499400  0.679200  1.0  0.1176
  H  H73  1  0.806000  0.502800  0.583400  1.0  0.1024
  H  H74  1  0.999000  0.460000  0.401800  1.0  0.0949
  H  H75  1  0.163700  0.099000  0.737800  1.0  0.1265
  H  H76  1  0.264600  0.099500  0.853800  1.0  0.1124
  H  H77  1  0.249800  0.000900  0.827300  1.0  0.1084
  H  H78  1  0.141000  0.000500  0.714100  1.0  0.1133
  H  H79  1  0.485600  0.374900  0.575900  1.0  0.0598
  H  H80  1  0.738000  0.370100  0.417000  1.0  0.1361
  H  H81  1  0.450100  0.335700  0.651600  1.0  0.1491
  H  H82  1  0.455800  0.299200  0.607700  1.0  0.144
  H  H83  1  0.586400  0.313400  0.658000  1.0  0.1381
  H  H84  1  0.823100  0.314500  0.349500  1.0  0.1217
  H  H85  1  0.094900  0.269600  0.384000  1.0  0.1433
  H  H86  1  0.997800  0.277300  0.318000  1.0  0.1062
  H  H87  1  0.922500  0.228000  0.293600  1.0  0.1165
  H  H88  1  0.076900  0.221500  0.325300  1.0  0.1396
  H  H89  1  0.986000  0.174600  0.372100  1.0  0.1046
  H  H90  1  0.971000  0.130600  0.428500  1.0  0.1059
  H  H91  1  0.786000  0.133100  0.634600  1.0  0.0997
  H  H92  1  0.679800  0.176700  0.692100  1.0  0.1305
  H  H93  1  0.747800  0.210700  0.678000  1.0  0.1294
  H  H94  1  0.603600  0.198100  0.637900  1.0  0.1365
  H  H95  1  0.757200  0.599100  0.862000  1.0  0.1133
  H  H96  1  0.656800  0.601600  0.747600  1.0  0.1083
  H  H97  1  0.648400  0.503200  0.707200  1.0  0.0992
  H  H98  1  0.748300  0.500600  0.820800  1.0  0.1174
  H  H99  1  0.306000  0.497200  0.916600  1.0  0.1021
  H  H100  1  0.499000  0.540000  0.098200  1.0  0.0933
  H  H101  1  0.663700  0.901000  0.762200  1.0  0.1258
  H  H102  1  0.764600  0.900500  0.646200  1.0  0.1116
  H  H103  1  0.749800  0.999100  0.672700  1.0  0.1082
  H  H104  1  0.641000  0.999500  0.785900  1.0  0.1138
  H  H105  1  0.985600  0.625100  0.924100  1.0  0.0601
  H  H106  1  0.238000  0.629900  0.083000  1.0  0.1369
  H  H107  1  0.950100  0.664300  0.848400  1.0  0.1492
  H  H108  1  0.955800  0.700800  0.892300  1.0  0.1429
  H  H109  1  0.086400  0.686600  0.842000  1.0  0.1371
  H  H110  1  0.323100  0.685500  0.150500  1.0  0.1215
  H  H111  1  0.594900  0.730400  0.116000  1.0  0.1432
  H  H112  1  0.497800  0.722700  0.182000  1.0  0.1045
  H  H113  1  0.422500  0.772000  0.206400  1.0  0.1174
  H  H114  1  0.576900  0.778500  0.174700  1.0  0.1391
  H  H115  1  0.486000  0.825400  0.127900  1.0  0.1059
  H  H116  1  0.471000  0.869400  0.071500  1.0  0.1064
  H  H117  1  0.286000  0.866900  0.865400  1.0  0.0984
  H  H118  1  0.179800  0.823300  0.807900  1.0  0.1294
  H  H119  1  0.247800  0.789300  0.822000  1.0  0.1294
  H  H120  1  0.103600  0.801900  0.862100  1.0  0.1366
  C  C121  1  0.652700  0.548010  0.419620  1.0  0.704
  C  C122  1  0.732300  0.549390  0.349220  1.0  -0.1113
  C  C123  1  0.763200  0.579500  0.329540  1.0  -0.0686
  C  C124  1  0.824500  0.580860  0.262000  1.0  -0.0504
  C  C125  1  0.859000  0.552680  0.214850  1.0  -0.1511
  C  C126  1  0.829100  0.522970  0.238500  1.0  -0.031
  C  C127  1  0.768300  0.521250  0.305440  1.0  -0.0996
  C  C128  1  0.921700  0.552960  0.139840  1.0  0.6748
  C  C129  1  0.234500  0.545010  0.529350  1.0  0.659
  C  C130  1  0.113800  0.521760  0.514510  1.0  -0.1741
  C  C131  1  0.110000  0.497890  0.451320  1.0  -0.1047
  C  C132  1  0.001900  0.522960  0.561400  1.0  -0.1156
  C  C133  1  0.918100  0.950970  0.359090  1.0  0.7046
  C  C134  1  0.856200  0.950900  0.283940  1.0  -0.1288
  C  C135  1  0.819600  0.920900  0.243600  1.0  -0.0823
  C  C136  1  0.757800  0.920870  0.175300  1.0  -0.0483
  C  C137  1  0.728200  0.949430  0.148490  1.0  -0.1301
  C  C138  1  0.767600  0.979050  0.190540  1.0  -0.0589
  C  C139  1  0.831700  0.979250  0.257720  1.0  -0.0368
  C  C140  1  0.647700  0.949340  0.079020  1.0  0.7191
  C  C141  1  0.267200  0.956660  0.465300  1.0  0.6401
  C  C142  1  0.388800  0.979610  0.483030  1.0  -0.0877
  C  C143  1  0.384200  0.000720  0.549090  1.0  0.0272
  C  C144  1  0.499600  0.978350  0.433700  1.0  0.0133
  C  C145  1  0.450000  0.637750  0.456300  1.0  0.1231
  C  C146  1  0.419900  0.667860  0.442800  1.0  0.0224
  C  C147  1  0.330900  0.688710  0.487000  1.0  0.2318
  C  C148  1  0.267600  0.674130  0.545900  1.0  -0.0385
  C  C149  1  0.308100  0.642700  0.556000  1.0  0.1223
  C  C150  1  0.488400  0.681150  0.375000  1.0  -0.3788
  C  C151  1  0.180600  0.691870  0.603100  1.0  0.1094
  C  C152  1  0.000000  0.734080  0.638300  1.0  0.0029
  C  C153  1  0.016000  0.768010  0.662500  1.0  -0.0753
  C  C154  1  0.059000  0.811100  0.588700  1.0  0.067
  C  C155  1  0.109100  0.825090  0.525400  1.0  -0.1156
  C  C156  1  0.075100  0.858710  0.523600  1.0  0.1457
  C  C157  1  0.182000  0.858600  0.412300  1.0  0.0875
  C  C158  1  0.220800  0.826600  0.408800  1.0  0.0697
  C  C159  1  0.188800  0.808230  0.466900  1.0  0.2526
  C  C160  1  0.304900  0.808650  0.344400  1.0  -0.3783
  C  C161  1  0.152700  0.451990  0.080380  1.0  0.7038
  C  C162  1  0.232300  0.450610  0.150780  1.0  -0.1103
  C  C163  1  0.263200  0.420500  0.170460  1.0  -0.0695
  C  C164  1  0.324500  0.419140  0.238000  1.0  -0.052
  C  C165  1  0.359000  0.447320  0.285150  1.0  -0.1518
  C  C166  1  0.329100  0.477030  0.261500  1.0  -0.0301
  C  C167  1  0.268300  0.478750  0.194560  1.0  -0.1004
  C  C168  1  0.421700  0.447040  0.360160  1.0  0.675
  C  C169  1  0.734500  0.454990  0.970650  1.0  0.6583
  C  C170  1  0.613800  0.478240  0.985490  1.0  -0.1765
  C  C171  1  0.610000  0.502110  0.048680  1.0  -0.1035
  C  C172  1  0.501900  0.477040  0.938600  1.0  -0.1138
  C  C173  1  0.418100  0.049030  0.140910  1.0  0.7057
  C  C174  1  0.356200  0.049100  0.216060  1.0  -0.1295
  C  C175  1  0.319600  0.079100  0.256400  1.0  -0.0821
  C  C176  1  0.257800  0.079130  0.324700  1.0  -0.0461
  C  C177  1  0.228200  0.050570  0.351510  1.0  -0.13
  C  C178  1  0.267600  0.020950  0.309460  1.0  -0.0598
  C  C179  1  0.331700  0.020750  0.242280  1.0  -0.0373
  C  C180  1  0.147700  0.050660  0.420980  1.0  0.7197
  C  C181  1  0.767200  0.043340  0.034700  1.0  0.6397
  C  C182  1  0.888800  0.020390  0.016970  1.0  -0.0868
  C  C183  1  0.884200  0.999280  0.950910  1.0  0.0293
  C  C184  1  0.999600  0.021650  0.066300  1.0  0.011
  C  C185  1  0.950000  0.362250  0.043700  1.0  0.1235
  C  C186  1  0.919900  0.332140  0.057200  1.0  0.0223
  C  C187  1  0.830900  0.311290  0.013000  1.0  0.2318
  C  C188  1  0.767600  0.325870  0.954100  1.0  -0.0375
  C  C189  1  0.808100  0.357300  0.944000  1.0  0.1232
  C  C190  1  0.988400  0.318850  0.125000  1.0  -0.3779
  C  C191  1  0.680600  0.308130  0.896900  1.0  0.1106
  C  C192  1  0.500000  0.265920  0.861700  1.0  0.004
  C  C193  1  0.516000  0.231990  0.837500  1.0  -0.0763
  C  C194  1  0.559000  0.188900  0.911300  1.0  0.0689
  C  C195  1  0.609100  0.174910  0.974600  1.0  -0.1151
  C  C196  1  0.575100  0.141290  0.976400  1.0  0.1441
  C  C197  1  0.682000  0.141400  0.087700  1.0  0.09
  C  C198  1  0.720800  0.173400  0.091200  1.0  0.0718
  C  C199  1  0.688800  0.191770  0.033100  1.0  0.2519
  C  C200  1  0.804900  0.191350  0.155600  1.0  -0.3784
  C  C201  1  0.347300  0.451990  0.580380  1.0  0.704
  C  C202  1  0.267700  0.450610  0.650780  1.0  -0.11
  C  C203  1  0.236800  0.420500  0.670460  1.0  -0.0685
  C  C204  1  0.175500  0.419140  0.738000  1.0  -0.0524
  C  C205  1  0.141000  0.447320  0.785150  1.0  -0.1506
  C  C206  1  0.170900  0.477030  0.761500  1.0  -0.0309
  C  C207  1  0.231700  0.478750  0.694560  1.0  -0.1007
  C  C208  1  0.078300  0.447040  0.860160  1.0  0.6751
  C  C209  1  0.765500  0.454990  0.470650  1.0  0.6593
  C  C210  1  0.886200  0.478240  0.485490  1.0  -0.1766
  C  C211  1  0.890000  0.502110  0.548680  1.0  -0.1071
  C  C212  1  0.998100  0.477040  0.438600  1.0  -0.1147
  C  C213  1  0.081900  0.049030  0.640910  1.0  0.7055
  C  C214  1  0.143800  0.049100  0.716060  1.0  -0.129
  C  C215  1  0.180400  0.079100  0.756400  1.0  -0.083
  C  C216  1  0.242200  0.079130  0.824700  1.0  -0.046
  C  C217  1  0.271800  0.050570  0.851510  1.0  -0.1298
  C  C218  1  0.232400  0.020950  0.809460  1.0  -0.0598
  C  C219  1  0.168300  0.020750  0.742280  1.0  -0.0372
  C  C220  1  0.352300  0.050660  0.920980  1.0  0.72
  C  C221  1  0.732800  0.043340  0.534700  1.0  0.6404
  C  C222  1  0.611200  0.020390  0.516970  1.0  -0.094
  C  C223  1  0.615800  0.999280  0.450910  1.0  0.0288
  C  C224  1  0.500400  0.021650  0.566300  1.0  0.0102
  C  C225  1  0.550000  0.362250  0.543700  1.0  0.124
  C  C226  1  0.580100  0.332140  0.557200  1.0  0.0217
  C  C227  1  0.669100  0.311290  0.513000  1.0  0.2319
  C  C228  1  0.732400  0.325870  0.454100  1.0  -0.0388
  C  C229  1  0.691900  0.357300  0.444000  1.0  0.1226
  C  C230  1  0.511600  0.318850  0.625000  1.0  -0.377
  C  C231  1  0.819400  0.308130  0.396900  1.0  0.1102
  C  C232  1  0.000000  0.265920  0.361700  1.0  0.0029
  C  C233  1  0.984000  0.231990  0.337500  1.0  -0.0771
  C  C234  1  0.941000  0.188900  0.411300  1.0  0.07
  C  C235  1  0.890900  0.174910  0.474600  1.0  -0.115
  C  C236  1  0.924900  0.141290  0.476400  1.0  0.1441
  C  C237  1  0.818000  0.141400  0.587700  1.0  0.0888
  C  C238  1  0.779200  0.173400  0.591200  1.0  0.0721
  C  C239  1  0.811200  0.191770  0.533100  1.0  0.2523
  C  C240  1  0.695100  0.191350  0.655600  1.0  -0.3781
  C  C241  1  0.847300  0.548010  0.919620  1.0  0.7041
  C  C242  1  0.767700  0.549390  0.849220  1.0  -0.1112
  C  C243  1  0.736800  0.579500  0.829540  1.0  -0.0685
  C  C244  1  0.675500  0.580860  0.762000  1.0  -0.0512
  C  C245  1  0.641000  0.552680  0.714850  1.0  -0.1501
  C  C246  1  0.670900  0.522970  0.738500  1.0  -0.0313
  C  C247  1  0.731700  0.521250  0.805440  1.0  -0.0998
  C  C248  1  0.578300  0.552960  0.639840  1.0  0.6751
  C  C249  1  0.265500  0.545010  0.029350  1.0  0.6595
  C  C250  1  0.386200  0.521760  0.014510  1.0  -0.1747
  C  C251  1  0.390000  0.497890  0.951320  1.0  -0.1077
  C  C252  1  0.498100  0.522960  0.061400  1.0  -0.1162
  C  C253  1  0.581900  0.950970  0.859090  1.0  0.7048
  C  C254  1  0.643800  0.950900  0.783940  1.0  -0.1288
  C  C255  1  0.680400  0.920900  0.743600  1.0  -0.0823
  C  C256  1  0.742200  0.920870  0.675300  1.0  -0.0475
  C  C257  1  0.771800  0.949430  0.648490  1.0  -0.1294
  C  C258  1  0.732400  0.979050  0.690540  1.0  -0.0589
  C  C259  1  0.668300  0.979250  0.757720  1.0  -0.0374
  C  C260  1  0.852300  0.949340  0.579020  1.0  0.7193
  C  C261  1  0.232800  0.956660  0.965300  1.0  0.6393
  C  C262  1  0.111200  0.979610  0.983030  1.0  -0.0948
  C  C263  1  0.115800  0.000720  0.049090  1.0  0.0263
  C  C264  1  0.000400  0.978350  0.933700  1.0  0.0128
  C  C265  1  0.050000  0.637750  0.956300  1.0  0.1238
  C  C266  1  0.080100  0.667860  0.942800  1.0  0.0218
  C  C267  1  0.169100  0.688710  0.987000  1.0  0.2319
  C  C268  1  0.232400  0.674130  0.045900  1.0  -0.0397
  C  C269  1  0.191900  0.642700  0.056000  1.0  0.122
  C  C270  1  0.011600  0.681150  0.875000  1.0  -0.3757
  C  C271  1  0.319400  0.691870  0.103100  1.0  0.1091
  C  C272  1  0.500000  0.734080  0.138300  1.0  0.0029
  C  C273  1  0.484000  0.768010  0.162500  1.0  -0.0758
  C  C274  1  0.441000  0.811100  0.088700  1.0  0.0683
  C  C275  1  0.390900  0.825090  0.025400  1.0  -0.1155
  C  C276  1  0.424900  0.858710  0.023600  1.0  0.1462
  C  C277  1  0.318000  0.858600  0.912300  1.0  0.0872
  C  C278  1  0.279200  0.826600  0.908800  1.0  0.0696
  C  C279  1  0.311200  0.808230  0.966900  1.0  0.2528
  C  C280  1  0.195100  0.808650  0.844400  1.0  -0.3779
  N  N281  1  0.397000  0.624120  0.511420  1.0  -0.3169
  N  N282  1  0.109800  0.874560  0.469900  1.0  -0.2395
  N  N283  1  0.101700  0.718670  0.586700  1.0  -0.3011
  N  N284  1  0.086000  0.781860  0.595890  1.0  -0.3044
  N  N285  1  0.897000  0.375880  0.988580  1.0  -0.317
  N  N286  1  0.609800  0.125440  0.030100  1.0  -0.2381
  N  N287  1  0.601700  0.281330  0.913300  1.0  -0.3014
  N  N288  1  0.586000  0.218140  0.904110  1.0  -0.304
  N  N289  1  0.603000  0.375880  0.488580  1.0  -0.3174
  N  N290  1  0.890200  0.125440  0.530100  1.0  -0.2382
  N  N291  1  0.898300  0.281330  0.413300  1.0  -0.3015
  N  N292  1  0.914000  0.218140  0.404110  1.0  -0.3047
  N  N293  1  0.103000  0.624120  0.011420  1.0  -0.3171
  N  N294  1  0.390200  0.874560  0.969900  1.0  -0.2394
  N  N295  1  0.398300  0.718670  0.086700  1.0  -0.3012
  N  N296  1  0.414000  0.781860  0.095890  1.0  -0.3051
  O  O297  1  0.608600  0.574320  0.454200  1.0  -0.5885
  O  O298  1  0.636500  0.519530  0.437700  1.0  -0.6126
  O  O299  1  0.930900  0.526850  0.098780  1.0  -0.5953
  O  O300  1  0.955600  0.581000  0.124870  1.0  -0.577
  O  O301  1  0.347200  0.539170  0.490370  1.0  -0.6799
  O  O302  1  0.224500  0.569490  0.576660  1.0  -0.6501
  O  O303  1  0.941700  0.923350  0.379920  1.0  -0.6011
  O  O304  1  0.943100  0.978770  0.395970  1.0  -0.6292
  O  O305  1  0.642400  0.975390  0.052290  1.0  -0.6184
  O  O306  1  0.592000  0.922850  0.051180  1.0  -0.585
  O  O307  1  0.153900  0.960540  0.505100  1.0  -0.7078
  O  O308  1  0.275200  0.933130  0.415450  1.0  -0.6018
  O  O309  1  0.300800  0.717500  0.470690  1.0  -0.5774
  O  O310  1  0.229800  0.778520  0.463120  1.0  -0.5719
  O  O311  1  0.108600  0.425680  0.045800  1.0  -0.5867
  O  O312  1  0.136500  0.480470  0.062300  1.0  -0.6122
  O  O313  1  0.430900  0.473150  0.401220  1.0  -0.5956
  O  O314  1  0.455600  0.419000  0.375130  1.0  -0.5774
  O  O315  1  0.847200  0.460830  0.009630  1.0  -0.6799
  O  O316  1  0.724500  0.430510  0.923340  1.0  -0.6531
  O  O317  1  0.441700  0.076650  0.120080  1.0  -0.6006
  O  O318  1  0.443100  0.021230  0.104030  1.0  -0.6279
  O  O319  1  0.142400  0.024610  0.447710  1.0  -0.618
  O  O320  1  0.092000  0.077150  0.448820  1.0  -0.585
  O  O321  1  0.653900  0.039460  0.994900  1.0  -0.7086
  O  O322  1  0.775200  0.066870  0.084550  1.0  -0.602
  O  O323  1  0.800800  0.282500  0.029310  1.0  -0.5777
  O  O324  1  0.729800  0.221480  0.036880  1.0  -0.5717
  O  O325  1  0.391400  0.425680  0.545800  1.0  -0.5873
  O  O326  1  0.363500  0.480470  0.562300  1.0  -0.6128
  O  O327  1  0.069100  0.473150  0.901220  1.0  -0.5949
  O  O328  1  0.044400  0.419000  0.875130  1.0  -0.5764
  O  O329  1  0.652800  0.460830  0.509630  1.0  -0.6794
  O  O330  1  0.775500  0.430510  0.423340  1.0  -0.6535
  O  O331  1  0.058300  0.076650  0.620080  1.0  -0.6002
  O  O332  1  0.056900  0.021230  0.604030  1.0  -0.6266
  O  O333  1  0.357600  0.024610  0.947710  1.0  -0.6183
  O  O334  1  0.408000  0.077150  0.948820  1.0  -0.586
  O  O335  1  0.846100  0.039460  0.494900  1.0  -0.7089
  O  O336  1  0.724800  0.066870  0.584550  1.0  -0.6022
  O  O337  1  0.699200  0.282500  0.529310  1.0  -0.5776
  O  O338  1  0.770200  0.221480  0.536880  1.0  -0.5723
  O  O339  1  0.891400  0.574320  0.954200  1.0  -0.5892
  O  O340  1  0.863500  0.519530  0.937700  1.0  -0.6131
  O  O341  1  0.569100  0.526850  0.598780  1.0  -0.5947
  O  O342  1  0.544400  0.581000  0.624870  1.0  -0.5754
  O  O343  1  0.152800  0.539170  0.990370  1.0  -0.6796
  O  O344  1  0.275500  0.569490  0.076660  1.0  -0.6499
  O  O345  1  0.558300  0.923350  0.879920  1.0  -0.6013
  O  O346  1  0.556900  0.978770  0.895970  1.0  -0.6281
  O  O347  1  0.857600  0.975390  0.552290  1.0  -0.6191
  O  O348  1  0.908000  0.922850  0.551180  1.0  -0.5855
  O  O349  1  0.346100  0.960540  0.005100  1.0  -0.7084
  O  O350  1  0.224800  0.933130  0.915450  1.0  -0.6021
  O  O351  1  0.199200  0.717500  0.970690  1.0  -0.5775
  O  O352  1  0.270200  0.778520  0.963120  1.0  -0.5722
