# generated using pymatgen
data_CoH6(C3N)4
_symmetry_space_group_name_H-M   'P 1'
_cell_length_a   13.25290000
_cell_length_b   13.25300000
_cell_length_c   13.99500000
_cell_angle_alpha   90.00000000
_cell_angle_beta   90.00000000
_cell_angle_gamma   90.00000000
_symmetry_Int_Tables_number   1
_chemical_formula_structural   CoH6(C3N)4
_chemical_formula_sum   'Co4 H24 C48 N16'
_cell_volume   2458.09136838
_cell_formula_units_Z   4
loop_
 _symmetry_equiv_pos_site_id
 _symmetry_equiv_pos_as_xyz
  1  'x, y, z'
loop_
 _atom_site_type_symbol
 _atom_site_label
 _atom_site_symmetry_multiplicity
 _atom_site_fract_x
 _atom_site_fract_y
 _atom_site_fract_z
 _atom_site_occupancy
 _atom_site_charge
  Co  Co1  1  0.970580  0.002580  0.872700  1.0  0.6929
  Co  Co2  1  0.029420  0.997420  0.372700  1.0  0.6921
  Co  Co3  1  0.029420  0.002580  0.627300  1.0  0.6935
  Co  Co4  1  0.970580  0.997420  0.127300  1.0  0.6918
  H  H5  1  0.729400  0.997700  0.861400  1.0  0.086
  H  H6  1  0.919200  0.765100  0.867500  1.0  0.0982
  H  H7  1  0.950200  0.587000  0.879700  1.0  0.0804
  H  H8  1  0.947400  0.417400  0.887100  1.0  0.1233
  H  H9  1  0.558900  0.004800  0.853400  1.0  0.1217
  H  H10  1  0.386600  0.004700  0.856900  1.0  0.0955
  H  H11  1  0.270600  0.002300  0.361400  1.0  0.0857
  H  H12  1  0.080800  0.234900  0.367500  1.0  0.0976
  H  H13  1  0.049800  0.413000  0.379700  1.0  0.0809
  H  H14  1  0.052600  0.582600  0.387100  1.0  0.123
  H  H15  1  0.441100  0.995200  0.353400  1.0  0.1222
  H  H16  1  0.613400  0.995300  0.356900  1.0  0.0959
  H  H17  1  0.270600  0.997700  0.638600  1.0  0.0858
  H  H18  1  0.080800  0.765100  0.632500  1.0  0.0971
  H  H19  1  0.049800  0.587000  0.620300  1.0  0.0811
  H  H20  1  0.052600  0.417400  0.612900  1.0  0.1225
  H  H21  1  0.441100  0.004800  0.646600  1.0  0.1229
  H  H22  1  0.613400  0.004700  0.643100  1.0  0.096
  H  H23  1  0.729400  0.002300  0.138600  1.0  0.0861
  H  H24  1  0.919200  0.234900  0.132500  1.0  0.0971
  H  H25  1  0.950200  0.413000  0.120300  1.0  0.0807
  H  H26  1  0.947400  0.582600  0.112900  1.0  0.1227
  H  H27  1  0.558900  0.995200  0.146600  1.0  0.1222
  H  H28  1  0.386600  0.995300  0.143100  1.0  0.0958
  C  C29  1  0.751600  0.998000  0.925900  1.0  0.072
  C  C30  1  0.957600  0.785300  0.813500  1.0  0.0613
  C  C31  1  0.971900  0.553700  0.823200  1.0  -0.0998
  C  C32  1  0.969200  0.449700  0.830100  1.0  -0.1256
  C  C33  1  0.523800  0.002900  0.912600  1.0  -0.1446
  C  C34  1  0.422300  0.002800  0.915700  1.0  -0.0721
  C  C35  1  0.185900  0.024800  0.922500  1.0  -0.0713
  C  C36  1  0.970700  0.222900  0.825200  1.0  -0.1763
  C  C37  1  0.248400  0.002000  0.425900  1.0  0.0726
  C  C38  1  0.042400  0.214700  0.313500  1.0  0.0614
  C  C39  1  0.028100  0.446300  0.323200  1.0  -0.1011
  C  C40  1  0.030800  0.550300  0.330100  1.0  -0.1248
  C  C41  1  0.476200  0.997100  0.412600  1.0  -0.1449
  C  C42  1  0.577700  0.997200  0.415700  1.0  -0.0727
  C  C43  1  0.814100  0.975200  0.422500  1.0  -0.0729
  C  C44  1  0.029300  0.777100  0.325200  1.0  -0.1758
  C  C45  1  0.248400  0.998000  0.574100  1.0  0.0727
  C  C46  1  0.042400  0.785300  0.686500  1.0  0.0605
  C  C47  1  0.028100  0.553700  0.676800  1.0  -0.0999
  C  C48  1  0.030800  0.449700  0.669900  1.0  -0.1255
  C  C49  1  0.476200  0.002900  0.587400  1.0  -0.1443
  C  C50  1  0.577700  0.002800  0.584300  1.0  -0.0708
  C  C51  1  0.814100  0.024800  0.577500  1.0  -0.0759
  C  C52  1  0.029300  0.222900  0.674800  1.0  -0.1722
  C  C53  1  0.751600  0.002000  0.074100  1.0  0.0721
  C  C54  1  0.957600  0.214700  0.186500  1.0  0.0619
  C  C55  1  0.971900  0.446300  0.176800  1.0  -0.1024
  C  C56  1  0.969200  0.550300  0.169900  1.0  -0.1255
  C  C57  1  0.523800  0.997100  0.087400  1.0  -0.1448
  C  C58  1  0.422300  0.997200  0.084300  1.0  -0.0722
  C  C59  1  0.185900  0.975200  0.077500  1.0  -0.0725
  C  C60  1  0.970700  0.777100  0.174800  1.0  -0.1721
  C  C61  1  0.000000  0.720200  0.750000  1.0  -0.0668
  C  C62  1  0.000000  0.620000  0.750000  1.0  0.0741
  C  C63  1  0.000000  0.393200  0.750000  1.0  0.0797
  C  C64  1  0.000000  0.288000  0.750000  1.0  0.0707
  C  C65  1  0.000000  0.279800  0.250000  1.0  -0.066
  C  C66  1  0.000000  0.380000  0.250000  1.0  0.074
  C  C67  1  0.000000  0.606800  0.250000  1.0  0.0803
  C  C68  1  0.000000  0.712000  0.250000  1.0  0.0706
  C  C69  1  0.687900  0.000000  0.000000  1.0  -0.1055
  C  C70  1  0.575900  0.000000  0.000000  1.0  0.0788
  C  C71  1  0.366300  0.000000  0.000000  1.0  0.0248
  C  C72  1  0.254600  0.000000  0.000000  1.0  -0.0318
  C  C73  1  0.312100  0.000000  0.500000  1.0  -0.0993
  C  C74  1  0.424100  0.000000  0.500000  1.0  0.078
  C  C75  1  0.633700  0.000000  0.500000  1.0  0.0259
  C  C76  1  0.745400  0.000000  0.500000  1.0  -0.03
  N  N77  1  0.976100  0.877100  0.791300  1.0  -0.2248
  N  N78  1  0.847900  0.994800  0.949800  1.0  -0.2488
  N  N79  1  0.094700  0.019300  0.953600  1.0  -0.1691
  N  N80  1  0.977300  0.121300  0.793100  1.0  -0.1625
  N  N81  1  0.023900  0.122900  0.291300  1.0  -0.2261
  N  N82  1  0.152100  0.005200  0.449800  1.0  -0.2473
  N  N83  1  0.905300  0.980700  0.453600  1.0  -0.174
  N  N84  1  0.022700  0.878700  0.293100  1.0  -0.1616
  N  N85  1  0.023900  0.877100  0.708700  1.0  -0.2247
  N  N86  1  0.152100  0.994800  0.550200  1.0  -0.2486
  N  N87  1  0.905300  0.019300  0.546400  1.0  -0.1719
  N  N88  1  0.022700  0.121300  0.706900  1.0  -0.1614
  N  N89  1  0.976100  0.122900  0.208700  1.0  -0.226
  N  N90  1  0.847900  0.005200  0.050200  1.0  -0.2482
  N  N91  1  0.094700  0.980700  0.046400  1.0  -0.1669
  N  N92  1  0.977300  0.878700  0.206900  1.0  -0.1609
