# generated using pymatgen
data_CoH45(C5N)10
_symmetry_space_group_name_H-M   'P 1'
_cell_length_a   8.77960000
_cell_length_b   14.85700000
_cell_length_c   21.62100000
_cell_angle_alpha   72.21200000
_cell_angle_beta   81.68600000
_cell_angle_gamma   83.57200000
_symmetry_Int_Tables_number   1
_chemical_formula_structural   CoH45(C5N)10
_chemical_formula_sum   'Co2 H90 C100 N20'
_cell_volume   2650.27962532
_cell_formula_units_Z   2
loop_
 _symmetry_equiv_pos_site_id
 _symmetry_equiv_pos_as_xyz
  1  'x, y, z'
loop_
 _atom_site_type_symbol
 _atom_site_label
 _atom_site_symmetry_multiplicity
 _atom_site_fract_x
 _atom_site_fract_y
 _atom_site_fract_z
 _atom_site_occupancy
 _atom_site_charge
  Co  Co1  1  0.000000  0.000000  0.500000  1.0  0.6675
  Co  Co2  1  0.000000  0.000000  0.000000  1.0  0.7359
  H  H3  1  0.996900  0.822000  0.634400  1.0  0.0831
  H  H4  1  0.854900  0.813600  0.473200  1.0  0.0829
  H  H5  1  0.861500  0.652900  0.548300  1.0  0.1055
  H  H6  1  0.002900  0.651900  0.702300  1.0  0.0871
  H  H7  1  0.028300  0.581600  0.659800  1.0  0.1007
  H  H8  1  0.839500  0.468800  0.677800  1.0  0.0717
  H  H9  1  0.721400  0.695300  0.740000  1.0  0.0958
  H  H10  1  0.605000  0.408200  0.725000  1.0  0.093
  H  H11  1  0.489700  0.636700  0.789000  1.0  0.0926
  H  H12  1  0.420500  0.341800  0.803800  1.0  0.0847
  H  H13  1  0.247100  0.607700  0.786500  1.0  0.088
  H  H14  1  0.180800  0.287400  0.845500  1.0  0.0833
  H  H15  1  0.010400  0.554400  0.828400  1.0  0.0984
  H  H16  1  0.876000  0.402700  0.909000  1.0  0.1128
  H  H17  1  0.835700  0.419500  0.837900  1.0  0.1001
  H  H18  1  0.976400  0.226200  0.969300  1.0  0.0889
  H  H19  1  0.804400  0.266900  0.803900  1.0  0.1144
  H  H20  1  0.834200  0.096600  0.858200  1.0  0.0836
  H  H21  1  0.864300  0.085800  0.622200  1.0  0.0779
  H  H22  1  0.265900  0.946300  0.604800  1.0  0.0924
  H  H23  1  0.265400  0.017000  0.691200  1.0  0.1011
  H  H24  1  0.044800  0.108900  0.755100  1.0  0.0886
  H  H25  1  0.892200  0.144300  0.722200  1.0  0.0832
  H  H26  1  0.917400  0.279000  0.612200  1.0  0.0902
  H  H27  1  0.242800  0.215400  0.733500  1.0  0.0929
  H  H28  1  0.022200  0.416900  0.556200  1.0  0.078
  H  H29  1  0.346900  0.355200  0.680300  1.0  0.0839
  H  H30  1  0.238100  0.494100  0.482700  1.0  0.0871
  H  H31  1  0.338200  0.523500  0.651300  1.0  0.0816
  H  H32  1  0.356300  0.629400  0.425900  1.0  0.0844
  H  H33  1  0.459500  0.656800  0.593800  1.0  0.1014
  H  H34  1  0.601700  0.743100  0.482800  1.0  0.0985
  H  H35  1  0.530000  0.745600  0.420000  1.0  0.0924
  H  H36  1  0.209400  0.800400  0.515000  1.0  0.0614
  H  H37  1  0.561600  0.930300  0.413000  1.0  0.0728
  H  H38  1  0.351600  0.051800  0.431700  1.0  0.096
  H  H39  1  0.731400  0.932900  0.933200  1.0  0.0773
  H  H40  1  0.723500  0.912900  0.117600  1.0  0.0891
  H  H41  1  0.486800  0.852400  0.106100  1.0  0.1079
  H  H42  1  0.460400  0.886400  0.930700  1.0  0.1102
  H  H43  1  0.348200  0.869800  0.995800  1.0  0.0971
  H  H44  1  0.362500  0.757300  0.906700  1.0  0.1079
  H  H45  1  0.525200  0.699400  0.074400  1.0  0.0604
  H  H46  1  0.387500  0.597500  0.916400  1.0  0.0881
  H  H47  1  0.542300  0.541700  0.084600  1.0  0.0615
  H  H48  1  0.003100  0.178000  0.365600  1.0  0.0826
  H  H49  1  0.145100  0.186400  0.526800  1.0  0.0823
  H  H50  1  0.138500  0.347100  0.451700  1.0  0.1055
  H  H51  1  0.997100  0.348100  0.297700  1.0  0.0855
  H  H52  1  0.971700  0.418400  0.340200  1.0  0.1011
  H  H53  1  0.160500  0.531200  0.322200  1.0  0.0722
  H  H54  1  0.278600  0.304700  0.260000  1.0  0.0957
  H  H55  1  0.395000  0.591800  0.275000  1.0  0.0937
  H  H56  1  0.510300  0.363300  0.211000  1.0  0.0926
  H  H57  1  0.579500  0.658200  0.196200  1.0  0.0846
  H  H58  1  0.752900  0.392300  0.213500  1.0  0.0901
  H  H59  1  0.819200  0.712600  0.154500  1.0  0.083
  H  H60  1  0.989600  0.445600  0.171600  1.0  0.0979
  H  H61  1  0.124000  0.597300  0.091000  1.0  0.1144
  H  H62  1  0.164300  0.580500  0.162100  1.0  0.1
  H  H63  1  0.023600  0.773800  0.030700  1.0  0.0887
  H  H64  1  0.195600  0.733100  0.196100  1.0  0.1141
  H  H65  1  0.165800  0.903400  0.141800  1.0  0.0855
  H  H66  1  0.135700  0.914200  0.377800  1.0  0.0774
  H  H67  1  0.734100  0.053700  0.395200  1.0  0.0929
  H  H68  1  0.734600  0.983000  0.308800  1.0  0.1018
  H  H69  1  0.955200  0.891100  0.244900  1.0  0.0871
  H  H70  1  0.107800  0.855700  0.277800  1.0  0.0829
  H  H71  1  0.082600  0.721000  0.387800  1.0  0.0911
  H  H72  1  0.757200  0.784600  0.266500  1.0  0.093
  H  H73  1  0.977800  0.583100  0.443800  1.0  0.0782
  H  H74  1  0.653100  0.644800  0.319700  1.0  0.0841
  H  H75  1  0.761900  0.505900  0.517300  1.0  0.0872
  H  H76  1  0.661800  0.476500  0.348700  1.0  0.0819
  H  H77  1  0.643700  0.370600  0.574100  1.0  0.0835
  H  H78  1  0.540500  0.343200  0.406200  1.0  0.1023
  H  H79  1  0.398300  0.256900  0.517200  1.0  0.0995
  H  H80  1  0.470000  0.254400  0.580000  1.0  0.0928
  H  H81  1  0.790600  0.199600  0.485000  1.0  0.062
  H  H82  1  0.438400  0.069700  0.587000  1.0  0.0721
  H  H83  1  0.648400  0.948200  0.568300  1.0  0.0967
  H  H84  1  0.268600  0.067100  0.066800  1.0  0.0759
  H  H85  1  0.276500  0.087100  0.882400  1.0  0.0906
  H  H86  1  0.513200  0.147600  0.893900  1.0  0.1077
  H  H87  1  0.539600  0.113600  0.069300  1.0  0.1113
  H  H88  1  0.651800  0.130200  0.004200  1.0  0.0969
  H  H89  1  0.637500  0.242700  0.093300  1.0  0.1075
  H  H90  1  0.474800  0.300600  0.925600  1.0  0.0613
  H  H91  1  0.612500  0.402500  0.083600  1.0  0.0878
  H  H92  1  0.457700  0.458300  0.915400  1.0  0.0624
  C  C93  1  0.961900  0.800400  0.603200  1.0  0.1419
  C  C94  1  0.884400  0.795700  0.515200  1.0  -0.0328
  C  C95  1  0.887800  0.706700  0.556600  1.0  -0.1625
  C  C96  1  0.957400  0.630300  0.671500  1.0  -0.0854
  C  C97  1  0.806100  0.588200  0.704000  1.0  0.0244
  C  C98  1  0.768600  0.502900  0.699900  1.0  -0.0965
  C  C99  1  0.698500  0.637200  0.737200  1.0  -0.12
  C  C100  1  0.627100  0.466400  0.728100  1.0  -0.1235
  C  C101  1  0.558300  0.602700  0.766000  1.0  -0.1616
  C  C102  1  0.517900  0.517000  0.761200  1.0  0.0446
  C  C103  1  0.363300  0.480800  0.789800  1.0  0.0645
  C  C104  1  0.337900  0.385200  0.808500  1.0  -0.1144
  C  C105  1  0.234900  0.543000  0.798300  1.0  -0.161
  C  C106  1  0.193400  0.352000  0.833800  1.0  -0.1707
  C  C107  1  0.092700  0.511000  0.823400  1.0  -0.1644
  C  C108  1  0.067500  0.414600  0.841900  1.0  0.0823
  C  C109  1  0.906500  0.385100  0.869000  1.0  -0.1264
  C  C110  1  0.938100  0.214600  0.934800  1.0  0.1236
  C  C111  1  0.842800  0.237900  0.843700  1.0  -0.178
  C  C112  1  0.860200  0.144100  0.873800  1.0  -0.0176
  C  C113  1  0.964700  0.060300  0.628100  1.0  0.1272
  C  C114  1  0.184800  0.983900  0.618900  1.0  -0.0462
  C  C115  1  0.184700  0.022600  0.666500  1.0  -0.1167
  C  C116  1  0.003700  0.136300  0.713500  1.0  -0.0679
  C  C117  1  0.067000  0.230900  0.679600  1.0  0.0548
  C  C118  1  0.004700  0.294200  0.625600  1.0  -0.1514
  C  C119  1  0.197700  0.256600  0.698000  1.0  -0.1456
  C  C120  1  0.067300  0.377000  0.592100  1.0  -0.1477
  C  C121  1  0.261400  0.340300  0.665600  1.0  -0.14
  C  C122  1  0.201700  0.404900  0.610400  1.0  0.0628
  C  C123  1  0.273800  0.492900  0.573800  1.0  0.0277
  C  C124  1  0.281900  0.526900  0.505200  1.0  -0.1391
  C  C125  1  0.342200  0.544300  0.606000  1.0  -0.124
  C  C126  1  0.353400  0.607700  0.471200  1.0  -0.1121
  C  C127  1  0.414400  0.624100  0.571600  1.0  -0.1058
  C  C128  1  0.422000  0.658000  0.503300  1.0  0.0959
  C  C129  1  0.505200  0.745800  0.465100  1.0  -0.1044
  C  C130  1  0.272600  0.849000  0.492300  1.0  0.203
  C  C131  1  0.465300  0.917900  0.436900  1.0  -0.0773
  C  C132  1  0.347300  0.986400  0.446900  1.0  -0.0606
  C  C133  1  0.699600  0.921400  0.977700  1.0  0.1401
  C  C134  1  0.694400  0.910100  0.078600  1.0  0.0033
  C  C135  1  0.564000  0.876200  0.072500  1.0  -0.1576
  C  C136  1  0.450400  0.852600  0.977100  1.0  -0.1213
  C  C137  1  0.464200  0.746900  0.985400  1.0  0.0657
  C  C138  1  0.410000  0.715100  0.941100  1.0  -0.2007
  C  C139  1  0.504500  0.680200  0.039500  1.0  -0.1434
  C  C140  1  0.425000  0.618000  0.947400  1.0  -0.1323
  C  C141  1  0.516600  0.584600  0.045500  1.0  -0.1918
  C  C142  1  0.492500  0.551500  0.997000  1.0  0.0317
  C  C143  1  0.038100  0.199600  0.396800  1.0  0.1421
  C  C144  1  0.115600  0.204300  0.484800  1.0  -0.0328
  C  C145  1  0.112200  0.293300  0.443400  1.0  -0.1613
  C  C146  1  0.042600  0.369700  0.328500  1.0  -0.0866
  C  C147  1  0.193900  0.411800  0.296000  1.0  0.0244
  C  C148  1  0.231400  0.497100  0.300100  1.0  -0.0967
  C  C149  1  0.301500  0.362800  0.262800  1.0  -0.1215
  C  C150  1  0.372900  0.533600  0.271900  1.0  -0.1234
  C  C151  1  0.441700  0.397300  0.234000  1.0  -0.1624
  C  C152  1  0.482100  0.483000  0.238800  1.0  0.0447
  C  C153  1  0.636700  0.519200  0.210200  1.0  0.0644
  C  C154  1  0.662100  0.614800  0.191500  1.0  -0.1147
  C  C155  1  0.765100  0.457000  0.201700  1.0  -0.1604
  C  C156  1  0.806600  0.648000  0.166200  1.0  -0.17
  C  C157  1  0.907300  0.489000  0.176600  1.0  -0.1663
  C  C158  1  0.932500  0.585400  0.158100  1.0  0.0826
  C  C159  1  0.093500  0.614900  0.131000  1.0  -0.1235
  C  C160  1  0.061900  0.785400  0.065200  1.0  0.1249
  C  C161  1  0.157200  0.762100  0.156300  1.0  -0.1776
  C  C162  1  0.139800  0.855900  0.126200  1.0  -0.0159
  C  C163  1  0.035300  0.939700  0.371900  1.0  0.1262
  C  C164  1  0.815200  0.016100  0.381100  1.0  -0.0459
  C  C165  1  0.815300  0.977400  0.333500  1.0  -0.1167
  C  C166  1  0.996300  0.863700  0.286500  1.0  -0.0662
  C  C167  1  0.933000  0.769100  0.320400  1.0  0.0542
  C  C168  1  0.995300  0.705800  0.374400  1.0  -0.1534
  C  C169  1  0.802300  0.743400  0.302000  1.0  -0.1443
  C  C170  1  0.932700  0.623000  0.407900  1.0  -0.149
  C  C171  1  0.738600  0.659700  0.334400  1.0  -0.14
  C  C172  1  0.798300  0.595100  0.389600  1.0  0.0629
  C  C173  1  0.726200  0.507100  0.426200  1.0  0.0279
  C  C174  1  0.718100  0.473100  0.494800  1.0  -0.1404
  C  C175  1  0.657800  0.455700  0.394000  1.0  -0.1219
  C  C176  1  0.646600  0.392300  0.528800  1.0  -0.1116
  C  C177  1  0.585600  0.375900  0.428400  1.0  -0.1045
  C  C178  1  0.578000  0.342000  0.496700  1.0  0.0965
  C  C179  1  0.494800  0.254200  0.534900  1.0  -0.1036
  C  C180  1  0.727400  0.151000  0.507700  1.0  0.2044
  C  C181  1  0.534700  0.082100  0.563100  1.0  -0.0806
  C  C182  1  0.652700  0.013600  0.553100  1.0  -0.0603
  C  C183  1  0.300400  0.078600  0.022300  1.0  0.1413
  C  C184  1  0.305600  0.089900  0.921400  1.0  0.002
  C  C185  1  0.436000  0.123800  0.927500  1.0  -0.1573
  C  C186  1  0.549600  0.147400  0.022900  1.0  -0.1214
  C  C187  1  0.535800  0.253100  0.014600  1.0  0.0656
  C  C188  1  0.590000  0.284900  0.058900  1.0  -0.2005
  C  C189  1  0.495500  0.319800  0.960500  1.0  -0.141
  C  C190  1  0.575000  0.382000  0.052600  1.0  -0.13
  C  C191  1  0.483400  0.415400  0.954500  1.0  -0.1932
  C  C192  1  0.507500  0.448500  0.003000  1.0  0.0317
  N  N193  1  0.931900  0.855800  0.545100  1.0  -0.4209
  N  N194  1  0.936400  0.710200  0.612500  1.0  0.0302
  N  N195  1  0.922600  0.129700  0.931200  1.0  -0.3975
  N  N196  1  0.892500  0.282200  0.883200  1.0  0.0288
  N  N197  1  0.044000  0.008300  0.593500  1.0  -0.405
  N  N198  1  0.045000  0.072500  0.672900  1.0  0.0086
  N  N199  1  0.229000  0.939400  0.482200  1.0  -0.3304
  N  N200  1  0.416100  0.834600  0.466800  1.0  0.0487
  N  N201  1  0.779300  0.940400  0.017700  1.0  -0.4179
  N  N202  1  0.565500  0.883300  0.007600  1.0  0.0259
  N  N203  1  0.068100  0.144200  0.454900  1.0  -0.422
  N  N204  1  0.063600  0.289800  0.387500  1.0  0.0315
  N  N205  1  0.077400  0.870300  0.068800  1.0  -0.3985
  N  N206  1  0.107500  0.717800  0.116800  1.0  0.0284
  N  N207  1  0.956000  0.991700  0.406500  1.0  -0.4055
  N  N208  1  0.955000  0.927500  0.327100  1.0  0.0077
  N  N209  1  0.771000  0.060600  0.517800  1.0  -0.3338
  N  N210  1  0.583900  0.165400  0.533200  1.0  0.0495
  N  N211  1  0.220700  0.059600  0.982300  1.0  -0.4198
  N  N212  1  0.434500  0.116700  0.992400  1.0  0.0263
