# generated using pymatgen
data_Gd2H13C25O14
_symmetry_space_group_name_H-M   'P 1'
_cell_length_a   8.35760000
_cell_length_b   10.52830000
_cell_length_c   17.46750000
_cell_angle_alpha   98.74100000
_cell_angle_beta   97.00800000
_cell_angle_gamma   100.52300000
_symmetry_Int_Tables_number   1
_chemical_formula_structural   Gd2H13C25O14
_chemical_formula_sum   'Gd4 H26 C50 O28'
_cell_volume   1475.74381853
_cell_formula_units_Z   2
loop_
 _symmetry_equiv_pos_site_id
 _symmetry_equiv_pos_as_xyz
  1  'x, y, z'
loop_
 _atom_site_type_symbol
 _atom_site_label
 _atom_site_symmetry_multiplicity
 _atom_site_fract_x
 _atom_site_fract_y
 _atom_site_fract_z
 _atom_site_occupancy
 _atom_site_charge
  Gd  Gd1  1  0.033340  0.189630  0.236740  1.0  2.2067
  Gd  Gd2  1  0.520290  0.135070  0.295280  1.0  2.1934
  Gd  Gd3  1  0.966660  0.810370  0.763260  1.0  2.1996
  Gd  Gd4  1  0.479710  0.864930  0.704720  1.0  2.1845
  H  H5  1  0.303600  0.067200  0.521900  1.0  0.1194
  H  H6  1  0.942300  0.150600  0.638700  1.0  0.098
  H  H7  1  0.888900  0.294700  0.558000  1.0  0.1239
  H  H8  1  0.038000  0.324100  0.456700  1.0  0.1204
  H  H9  1  0.217600  0.081900  0.999800  1.0  0.1209
  H  H10  1  0.615700  0.138700  0.892500  1.0  0.0972
  H  H11  1  0.764000  0.273300  0.004000  1.0  0.1109
  H  H12  1  0.640700  0.313400  0.114300  1.0  0.1156
  H  H13  1  0.184400  0.677900  0.264600  1.0  0.1223
  H  H14  1  0.032700  0.893000  0.109600  1.0  0.1161
  H  H15  1  0.880000  0.703100  0.030100  1.0  0.1077
  H  H16  1  0.872300  0.502500  0.067700  1.0  0.129
  H  H17  1  0.866000  0.443200  0.350600  1.0  0.0546
  H  H18  1  0.696400  0.932800  0.478100  1.0  0.1193
  H  H19  1  0.057700  0.849400  0.361300  1.0  0.0976
  H  H20  1  0.111100  0.705300  0.442000  1.0  0.1241
  H  H21  1  0.962000  0.675900  0.543300  1.0  0.1211
  H  H22  1  0.782400  0.918100  0.000200  1.0  0.1212
  H  H23  1  0.384300  0.861300  0.107500  1.0  0.0965
  H  H24  1  0.236000  0.726700  0.996000  1.0  0.1108
  H  H25  1  0.359300  0.686600  0.885700  1.0  0.115
  H  H26  1  0.815600  0.322100  0.735400  1.0  0.122
  H  H27  1  0.967300  0.107000  0.890400  1.0  0.1163
  H  H28  1  0.120000  0.296900  0.969900  1.0  0.1082
  H  H29  1  0.127700  0.497500  0.932300  1.0  0.1287
  H  H30  1  0.134000  0.556800  0.649400  1.0  0.0547
  C  C31  1  0.275900  0.207300  0.410100  1.0  0.7382
  C  C32  1  0.184100  0.196200  0.478400  1.0  -0.152
  C  C33  1  0.218900  0.112100  0.528700  1.0  0.0223
  C  C34  1  0.128700  0.094000  0.589400  1.0  -0.1852
  C  C35  1  0.004600  0.162700  0.598700  1.0  -0.0166
  C  C36  1  0.971700  0.248100  0.550200  1.0  -0.1016
  C  C37  1  0.060700  0.265900  0.489600  1.0  -0.0463
  C  C38  1  0.164100  0.998600  0.641600  1.0  0.7165
  C  C39  1  0.339500  0.227100  0.140200  1.0  0.7447
  C  C40  1  0.416300  0.202400  0.068200  1.0  -0.1237
  C  C41  1  0.327500  0.120000  0.000700  1.0  -0.0342
  C  C42  1  0.401500  0.094100  0.934800  1.0  -0.1806
  C  C43  1  0.565700  0.153900  0.936800  1.0  0.0081
  C  C44  1  0.654300  0.234700  0.003300  1.0  -0.0958
  C  C45  1  0.580300  0.259000  0.069200  1.0  -0.0602
  C  C46  1  0.313200  0.001400  0.863100  1.0  0.711
  C  C47  1  0.026500  0.438600  0.194000  1.0  0.6897
  C  C48  1  0.027400  0.569600  0.170900  1.0  -0.1402
  C  C49  1  0.122600  0.683000  0.217600  1.0  0.0018
  C  C50  1  0.126400  0.804700  0.194700  1.0  -0.0915
  C  C51  1  0.033000  0.812100  0.124800  1.0  -0.0603
  C  C52  1  0.940200  0.698100  0.077500  1.0  -0.0847
  C  C53  1  0.935800  0.578000  0.099700  1.0  -0.0296
  C  C54  1  0.240500  0.922300  0.242400  1.0  0.6814
  C  C55  1  0.784200  0.367400  0.336200  1.0  0.646
  C  C56  1  0.724100  0.792700  0.589900  1.0  0.7389
  C  C57  1  0.815900  0.803800  0.521600  1.0  -0.1533
  C  C58  1  0.781100  0.887900  0.471300  1.0  0.024
  C  C59  1  0.871300  0.906000  0.410600  1.0  -0.1856
  C  C60  1  0.995400  0.837300  0.401300  1.0  -0.0178
  C  C61  1  0.028300  0.751900  0.449800  1.0  -0.1003
  C  C62  1  0.939300  0.734100  0.510400  1.0  -0.0475
  C  C63  1  0.835900  0.001400  0.358400  1.0  0.7158
  C  C64  1  0.660500  0.772900  0.859800  1.0  0.743
  C  C65  1  0.583700  0.797600  0.931800  1.0  -0.1234
  C  C66  1  0.672500  0.880000  0.999300  1.0  -0.0366
  C  C67  1  0.598500  0.905900  0.065200  1.0  -0.1802
  C  C68  1  0.434300  0.846100  0.063200  1.0  0.0097
  C  C69  1  0.345700  0.765300  0.996700  1.0  -0.0969
  C  C70  1  0.419700  0.741000  0.930800  1.0  -0.0611
  C  C71  1  0.686800  0.998600  0.136900  1.0  0.7113
  C  C72  1  0.973500  0.561400  0.806000  1.0  0.6891
  C  C73  1  0.972600  0.430400  0.829100  1.0  -0.1381
  C  C74  1  0.877400  0.317000  0.782400  1.0  0.0024
  C  C75  1  0.873600  0.195300  0.805300  1.0  -0.0932
  C  C76  1  0.967000  0.187900  0.875200  1.0  -0.0603
  C  C77  1  0.059800  0.301900  0.922500  1.0  -0.084
  C  C78  1  0.064200  0.422000  0.900300  1.0  -0.0303
  C  C79  1  0.759500  0.077700  0.757600  1.0  0.681
  C  C80  1  0.215800  0.632600  0.663800  1.0  0.6454
  O  O81  1  0.220000  0.261300  0.355550  1.0  -0.7538
  O  O82  1  0.402800  0.160400  0.410140  1.0  -0.612
  O  O83  1  0.063900  0.969400  0.687290  1.0  -0.6997
  O  O84  1  0.291900  0.952500  0.634580  1.0  -0.6893
  O  O85  1  0.185700  0.208800  0.132640  1.0  -0.6057
  O  O86  1  0.433700  0.264900  0.206300  1.0  -0.7125
  O  O87  1  0.162200  0.954500  0.858820  1.0  -0.6525
  O  O88  1  0.397300  0.973200  0.809830  1.0  -0.6586
  O  O89  1  0.124700  0.431600  0.254590  1.0  -0.6745
  O  O90  1  0.929600  0.339900  0.155910  1.0  -0.5978
  O  O91  1  0.361000  0.908000  0.288450  1.0  -0.6565
  O  O92  1  0.223900  0.037000  0.232580  1.0  -0.7931
  O  O93  1  0.648700  0.367100  0.358930  1.0  -0.6042
  O  O94  1  0.814200  0.270700  0.295000  1.0  -0.6765
  O  O95  1  0.780000  0.738700  0.644450  1.0  -0.7547
  O  O96  1  0.597200  0.839600  0.589860  1.0  -0.6115
  O  O97  1  0.936100  0.030600  0.312710  1.0  -0.7008
  O  O98  1  0.708100  0.047500  0.365420  1.0  -0.6894
  O  O99  1  0.814300  0.791200  0.867360  1.0  -0.6062
  O  O100  1  0.566300  0.735100  0.793700  1.0  -0.7107
  O  O101  1  0.837800  0.045500  0.141180  1.0  -0.6511
  O  O102  1  0.602700  0.026800  0.190170  1.0  -0.657
  O  O103  1  0.875300  0.568400  0.745410  1.0  -0.6727
  O  O104  1  0.070400  0.660100  0.844090  1.0  -0.5983
  O  O105  1  0.639000  0.092000  0.711550  1.0  -0.6548
  O  O106  1  0.776100  0.963000  0.767420  1.0  -0.7951
  O  O107  1  0.351300  0.632900  0.641070  1.0  -0.6005
  O  O108  1  0.185800  0.729300  0.705000  1.0  -0.6755
