# generated using pymatgen
data_Sm2H13C25O14
_symmetry_space_group_name_H-M   'P 1'
_cell_length_a   8.39110000
_cell_length_b   10.55180000
_cell_length_c   17.46320000
_cell_angle_alpha   98.99300000
_cell_angle_beta   97.11200000
_cell_angle_gamma   100.42400000
_symmetry_Int_Tables_number   1
_chemical_formula_structural   Sm2H13C25O14
_chemical_formula_sum   'Sm4 H26 C50 O28'
_cell_volume   1483.47661823
_cell_formula_units_Z   2
loop_
 _symmetry_equiv_pos_site_id
 _symmetry_equiv_pos_as_xyz
  1  'x, y, z'
loop_
 _atom_site_type_symbol
 _atom_site_label
 _atom_site_symmetry_multiplicity
 _atom_site_fract_x
 _atom_site_fract_y
 _atom_site_fract_z
 _atom_site_occupancy
 _atom_site_charge
  Sm  Sm1  1  0.521360  0.137860  0.296430  1.0  2.3065
  Sm  Sm2  1  0.034630  0.190850  0.237470  1.0  2.3309
  Sm  Sm3  1  0.478640  0.862140  0.703570  1.0  2.3041
  Sm  Sm4  1  0.965370  0.809150  0.762530  1.0  2.3323
  H  H5  1  0.184000  0.680300  0.264800  1.0  0.1155
  H  H6  1  0.035400  0.891800  0.108800  1.0  0.1097
  H  H7  1  0.879800  0.702100  0.029400  1.0  0.113
  H  H8  1  0.872800  0.502700  0.069300  1.0  0.1074
  H  H9  1  0.061800  0.850200  0.363000  1.0  0.1001
  H  H10  1  0.110100  0.704700  0.444000  1.0  0.1173
  H  H11  1  0.959500  0.676900  0.544300  1.0  0.1142
  H  H12  1  0.694900  0.931400  0.476200  1.0  0.1127
  H  H13  1  0.383700  0.865900  0.106400  1.0  0.0911
  H  H14  1  0.237800  0.727600  0.995200  1.0  0.1018
  H  H15  1  0.359800  0.687400  0.884900  1.0  0.1113
  H  H16  1  0.782200  0.916800  0.000500  1.0  0.1179
  H  H17  1  0.866900  0.448200  0.351200  1.0  0.0499
  H  H18  1  0.816000  0.319700  0.735200  1.0  0.1151
  H  H19  1  0.964600  0.108200  0.891200  1.0  0.1096
  H  H20  1  0.120200  0.297900  0.970600  1.0  0.1137
  H  H21  1  0.127200  0.497300  0.930700  1.0  0.1073
  H  H22  1  0.938200  0.149800  0.637000  1.0  0.1006
  H  H23  1  0.889900  0.295300  0.556000  1.0  0.1169
  H  H24  1  0.040500  0.323100  0.455700  1.0  0.1135
  H  H25  1  0.305100  0.068600  0.523800  1.0  0.1129
  H  H26  1  0.616300  0.134100  0.893600  1.0  0.0913
  H  H27  1  0.762200  0.272400  0.004800  1.0  0.1024
  H  H28  1  0.640200  0.312600  0.115100  1.0  0.112
  H  H29  1  0.217800  0.083200  0.999500  1.0  0.1178
  H  H30  1  0.133100  0.551800  0.648800  1.0  0.0496
  C  C31  1  0.025900  0.441700  0.195630  1.0  0.6972
  C  C32  1  0.027600  0.571400  0.171400  1.0  -0.1551
  C  C33  1  0.122600  0.684800  0.217560  1.0  -0.0226
  C  C34  1  0.127700  0.805500  0.194420  1.0  -0.1603
  C  C35  1  0.034700  0.811300  0.124300  1.0  -0.0269
  C  C36  1  0.940300  0.697800  0.076900  1.0  -0.0881
  C  C37  1  0.936600  0.578600  0.100800  1.0  -0.0028
  C  C38  1  0.241300  0.922700  0.242360  1.0  0.6877
  C  C39  1  0.839100  0.001700  0.358760  1.0  0.7142
  C  C40  1  0.872500  0.906100  0.411110  1.0  -0.1854
  C  C41  1  0.998000  0.837800  0.402200  1.0  -0.0214
  C  C42  1  0.027800  0.751800  0.451200  1.0  -0.0886
  C  C43  1  0.937300  0.734400  0.511000  1.0  -0.039
  C  C44  1  0.812800  0.803300  0.521190  1.0  -0.1695
  C  C45  1  0.780200  0.887100  0.470420  1.0  0.0161
  C  C46  1  0.718700  0.791000  0.587470  1.0  0.7194
  C  C47  1  0.688300  0.999900  0.136660  1.0  0.7116
  C  C48  1  0.598400  0.905900  0.064960  1.0  -0.1535
  C  C49  1  0.434400  0.848500  0.062600  1.0  0.0075
  C  C50  1  0.346900  0.766400  0.996100  1.0  -0.0869
  C  C51  1  0.420400  0.741200  0.930300  1.0  -0.0365
  C  C52  1  0.583600  0.795500  0.931780  1.0  -0.1298
  C  C53  1  0.672600  0.879000  0.999470  1.0  -0.0401
  C  C54  1  0.660600  0.770500  0.859780  1.0  0.7279
  C  C55  1  0.785800  0.372300  0.337800  1.0  0.6651
  C  C56  1  0.974100  0.558300  0.804370  1.0  0.6963
  C  C57  1  0.972400  0.428600  0.828600  1.0  -0.154
  C  C58  1  0.877400  0.315200  0.782440  1.0  -0.0206
  C  C59  1  0.872300  0.194500  0.805580  1.0  -0.1611
  C  C60  1  0.965300  0.188700  0.875700  1.0  -0.0277
  C  C61  1  0.059700  0.302200  0.923100  1.0  -0.0856
  C  C62  1  0.063400  0.421400  0.899200  1.0  0.0032
  C  C63  1  0.758700  0.077300  0.757640  1.0  0.6866
  C  C64  1  0.160900  0.998300  0.641240  1.0  0.7134
  C  C65  1  0.127500  0.093900  0.588890  1.0  -0.1844
  C  C66  1  0.002000  0.162200  0.597800  1.0  -0.0183
  C  C67  1  0.972200  0.248200  0.548800  1.0  -0.0879
  C  C68  1  0.062700  0.265600  0.489000  1.0  -0.0368
  C  C69  1  0.187200  0.196700  0.478810  1.0  -0.1677
  C  C70  1  0.219800  0.112900  0.529580  1.0  0.0145
  C  C71  1  0.281300  0.209000  0.412530  1.0  0.72
  C  C72  1  0.311700  0.000100  0.863340  1.0  0.7106
  C  C73  1  0.401600  0.094100  0.935040  1.0  -0.1536
  C  C74  1  0.565600  0.151500  0.937400  1.0  0.007
  C  C75  1  0.653100  0.233600  0.003900  1.0  -0.0855
  C  C76  1  0.579600  0.258800  0.069700  1.0  -0.038
  C  C77  1  0.416400  0.204500  0.068220  1.0  -0.1302
  C  C78  1  0.327400  0.121000  0.000530  1.0  -0.0375
  C  C79  1  0.339400  0.229500  0.140220  1.0  0.7129
  C  C80  1  0.214200  0.627700  0.662200  1.0  0.6659
  O  O81  1  0.124800  0.434900  0.256170  1.0  -0.6823
  O  O82  1  0.928600  0.342600  0.157650  1.0  -0.6172
  O  O83  1  0.358600  0.910100  0.290220  1.0  -0.6533
  O  O84  1  0.225400  0.037400  0.231060  1.0  -0.8108
  O  O85  1  0.837600  0.045500  0.140820  1.0  -0.656
  O  O86  1  0.604700  0.028900  0.189830  1.0  -0.6605
  O  O87  1  0.813500  0.787500  0.868060  1.0  -0.6137
  O  O88  1  0.567400  0.732500  0.793430  1.0  -0.725
  O  O89  1  0.710000  0.045700  0.364710  1.0  -0.6953
  O  O90  1  0.938900  0.031100  0.313740  1.0  -0.7147
  O  O91  1  0.589800  0.835000  0.585190  1.0  -0.645
  O  O92  1  0.772100  0.739400  0.643590  1.0  -0.7673
  O  O93  1  0.816900  0.273900  0.298270  1.0  -0.6844
  O  O94  1  0.651400  0.374000  0.360170  1.0  -0.6112
  O  O95  1  0.875200  0.565100  0.743830  1.0  -0.6869
  O  O96  1  0.071400  0.657400  0.842350  1.0  -0.6183
  O  O97  1  0.641400  0.089900  0.709780  1.0  -0.6531
  O  O98  1  0.774600  0.962600  0.768940  1.0  -0.8128
  O  O99  1  0.162400  0.954500  0.859180  1.0  -0.6579
  O  O100  1  0.395300  0.971100  0.810170  1.0  -0.6608
  O  O101  1  0.186500  0.212500  0.131940  1.0  -0.6132
  O  O102  1  0.432600  0.267500  0.206570  1.0  -0.7266
  O  O103  1  0.290000  0.954300  0.635290  1.0  -0.6945
  O  O104  1  0.061100  0.968900  0.686260  1.0  -0.7143
  O  O105  1  0.410200  0.165000  0.414810  1.0  -0.6465
  O  O106  1  0.227900  0.260600  0.356410  1.0  -0.7661
  O  O107  1  0.183100  0.726100  0.701730  1.0  -0.684
  O  O108  1  0.348600  0.626000  0.639830  1.0  -0.6085
