# generated using pymatgen
data_CoHC4O3
_symmetry_space_group_name_H-M   'P 1'
_cell_length_a   25.89770000
_cell_length_b   25.89770000
_cell_length_c   6.84600000
_cell_angle_alpha   90.00000000
_cell_angle_beta   90.00000000
_cell_angle_gamma   120.00000000
_symmetry_Int_Tables_number   1
_chemical_formula_structural   CoHC4O3
_chemical_formula_sum   'Co18 H18 C72 O54'
_cell_volume   3976.39865157
_cell_formula_units_Z   18
loop_
 _symmetry_equiv_pos_site_id
 _symmetry_equiv_pos_as_xyz
  1  'x, y, z'
loop_
 _atom_site_type_symbol
 _atom_site_label
 _atom_site_symmetry_multiplicity
 _atom_site_fract_x
 _atom_site_fract_y
 _atom_site_fract_z
 _atom_site_occupancy
 _atom_site_charge
  Co  Co1  1  0.381600  0.348800  0.133000  1.0  1.0357
  Co  Co2  1  0.048270  0.682130  0.466330  1.0  1.0357
  Co  Co3  1  0.714930  0.015470  0.799670  1.0  1.0357
  Co  Co4  1  0.651200  0.032800  0.133000  1.0  1.0376
  Co  Co5  1  0.317870  0.366130  0.466330  1.0  1.0378
  Co  Co6  1  0.984530  0.699470  0.799670  1.0  1.0376
  Co  Co7  1  0.967200  0.618400  0.133000  1.0  1.0371
  Co  Co8  1  0.633870  0.951730  0.466330  1.0  1.0371
  Co  Co9  1  0.300530  0.285070  0.799670  1.0  1.0371
  Co  Co10  1  0.618400  0.651200  0.867000  1.0  1.0362
  Co  Co11  1  0.285070  0.984530  0.200330  1.0  1.0362
  Co  Co12  1  0.951730  0.317870  0.533670  1.0  1.0362
  Co  Co13  1  0.348800  0.967200  0.867000  1.0  1.0357
  Co  Co14  1  0.015470  0.300530  0.200330  1.0  1.0357
  Co  Co15  1  0.682130  0.633870  0.533670  1.0  1.0359
  Co  Co16  1  0.032800  0.381600  0.867000  1.0  1.0389
  Co  Co17  1  0.699470  0.714930  0.200330  1.0  1.0389
  Co  Co18  1  0.366130  0.048270  0.533670  1.0  1.0389
  H  H19  1  0.361600  0.192800  0.826000  1.0  0.1078
  H  H20  1  0.028270  0.526130  0.159330  1.0  0.1078
  H  H21  1  0.694930  0.859470  0.492670  1.0  0.1095
  H  H22  1  0.807200  0.168800  0.826000  1.0  0.1099
  H  H23  1  0.473870  0.502130  0.159330  1.0  0.1099
  H  H24  1  0.140530  0.835470  0.492670  1.0  0.1097
  H  H25  1  0.831200  0.638400  0.826000  1.0  0.1096
  H  H26  1  0.497870  0.971730  0.159330  1.0  0.1096
  H  H27  1  0.164530  0.305070  0.492670  1.0  0.1095
  H  H28  1  0.638400  0.807200  0.174000  1.0  0.1088
  H  H29  1  0.305070  0.140530  0.507330  1.0  0.1099
  H  H30  1  0.971730  0.473870  0.840670  1.0  0.1089
  H  H31  1  0.192800  0.831200  0.174000  1.0  0.1096
  H  H32  1  0.859470  0.164530  0.507330  1.0  0.11
  H  H33  1  0.526130  0.497870  0.840670  1.0  0.1096
  H  H34  1  0.168800  0.361600  0.174000  1.0  0.1102
  H  H35  1  0.835470  0.694930  0.507330  1.0  0.1102
  H  H36  1  0.502130  0.028270  0.840670  1.0  0.1102
  C  C37  1  0.316500  0.247000  0.427500  1.0  0.6967
  C  C38  1  0.330200  0.208200  0.287900  1.0  -0.1688
  C  C39  1  0.347300  0.225500  0.089100  1.0  0.3283
  C  C40  1  0.351700  0.180900  0.972100  1.0  -0.0294
  C  C41  1  0.983170  0.580330  0.760830  1.0  0.6967
  C  C42  1  0.996870  0.541530  0.621230  1.0  -0.1689
  C  C43  1  0.013970  0.558830  0.422430  1.0  0.3283
  C  C44  1  0.018370  0.514230  0.305430  1.0  -0.0292
  C  C45  1  0.649830  0.913670  0.094170  1.0  0.6967
  C  C46  1  0.663530  0.874870  0.954570  1.0  -0.1688
  C  C47  1  0.680630  0.892170  0.755770  1.0  0.328
  C  C48  1  0.685030  0.847570  0.638770  1.0  -0.0359
  C  C49  1  0.753000  0.069500  0.427500  1.0  0.6957
  C  C50  1  0.791800  0.122000  0.287900  1.0  -0.1696
  C  C51  1  0.774500  0.121800  0.089100  1.0  0.3273
  C  C52  1  0.819100  0.170800  0.972100  1.0  -0.0394
  C  C53  1  0.419670  0.402830  0.760830  1.0  0.6959
  C  C54  1  0.458470  0.455330  0.621230  1.0  -0.1696
  C  C55  1  0.441170  0.455130  0.422430  1.0  0.3273
  C  C56  1  0.485770  0.504130  0.305430  1.0  -0.0392
  C  C57  1  0.086330  0.736170  0.094170  1.0  0.6957
  C  C58  1  0.125130  0.788670  0.954570  1.0  -0.1696
  C  C59  1  0.107830  0.788470  0.755770  1.0  0.3418
  C  C60  1  0.152430  0.837470  0.638770  1.0  -0.026
  C  C61  1  0.930500  0.683500  0.427500  1.0  0.6935
  C  C62  1  0.878000  0.669800  0.287900  1.0  -0.1681
  C  C63  1  0.878200  0.652700  0.089100  1.0  0.3261
  C  C64  1  0.829200  0.648300  0.972100  1.0  -0.0405
  C  C65  1  0.597170  0.016830  0.760830  1.0  0.6936
  C  C66  1  0.544670  0.003130  0.621230  1.0  -0.1681
  C  C67  1  0.544870  0.986030  0.422430  1.0  0.3261
  C  C68  1  0.495870  0.981630  0.305430  1.0  -0.0406
  C  C69  1  0.263830  0.350170  0.094170  1.0  0.6934
  C  C70  1  0.211330  0.336470  0.954570  1.0  -0.1677
  C  C71  1  0.211530  0.319370  0.755770  1.0  0.3283
  C  C72  1  0.162530  0.314970  0.638770  1.0  -0.0431
  C  C73  1  0.683500  0.753000  0.572500  1.0  0.6962
  C  C74  1  0.669800  0.791800  0.712100  1.0  -0.168
  C  C75  1  0.652700  0.774500  0.910900  1.0  0.3282
  C  C76  1  0.648300  0.819100  0.027900  1.0  -0.0315
  C  C77  1  0.350170  0.086330  0.905830  1.0  0.6962
  C  C78  1  0.336470  0.125130  0.045430  1.0  -0.168
  C  C79  1  0.319370  0.107830  0.244230  1.0  0.3282
  C  C80  1  0.314970  0.152430  0.361230  1.0  -0.038
  C  C81  1  0.016830  0.419670  0.239170  1.0  0.6962
  C  C82  1  0.003130  0.458470  0.378770  1.0  -0.1681
  C  C83  1  0.986030  0.441170  0.577570  1.0  0.3283
  C  C84  1  0.981630  0.485770  0.694570  1.0  -0.0313
  C  C85  1  0.247000  0.930500  0.572500  1.0  0.6947
  C  C86  1  0.208200  0.878000  0.712100  1.0  -0.1687
  C  C87  1  0.225500  0.878200  0.910900  1.0  0.3266
  C  C88  1  0.180900  0.829200  0.027900  1.0  -0.0395
  C  C89  1  0.913670  0.263830  0.905830  1.0  0.6947
  C  C90  1  0.874870  0.211330  0.045430  1.0  -0.1686
  C  C91  1  0.892170  0.211530  0.244230  1.0  0.3413
  C  C92  1  0.847570  0.162530  0.361230  1.0  -0.0264
  C  C93  1  0.580330  0.597170  0.239170  1.0  0.6949
  C  C94  1  0.541530  0.544670  0.378770  1.0  -0.1686
  C  C95  1  0.558830  0.544870  0.577570  1.0  0.3266
  C  C96  1  0.514230  0.495870  0.694570  1.0  -0.0394
  C  C97  1  0.069500  0.316500  0.572500  1.0  0.6932
  C  C98  1  0.122000  0.330200  0.712100  1.0  -0.1691
  C  C99  1  0.121800  0.347300  0.910900  1.0  0.3268
  C  C100  1  0.170800  0.351700  0.027900  1.0  -0.0406
  C  C101  1  0.736170  0.649830  0.905830  1.0  0.6932
  C  C102  1  0.788670  0.663530  0.045430  1.0  -0.1687
  C  C103  1  0.788470  0.680630  0.244230  1.0  0.3292
  C  C104  1  0.837470  0.685030  0.361230  1.0  -0.0432
  C  C105  1  0.402830  0.983170  0.239170  1.0  0.6933
  C  C106  1  0.455330  0.996870  0.378770  1.0  -0.1691
  C  C107  1  0.455130  0.013970  0.577570  1.0  0.3268
  C  C108  1  0.504130  0.018370  0.694570  1.0  -0.0407
  O  O109  1  0.326000  0.297300  0.372000  1.0  -0.6851
  O  O110  1  0.302200  0.227500  0.601100  1.0  -0.6052
  O  O111  1  0.356200  0.274000  0.004700  1.0  -0.674
  O  O112  1  0.992670  0.630630  0.705330  1.0  -0.685
  O  O113  1  0.968870  0.560830  0.934430  1.0  -0.6053
  O  O114  1  0.022870  0.607330  0.338030  1.0  -0.674
  O  O115  1  0.659330  0.963970  0.038670  1.0  -0.6851
  O  O116  1  0.635530  0.894170  0.267770  1.0  -0.6052
  O  O117  1  0.689530  0.940670  0.671370  1.0  -0.6737
  O  O118  1  0.702700  0.028700  0.372000  1.0  -0.6872
  O  O119  1  0.772500  0.074700  0.601100  1.0  -0.6046
  O  O120  1  0.726000  0.082200  0.004700  1.0  -0.6727
  O  O121  1  0.369370  0.362030  0.705330  1.0  -0.6873
  O  O122  1  0.439170  0.408030  0.934430  1.0  -0.6045
  O  O123  1  0.392670  0.415530  0.338030  1.0  -0.6724
  O  O124  1  0.036030  0.695370  0.038670  1.0  -0.6872
  O  O125  1  0.105830  0.741370  0.267770  1.0  -0.6046
  O  O126  1  0.059330  0.748870  0.671370  1.0  -0.6727
  O  O127  1  0.971300  0.674000  0.372000  1.0  -0.6889
  O  O128  1  0.925300  0.697800  0.601100  1.0  -0.6062
  O  O129  1  0.917800  0.643800  0.004700  1.0  -0.6736
  O  O130  1  0.637970  0.007330  0.705330  1.0  -0.6881
  O  O131  1  0.591970  0.031130  0.934430  1.0  -0.6062
  O  O132  1  0.584470  0.977130  0.338030  1.0  -0.6736
  O  O133  1  0.304630  0.340670  0.038670  1.0  -0.6887
  O  O134  1  0.258630  0.364470  0.267770  1.0  -0.6063
  O  O135  1  0.251130  0.310470  0.671370  1.0  -0.6736
  O  O136  1  0.674000  0.702700  0.628000  1.0  -0.6864
  O  O137  1  0.697800  0.772500  0.398900  1.0  -0.6056
  O  O138  1  0.643800  0.726000  0.995300  1.0  -0.6727
  O  O139  1  0.340670  0.036030  0.961330  1.0  -0.6864
  O  O140  1  0.364470  0.105830  0.732230  1.0  -0.6056
  O  O141  1  0.310470  0.059330  0.328630  1.0  -0.6724
  O  O142  1  0.007330  0.369370  0.294670  1.0  -0.6863
  O  O143  1  0.031130  0.439170  0.065570  1.0  -0.6056
  O  O144  1  0.977130  0.392670  0.661970  1.0  -0.6727
  O  O145  1  0.297300  0.971300  0.628000  1.0  -0.688
  O  O146  1  0.227500  0.925300  0.398900  1.0  -0.605
  O  O147  1  0.274000  0.917800  0.995300  1.0  -0.672
  O  O148  1  0.963970  0.304630  0.961330  1.0  -0.6879
  O  O149  1  0.894170  0.258630  0.732230  1.0  -0.605
  O  O150  1  0.940670  0.251130  0.328630  1.0  -0.672
  O  O151  1  0.630630  0.637970  0.294670  1.0  -0.6881
  O  O152  1  0.560830  0.591970  0.065570  1.0  -0.6049
  O  O153  1  0.607330  0.584470  0.661970  1.0  -0.6717
  O  O154  1  0.028700  0.326000  0.628000  1.0  -0.6876
  O  O155  1  0.074700  0.302200  0.398900  1.0  -0.6056
  O  O156  1  0.082200  0.356200  0.995300  1.0  -0.6735
  O  O157  1  0.695370  0.659330  0.961330  1.0  -0.6873
  O  O158  1  0.741370  0.635530  0.732230  1.0  -0.6056
  O  O159  1  0.748870  0.689530  0.328630  1.0  -0.6735
  O  O160  1  0.362030  0.992670  0.294670  1.0  -0.6868
  O  O161  1  0.408030  0.968870  0.065570  1.0  -0.6055
  O  O162  1  0.415530  0.022870  0.661970  1.0  -0.6735
