# generated using pymatgen
data_MnHC4O3
_symmetry_space_group_name_H-M   'P 1'
_cell_length_a   26.32620000
_cell_length_b   26.32620000
_cell_length_c   7.04400000
_cell_angle_alpha   90.00000000
_cell_angle_beta   90.00000000
_cell_angle_gamma   120.00000000
_symmetry_Int_Tables_number   1
_chemical_formula_structural   MnHC4O3
_chemical_formula_sum   'Mn18 H18 C72 O54'
_cell_volume   4227.91581912
_cell_formula_units_Z   18
loop_
 _symmetry_equiv_pos_site_id
 _symmetry_equiv_pos_as_xyz
  1  'x, y, z'
loop_
 _atom_site_type_symbol
 _atom_site_label
 _atom_site_symmetry_multiplicity
 _atom_site_fract_x
 _atom_site_fract_y
 _atom_site_fract_z
 _atom_site_occupancy
 _atom_site_charge
  Mn  Mn1  1  0.385600  0.360900  0.142000  1.0  1.0577
  Mn  Mn2  1  0.052270  0.694230  0.475330  1.0  1.0566
  Mn  Mn3  1  0.718930  0.027570  0.808670  1.0  1.0576
  Mn  Mn4  1  0.639100  0.024700  0.142000  1.0  1.0572
  Mn  Mn5  1  0.305770  0.358030  0.475330  1.0  1.0572
  Mn  Mn6  1  0.972430  0.691370  0.808670  1.0  1.0572
  Mn  Mn7  1  0.975300  0.614400  0.142000  1.0  1.0584
  Mn  Mn8  1  0.641970  0.947730  0.475330  1.0  1.0584
  Mn  Mn9  1  0.308630  0.281070  0.808670  1.0  1.0579
  Mn  Mn10  1  0.614400  0.639100  0.858000  1.0  1.0572
  Mn  Mn11  1  0.281070  0.972430  0.191330  1.0  1.0572
  Mn  Mn12  1  0.947730  0.305770  0.524670  1.0  1.0562
  Mn  Mn13  1  0.360900  0.975300  0.858000  1.0  1.0578
  Mn  Mn14  1  0.027570  0.308630  0.191330  1.0  1.0578
  Mn  Mn15  1  0.694230  0.641970  0.524670  1.0  1.0579
  Mn  Mn16  1  0.024700  0.385600  0.858000  1.0  1.0574
  Mn  Mn17  1  0.691370  0.718930  0.191330  1.0  1.057
  Mn  Mn18  1  0.358030  0.052270  0.524670  1.0  1.0574
  H  H19  1  0.360900  0.191900  0.838800  1.0  0.1374
  H  H20  1  0.027570  0.525230  0.172130  1.0  0.1374
  H  H21  1  0.694230  0.858570  0.505470  1.0  0.1388
  H  H22  1  0.808100  0.169000  0.838800  1.0  0.1386
  H  H23  1  0.474770  0.502330  0.172130  1.0  0.1386
  H  H24  1  0.141430  0.835670  0.505470  1.0  0.1364
  H  H25  1  0.831000  0.639100  0.838800  1.0  0.1379
  H  H26  1  0.497670  0.972430  0.172130  1.0  0.1377
  H  H27  1  0.164330  0.305770  0.505470  1.0  0.1388
  H  H28  1  0.639100  0.808100  0.161200  1.0  0.1375
  H  H29  1  0.305770  0.141430  0.494530  1.0  0.1392
  H  H30  1  0.972430  0.474770  0.827870  1.0  0.1375
  H  H31  1  0.191900  0.831000  0.161200  1.0  0.1385
  H  H32  1  0.858570  0.164330  0.494530  1.0  0.1365
  H  H33  1  0.525230  0.497670  0.827870  1.0  0.1385
  H  H34  1  0.169000  0.360900  0.161200  1.0  0.1373
  H  H35  1  0.835670  0.694230  0.494530  1.0  0.1387
  H  H36  1  0.502330  0.027570  0.827870  1.0  0.1372
  C  C37  1  0.320200  0.245700  0.419300  1.0  0.7029
  C  C38  1  0.328800  0.205300  0.287600  1.0  -0.118
  C  C39  1  0.345300  0.223500  0.089800  1.0  0.1803
  C  C40  1  0.352400  0.183200  0.979000  1.0  -0.0227
  C  C41  1  0.986870  0.579030  0.752630  1.0  0.703
  C  C42  1  0.995470  0.538630  0.620930  1.0  -0.1198
  C  C43  1  0.011970  0.556830  0.423130  1.0  0.1803
  C  C44  1  0.019070  0.516530  0.312330  1.0  -0.0219
  C  C45  1  0.653530  0.912370  0.085970  1.0  0.7029
  C  C46  1  0.662130  0.871970  0.954270  1.0  -0.118
  C  C47  1  0.678630  0.890170  0.756470  1.0  0.1803
  C  C48  1  0.685730  0.849870  0.645670  1.0  -0.0226
  C  C49  1  0.754300  0.074500  0.419300  1.0  0.7024
  C  C50  1  0.794700  0.123500  0.287600  1.0  -0.1194
  C  C51  1  0.776500  0.121800  0.089800  1.0  0.1803
  C  C52  1  0.816800  0.169200  0.979000  1.0  -0.0227
  C  C53  1  0.420970  0.407830  0.752630  1.0  0.7023
  C  C54  1  0.461370  0.456830  0.620930  1.0  -0.1183
  C  C55  1  0.443170  0.455130  0.423130  1.0  0.1803
  C  C56  1  0.483470  0.502530  0.312330  1.0  -0.023
  C  C57  1  0.087630  0.741170  0.085970  1.0  0.7024
  C  C58  1  0.128030  0.790170  0.954270  1.0  -0.12
  C  C59  1  0.109830  0.788470  0.756470  1.0  0.1803
  C  C60  1  0.150130  0.835870  0.645670  1.0  -0.0407
  C  C61  1  0.925500  0.679800  0.419300  1.0  0.7002
  C  C62  1  0.876500  0.671200  0.287600  1.0  -0.1206
  C  C63  1  0.878200  0.654700  0.089800  1.0  0.1842
  C  C64  1  0.830800  0.647600  0.979000  1.0  -0.0239
  C  C65  1  0.592170  0.013130  0.752630  1.0  0.7003
  C  C66  1  0.543170  0.004530  0.620930  1.0  -0.1218
  C  C67  1  0.544870  0.988030  0.423130  1.0  0.1842
  C  C68  1  0.497470  0.980930  0.312330  1.0  -0.0238
  C  C69  1  0.258830  0.346470  0.085970  1.0  0.7002
  C  C70  1  0.209830  0.337870  0.954270  1.0  -0.1191
  C  C71  1  0.211530  0.321370  0.756470  1.0  0.1842
  C  C72  1  0.164130  0.314270  0.645670  1.0  -0.0228
  C  C73  1  0.679800  0.754300  0.580700  1.0  0.7032
  C  C74  1  0.671200  0.794700  0.712400  1.0  -0.1181
  C  C75  1  0.654700  0.776500  0.910200  1.0  0.1814
  C  C76  1  0.647600  0.816800  0.021000  1.0  -0.0235
  C  C77  1  0.346470  0.087630  0.914030  1.0  0.7032
  C  C78  1  0.337870  0.128030  0.045730  1.0  -0.1181
  C  C79  1  0.321370  0.109830  0.243530  1.0  0.1814
  C  C80  1  0.314270  0.150130  0.354330  1.0  -0.0229
  C  C81  1  0.013130  0.420970  0.247370  1.0  0.7033
  C  C82  1  0.004530  0.461370  0.379070  1.0  -0.12
  C  C83  1  0.988030  0.443170  0.576870  1.0  0.1814
  C  C84  1  0.980930  0.483470  0.687670  1.0  -0.0227
  C  C85  1  0.245700  0.925500  0.580700  1.0  0.7007
  C  C86  1  0.205300  0.876500  0.712400  1.0  -0.1199
  C  C87  1  0.223500  0.878200  0.910200  1.0  0.1811
  C  C88  1  0.183200  0.830800  0.021000  1.0  -0.0233
  C  C89  1  0.912370  0.258830  0.914030  1.0  0.7008
  C  C90  1  0.871970  0.209830  0.045730  1.0  -0.1204
  C  C91  1  0.890170  0.211530  0.243530  1.0  0.1811
  C  C92  1  0.849870  0.164130  0.354330  1.0  -0.0413
  C  C93  1  0.579030  0.592170  0.247370  1.0  0.7007
  C  C94  1  0.538630  0.543170  0.379070  1.0  -0.1188
  C  C95  1  0.556830  0.544870  0.576870  1.0  0.1811
  C  C96  1  0.516530  0.497470  0.687670  1.0  -0.0237
  C  C97  1  0.074500  0.320200  0.580700  1.0  0.6997
  C  C98  1  0.123500  0.328800  0.712400  1.0  -0.1198
  C  C99  1  0.121800  0.345300  0.910200  1.0  0.183
  C  C100  1  0.169200  0.352400  0.021000  1.0  -0.0234
  C  C101  1  0.741170  0.653530  0.914030  1.0  0.6996
  C  C102  1  0.790170  0.662130  0.045730  1.0  -0.1182
  C  C103  1  0.788470  0.678630  0.243530  1.0  0.183
  C  C104  1  0.835870  0.685730  0.354330  1.0  -0.022
  C  C105  1  0.407830  0.986870  0.247370  1.0  0.6995
  C  C106  1  0.456830  0.995470  0.379070  1.0  -0.1208
  C  C107  1  0.455130  0.011970  0.576870  1.0  0.183
  C  C108  1  0.502530  0.019070  0.687670  1.0  -0.0234
  O  O109  1  0.329200  0.294500  0.361500  1.0  -0.6499
  O  O110  1  0.300700  0.227800  0.588900  1.0  -0.6275
  O  O111  1  0.357200  0.276800  0.010700  1.0  -0.6549
  O  O112  1  0.995870  0.627830  0.694830  1.0  -0.6499
  O  O113  1  0.967370  0.561130  0.922230  1.0  -0.6279
  O  O114  1  0.023870  0.610130  0.344030  1.0  -0.6546
  O  O115  1  0.662530  0.961170  0.028170  1.0  -0.6499
  O  O116  1  0.634030  0.894470  0.255570  1.0  -0.6275
  O  O117  1  0.690530  0.943470  0.677370  1.0  -0.6551
  O  O118  1  0.705500  0.034700  0.361500  1.0  -0.6503
  O  O119  1  0.772200  0.072900  0.588900  1.0  -0.628
  O  O120  1  0.723200  0.080400  0.010700  1.0  -0.6553
  O  O121  1  0.372170  0.368030  0.694830  1.0  -0.6498
  O  O122  1  0.438870  0.406230  0.922230  1.0  -0.6279
  O  O123  1  0.389870  0.413730  0.344030  1.0  -0.6553
  O  O124  1  0.038830  0.701370  0.028170  1.0  -0.6503
  O  O125  1  0.105530  0.739570  0.255570  1.0  -0.6282
  O  O126  1  0.056530  0.747070  0.677370  1.0  -0.6547
  O  O127  1  0.965300  0.670800  0.361500  1.0  -0.6495
  O  O128  1  0.927100  0.699300  0.588900  1.0  -0.6296
  O  O129  1  0.919600  0.642800  0.010700  1.0  -0.6551
  O  O130  1  0.631970  0.004130  0.694830  1.0  -0.6499
  O  O131  1  0.593770  0.032630  0.922230  1.0  -0.6296
  O  O132  1  0.586270  0.976130  0.344030  1.0  -0.6551
  O  O133  1  0.298630  0.337470  0.028170  1.0  -0.6495
  O  O134  1  0.260430  0.365970  0.255570  1.0  -0.6295
  O  O135  1  0.252930  0.309470  0.677370  1.0  -0.6551
  O  O136  1  0.670800  0.705500  0.638500  1.0  -0.6502
  O  O137  1  0.699300  0.772200  0.411100  1.0  -0.6291
  O  O138  1  0.642800  0.723200  0.989300  1.0  -0.6556
  O  O139  1  0.337470  0.038830  0.971830  1.0  -0.6502
  O  O140  1  0.365970  0.105530  0.744430  1.0  -0.6291
  O  O141  1  0.309470  0.056530  0.322630  1.0  -0.6559
  O  O142  1  0.004130  0.372170  0.305170  1.0  -0.6502
  O  O143  1  0.032630  0.438870  0.077770  1.0  -0.6294
  O  O144  1  0.976130  0.389870  0.655970  1.0  -0.6554
  O  O145  1  0.294500  0.965300  0.638500  1.0  -0.6502
  O  O146  1  0.227800  0.927100  0.411100  1.0  -0.6294
  O  O147  1  0.276800  0.919600  0.989300  1.0  -0.6535
  O  O148  1  0.961170  0.298630  0.971830  1.0  -0.6501
  O  O149  1  0.894470  0.260430  0.744430  1.0  -0.6295
  O  O150  1  0.943470  0.252930  0.322630  1.0  -0.6529
  O  O151  1  0.627830  0.631970  0.305170  1.0  -0.6498
  O  O152  1  0.561130  0.593770  0.077770  1.0  -0.6294
  O  O153  1  0.610130  0.586270  0.655970  1.0  -0.6535
  O  O154  1  0.034700  0.329200  0.638500  1.0  -0.6507
  O  O155  1  0.072900  0.300700  0.411100  1.0  -0.6306
  O  O156  1  0.080400  0.357200  0.989300  1.0  -0.6557
  O  O157  1  0.701370  0.662530  0.971830  1.0  -0.6507
  O  O158  1  0.739570  0.634030  0.744430  1.0  -0.6306
  O  O159  1  0.747070  0.690530  0.322630  1.0  -0.6558
  O  O160  1  0.368030  0.995870  0.305170  1.0  -0.651
  O  O161  1  0.406230  0.967370  0.077770  1.0  -0.6307
  O  O162  1  0.413730  0.023870  0.655970  1.0  -0.6557
