# generated using pymatgen
data_FeHC4O3
_symmetry_space_group_name_H-M   'P 1'
_cell_length_a   26.03490000
_cell_length_b   26.03490000
_cell_length_c   6.85080000
_cell_angle_alpha   90.00000000
_cell_angle_beta   90.00000000
_cell_angle_gamma   120.00000000
_symmetry_Int_Tables_number   1
_chemical_formula_structural   FeHC4O3
_chemical_formula_sum   'Fe18 H18 C72 O54'
_cell_volume   4021.45995593
_cell_formula_units_Z   18
loop_
 _symmetry_equiv_pos_site_id
 _symmetry_equiv_pos_as_xyz
  1  'x, y, z'
loop_
 _atom_site_type_symbol
 _atom_site_label
 _atom_site_symmetry_multiplicity
 _atom_site_fract_x
 _atom_site_fract_y
 _atom_site_fract_z
 _atom_site_occupancy
 _atom_site_charge
  Fe  Fe1  1  0.384390  0.353090  0.140000  1.0  1.0082
  Fe  Fe2  1  0.051060  0.686420  0.473330  1.0  1.0087
  Fe  Fe3  1  0.717720  0.019760  0.806670  1.0  1.0083
  Fe  Fe4  1  0.646910  0.031300  0.140000  1.0  1.0114
  Fe  Fe5  1  0.313580  0.364630  0.473330  1.0  1.0115
  Fe  Fe6  1  0.980240  0.697970  0.806670  1.0  1.0114
  Fe  Fe7  1  0.968700  0.615610  0.140000  1.0  1.0102
  Fe  Fe8  1  0.635370  0.948940  0.473330  1.0  1.0098
  Fe  Fe9  1  0.302030  0.282280  0.806670  1.0  1.0102
  Fe  Fe10  1  0.615610  0.646910  0.860000  1.0  1.0103
  Fe  Fe11  1  0.282280  0.980240  0.193330  1.0  1.0103
  Fe  Fe12  1  0.948940  0.313580  0.526670  1.0  1.0106
  Fe  Fe13  1  0.353090  0.968700  0.860000  1.0  1.0099
  Fe  Fe14  1  0.019760  0.302030  0.193330  1.0  1.0098
  Fe  Fe15  1  0.686420  0.635370  0.526670  1.0  1.01
  Fe  Fe16  1  0.031300  0.384390  0.860000  1.0  1.0121
  Fe  Fe17  1  0.697970  0.717720  0.193330  1.0  1.0121
  Fe  Fe18  1  0.364630  0.051060  0.526670  1.0  1.0117
  H  H19  1  0.360900  0.193400  0.827400  1.0  0.1312
  H  H20  1  0.027570  0.526730  0.160730  1.0  0.1312
  H  H21  1  0.694230  0.860070  0.494070  1.0  0.1336
  H  H22  1  0.806600  0.167500  0.827400  1.0  0.1331
  H  H23  1  0.473270  0.500830  0.160730  1.0  0.1307
  H  H24  1  0.139930  0.834170  0.494070  1.0  0.1336
  H  H25  1  0.832500  0.639100  0.827400  1.0  0.1328
  H  H26  1  0.499170  0.972430  0.160730  1.0  0.1328
  H  H27  1  0.165830  0.305770  0.494070  1.0  0.1334
  H  H28  1  0.639100  0.806600  0.172600  1.0  0.1313
  H  H29  1  0.305770  0.139930  0.505930  1.0  0.1335
  H  H30  1  0.972430  0.473270  0.839270  1.0  0.1314
  H  H31  1  0.193400  0.832500  0.172600  1.0  0.1333
  H  H32  1  0.860070  0.165830  0.505930  1.0  0.1341
  H  H33  1  0.526730  0.499170  0.839270  1.0  0.1308
  H  H34  1  0.167500  0.360900  0.172600  1.0  0.1329
  H  H35  1  0.834170  0.694230  0.505930  1.0  0.1337
  H  H36  1  0.500830  0.027570  0.839270  1.0  0.1329
  C  C37  1  0.317410  0.245990  0.420000  1.0  0.6576
  C  C38  1  0.327790  0.203960  0.289300  1.0  -0.1396
  C  C39  1  0.344790  0.223650  0.091600  1.0  0.3186
  C  C40  1  0.350130  0.182390  0.976100  1.0  -0.0897
  C  C41  1  0.984080  0.579320  0.753330  1.0  0.6576
  C  C42  1  0.994460  0.537290  0.622630  1.0  -0.1387
  C  C43  1  0.011460  0.556980  0.424930  1.0  0.3187
  C  C44  1  0.016800  0.515720  0.309430  1.0  -0.0894
  C  C45  1  0.650740  0.912660  0.086670  1.0  0.6576
  C  C46  1  0.661120  0.870630  0.955970  1.0  -0.1396
  C  C47  1  0.678120  0.890320  0.758270  1.0  0.3187
  C  C48  1  0.683460  0.849060  0.642770  1.0  -0.0983
  C  C49  1  0.754010  0.071420  0.420000  1.0  0.6562
  C  C50  1  0.796040  0.123830  0.289300  1.0  -0.1396
  C  C51  1  0.776350  0.121140  0.091600  1.0  0.3181
  C  C52  1  0.817610  0.167740  0.976100  1.0  -0.0999
  C  C53  1  0.420680  0.404750  0.753330  1.0  0.6562
  C  C54  1  0.462710  0.457160  0.622630  1.0  -0.1395
  C  C55  1  0.443020  0.454470  0.424930  1.0  0.3181
  C  C56  1  0.484280  0.501070  0.309430  1.0  -0.0999
  C  C57  1  0.087340  0.738090  0.086670  1.0  0.6561
  C  C58  1  0.129370  0.790500  0.955970  1.0  -0.1396
  C  C59  1  0.109680  0.787810  0.758270  1.0  0.3181
  C  C60  1  0.150940  0.834410  0.642770  1.0  -0.0944
  C  C61  1  0.928580  0.682590  0.420000  1.0  0.6556
  C  C62  1  0.876170  0.672210  0.289300  1.0  -0.1389
  C  C63  1  0.878860  0.655210  0.091600  1.0  0.3211
  C  C64  1  0.832260  0.649870  0.976100  1.0  -0.0986
  C  C65  1  0.595250  0.015920  0.753330  1.0  0.6556
  C  C66  1  0.542840  0.005540  0.622630  1.0  -0.1398
  C  C67  1  0.545530  0.988540  0.424930  1.0  0.3211
  C  C68  1  0.498930  0.983200  0.309430  1.0  -0.0987
  C  C69  1  0.261910  0.349260  0.086670  1.0  0.6556
  C  C70  1  0.209500  0.338880  0.955970  1.0  -0.1389
  C  C71  1  0.212190  0.321880  0.758270  1.0  0.3211
  C  C72  1  0.165590  0.316540  0.642770  1.0  -0.0983
  C  C73  1  0.682590  0.754010  0.580000  1.0  0.6576
  C  C74  1  0.672210  0.796040  0.710700  1.0  -0.1404
  C  C75  1  0.655210  0.776350  0.908400  1.0  0.3194
  C  C76  1  0.649870  0.817610  0.023900  1.0  -0.0947
  C  C77  1  0.349260  0.087340  0.913330  1.0  0.6576
  C  C78  1  0.338880  0.129370  0.044030  1.0  -0.1405
  C  C79  1  0.321880  0.109680  0.241730  1.0  0.3195
  C  C80  1  0.316540  0.150940  0.357230  1.0  -0.1049
  C  C81  1  0.015920  0.420680  0.246670  1.0  0.6576
  C  C82  1  0.005540  0.462710  0.377370  1.0  -0.1394
  C  C83  1  0.988540  0.443020  0.575070  1.0  0.3195
  C  C84  1  0.983200  0.484280  0.690570  1.0  -0.0945
  C  C85  1  0.245990  0.928580  0.580000  1.0  0.6565
  C  C86  1  0.203960  0.876170  0.710700  1.0  -0.1393
  C  C87  1  0.223650  0.878860  0.908400  1.0  0.3196
  C  C88  1  0.182390  0.832260  0.023900  1.0  -0.1049
  C  C89  1  0.912660  0.261910  0.913330  1.0  0.6564
  C  C90  1  0.870630  0.209500  0.044030  1.0  -0.1393
  C  C91  1  0.890320  0.212190  0.241730  1.0  0.3196
  C  C92  1  0.849060  0.165590  0.357230  1.0  -0.0977
  C  C93  1  0.579320  0.595250  0.246670  1.0  0.6565
  C  C94  1  0.537290  0.542840  0.377370  1.0  -0.1393
  C  C95  1  0.556980  0.545530  0.575070  1.0  0.3196
  C  C96  1  0.515720  0.498930  0.690570  1.0  -0.1048
  C  C97  1  0.071420  0.317410  0.580000  1.0  0.655
  C  C98  1  0.123830  0.327790  0.710700  1.0  -0.1392
  C  C99  1  0.121140  0.344790  0.908400  1.0  0.3187
  C  C100  1  0.167740  0.350130  0.023900  1.0  -0.1039
  C  C101  1  0.738090  0.650740  0.913330  1.0  0.655
  C  C102  1  0.790500  0.661120  0.044030  1.0  -0.1392
  C  C103  1  0.787810  0.678120  0.241730  1.0  0.3187
  C  C104  1  0.834410  0.683460  0.357230  1.0  -0.1034
  C  C105  1  0.404750  0.984080  0.246670  1.0  0.655
  C  C106  1  0.457160  0.994460  0.377370  1.0  -0.1401
  C  C107  1  0.454470  0.011460  0.575070  1.0  0.3187
  C  C108  1  0.501070  0.016800  0.690570  1.0  -0.1041
  O  O109  1  0.325630  0.293580  0.362300  1.0  -0.6316
  O  O110  1  0.302030  0.229250  0.603100  1.0  -0.5937
  O  O111  1  0.353720  0.272670  0.011700  1.0  -0.6541
  O  O112  1  0.992300  0.626910  0.695630  1.0  -0.6313
  O  O113  1  0.968700  0.562580  0.936430  1.0  -0.5937
  O  O114  1  0.020390  0.606000  0.345030  1.0  -0.6541
  O  O115  1  0.658960  0.960250  0.028970  1.0  -0.6316
  O  O116  1  0.635360  0.895920  0.269770  1.0  -0.5939
  O  O117  1  0.687050  0.939340  0.678370  1.0  -0.654
  O  O118  1  0.706420  0.032050  0.362300  1.0  -0.6315
  O  O119  1  0.770750  0.072780  0.603100  1.0  -0.5928
  O  O120  1  0.727330  0.081050  0.011700  1.0  -0.6547
  O  O121  1  0.373090  0.365380  0.695630  1.0  -0.6318
  O  O122  1  0.437420  0.406110  0.936430  1.0  -0.5928
  O  O123  1  0.394000  0.414380  0.345030  1.0  -0.6547
  O  O124  1  0.039750  0.698720  0.028970  1.0  -0.6315
  O  O125  1  0.104080  0.739450  0.269770  1.0  -0.5929
  O  O126  1  0.060660  0.747720  0.678370  1.0  -0.6547
  O  O127  1  0.967950  0.674370  0.362300  1.0  -0.6305
  O  O128  1  0.927220  0.697970  0.603100  1.0  -0.5963
  O  O129  1  0.918950  0.646280  0.011700  1.0  -0.6543
  O  O130  1  0.634620  0.007700  0.695630  1.0  -0.6302
  O  O131  1  0.593890  0.031300  0.936430  1.0  -0.5962
  O  O132  1  0.585620  0.979610  0.345030  1.0  -0.6543
  O  O133  1  0.301280  0.341040  0.028970  1.0  -0.6305
  O  O134  1  0.260550  0.364640  0.269770  1.0  -0.5962
  O  O135  1  0.252280  0.312950  0.678370  1.0  -0.6543
  O  O136  1  0.674370  0.706420  0.637700  1.0  -0.6301
  O  O137  1  0.697970  0.770750  0.396900  1.0  -0.5964
  O  O138  1  0.646280  0.727330  0.988300  1.0  -0.6556
  O  O139  1  0.341040  0.039750  0.971030  1.0  -0.6301
  O  O140  1  0.364640  0.104080  0.730230  1.0  -0.5965
  O  O141  1  0.312950  0.060660  0.321630  1.0  -0.6555
  O  O142  1  0.007700  0.373090  0.304370  1.0  -0.6298
  O  O143  1  0.031300  0.437420  0.063570  1.0  -0.5963
  O  O144  1  0.979610  0.394000  0.654970  1.0  -0.6556
  O  O145  1  0.293580  0.967950  0.637700  1.0  -0.633
  O  O146  1  0.229250  0.927220  0.396900  1.0  -0.5942
  O  O147  1  0.272670  0.918950  0.988300  1.0  -0.6525
  O  O148  1  0.960250  0.301280  0.971030  1.0  -0.633
  O  O149  1  0.895920  0.260550  0.730230  1.0  -0.5943
  O  O150  1  0.939340  0.252280  0.321630  1.0  -0.6525
  O  O151  1  0.626910  0.634620  0.304370  1.0  -0.6333
  O  O152  1  0.562580  0.593890  0.063570  1.0  -0.5942
  O  O153  1  0.606000  0.585620  0.654970  1.0  -0.6525
  O  O154  1  0.032050  0.325630  0.637700  1.0  -0.6316
  O  O155  1  0.072780  0.302030  0.396900  1.0  -0.5952
  O  O156  1  0.081050  0.353720  0.988300  1.0  -0.6535
  O  O157  1  0.698720  0.658960  0.971030  1.0  -0.6316
  O  O158  1  0.739450  0.635360  0.730230  1.0  -0.5951
  O  O159  1  0.747720  0.687050  0.321630  1.0  -0.6535
  O  O160  1  0.365380  0.992300  0.304370  1.0  -0.6313
  O  O161  1  0.406110  0.968700  0.063570  1.0  -0.5951
  O  O162  1  0.414380  0.020390  0.654970  1.0  -0.6535
