# generated using pymatgen
data_CuHC4O3
_symmetry_space_group_name_H-M   'P 1'
_cell_length_a   25.85820000
_cell_length_b   25.85820000
_cell_length_c   6.26150000
_cell_angle_alpha   90.00000000
_cell_angle_beta   90.00000000
_cell_angle_gamma   120.00000000
_symmetry_Int_Tables_number   1
_chemical_formula_structural   CuHC4O3
_chemical_formula_sum   'Cu18 H18 C72 O54'
_cell_volume   3625.81462979
_cell_formula_units_Z   18
loop_
 _symmetry_equiv_pos_site_id
 _symmetry_equiv_pos_as_xyz
  1  'x, y, z'
loop_
 _atom_site_type_symbol
 _atom_site_label
 _atom_site_symmetry_multiplicity
 _atom_site_fract_x
 _atom_site_fract_y
 _atom_site_fract_z
 _atom_site_occupancy
 _atom_site_charge
  Cu  Cu1  1  0.386510  0.349070  0.176100  1.0  0.8713
  Cu  Cu2  1  0.053180  0.682400  0.509430  1.0  0.8716
  Cu  Cu3  1  0.719840  0.015740  0.842770  1.0  0.8712
  Cu  Cu4  1  0.650930  0.037440  0.176100  1.0  0.8703
  Cu  Cu5  1  0.317600  0.370770  0.509430  1.0  0.8703
  Cu  Cu6  1  0.984260  0.704110  0.842770  1.0  0.8711
  Cu  Cu7  1  0.962560  0.613490  0.176100  1.0  0.8693
  Cu  Cu8  1  0.629230  0.946820  0.509430  1.0  0.8703
  Cu  Cu9  1  0.295890  0.280160  0.842770  1.0  0.8693
  Cu  Cu10  1  0.613490  0.650930  0.823900  1.0  0.8701
  Cu  Cu11  1  0.280160  0.984260  0.157230  1.0  0.8701
  Cu  Cu12  1  0.946820  0.317600  0.490570  1.0  0.8703
  Cu  Cu13  1  0.349070  0.962560  0.823900  1.0  0.8707
  Cu  Cu14  1  0.015740  0.295890  0.157230  1.0  0.8714
  Cu  Cu15  1  0.682400  0.629230  0.490570  1.0  0.8706
  Cu  Cu16  1  0.037440  0.386510  0.823900  1.0  0.8725
  Cu  Cu17  1  0.704110  0.719840  0.157230  1.0  0.8725
  Cu  Cu18  1  0.370770  0.053180  0.490570  1.0  0.8735
  H  H19  1  0.367200  0.195500  0.801600  1.0  0.1219
  H  H20  1  0.033870  0.528830  0.134930  1.0  0.1216
  H  H21  1  0.700530  0.862170  0.468270  1.0  0.1228
  H  H22  1  0.804500  0.171700  0.801600  1.0  0.1214
  H  H23  1  0.471170  0.505030  0.134930  1.0  0.1228
  H  H24  1  0.137830  0.838370  0.468270  1.0  0.1254
  H  H25  1  0.828300  0.632800  0.801600  1.0  0.1231
  H  H26  1  0.494970  0.966130  0.134930  1.0  0.1229
  H  H27  1  0.161630  0.299470  0.468270  1.0  0.1231
  H  H28  1  0.632800  0.804500  0.198400  1.0  0.1227
  H  H29  1  0.299470  0.137830  0.531730  1.0  0.1235
  H  H30  1  0.966130  0.471170  0.865070  1.0  0.1223
  H  H31  1  0.195500  0.828300  0.198400  1.0  0.122
  H  H32  1  0.862170  0.161630  0.531730  1.0  0.1259
  H  H33  1  0.528830  0.494970  0.865070  1.0  0.1235
  H  H34  1  0.171700  0.367200  0.198400  1.0  0.1245
  H  H35  1  0.838370  0.700530  0.531730  1.0  0.1242
  H  H36  1  0.505030  0.033870  0.865070  1.0  0.1237
  C  C37  1  0.324630  0.247840  0.465700  1.0  0.6993
  C  C38  1  0.327690  0.206210  0.299000  1.0  -0.133
  C  C39  1  0.348130  0.224730  0.092800  1.0  0.417
  C  C40  1  0.354120  0.184050  0.956900  1.0  -0.0768
  C  C41  1  0.991300  0.581170  0.799030  1.0  0.6999
  C  C42  1  0.994360  0.539540  0.632330  1.0  -0.1327
  C  C43  1  0.014800  0.558060  0.426130  1.0  0.417
  C  C44  1  0.020790  0.517380  0.290230  1.0  -0.0763
  C  C45  1  0.657960  0.914510  0.132370  1.0  0.6993
  C  C46  1  0.661020  0.872880  0.965670  1.0  -0.133
  C  C47  1  0.681460  0.891400  0.759470  1.0  0.417
  C  C48  1  0.687450  0.850720  0.623570  1.0  -0.0766
  C  C49  1  0.752160  0.076790  0.465700  1.0  0.6998
  C  C50  1  0.793790  0.121480  0.299000  1.0  -0.1323
  C  C51  1  0.775270  0.123400  0.092800  1.0  0.4162
  C  C52  1  0.815950  0.170070  0.956900  1.0  -0.0765
  C  C53  1  0.418830  0.410120  0.799030  1.0  0.6992
  C  C54  1  0.460460  0.454810  0.632330  1.0  -0.1321
  C  C55  1  0.441940  0.456730  0.426130  1.0  0.4162
  C  C56  1  0.482620  0.503400  0.290230  1.0  -0.0784
  C  C57  1  0.085490  0.743460  0.132370  1.0  0.6998
  C  C58  1  0.127120  0.788150  0.965670  1.0  -0.1323
  C  C59  1  0.108600  0.790070  0.759470  1.0  0.4162
  C  C60  1  0.149280  0.836740  0.623570  1.0  -0.0765
  C  C61  1  0.923210  0.675370  0.465700  1.0  0.6975
  C  C62  1  0.878520  0.672310  0.299000  1.0  -0.1326
  C  C63  1  0.876600  0.651870  0.092800  1.0  0.4177
  C  C64  1  0.829930  0.645880  0.956900  1.0  -0.0761
  C  C65  1  0.589880  0.008700  0.799030  1.0  0.6975
  C  C66  1  0.545190  0.005640  0.632330  1.0  -0.1336
  C  C67  1  0.543270  0.985200  0.426130  1.0  0.4178
  C  C68  1  0.496600  0.979210  0.290230  1.0  -0.0768
  C  C69  1  0.256540  0.342040  0.132370  1.0  0.6975
  C  C70  1  0.211850  0.338980  0.965670  1.0  -0.1326
  C  C71  1  0.209930  0.318540  0.759470  1.0  0.4177
  C  C72  1  0.163260  0.312550  0.623570  1.0  -0.0761
  C  C73  1  0.675370  0.752160  0.534300  1.0  0.6994
  C  C74  1  0.672310  0.793790  0.701000  1.0  -0.133
  C  C75  1  0.651870  0.775270  0.907200  1.0  0.4152
  C  C76  1  0.645880  0.815950  0.043100  1.0  -0.0767
  C  C77  1  0.342040  0.085490  0.867630  1.0  0.6994
  C  C78  1  0.338980  0.127120  0.034330  1.0  -0.133
  C  C79  1  0.318540  0.108600  0.240530  1.0  0.4152
  C  C80  1  0.312550  0.149280  0.376430  1.0  -0.0766
  C  C81  1  0.008700  0.418830  0.200970  1.0  0.6999
  C  C82  1  0.005640  0.460460  0.367670  1.0  -0.1328
  C  C83  1  0.985200  0.441940  0.573870  1.0  0.4153
  C  C84  1  0.979210  0.482620  0.709770  1.0  -0.0763
  C  C85  1  0.247840  0.923210  0.534300  1.0  0.7006
  C  C86  1  0.206210  0.878520  0.701000  1.0  -0.1323
  C  C87  1  0.224730  0.876600  0.907200  1.0  0.4153
  C  C88  1  0.184050  0.829930  0.043100  1.0  -0.0764
  C  C89  1  0.914510  0.256540  0.867630  1.0  0.7006
  C  C90  1  0.872880  0.211850  0.034330  1.0  -0.1323
  C  C91  1  0.891400  0.209930  0.240530  1.0  0.4153
  C  C92  1  0.850720  0.163260  0.376430  1.0  -0.0764
  C  C93  1  0.581170  0.589880  0.200970  1.0  0.7
  C  C94  1  0.539540  0.545190  0.367670  1.0  -0.1321
  C  C95  1  0.558060  0.543270  0.573870  1.0  0.4152
  C  C96  1  0.517380  0.496600  0.709770  1.0  -0.0782
  C  C97  1  0.076790  0.324630  0.534300  1.0  0.6978
  C  C98  1  0.121480  0.327690  0.701000  1.0  -0.1317
  C  C99  1  0.123400  0.348130  0.907200  1.0  0.4165
  C  C100  1  0.170070  0.354120  0.043100  1.0  -0.0758
  C  C101  1  0.743460  0.657960  0.867630  1.0  0.6978
  C  C102  1  0.788150  0.661020  0.034330  1.0  -0.1317
  C  C103  1  0.790070  0.681460  0.240530  1.0  0.4165
  C  C104  1  0.836740  0.687450  0.376430  1.0  -0.0757
  C  C105  1  0.410120  0.991300  0.200970  1.0  0.6981
  C  C106  1  0.454810  0.994360  0.367670  1.0  -0.1326
  C  C107  1  0.456730  0.014800  0.573870  1.0  0.4165
  C  C108  1  0.503400  0.020790  0.709770  1.0  -0.0765
  O  O109  1  0.354410  0.303060  0.433500  1.0  -0.6489
  O  O110  1  0.292170  0.224000  0.628700  1.0  -0.6048
  O  O111  1  0.360500  0.277020  0.007800  1.0  -0.649
  O  O112  1  0.021080  0.636390  0.766830  1.0  -0.6465
  O  O113  1  0.958840  0.557330  0.962030  1.0  -0.6053
  O  O114  1  0.027170  0.610350  0.341130  1.0  -0.649
  O  O115  1  0.687740  0.969730  0.100170  1.0  -0.6471
  O  O116  1  0.625500  0.890670  0.295370  1.0  -0.6047
  O  O117  1  0.693830  0.943690  0.674470  1.0  -0.6491
  O  O118  1  0.696940  0.051350  0.433500  1.0  -0.6484
  O  O119  1  0.776000  0.068170  0.628700  1.0  -0.6052
  O  O120  1  0.722980  0.083480  0.007800  1.0  -0.6487
  O  O121  1  0.363610  0.384680  0.766830  1.0  -0.6491
  O  O122  1  0.442670  0.401500  0.962030  1.0  -0.5999
  O  O123  1  0.389650  0.416810  0.341130  1.0  -0.6484
  O  O124  1  0.030270  0.718020  0.100170  1.0  -0.6485
  O  O125  1  0.109330  0.734840  0.295370  1.0  -0.6055
  O  O126  1  0.056310  0.750150  0.674470  1.0  -0.6484
  O  O127  1  0.948650  0.645590  0.433500  1.0  -0.6468
  O  O128  1  0.931830  0.707830  0.628700  1.0  -0.6082
  O  O129  1  0.916520  0.639500  0.007800  1.0  -0.6476
  O  O130  1  0.615320  0.978920  0.766830  1.0  -0.6477
  O  O131  1  0.598500  0.041160  0.962030  1.0  -0.6062
  O  O132  1  0.583190  0.972830  0.341130  1.0  -0.6476
  O  O133  1  0.281980  0.312260  0.100170  1.0  -0.647
  O  O134  1  0.265160  0.374500  0.295370  1.0  -0.5997
  O  O135  1  0.249850  0.306170  0.674470  1.0  -0.6476
  O  O136  1  0.645590  0.696940  0.566500  1.0  -0.6517
  O  O137  1  0.707830  0.776000  0.371300  1.0  -0.6066
  O  O138  1  0.639500  0.722980  0.992200  1.0  -0.6475
  O  O139  1  0.312260  0.030270  0.899830  1.0  -0.6499
  O  O140  1  0.374500  0.109330  0.704630  1.0  -0.6066
  O  O141  1  0.306170  0.056310  0.325530  1.0  -0.6477
  O  O142  1  0.978920  0.363610  0.233170  1.0  -0.6494
  O  O143  1  0.041160  0.442670  0.037970  1.0  -0.607
  O  O144  1  0.972830  0.389650  0.658870  1.0  -0.6475
  O  O145  1  0.303060  0.948650  0.566500  1.0  -0.6462
  O  O146  1  0.224000  0.931830  0.371300  1.0  -0.6035
  O  O147  1  0.277020  0.916520  0.992200  1.0  -0.6478
  O  O148  1  0.969730  0.281980  0.899830  1.0  -0.6464
  O  O149  1  0.890670  0.265160  0.704630  1.0  -0.6039
  O  O150  1  0.943690  0.249850  0.325530  1.0  -0.6475
  O  O151  1  0.636390  0.615320  0.233170  1.0  -0.6469
  O  O152  1  0.557330  0.598500  0.037970  1.0  -0.5984
  O  O153  1  0.610350  0.583190  0.658870  1.0  -0.6476
  O  O154  1  0.051350  0.354410  0.566500  1.0  -0.6483
  O  O155  1  0.068170  0.292170  0.371300  1.0  -0.6058
  O  O156  1  0.083480  0.360500  0.992200  1.0  -0.6481
  O  O157  1  0.718020  0.687740  0.899830  1.0  -0.6486
  O  O158  1  0.734840  0.625500  0.704630  1.0  -0.5993
  O  O159  1  0.750150  0.693830  0.325530  1.0  -0.6481
  O  O160  1  0.384680  0.021080  0.233170  1.0  -0.6491
  O  O161  1  0.401500  0.958840  0.037970  1.0  -0.6041
  O  O162  1  0.416810  0.027170  0.658870  1.0  -0.6481
