# generated using pymatgen
data_ZnHC4O3
_symmetry_space_group_name_H-M   'P 1'
_cell_length_a   25.91400000
_cell_length_b   25.91400000
_cell_length_c   6.79860000
_cell_angle_alpha   90.00000000
_cell_angle_beta   90.00000000
_cell_angle_gamma   120.00000000
_symmetry_Int_Tables_number   1
_chemical_formula_structural   ZnHC4O3
_chemical_formula_sum   'Zn18 H18 C72 O54'
_cell_volume   3953.83945144
_cell_formula_units_Z   18
loop_
 _symmetry_equiv_pos_site_id
 _symmetry_equiv_pos_as_xyz
  1  'x, y, z'
loop_
 _atom_site_type_symbol
 _atom_site_label
 _atom_site_symmetry_multiplicity
 _atom_site_fract_x
 _atom_site_fract_y
 _atom_site_fract_z
 _atom_site_occupancy
 _atom_site_charge
  Zn  Zn1  1  0.383600  0.354600  0.143600  1.0  1.0146
  Zn  Zn2  1  0.050270  0.687930  0.476930  1.0  1.0145
  Zn  Zn3  1  0.716930  0.021270  0.810270  1.0  1.0146
  Zn  Zn4  1  0.645400  0.029000  0.143600  1.0  1.0181
  Zn  Zn5  1  0.312070  0.362330  0.476930  1.0  1.018
  Zn  Zn6  1  0.978730  0.695670  0.810270  1.0  1.018
  Zn  Zn7  1  0.971000  0.616400  0.143600  1.0  1.0169
  Zn  Zn8  1  0.637670  0.949730  0.476930  1.0  1.0165
  Zn  Zn9  1  0.304330  0.283070  0.810270  1.0  1.0169
  Zn  Zn10  1  0.616400  0.645400  0.856400  1.0  1.0146
  Zn  Zn11  1  0.283070  0.978730  0.189730  1.0  1.0147
  Zn  Zn12  1  0.949730  0.312070  0.523070  1.0  1.0146
  Zn  Zn13  1  0.354600  0.971000  0.856400  1.0  1.0156
  Zn  Zn14  1  0.021270  0.304330  0.189730  1.0  1.0155
  Zn  Zn15  1  0.687930  0.637670  0.523070  1.0  1.0155
  Zn  Zn16  1  0.029000  0.383600  0.856400  1.0  1.0182
  Zn  Zn17  1  0.695670  0.716930  0.189730  1.0  1.0182
  Zn  Zn18  1  0.362330  0.050270  0.523070  1.0  1.0177
  H  H19  1  0.360900  0.191000  0.835000  1.0  0.1887
  H  H20  1  0.027570  0.524330  0.168330  1.0  0.1868
  H  H21  1  0.694230  0.857670  0.501670  1.0  0.185
  H  H22  1  0.809000  0.169900  0.835000  1.0  0.1887
  H  H23  1  0.475670  0.503230  0.168330  1.0  0.1854
  H  H24  1  0.142330  0.836570  0.501670  1.0  0.1854
  H  H25  1  0.830100  0.639100  0.835000  1.0  0.1847
  H  H26  1  0.496770  0.972430  0.168330  1.0  0.1882
  H  H27  1  0.163430  0.305770  0.501670  1.0  0.1855
  H  H28  1  0.639100  0.809000  0.165000  1.0  0.1913
  H  H29  1  0.305770  0.142330  0.498330  1.0  0.1878
  H  H30  1  0.972430  0.475670  0.831670  1.0  0.1892
  H  H31  1  0.191000  0.830100  0.165000  1.0  0.1904
  H  H32  1  0.857670  0.163430  0.498330  1.0  0.1873
  H  H33  1  0.524330  0.496770  0.831670  1.0  0.1875
  H  H34  1  0.169900  0.360900  0.165000  1.0  0.1864
  H  H35  1  0.836570  0.694230  0.498330  1.0  0.1874
  H  H36  1  0.503230  0.027570  0.831670  1.0  0.1895
  C  C37  1  0.315700  0.244800  0.433900  1.0  0.6927
  C  C38  1  0.327000  0.206400  0.283700  1.0  -0.1637
  C  C39  1  0.343100  0.221200  0.091900  1.0  0.3209
  C  C40  1  0.352500  0.184100  0.964400  1.0  -0.0754
  C  C41  1  0.982370  0.578130  0.767230  1.0  0.6922
  C  C42  1  0.993670  0.539730  0.617030  1.0  -0.1642
  C  C43  1  0.009770  0.554530  0.425230  1.0  0.3209
  C  C44  1  0.019170  0.517430  0.297730  1.0  -0.0743
  C  C45  1  0.649030  0.911470  0.100570  1.0  0.6927
  C  C46  1  0.660330  0.873070  0.950370  1.0  -0.1639
  C  C47  1  0.676430  0.887870  0.758570  1.0  0.3209
  C  C48  1  0.685830  0.850770  0.631070  1.0  -0.0842
  C  C49  1  0.755200  0.070900  0.433900  1.0  0.6916
  C  C50  1  0.793600  0.120600  0.283700  1.0  -0.1643
  C  C51  1  0.778800  0.121900  0.091900  1.0  0.3221
  C  C52  1  0.815900  0.168400  0.964400  1.0  -0.0785
  C  C53  1  0.421870  0.404230  0.767230  1.0  0.6921
  C  C54  1  0.460270  0.453930  0.617030  1.0  -0.1645
  C  C55  1  0.445470  0.455230  0.425230  1.0  0.3225
  C  C56  1  0.482570  0.501730  0.297730  1.0  -0.0818
  C  C57  1  0.088530  0.737570  0.100570  1.0  0.6923
  C  C58  1  0.126930  0.787270  0.950370  1.0  -0.1643
  C  C59  1  0.112130  0.788570  0.758570  1.0  0.3221
  C  C60  1  0.149230  0.835070  0.631070  1.0  -0.0816
  C  C61  1  0.929100  0.684300  0.433900  1.0  0.6904
  C  C62  1  0.879400  0.673000  0.283700  1.0  -0.1643
  C  C63  1  0.878100  0.656900  0.091900  1.0  0.3255
  C  C64  1  0.831600  0.647500  0.964400  1.0  -0.0783
  C  C65  1  0.595770  0.017630  0.767230  1.0  0.6906
  C  C66  1  0.546070  0.006330  0.617030  1.0  -0.1642
  C  C67  1  0.544770  0.990230  0.425230  1.0  0.3255
  C  C68  1  0.498270  0.980830  0.297730  1.0  -0.0743
  C  C69  1  0.262430  0.350970  0.100570  1.0  0.6906
  C  C70  1  0.212730  0.339670  0.950370  1.0  -0.1643
  C  C71  1  0.211430  0.323570  0.758570  1.0  0.3255
  C  C72  1  0.164930  0.314170  0.631070  1.0  -0.0834
  C  C73  1  0.684300  0.755200  0.566100  1.0  0.6903
  C  C74  1  0.673000  0.793600  0.716300  1.0  -0.1639
  C  C75  1  0.656900  0.778800  0.908100  1.0  0.3222
  C  C76  1  0.647500  0.815900  0.035600  1.0  -0.0755
  C  C77  1  0.350970  0.088530  0.899430  1.0  0.6903
  C  C78  1  0.339670  0.126930  0.049630  1.0  -0.164
  C  C79  1  0.323570  0.112130  0.241430  1.0  0.3222
  C  C80  1  0.314170  0.149230  0.368930  1.0  -0.0839
  C  C81  1  0.017630  0.421870  0.232770  1.0  0.6898
  C  C82  1  0.006330  0.460270  0.382970  1.0  -0.1643
  C  C83  1  0.990230  0.445470  0.574770  1.0  0.3222
  C  C84  1  0.980830  0.482570  0.702270  1.0  -0.0752
  C  C85  1  0.244800  0.929100  0.566100  1.0  0.6914
  C  C86  1  0.206400  0.879400  0.716300  1.0  -0.1642
  C  C87  1  0.221200  0.878100  0.908100  1.0  0.3228
  C  C88  1  0.184100  0.831600  0.035600  1.0  -0.0751
  C  C89  1  0.911470  0.262430  0.899430  1.0  0.6921
  C  C90  1  0.873070  0.212730  0.049630  1.0  -0.1643
  C  C91  1  0.887870  0.211430  0.241430  1.0  0.3228
  C  C92  1  0.850770  0.164930  0.368930  1.0  -0.0798
  C  C93  1  0.578130  0.595770  0.232770  1.0  0.692
  C  C94  1  0.539730  0.546070  0.382970  1.0  -0.1644
  C  C95  1  0.554530  0.544770  0.574770  1.0  0.3232
  C  C96  1  0.517430  0.498270  0.702270  1.0  -0.0789
  C  C97  1  0.070900  0.315700  0.566100  1.0  0.6892
  C  C98  1  0.120600  0.327000  0.716300  1.0  -0.1637
  C  C99  1  0.121900  0.343100  0.908100  1.0  0.322
  C  C100  1  0.168400  0.352500  0.035600  1.0  -0.0777
  C  C101  1  0.737570  0.649030  0.899430  1.0  0.6894
  C  C102  1  0.787270  0.660330  0.049630  1.0  -0.1637
  C  C103  1  0.788570  0.676430  0.241430  1.0  0.322
  C  C104  1  0.835070  0.685830  0.368930  1.0  -0.0829
  C  C105  1  0.404230  0.982370  0.232770  1.0  0.6893
  C  C106  1  0.453930  0.993670  0.382970  1.0  -0.1636
  C  C107  1  0.455230  0.009770  0.574770  1.0  0.3219
  C  C108  1  0.501730  0.019170  0.702270  1.0  -0.0738
  O  O109  1  0.328100  0.296600  0.375100  1.0  -0.68
  O  O110  1  0.300100  0.226700  0.611200  1.0  -0.6289
  O  O111  1  0.353700  0.274300  0.016600  1.0  -0.6671
  O  O112  1  0.994770  0.629930  0.708430  1.0  -0.6799
  O  O113  1  0.966770  0.560030  0.944530  1.0  -0.6289
  O  O114  1  0.020370  0.607630  0.349930  1.0  -0.6671
  O  O115  1  0.661430  0.963270  0.041770  1.0  -0.6801
  O  O116  1  0.633430  0.893370  0.277870  1.0  -0.6209
  O  O117  1  0.687030  0.940970  0.683270  1.0  -0.667
  O  O118  1  0.703400  0.031500  0.375100  1.0  -0.6841
  O  O119  1  0.773300  0.073400  0.611200  1.0  -0.6244
  O  O120  1  0.725700  0.079400  0.016600  1.0  -0.667
  O  O121  1  0.370070  0.364830  0.708430  1.0  -0.6841
  O  O122  1  0.439970  0.406730  0.944530  1.0  -0.6176
  O  O123  1  0.392370  0.412730  0.349930  1.0  -0.6669
  O  O124  1  0.036730  0.698170  0.041770  1.0  -0.6839
  O  O125  1  0.106630  0.740070  0.277870  1.0  -0.6284
  O  O126  1  0.059030  0.746070  0.683270  1.0  -0.6668
  O  O127  1  0.968500  0.671900  0.375100  1.0  -0.6844
  O  O128  1  0.926600  0.699900  0.611200  1.0  -0.6273
  O  O129  1  0.920600  0.646300  0.016600  1.0  -0.6664
  O  O130  1  0.635170  0.005230  0.708430  1.0  -0.6844
  O  O131  1  0.593270  0.033230  0.944530  1.0  -0.631
  O  O132  1  0.587270  0.979630  0.349930  1.0  -0.6663
  O  O133  1  0.301830  0.338570  0.041770  1.0  -0.6844
  O  O134  1  0.259930  0.366570  0.277870  1.0  -0.6209
  O  O135  1  0.253930  0.312970  0.683270  1.0  -0.6664
  O  O136  1  0.671900  0.703400  0.624900  1.0  -0.6822
  O  O137  1  0.699900  0.773300  0.388800  1.0  -0.6281
  O  O138  1  0.646300  0.725700  0.983400  1.0  -0.6675
  O  O139  1  0.338570  0.036730  0.958230  1.0  -0.6823
  O  O140  1  0.366570  0.106630  0.722130  1.0  -0.6208
  O  O141  1  0.312970  0.059030  0.316730  1.0  -0.6673
  O  O142  1  0.005230  0.370070  0.291570  1.0  -0.6822
  O  O143  1  0.033230  0.439970  0.055470  1.0  -0.6281
  O  O144  1  0.979630  0.392370  0.650070  1.0  -0.6676
  O  O145  1  0.296600  0.968500  0.624900  1.0  -0.6829
  O  O146  1  0.226700  0.926600  0.388800  1.0  -0.625
  O  O147  1  0.274300  0.920600  0.983400  1.0  -0.6659
  O  O148  1  0.963270  0.301830  0.958230  1.0  -0.6828
  O  O149  1  0.893370  0.259930  0.722130  1.0  -0.6292
  O  O150  1  0.940970  0.253930  0.316730  1.0  -0.6657
  O  O151  1  0.629930  0.635170  0.291570  1.0  -0.683
  O  O152  1  0.560030  0.593270  0.055470  1.0  -0.6187
  O  O153  1  0.607630  0.587270  0.650070  1.0  -0.6658
  O  O154  1  0.031500  0.328100  0.624900  1.0  -0.6828
  O  O155  1  0.073400  0.300100  0.388800  1.0  -0.6256
  O  O156  1  0.079400  0.353700  0.983400  1.0  -0.6671
  O  O157  1  0.698170  0.661430  0.958230  1.0  -0.6828
  O  O158  1  0.740070  0.633430  0.722130  1.0  -0.6214
  O  O159  1  0.746070  0.687030  0.316730  1.0  -0.6672
  O  O160  1  0.364830  0.994770  0.291570  1.0  -0.6827
  O  O161  1  0.406730  0.966770  0.055470  1.0  -0.6301
  O  O162  1  0.412730  0.020370  0.650070  1.0  -0.667
