# generated using pymatgen
data_ZnHC4O3
_symmetry_space_group_name_H-M   'P 1'
_cell_length_a   25.85040000
_cell_length_b   25.85040000
_cell_length_c   6.80720000
_cell_angle_alpha   90.00000000
_cell_angle_beta   90.00000000
_cell_angle_gamma   120.00000000
_symmetry_Int_Tables_number   1
_chemical_formula_structural   ZnHC4O3
_chemical_formula_sum   'Zn18 H18 C72 O54'
_cell_volume   3939.43262759
_cell_formula_units_Z   18
loop_
 _symmetry_equiv_pos_site_id
 _symmetry_equiv_pos_as_xyz
  1  'x, y, z'
loop_
 _atom_site_type_symbol
 _atom_site_label
 _atom_site_symmetry_multiplicity
 _atom_site_fract_x
 _atom_site_fract_y
 _atom_site_fract_z
 _atom_site_occupancy
 _atom_site_charge
  Zn  Zn1  1  0.381900  0.350900  0.145400  1.0  0.947
  Zn  Zn2  1  0.048570  0.684230  0.478730  1.0  0.9467
  Zn  Zn3  1  0.715230  0.017570  0.812070  1.0  0.947
  Zn  Zn4  1  0.649100  0.031000  0.145400  1.0  0.9486
  Zn  Zn5  1  0.315770  0.364330  0.478730  1.0  0.9485
  Zn  Zn6  1  0.982430  0.697670  0.812070  1.0  0.9467
  Zn  Zn7  1  0.969000  0.618100  0.145400  1.0  0.9472
  Zn  Zn8  1  0.635670  0.951430  0.478730  1.0  0.9471
  Zn  Zn9  1  0.302330  0.284770  0.812070  1.0  0.9471
  Zn  Zn10  1  0.618100  0.649100  0.854600  1.0  0.9463
  Zn  Zn11  1  0.284770  0.982430  0.187930  1.0  0.9464
  Zn  Zn12  1  0.951430  0.315770  0.521270  1.0  0.9461
  Zn  Zn13  1  0.350900  0.969000  0.854600  1.0  0.9467
  Zn  Zn14  1  0.017570  0.302330  0.187930  1.0  0.9449
  Zn  Zn15  1  0.684230  0.635670  0.521270  1.0  0.9466
  Zn  Zn16  1  0.031000  0.381900  0.854600  1.0  0.9508
  Zn  Zn17  1  0.697670  0.715230  0.187930  1.0  0.9508
  Zn  Zn18  1  0.364330  0.048570  0.521270  1.0  0.9508
  H  H19  1  0.363300  0.190500  0.845000  1.0  0.1465
  H  H20  1  0.029970  0.523830  0.178330  1.0  0.1465
  H  H21  1  0.696630  0.857170  0.511670  1.0  0.1498
  H  H22  1  0.809500  0.172800  0.845000  1.0  0.1483
  H  H23  1  0.476170  0.506130  0.178330  1.0  0.1483
  H  H24  1  0.142830  0.839470  0.511670  1.0  0.145
  H  H25  1  0.827200  0.636700  0.845000  1.0  0.1487
  H  H26  1  0.493870  0.970030  0.178330  1.0  0.1488
  H  H27  1  0.160530  0.303370  0.511670  1.0  0.1291
  H  H28  1  0.636700  0.809500  0.155000  1.0  0.1497
  H  H29  1  0.303370  0.142830  0.488330  1.0  0.1534
  H  H30  1  0.970030  0.476170  0.821670  1.0  0.1497
  H  H31  1  0.190500  0.827200  0.155000  1.0  0.1515
  H  H32  1  0.857170  0.160530  0.488330  1.0  0.1485
  H  H33  1  0.523830  0.493870  0.821670  1.0  0.1515
  H  H34  1  0.172800  0.363300  0.155000  1.0  0.1499
  H  H35  1  0.839470  0.696630  0.488330  1.0  0.1306
  H  H36  1  0.506130  0.029970  0.821670  1.0  0.15
  C  C37  1  0.316500  0.245200  0.429100  1.0  0.7416
  C  C38  1  0.345600  0.221200  0.096600  1.0  0.318
  C  C39  1  0.326900  0.208100  0.287900  1.0  -0.1828
  C  C40  1  0.350300  0.181600  0.969500  1.0  -0.0397
  C  C41  1  0.983170  0.578530  0.762430  1.0  0.7417
  C  C42  1  0.012270  0.554530  0.429930  1.0  0.318
  C  C43  1  0.993570  0.541430  0.621230  1.0  -0.183
  C  C44  1  0.016970  0.514930  0.302830  1.0  -0.0398
  C  C45  1  0.649830  0.911870  0.095770  1.0  0.7417
  C  C46  1  0.678930  0.887870  0.763270  1.0  0.3154
  C  C47  1  0.660230  0.874770  0.954570  1.0  -0.1827
  C  C48  1  0.683630  0.848270  0.636170  1.0  -0.0433
  C  C49  1  0.754800  0.071300  0.429100  1.0  0.7411
  C  C50  1  0.778800  0.124400  0.096600  1.0  0.3197
  C  C51  1  0.791900  0.118800  0.287900  1.0  -0.1823
  C  C52  1  0.818400  0.168700  0.969500  1.0  -0.0405
  C  C53  1  0.421470  0.404630  0.762430  1.0  0.7412
  C  C54  1  0.445470  0.457730  0.429930  1.0  0.3197
  C  C55  1  0.458570  0.452130  0.621230  1.0  -0.1825
  C  C56  1  0.485070  0.502030  0.302830  1.0  -0.0405
  C  C57  1  0.088130  0.737970  0.095770  1.0  0.7412
  C  C58  1  0.112130  0.791070  0.763270  1.0  0.3227
  C  C59  1  0.125230  0.785470  0.954570  1.0  -0.1824
  C  C60  1  0.151730  0.835370  0.636170  1.0  -0.0424
  C  C61  1  0.928700  0.683500  0.429100  1.0  0.7391
  C  C62  1  0.875600  0.654400  0.096600  1.0  0.3217
  C  C63  1  0.881200  0.673100  0.287900  1.0  -0.1827
  C  C64  1  0.831300  0.649700  0.969500  1.0  -0.0405
  C  C65  1  0.595370  0.016830  0.762430  1.0  0.739
  C  C66  1  0.542270  0.987730  0.429930  1.0  0.322
  C  C67  1  0.547870  0.006430  0.621230  1.0  -0.1824
  C  C68  1  0.497970  0.983030  0.302830  1.0  -0.0404
  C  C69  1  0.262030  0.350170  0.095770  1.0  0.7388
  C  C70  1  0.208930  0.321070  0.763270  1.0  0.322
  C  C71  1  0.214530  0.339770  0.954570  1.0  -0.1827
  C  C72  1  0.164630  0.316370  0.636170  1.0  -0.0668
  C  C73  1  0.683500  0.754800  0.570900  1.0  0.7409
  C  C74  1  0.654400  0.778800  0.903400  1.0  0.3194
  C  C75  1  0.673100  0.791900  0.712100  1.0  -0.1822
  C  C76  1  0.649700  0.818400  0.030500  1.0  -0.0409
  C  C77  1  0.350170  0.088130  0.904230  1.0  0.741
  C  C78  1  0.321070  0.112130  0.236730  1.0  0.3166
  C  C79  1  0.339770  0.125230  0.045430  1.0  -0.1821
  C  C80  1  0.316370  0.151730  0.363830  1.0  -0.0442
  C  C81  1  0.016830  0.421470  0.237570  1.0  0.741
  C  C82  1  0.987730  0.445470  0.570070  1.0  0.3194
  C  C83  1  0.006430  0.458570  0.378770  1.0  -0.1824
  C  C84  1  0.983030  0.485070  0.697170  1.0  -0.0408
  C  C85  1  0.245200  0.928700  0.570900  1.0  0.7408
  C  C86  1  0.221200  0.875600  0.903400  1.0  0.3189
  C  C87  1  0.208100  0.881200  0.712100  1.0  -0.1817
  C  C88  1  0.181600  0.831300  0.030500  1.0  -0.0393
  C  C89  1  0.911870  0.262030  0.904230  1.0  0.7408
  C  C90  1  0.887870  0.208930  0.236730  1.0  0.3223
  C  C91  1  0.874770  0.214530  0.045430  1.0  -0.1817
  C  C92  1  0.848270  0.164630  0.363830  1.0  -0.0422
  C  C93  1  0.578530  0.595370  0.237570  1.0  0.7409
  C  C94  1  0.554530  0.542270  0.570070  1.0  0.3191
  C  C95  1  0.541430  0.547870  0.378770  1.0  -0.1819
  C  C96  1  0.514930  0.497970  0.697170  1.0  -0.0392
  C  C97  1  0.071300  0.316500  0.570900  1.0  0.7381
  C  C98  1  0.124400  0.345600  0.903400  1.0  0.3203
  C  C99  1  0.118800  0.326900  0.712100  1.0  -0.1822
  C  C100  1  0.168700  0.350300  0.030500  1.0  -0.0395
  C  C101  1  0.737970  0.649830  0.904230  1.0  0.7377
  C  C102  1  0.791070  0.678930  0.236730  1.0  0.3207
  C  C103  1  0.785470  0.660230  0.045430  1.0  -0.1822
  C  C104  1  0.835370  0.683630  0.363830  1.0  -0.0657
  C  C105  1  0.404630  0.983170  0.237570  1.0  0.7379
  C  C106  1  0.457730  0.012270  0.570070  1.0  0.3203
  C  C107  1  0.452130  0.993570  0.378770  1.0  -0.1819
  C  C108  1  0.502030  0.016970  0.697170  1.0  -0.0395
  O  O109  1  0.332500  0.295500  0.371900  1.0  -0.6309
  O  O110  1  0.355800  0.274200  0.009500  1.0  -0.6998
  O  O111  1  0.438700  0.409300  0.932800  1.0  -0.5986
  O  O112  1  0.999170  0.628830  0.705230  1.0  -0.6308
  O  O113  1  0.022470  0.607530  0.342830  1.0  -0.6998
  O  O114  1  0.105370  0.742630  0.266130  1.0  -0.5987
  O  O115  1  0.665830  0.962170  0.038570  1.0  -0.6309
  O  O116  1  0.689130  0.940870  0.676170  1.0  -0.7004
  O  O117  1  0.772030  0.075970  0.599470  1.0  -0.5983
  O  O118  1  0.704500  0.037000  0.371900  1.0  -0.6314
  O  O119  1  0.725800  0.081600  0.009500  1.0  -0.6977
  O  O120  1  0.590700  0.029400  0.932800  1.0  -0.5983
  O  O121  1  0.371170  0.370330  0.705230  1.0  -0.6314
  O  O122  1  0.392470  0.414930  0.342830  1.0  -0.6977
  O  O123  1  0.257370  0.362730  0.266130  1.0  -0.5981
  O  O124  1  0.037830  0.703670  0.038570  1.0  -0.6314
  O  O125  1  0.059130  0.748270  0.676170  1.0  -0.6977
  O  O126  1  0.924030  0.696070  0.599470  1.0  -0.5984
  O  O127  1  0.963000  0.667500  0.371900  1.0  -0.6311
  O  O128  1  0.918400  0.644200  0.009500  1.0  -0.6989
  O  O129  1  0.970600  0.561300  0.932800  1.0  -0.5988
  O  O130  1  0.629670  0.000830  0.705230  1.0  -0.6311
  O  O131  1  0.585070  0.977530  0.342830  1.0  -0.6989
  O  O132  1  0.637270  0.894630  0.266130  1.0  -0.5986
  O  O133  1  0.296330  0.334170  0.038570  1.0  -0.6311
  O  O134  1  0.251730  0.310870  0.676170  1.0  -0.6989
  O  O135  1  0.303930  0.227970  0.599470  1.0  -0.5988
  O  O136  1  0.667500  0.704500  0.628100  1.0  -0.6323
  O  O137  1  0.644200  0.725800  0.990500  1.0  -0.7001
  O  O138  1  0.561300  0.590700  0.067200  1.0  -0.5986
  O  O139  1  0.334170  0.037830  0.961430  1.0  -0.6323
  O  O140  1  0.310870  0.059130  0.323830  1.0  -0.7006
  O  O141  1  0.227970  0.924030  0.400530  1.0  -0.5983
  O  O142  1  0.000830  0.371170  0.294770  1.0  -0.6322
  O  O143  1  0.977530  0.392470  0.657170  1.0  -0.7001
  O  O144  1  0.894630  0.257370  0.733870  1.0  -0.5987
  O  O145  1  0.295500  0.963000  0.628100  1.0  -0.6306
  O  O146  1  0.274200  0.918400  0.990500  1.0  -0.6972
  O  O147  1  0.409300  0.970600  0.067200  1.0  -0.5985
  O  O148  1  0.962170  0.296330  0.961430  1.0  -0.6306
  O  O149  1  0.940870  0.251730  0.323830  1.0  -0.6972
  O  O150  1  0.075970  0.303930  0.400530  1.0  -0.5986
  O  O151  1  0.628830  0.629670  0.294770  1.0  -0.6306
  O  O152  1  0.607530  0.585070  0.657170  1.0  -0.6972
  O  O153  1  0.742630  0.637270  0.733870  1.0  -0.5982
  O  O154  1  0.037000  0.332500  0.628100  1.0  -0.6322
  O  O155  1  0.081600  0.355800  0.990500  1.0  -0.6995
  O  O156  1  0.029400  0.438700  0.067200  1.0  -0.5971
  O  O157  1  0.703670  0.665830  0.961430  1.0  -0.6322
  O  O158  1  0.748270  0.689130  0.323830  1.0  -0.6995
  O  O159  1  0.696070  0.772030  0.400530  1.0  -0.5971
  O  O160  1  0.370330  0.999170  0.294770  1.0  -0.6322
  O  O161  1  0.414930  0.022470  0.657170  1.0  -0.6995
  O  O162  1  0.362730  0.105370  0.733870  1.0  -0.5969
