# generated using pymatgen
data_FeHC4O3
_symmetry_space_group_name_H-M   'P 1'
_cell_length_a   26.00100000
_cell_length_b   26.00100000
_cell_length_c   6.86070000
_cell_angle_alpha   90.00000000
_cell_angle_beta   90.00000000
_cell_angle_gamma   120.00000000
_symmetry_Int_Tables_number   1
_chemical_formula_structural   FeHC4O3
_chemical_formula_sum   'Fe18 H18 C72 O54'
_cell_volume   4016.79033576
_cell_formula_units_Z   18
loop_
 _symmetry_equiv_pos_site_id
 _symmetry_equiv_pos_as_xyz
  1  'x, y, z'
loop_
 _atom_site_type_symbol
 _atom_site_label
 _atom_site_symmetry_multiplicity
 _atom_site_fract_x
 _atom_site_fract_y
 _atom_site_fract_z
 _atom_site_occupancy
 _atom_site_charge
  Fe  Fe1  1  0.385560  0.352940  0.142700  1.0  0.9586
  Fe  Fe2  1  0.052230  0.686270  0.476030  1.0  0.9584
  Fe  Fe3  1  0.718890  0.019610  0.809370  1.0  0.9589
  Fe  Fe4  1  0.647060  0.032620  0.142700  1.0  0.9595
  Fe  Fe5  1  0.313730  0.365950  0.476030  1.0  0.9593
  Fe  Fe6  1  0.980390  0.699290  0.809370  1.0  0.9594
  Fe  Fe7  1  0.967380  0.614440  0.142700  1.0  0.9582
  Fe  Fe8  1  0.634050  0.947770  0.476030  1.0  0.9588
  Fe  Fe9  1  0.300710  0.281110  0.809370  1.0  0.9584
  Fe  Fe10  1  0.614440  0.647060  0.857300  1.0  0.959
  Fe  Fe11  1  0.281110  0.980390  0.190630  1.0  0.9594
  Fe  Fe12  1  0.947770  0.313730  0.523970  1.0  0.9588
  Fe  Fe13  1  0.352940  0.967380  0.857300  1.0  0.9588
  Fe  Fe14  1  0.019610  0.300710  0.190630  1.0  0.9588
  Fe  Fe15  1  0.686270  0.634050  0.523970  1.0  0.9587
  Fe  Fe16  1  0.032620  0.385560  0.857300  1.0  0.9585
  Fe  Fe17  1  0.699290  0.718890  0.190630  1.0  0.9587
  Fe  Fe18  1  0.365950  0.052230  0.523970  1.0  0.9591
  H  H19  1  0.360600  0.195400  0.828700  1.0  0.1305
  H  H20  1  0.027270  0.528730  0.162030  1.0  0.1305
  H  H21  1  0.693930  0.862070  0.495370  1.0  0.1352
  H  H22  1  0.804600  0.165200  0.828700  1.0  0.1343
  H  H23  1  0.471270  0.498530  0.162030  1.0  0.1343
  H  H24  1  0.137930  0.831870  0.495370  1.0  0.1344
  H  H25  1  0.834800  0.639400  0.828700  1.0  0.1337
  H  H26  1  0.501470  0.972730  0.162030  1.0  0.1337
  H  H27  1  0.168130  0.306070  0.495370  1.0  0.1352
  H  H28  1  0.639400  0.804600  0.171300  1.0  0.1311
  H  H29  1  0.306070  0.137930  0.504630  1.0  0.135
  H  H30  1  0.972730  0.471270  0.837970  1.0  0.131
  H  H31  1  0.195400  0.834800  0.171300  1.0  0.1342
  H  H32  1  0.862070  0.168130  0.504630  1.0  0.1341
  H  H33  1  0.528730  0.501470  0.837970  1.0  0.1342
  H  H34  1  0.165200  0.360600  0.171300  1.0  0.1335
  H  H35  1  0.831870  0.693930  0.504630  1.0  0.1346
  H  H36  1  0.498530  0.027270  0.837970  1.0  0.1335
  C  C37  1  0.316070  0.244720  0.422800  1.0  0.7235
  C  C38  1  0.325410  0.203600  0.290900  1.0  -0.1337
  C  C39  1  0.342900  0.220860  0.096100  1.0  0.2793
  C  C40  1  0.351420  0.182840  0.975200  1.0  -0.0908
  C  C41  1  0.982740  0.578050  0.756130  1.0  0.7234
  C  C42  1  0.992080  0.536930  0.624230  1.0  -0.1329
  C  C43  1  0.009570  0.554190  0.429430  1.0  0.2789
  C  C44  1  0.018090  0.516170  0.308530  1.0  -0.09
  C  C45  1  0.649400  0.911390  0.089470  1.0  0.7236
  C  C46  1  0.658740  0.870270  0.957570  1.0  -0.1337
  C  C47  1  0.676230  0.887530  0.762770  1.0  0.279
  C  C48  1  0.684750  0.849510  0.641870  1.0  -0.0974
  C  C49  1  0.755280  0.071350  0.422800  1.0  0.7222
  C  C50  1  0.796400  0.121810  0.290900  1.0  -0.1331
  C  C51  1  0.779140  0.122040  0.096100  1.0  0.2785
  C  C52  1  0.817160  0.168580  0.975200  1.0  -0.0986
  C  C53  1  0.421950  0.404680  0.756130  1.0  0.7223
  C  C54  1  0.463070  0.455140  0.624230  1.0  -0.133
  C  C55  1  0.445810  0.455370  0.429430  1.0  0.2789
  C  C56  1  0.483830  0.501910  0.308530  1.0  -0.0987
  C  C57  1  0.088610  0.738020  0.089470  1.0  0.722
  C  C58  1  0.129730  0.788480  0.957570  1.0  -0.133
  C  C59  1  0.112470  0.788710  0.762770  1.0  0.2786
  C  C60  1  0.150490  0.835250  0.641870  1.0  -0.0924
  C  C61  1  0.928650  0.683930  0.422800  1.0  0.7196
  C  C62  1  0.878190  0.674590  0.290900  1.0  -0.1343
  C  C63  1  0.877960  0.657100  0.096100  1.0  0.2815
  C  C64  1  0.831420  0.648580  0.975200  1.0  -0.0978
  C  C65  1  0.595320  0.017260  0.756130  1.0  0.7213
  C  C66  1  0.544860  0.007920  0.624230  1.0  -0.1343
  C  C67  1  0.544630  0.990430  0.429430  1.0  0.2818
  C  C68  1  0.498090  0.981910  0.308530  1.0  -0.0983
  C  C69  1  0.261980  0.350600  0.089470  1.0  0.7197
  C  C70  1  0.211520  0.341260  0.957570  1.0  -0.1343
  C  C71  1  0.211290  0.323770  0.762770  1.0  0.2817
  C  C72  1  0.164750  0.315250  0.641870  1.0  -0.0967
  C  C73  1  0.683930  0.755280  0.577200  1.0  0.72
  C  C74  1  0.674590  0.796400  0.709100  1.0  -0.1336
  C  C75  1  0.657100  0.779140  0.903900  1.0  0.2796
  C  C76  1  0.648580  0.817160  0.024800  1.0  -0.0907
  C  C77  1  0.350600  0.088610  0.910530  1.0  0.7201
  C  C78  1  0.341260  0.129730  0.042430  1.0  -0.1336
  C  C79  1  0.323770  0.112470  0.237230  1.0  0.2793
  C  C80  1  0.315250  0.150490  0.358130  1.0  -0.0969
  C  C81  1  0.017260  0.421950  0.243870  1.0  0.72
  C  C82  1  0.007920  0.463070  0.375770  1.0  -0.1328
  C  C83  1  0.990430  0.445810  0.570570  1.0  0.279
  C  C84  1  0.981910  0.483830  0.691470  1.0  -0.09
  C  C85  1  0.244720  0.928650  0.577200  1.0  0.7207
  C  C86  1  0.203600  0.878190  0.709100  1.0  -0.1333
  C  C87  1  0.220860  0.877960  0.903900  1.0  0.2794
  C  C88  1  0.182840  0.831420  0.024800  1.0  -0.0971
  C  C89  1  0.911390  0.261980  0.910530  1.0  0.7205
  C  C90  1  0.870270  0.211520  0.042430  1.0  -0.1333
  C  C91  1  0.887530  0.211290  0.237230  1.0  0.2795
  C  C92  1  0.849510  0.164750  0.358130  1.0  -0.0909
  C  C93  1  0.578050  0.595320  0.243870  1.0  0.7207
  C  C94  1  0.536930  0.544860  0.375770  1.0  -0.1331
  C  C95  1  0.554190  0.544630  0.570570  1.0  0.2798
  C  C96  1  0.516170  0.498090  0.691470  1.0  -0.0971
  C  C97  1  0.071350  0.316070  0.577200  1.0  0.718
  C  C98  1  0.121810  0.325410  0.709100  1.0  -0.1332
  C  C99  1  0.122040  0.342900  0.903900  1.0  0.2802
  C  C100  1  0.168580  0.351420  0.024800  1.0  -0.0975
  C  C101  1  0.738020  0.649400  0.910530  1.0  0.7182
  C  C102  1  0.788480  0.658740  0.042430  1.0  -0.1332
  C  C103  1  0.788710  0.676230  0.237230  1.0  0.2803
  C  C104  1  0.835250  0.684750  0.358130  1.0  -0.0965
  C  C105  1  0.404680  0.982740  0.243870  1.0  0.7198
  C  C106  1  0.455140  0.992080  0.375770  1.0  -0.1331
  C  C107  1  0.455370  0.009570  0.570570  1.0  0.2805
  C  C108  1  0.501910  0.018090  0.691470  1.0  -0.0979
  O  O109  1  0.325530  0.293200  0.352100  1.0  -0.6289
  O  O110  1  0.303310  0.226150  0.600000  1.0  -0.5917
  O  O111  1  0.353400  0.270770  0.007800  1.0  -0.6417
  O  O112  1  0.992200  0.626530  0.685430  1.0  -0.6289
  O  O113  1  0.969980  0.559480  0.933330  1.0  -0.5918
  O  O114  1  0.020070  0.604100  0.341130  1.0  -0.6417
  O  O115  1  0.658860  0.959870  0.018770  1.0  -0.6289
  O  O116  1  0.636640  0.892820  0.266670  1.0  -0.5917
  O  O117  1  0.686730  0.937440  0.674470  1.0  -0.6417
  O  O118  1  0.706800  0.032330  0.352100  1.0  -0.631
  O  O119  1  0.773850  0.077160  0.600000  1.0  -0.5921
  O  O120  1  0.729230  0.082630  0.007800  1.0  -0.6422
  O  O121  1  0.373470  0.365660  0.685430  1.0  -0.6309
  O  O122  1  0.440520  0.410490  0.933330  1.0  -0.592
  O  O123  1  0.395900  0.415960  0.341130  1.0  -0.6422
  O  O124  1  0.040130  0.699000  0.018770  1.0  -0.631
  O  O125  1  0.107180  0.743830  0.266670  1.0  -0.5921
  O  O126  1  0.062560  0.749300  0.674470  1.0  -0.6425
  O  O127  1  0.967670  0.674470  0.352100  1.0  -0.6298
  O  O128  1  0.922840  0.696690  0.600000  1.0  -0.5943
  O  O129  1  0.917370  0.646600  0.007800  1.0  -0.6409
  O  O130  1  0.634340  0.007800  0.685430  1.0  -0.6299
  O  O131  1  0.589510  0.030020  0.933330  1.0  -0.5942
  O  O132  1  0.584040  0.979930  0.341130  1.0  -0.6409
  O  O133  1  0.301000  0.341140  0.018770  1.0  -0.6298
  O  O134  1  0.256170  0.363360  0.266670  1.0  -0.5941
  O  O135  1  0.250700  0.313270  0.674470  1.0  -0.6409
  O  O136  1  0.674470  0.706800  0.647900  1.0  -0.6299
  O  O137  1  0.696690  0.773850  0.400000  1.0  -0.5927
  O  O138  1  0.646600  0.729230  0.992200  1.0  -0.6431
  O  O139  1  0.341140  0.040130  0.981230  1.0  -0.6299
  O  O140  1  0.363360  0.107180  0.733330  1.0  -0.5927
  O  O141  1  0.313270  0.062560  0.325530  1.0  -0.6431
  O  O142  1  0.007800  0.373470  0.314570  1.0  -0.6299
  O  O143  1  0.030020  0.440520  0.066670  1.0  -0.5927
  O  O144  1  0.979930  0.395900  0.658870  1.0  -0.6431
  O  O145  1  0.293200  0.967670  0.647900  1.0  -0.6314
  O  O146  1  0.226150  0.922840  0.400000  1.0  -0.5931
  O  O147  1  0.270770  0.917370  0.992200  1.0  -0.6392
  O  O148  1  0.959870  0.301000  0.981230  1.0  -0.6314
  O  O149  1  0.892820  0.256170  0.733330  1.0  -0.593
  O  O150  1  0.937440  0.250700  0.325530  1.0  -0.6394
  O  O151  1  0.626530  0.634340  0.314570  1.0  -0.6313
  O  O152  1  0.559480  0.589510  0.066670  1.0  -0.5929
  O  O153  1  0.604100  0.584040  0.658870  1.0  -0.6392
  O  O154  1  0.032330  0.325530  0.647900  1.0  -0.6296
  O  O155  1  0.077160  0.303310  0.400000  1.0  -0.594
  O  O156  1  0.082630  0.353400  0.992200  1.0  -0.64
  O  O157  1  0.699000  0.658860  0.981230  1.0  -0.6296
  O  O158  1  0.743830  0.636640  0.733330  1.0  -0.594
  O  O159  1  0.749300  0.686730  0.325530  1.0  -0.64
  O  O160  1  0.365660  0.992200  0.314570  1.0  -0.6296
  O  O161  1  0.410490  0.969980  0.066670  1.0  -0.5941
  O  O162  1  0.415960  0.020070  0.658870  1.0  -0.64
