# generated using pymatgen
data_CoHC4O3
_symmetry_space_group_name_H-M   'P 1'
_cell_length_a   25.87350000
_cell_length_b   25.87350000
_cell_length_c   6.84860000
_cell_angle_alpha   90.00000000
_cell_angle_beta   90.00000000
_cell_angle_gamma   120.00000000
_symmetry_Int_Tables_number   1
_chemical_formula_structural   CoHC4O3
_chemical_formula_sum   'Co18 H18 C72 O54'
_cell_volume   3970.47801558
_cell_formula_units_Z   18
loop_
 _symmetry_equiv_pos_site_id
 _symmetry_equiv_pos_as_xyz
  1  'x, y, z'
loop_
 _atom_site_type_symbol
 _atom_site_label
 _atom_site_symmetry_multiplicity
 _atom_site_fract_x
 _atom_site_fract_y
 _atom_site_fract_z
 _atom_site_occupancy
 _atom_site_charge
  Co  Co1  1  0.378600  0.349000  0.151000  1.0  1.0185
  Co  Co2  1  0.045270  0.682330  0.484330  1.0  1.0191
  Co  Co3  1  0.711930  0.015670  0.817670  1.0  1.0189
  Co  Co4  1  0.651000  0.029600  0.151000  1.0  1.0206
  Co  Co5  1  0.317670  0.362930  0.484330  1.0  1.0207
  Co  Co6  1  0.984330  0.696270  0.817670  1.0  1.0201
  Co  Co7  1  0.970400  0.621400  0.151000  1.0  1.0195
  Co  Co8  1  0.637070  0.954730  0.484330  1.0  1.0189
  Co  Co9  1  0.303730  0.288070  0.817670  1.0  1.0195
  Co  Co10  1  0.621400  0.651000  0.849000  1.0  1.0189
  Co  Co11  1  0.288070  0.984330  0.182330  1.0  1.0194
  Co  Co12  1  0.954730  0.317670  0.515670  1.0  1.0195
  Co  Co13  1  0.349000  0.970400  0.849000  1.0  1.0172
  Co  Co14  1  0.015670  0.303730  0.182330  1.0  1.0167
  Co  Co15  1  0.682330  0.637070  0.515670  1.0  1.0171
  Co  Co16  1  0.029600  0.378600  0.849000  1.0  1.0204
  Co  Co17  1  0.696270  0.711930  0.182330  1.0  1.0204
  Co  Co18  1  0.362930  0.045270  0.515670  1.0  1.0198
  H  H19  1  0.357700  0.191300  0.832000  1.0  0.1301
  H  H20  1  0.024370  0.524630  0.165330  1.0  0.1301
  H  H21  1  0.691030  0.857970  0.498670  1.0  0.1317
  H  H22  1  0.808700  0.166400  0.832000  1.0  0.1326
  H  H23  1  0.475370  0.499730  0.165330  1.0  0.1326
  H  H24  1  0.142030  0.833070  0.498670  1.0  0.1307
  H  H25  1  0.833600  0.642300  0.832000  1.0  0.1319
  H  H26  1  0.500270  0.975630  0.165330  1.0  0.1319
  H  H27  1  0.166930  0.308970  0.498670  1.0  0.1316
  H  H28  1  0.642300  0.808700  0.168000  1.0  0.1291
  H  H29  1  0.308970  0.142030  0.501330  1.0  0.1306
  H  H30  1  0.975630  0.475370  0.834670  1.0  0.1291
  H  H31  1  0.191300  0.833600  0.168000  1.0  0.1309
  H  H32  1  0.857970  0.166930  0.501330  1.0  0.1291
  H  H33  1  0.524630  0.500270  0.834670  1.0  0.1309
  H  H34  1  0.166400  0.357700  0.168000  1.0  0.1302
  H  H35  1  0.833070  0.691030  0.501330  1.0  0.1297
  H  H36  1  0.499730  0.024370  0.834670  1.0  0.1301
  C  C37  1  0.319100  0.247600  0.428600  1.0  0.7396
  C  C38  1  0.328200  0.206900  0.289800  1.0  -0.1618
  C  C39  1  0.346500  0.223900  0.090800  1.0  0.323
  C  C40  1  0.350600  0.181600  0.975600  1.0  -0.0856
  C  C41  1  0.985770  0.580930  0.761930  1.0  0.7395
  C  C42  1  0.994870  0.540230  0.623130  1.0  -0.1619
  C  C43  1  0.013170  0.557230  0.424130  1.0  0.323
  C  C44  1  0.017270  0.514930  0.308930  1.0  -0.0855
  C  C45  1  0.652430  0.914270  0.095270  1.0  0.7396
  C  C46  1  0.661530  0.873570  0.956470  1.0  -0.1621
  C  C47  1  0.679830  0.890570  0.757470  1.0  0.3229
  C  C48  1  0.683930  0.848270  0.642270  1.0  -0.0923
  C  C49  1  0.752400  0.071500  0.428600  1.0  0.7394
  C  C50  1  0.793100  0.121300  0.289800  1.0  -0.1616
  C  C51  1  0.776100  0.122600  0.090800  1.0  0.322
  C  C52  1  0.818400  0.169000  0.975600  1.0  -0.0918
  C  C53  1  0.419070  0.404830  0.761930  1.0  0.7394
  C  C54  1  0.459770  0.454630  0.623130  1.0  -0.1617
  C  C55  1  0.442770  0.455930  0.424130  1.0  0.3219
  C  C56  1  0.485070  0.502330  0.308930  1.0  -0.0928
  C  C57  1  0.085730  0.738170  0.095270  1.0  0.7394
  C  C58  1  0.126430  0.787970  0.956470  1.0  -0.1616
  C  C59  1  0.109430  0.789270  0.757470  1.0  0.323
  C  C60  1  0.151730  0.835670  0.642270  1.0  -0.0879
  C  C61  1  0.928500  0.680900  0.428600  1.0  0.7374
  C  C62  1  0.878700  0.671800  0.289800  1.0  -0.1625
  C  C63  1  0.877400  0.653500  0.090800  1.0  0.3248
  C  C64  1  0.831000  0.649400  0.975600  1.0  -0.0914
  C  C65  1  0.595170  0.014230  0.761930  1.0  0.7373
  C  C66  1  0.545370  0.005130  0.623130  1.0  -0.1627
  C  C67  1  0.544070  0.986830  0.424130  1.0  0.3248
  C  C68  1  0.497670  0.982730  0.308930  1.0  -0.0909
  C  C69  1  0.261830  0.347570  0.095270  1.0  0.7374
  C  C70  1  0.212030  0.338470  0.956470  1.0  -0.1623
  C  C71  1  0.210730  0.320170  0.757470  1.0  0.3264
  C  C72  1  0.164330  0.316070  0.642270  1.0  -0.0913
  C  C73  1  0.680900  0.752400  0.571400  1.0  0.7388
  C  C74  1  0.671800  0.793100  0.710200  1.0  -0.1622
  C  C75  1  0.653500  0.776100  0.909200  1.0  0.3231
  C  C76  1  0.649400  0.818400  0.024400  1.0  -0.0856
  C  C77  1  0.347570  0.085730  0.904730  1.0  0.7387
  C  C78  1  0.338470  0.126430  0.043530  1.0  -0.1625
  C  C79  1  0.320170  0.109430  0.242530  1.0  0.3237
  C  C80  1  0.316070  0.151730  0.357730  1.0  -0.0934
  C  C81  1  0.014230  0.419070  0.238070  1.0  0.7387
  C  C82  1  0.005130  0.459770  0.376870  1.0  -0.1622
  C  C83  1  0.986830  0.442770  0.575870  1.0  0.3231
  C  C84  1  0.982730  0.485070  0.691070  1.0  -0.0855
  C  C85  1  0.247600  0.928500  0.571400  1.0  0.7382
  C  C86  1  0.206900  0.878700  0.710200  1.0  -0.1623
  C  C87  1  0.223900  0.877400  0.909200  1.0  0.3221
  C  C88  1  0.181600  0.831000  0.024400  1.0  -0.0919
  C  C89  1  0.914270  0.261830  0.904730  1.0  0.7383
  C  C90  1  0.873570  0.212030  0.043530  1.0  -0.1623
  C  C91  1  0.890570  0.210730  0.242530  1.0  0.3231
  C  C92  1  0.848270  0.164330  0.357730  1.0  -0.0876
  C  C93  1  0.580930  0.595170  0.238070  1.0  0.7383
  C  C94  1  0.540230  0.545370  0.376870  1.0  -0.1624
  C  C95  1  0.557230  0.544070  0.575870  1.0  0.322
  C  C96  1  0.514930  0.497670  0.691070  1.0  -0.0927
  C  C97  1  0.071500  0.319100  0.571400  1.0  0.738
  C  C98  1  0.121300  0.328200  0.710200  1.0  -0.1626
  C  C99  1  0.122600  0.346500  0.909200  1.0  0.3225
  C  C100  1  0.169000  0.350600  0.024400  1.0  -0.0913
  C  C101  1  0.738170  0.652430  0.904730  1.0  0.738
  C  C102  1  0.787970  0.661530  0.043530  1.0  -0.1624
  C  C103  1  0.789270  0.679830  0.242530  1.0  0.3241
  C  C104  1  0.835670  0.683930  0.357730  1.0  -0.0913
  C  C105  1  0.404830  0.985770  0.238070  1.0  0.7378
  C  C106  1  0.454630  0.994870  0.376870  1.0  -0.1629
  C  C107  1  0.455930  0.013170  0.575870  1.0  0.3225
  C  C108  1  0.502330  0.017270  0.691070  1.0  -0.0907
  O  O109  1  0.328700  0.295900  0.363700  1.0  -0.6341
  O  O110  1  0.302600  0.229100  0.598700  1.0  -0.5879
  O  O111  1  0.357700  0.275800  0.002200  1.0  -0.7369
  O  O112  1  0.995370  0.629230  0.697030  1.0  -0.6341
  O  O113  1  0.969270  0.562430  0.932030  1.0  -0.5878
  O  O114  1  0.024370  0.609130  0.335530  1.0  -0.7369
  O  O115  1  0.662030  0.962570  0.030370  1.0  -0.634
  O  O116  1  0.635930  0.895770  0.265370  1.0  -0.5879
  O  O117  1  0.691030  0.942470  0.668870  1.0  -0.7369
  O  O118  1  0.704100  0.032800  0.363700  1.0  -0.635
  O  O119  1  0.770900  0.073500  0.598700  1.0  -0.5875
  O  O120  1  0.724200  0.081900  0.002200  1.0  -0.7361
  O  O121  1  0.370770  0.366130  0.697030  1.0  -0.635
  O  O122  1  0.437570  0.406830  0.932030  1.0  -0.5875
  O  O123  1  0.390870  0.415230  0.335530  1.0  -0.7361
  O  O124  1  0.037430  0.699470  0.030370  1.0  -0.6352
  O  O125  1  0.104230  0.740170  0.265370  1.0  -0.5875
  O  O126  1  0.057530  0.748570  0.668870  1.0  -0.7361
  O  O127  1  0.967200  0.671300  0.363700  1.0  -0.6353
  O  O128  1  0.926500  0.697400  0.598700  1.0  -0.5888
  O  O129  1  0.918100  0.642300  0.002200  1.0  -0.7377
  O  O130  1  0.633870  0.004630  0.697030  1.0  -0.6352
  O  O131  1  0.593170  0.030730  0.932030  1.0  -0.5888
  O  O132  1  0.584770  0.975630  0.335530  1.0  -0.7377
  O  O133  1  0.300530  0.337970  0.030370  1.0  -0.6353
  O  O134  1  0.259830  0.364070  0.265370  1.0  -0.5888
  O  O135  1  0.251430  0.308970  0.668870  1.0  -0.7377
  O  O136  1  0.671300  0.704100  0.636300  1.0  -0.6361
  O  O137  1  0.697400  0.770900  0.401300  1.0  -0.5868
  O  O138  1  0.642300  0.724200  0.997800  1.0  -0.7372
  O  O139  1  0.337970  0.037430  0.969630  1.0  -0.636
  O  O140  1  0.364070  0.104230  0.734630  1.0  -0.5868
  O  O141  1  0.308970  0.057530  0.331130  1.0  -0.7372
  O  O142  1  0.004630  0.370770  0.302970  1.0  -0.6361
  O  O143  1  0.030730  0.437570  0.067970  1.0  -0.5867
  O  O144  1  0.975630  0.390870  0.664470  1.0  -0.7372
  O  O145  1  0.295900  0.967200  0.636300  1.0  -0.6355
  O  O146  1  0.229100  0.926500  0.401300  1.0  -0.588
  O  O147  1  0.275800  0.918100  0.997800  1.0  -0.734
  O  O148  1  0.962570  0.300530  0.969630  1.0  -0.6357
  O  O149  1  0.895770  0.259830  0.734630  1.0  -0.588
  O  O150  1  0.942470  0.251430  0.331130  1.0  -0.734
  O  O151  1  0.629230  0.633870  0.302970  1.0  -0.6354
  O  O152  1  0.562430  0.593170  0.067970  1.0  -0.588
  O  O153  1  0.609130  0.584770  0.664470  1.0  -0.734
  O  O154  1  0.032800  0.328700  0.636300  1.0  -0.6338
  O  O155  1  0.073500  0.302600  0.401300  1.0  -0.5877
  O  O156  1  0.081900  0.357700  0.997800  1.0  -0.7385
  O  O157  1  0.699470  0.662030  0.969630  1.0  -0.6338
  O  O158  1  0.740170  0.635930  0.734630  1.0  -0.5877
  O  O159  1  0.748570  0.691030  0.331130  1.0  -0.7385
  O  O160  1  0.366130  0.995370  0.302970  1.0  -0.6336
  O  O161  1  0.406830  0.969270  0.067970  1.0  -0.5877
  O  O162  1  0.415230  0.024370  0.664470  1.0  -0.7385
