# generated using pymatgen
data_MgHC4O3
_symmetry_space_group_name_H-M   'P 1'
_cell_length_a   25.87280000
_cell_length_b   25.87280000
_cell_length_c   6.87000000
_cell_angle_alpha   90.00000000
_cell_angle_beta   90.00000000
_cell_angle_gamma   120.00000000
_symmetry_Int_Tables_number   1
_chemical_formula_structural   MgHC4O3
_chemical_formula_sum   'Mg18 H18 C72 O54'
_cell_volume   3982.66916369
_cell_formula_units_Z   18
loop_
 _symmetry_equiv_pos_site_id
 _symmetry_equiv_pos_as_xyz
  1  'x, y, z'
loop_
 _atom_site_type_symbol
 _atom_site_label
 _atom_site_symmetry_multiplicity
 _atom_site_fract_x
 _atom_site_fract_y
 _atom_site_fract_z
 _atom_site_occupancy
 _atom_site_charge
  Mg  Mg1  1  0.380400  0.351500  0.138200  1.0  1.4476
  Mg  Mg2  1  0.047070  0.684830  0.471530  1.0  1.4484
  Mg  Mg3  1  0.713730  0.018170  0.804870  1.0  1.4476
  Mg  Mg4  1  0.648500  0.028900  0.138200  1.0  1.4494
  Mg  Mg5  1  0.315170  0.362230  0.471530  1.0  1.4498
  Mg  Mg6  1  0.981830  0.695570  0.804870  1.0  1.4498
  Mg  Mg7  1  0.971100  0.619600  0.138200  1.0  1.4495
  Mg  Mg8  1  0.637770  0.952930  0.471530  1.0  1.4488
  Mg  Mg9  1  0.304430  0.286270  0.804870  1.0  1.4495
  Mg  Mg10  1  0.619600  0.648500  0.861800  1.0  1.4463
  Mg  Mg11  1  0.286270  0.981830  0.195130  1.0  1.4463
  Mg  Mg12  1  0.952930  0.315170  0.528470  1.0  1.4471
  Mg  Mg13  1  0.351500  0.971100  0.861800  1.0  1.4489
  Mg  Mg14  1  0.018170  0.304430  0.195130  1.0  1.4493
  Mg  Mg15  1  0.684830  0.637770  0.528470  1.0  1.4492
  Mg  Mg16  1  0.028900  0.380400  0.861800  1.0  1.4494
  Mg  Mg17  1  0.695570  0.713730  0.195130  1.0  1.4494
  Mg  Mg18  1  0.362230  0.047070  0.528470  1.0  1.4486
  H  H19  1  0.360600  0.190400  0.826300  1.0  0.0824
  H  H20  1  0.027270  0.523730  0.159630  1.0  0.0824
  H  H21  1  0.693930  0.857070  0.492970  1.0  0.0886
  H  H22  1  0.809600  0.170200  0.826300  1.0  0.0879
  H  H23  1  0.476270  0.503530  0.159630  1.0  0.0879
  H  H24  1  0.142930  0.836870  0.492970  1.0  0.0884
  H  H25  1  0.829800  0.639400  0.826300  1.0  0.0866
  H  H26  1  0.496470  0.972730  0.159630  1.0  0.0866
  H  H27  1  0.163130  0.306070  0.492970  1.0  0.0886
  H  H28  1  0.639400  0.809600  0.173700  1.0  0.0831
  H  H29  1  0.306070  0.142930  0.507030  1.0  0.0892
  H  H30  1  0.972730  0.476270  0.840370  1.0  0.0831
  H  H31  1  0.190400  0.829800  0.173700  1.0  0.0884
  H  H32  1  0.857070  0.163130  0.507030  1.0  0.0893
  H  H33  1  0.523730  0.496470  0.840370  1.0  0.0884
  H  H34  1  0.170200  0.360600  0.173700  1.0  0.0873
  H  H35  1  0.836870  0.693930  0.507030  1.0  0.0892
  H  H36  1  0.503530  0.027270  0.840370  1.0  0.0873
  C  C37  1  0.315820  0.246590  0.423900  1.0  0.7084
  C  C38  1  0.328940  0.208680  0.285800  1.0  -0.2592
  C  C39  1  0.345930  0.223890  0.091900  1.0  0.2495
  C  C40  1  0.352650  0.182510  0.972800  1.0  -0.1164
  C  C41  1  0.982490  0.579920  0.757230  1.0  0.7085
  C  C42  1  0.995610  0.542010  0.619130  1.0  -0.259
  C  C43  1  0.012600  0.557220  0.425230  1.0  0.2497
  C  C44  1  0.019320  0.515840  0.306130  1.0  -0.1162
  C  C45  1  0.649150  0.913260  0.090570  1.0  0.7085
  C  C46  1  0.662270  0.875350  0.952470  1.0  -0.2594
  C  C47  1  0.679260  0.890560  0.758570  1.0  0.2497
  C  C48  1  0.685980  0.849180  0.639470  1.0  -0.12
  C  C49  1  0.753410  0.069230  0.423900  1.0  0.7077
  C  C50  1  0.791320  0.120260  0.285800  1.0  -0.2596
  C  C51  1  0.776110  0.122040  0.091900  1.0  0.2487
  C  C52  1  0.817490  0.170140  0.972800  1.0  -0.1227
  C  C53  1  0.420080  0.402560  0.757230  1.0  0.7077
  C  C54  1  0.457990  0.453590  0.619130  1.0  -0.2593
  C  C55  1  0.442780  0.455370  0.425230  1.0  0.2487
  C  C56  1  0.484160  0.503470  0.306130  1.0  -0.1214
  C  C57  1  0.086740  0.735900  0.090570  1.0  0.7077
  C  C58  1  0.124650  0.786930  0.952470  1.0  -0.2596
  C  C59  1  0.109440  0.788710  0.758570  1.0  0.2487
  C  C60  1  0.150820  0.836810  0.639470  1.0  -0.1169
  C  C61  1  0.930770  0.684180  0.423900  1.0  0.7069
  C  C62  1  0.879740  0.671060  0.285800  1.0  -0.2582
  C  C63  1  0.877960  0.654070  0.091900  1.0  0.25
  C  C64  1  0.829860  0.647350  0.972800  1.0  -0.1211
  C  C65  1  0.597440  0.017510  0.757230  1.0  0.7068
  C  C66  1  0.546410  0.004390  0.619130  1.0  -0.2582
  C  C67  1  0.544630  0.987400  0.425230  1.0  0.25
  C  C68  1  0.496530  0.980680  0.306130  1.0  -0.1199
  C  C69  1  0.264100  0.350850  0.090570  1.0  0.7069
  C  C70  1  0.213070  0.337730  0.952470  1.0  -0.2581
  C  C71  1  0.211290  0.320740  0.758570  1.0  0.25
  C  C72  1  0.163190  0.314020  0.639470  1.0  -0.1235
  C  C73  1  0.684180  0.753410  0.576100  1.0  0.7082
  C  C74  1  0.671060  0.791320  0.714200  1.0  -0.2584
  C  C75  1  0.654070  0.776110  0.908100  1.0  0.2491
  C  C76  1  0.647350  0.817490  0.027200  1.0  -0.1171
  C  C77  1  0.350850  0.086740  0.909430  1.0  0.7083
  C  C78  1  0.337730  0.124650  0.047530  1.0  -0.2586
  C  C79  1  0.320740  0.109440  0.241430  1.0  0.2492
  C  C80  1  0.314020  0.150820  0.360530  1.0  -0.1207
  C  C81  1  0.017510  0.420080  0.242770  1.0  0.7083
  C  C82  1  0.004390  0.457990  0.380870  1.0  -0.2584
  C  C83  1  0.987400  0.442780  0.574770  1.0  0.2492
  C  C84  1  0.980680  0.484160  0.693870  1.0  -0.1168
  C  C85  1  0.246590  0.930770  0.576100  1.0  0.7083
  C  C86  1  0.208680  0.879740  0.714200  1.0  -0.2592
  C  C87  1  0.223890  0.877960  0.908100  1.0  0.2485
  C  C88  1  0.182510  0.829860  0.027200  1.0  -0.1225
  C  C89  1  0.913260  0.264100  0.909430  1.0  0.7083
  C  C90  1  0.875350  0.213070  0.047530  1.0  -0.2592
  C  C91  1  0.890560  0.211290  0.241430  1.0  0.2485
  C  C92  1  0.849180  0.163190  0.360530  1.0  -0.1166
  C  C93  1  0.579920  0.597440  0.242770  1.0  0.7083
  C  C94  1  0.542010  0.546410  0.380870  1.0  -0.2589
  C  C95  1  0.557220  0.544630  0.574770  1.0  0.2484
  C  C96  1  0.515840  0.496530  0.693870  1.0  -0.1217
  C  C97  1  0.069230  0.315820  0.576100  1.0  0.7068
  C  C98  1  0.120260  0.328940  0.714200  1.0  -0.2592
  C  C99  1  0.122040  0.345930  0.908100  1.0  0.2495
  C  C100  1  0.170140  0.352650  0.027200  1.0  -0.1216
  C  C101  1  0.735900  0.649150  0.909430  1.0  0.7068
  C  C102  1  0.786930  0.662270  0.047530  1.0  -0.259
  C  C103  1  0.788710  0.679260  0.241430  1.0  0.2495
  C  C104  1  0.836810  0.685980  0.360530  1.0  -0.1236
  C  C105  1  0.402560  0.982490  0.242770  1.0  0.7068
  C  C106  1  0.453590  0.995610  0.380870  1.0  -0.259
  C  C107  1  0.455370  0.012600  0.574770  1.0  0.2494
  C  C108  1  0.503470  0.019320  0.693870  1.0  -0.1207
  O  O109  1  0.325220  0.295560  0.362000  1.0  -0.689
  O  O110  1  0.302840  0.228800  0.597600  1.0  -0.6576
  O  O111  1  0.353900  0.274400  0.002300  1.0  -0.7682
  O  O112  1  0.991890  0.628890  0.695330  1.0  -0.6891
  O  O113  1  0.969510  0.562130  0.930930  1.0  -0.6576
  O  O114  1  0.020570  0.607730  0.335630  1.0  -0.7687
  O  O115  1  0.658550  0.962230  0.028670  1.0  -0.6889
  O  O116  1  0.636170  0.895470  0.264270  1.0  -0.6576
  O  O117  1  0.687230  0.941070  0.668970  1.0  -0.7684
  O  O118  1  0.704440  0.029660  0.362000  1.0  -0.6893
  O  O119  1  0.771200  0.074040  0.597600  1.0  -0.6567
  O  O120  1  0.725600  0.079500  0.002300  1.0  -0.7672
  O  O121  1  0.371110  0.362990  0.695330  1.0  -0.6892
  O  O122  1  0.437870  0.407370  0.930930  1.0  -0.6567
  O  O123  1  0.392270  0.412830  0.335630  1.0  -0.7667
  O  O124  1  0.037770  0.696330  0.028670  1.0  -0.6892
  O  O125  1  0.104530  0.740710  0.264270  1.0  -0.6567
  O  O126  1  0.058930  0.746170  0.668970  1.0  -0.7672
  O  O127  1  0.970340  0.674780  0.362000  1.0  -0.6891
  O  O128  1  0.925960  0.697160  0.597600  1.0  -0.6579
  O  O129  1  0.920500  0.646100  0.002300  1.0  -0.7673
  O  O130  1  0.637010  0.008110  0.695330  1.0  -0.689
  O  O131  1  0.592630  0.030490  0.930930  1.0  -0.6579
  O  O132  1  0.587170  0.979430  0.335630  1.0  -0.7673
  O  O133  1  0.303670  0.341450  0.028670  1.0  -0.6892
  O  O134  1  0.259290  0.363830  0.264270  1.0  -0.6581
  O  O135  1  0.253830  0.312770  0.668970  1.0  -0.7678
  O  O136  1  0.674780  0.704440  0.638000  1.0  -0.6891
  O  O137  1  0.697160  0.771200  0.402400  1.0  -0.6571
  O  O138  1  0.646100  0.725600  0.997700  1.0  -0.7679
  O  O139  1  0.341450  0.037770  0.971330  1.0  -0.689
  O  O140  1  0.363830  0.104530  0.735730  1.0  -0.657
  O  O141  1  0.312770  0.058930  0.331030  1.0  -0.7681
  O  O142  1  0.008110  0.371110  0.304670  1.0  -0.6892
  O  O143  1  0.030490  0.437870  0.069070  1.0  -0.657
  O  O144  1  0.979430  0.392270  0.664370  1.0  -0.7684
  O  O145  1  0.295560  0.970340  0.638000  1.0  -0.6891
  O  O146  1  0.228800  0.925960  0.402400  1.0  -0.6572
  O  O147  1  0.274400  0.920500  0.997700  1.0  -0.7656
  O  O148  1  0.962230  0.303670  0.971330  1.0  -0.689
  O  O149  1  0.895470  0.259290  0.735730  1.0  -0.6572
  O  O150  1  0.941070  0.253830  0.331030  1.0  -0.7656
  O  O151  1  0.628890  0.637010  0.304670  1.0  -0.689
  O  O152  1  0.562130  0.592630  0.069070  1.0  -0.6572
  O  O153  1  0.607730  0.587170  0.664370  1.0  -0.7651
  O  O154  1  0.029660  0.325220  0.638000  1.0  -0.6888
  O  O155  1  0.074040  0.302840  0.402400  1.0  -0.6574
  O  O156  1  0.079500  0.353900  0.997700  1.0  -0.7668
  O  O157  1  0.696330  0.658550  0.971330  1.0  -0.6889
  O  O158  1  0.740710  0.636170  0.735730  1.0  -0.6576
  O  O159  1  0.746170  0.687230  0.331030  1.0  -0.7673
  O  O160  1  0.362990  0.991890  0.304670  1.0  -0.6887
  O  O161  1  0.407370  0.969510  0.069070  1.0  -0.6574
  O  O162  1  0.412830  0.020570  0.664370  1.0  -0.7668
