# generated using pymatgen
data_CoHC4O3
_symmetry_space_group_name_H-M   'P 1'
_cell_length_a   25.99400000
_cell_length_b   25.99400000
_cell_length_c   6.81270000
_cell_angle_alpha   90.00000000
_cell_angle_beta   90.00000000
_cell_angle_gamma   120.00000000
_symmetry_Int_Tables_number   1
_chemical_formula_structural   CoHC4O3
_chemical_formula_sum   'Co18 H18 C72 O54'
_cell_volume   3986.53999878
_cell_formula_units_Z   18
loop_
 _symmetry_equiv_pos_site_id
 _symmetry_equiv_pos_as_xyz
  1  'x, y, z'
loop_
 _atom_site_type_symbol
 _atom_site_label
 _atom_site_symmetry_multiplicity
 _atom_site_fract_x
 _atom_site_fract_y
 _atom_site_fract_z
 _atom_site_occupancy
 _atom_site_charge
  Co  Co1  1  0.949470  0.634670  0.018660  1.0  0.9786
  Co  Co2  1  0.616140  0.968000  0.351990  1.0  0.9786
  Co  Co3  1  0.282800  0.301340  0.685330  1.0  0.9785
  Co  Co4  1  0.365330  0.314800  0.018660  1.0  0.9763
  Co  Co5  1  0.032000  0.648130  0.351990  1.0  0.9762
  Co  Co6  1  0.698660  0.981470  0.685330  1.0  0.9763
  Co  Co7  1  0.685200  0.050530  0.018660  1.0  0.9786
  Co  Co8  1  0.351870  0.383860  0.351990  1.0  0.9786
  Co  Co9  1  0.018530  0.717200  0.685330  1.0  0.9786
  Co  Co10  1  0.050530  0.365330  0.981340  1.0  0.9778
  Co  Co11  1  0.717200  0.698660  0.314670  1.0  0.9778
  Co  Co12  1  0.383860  0.032000  0.648010  1.0  0.9778
  Co  Co13  1  0.634670  0.685200  0.981340  1.0  0.9777
  Co  Co14  1  0.301340  0.018530  0.314670  1.0  0.9777
  Co  Co15  1  0.968000  0.351870  0.648010  1.0  0.9777
  Co  Co16  1  0.314800  0.949470  0.981340  1.0  0.9774
  Co  Co17  1  0.981470  0.282800  0.314670  1.0  0.9773
  Co  Co18  1  0.648130  0.616140  0.648010  1.0  0.9774
  H  H19  1  0.972000  0.495900  0.325000  1.0  0.1375
  H  H20  1  0.638670  0.829230  0.658330  1.0  0.1375
  H  H21  1  0.305330  0.162570  0.991670  1.0  0.1374
  H  H22  1  0.504100  0.476100  0.325000  1.0  0.1347
  H  H23  1  0.170770  0.809430  0.658330  1.0  0.1347
  H  H24  1  0.837430  0.142770  0.991670  1.0  0.137
  H  H25  1  0.523900  0.028000  0.325000  1.0  0.1385
  H  H26  1  0.190570  0.361330  0.658330  1.0  0.1385
  H  H27  1  0.857230  0.694670  0.991670  1.0  0.1382
  H  H28  1  0.028000  0.504100  0.675000  1.0  0.1382
  H  H29  1  0.694670  0.837430  0.008330  1.0  0.1381
  H  H30  1  0.361330  0.170770  0.341670  1.0  0.1383
  H  H31  1  0.495900  0.523900  0.675000  1.0  0.1349
  H  H32  1  0.162570  0.857230  0.008330  1.0  0.1379
  H  H33  1  0.829230  0.190570  0.341670  1.0  0.1349
  H  H34  1  0.476100  0.972000  0.675000  1.0  0.1385
  H  H35  1  0.142770  0.305330  0.008330  1.0  0.1383
  H  H36  1  0.809430  0.638670  0.341670  1.0  0.1385
  C  C37  1  0.989000  0.544500  0.076000  1.0  0.3494
  C  C38  1  0.015700  0.595400  0.741200  1.0  0.7476
  C  C39  1  0.983500  0.497800  0.191600  1.0  -0.0982
  C  C40  1  0.005700  0.546500  0.880600  1.0  -0.1898
  C  C41  1  0.655670  0.877830  0.409330  1.0  0.3481
  C  C42  1  0.682370  0.928730  0.074530  1.0  0.7471
  C  C43  1  0.650170  0.831130  0.524930  1.0  -0.0989
  C  C44  1  0.672370  0.879830  0.213930  1.0  -0.1898
  C  C45  1  0.322330  0.211170  0.742670  1.0  0.3493
  C  C46  1  0.349030  0.262070  0.407870  1.0  0.7476
  C  C47  1  0.316830  0.164470  0.858270  1.0  -0.0996
  C  C48  1  0.339030  0.213170  0.547270  1.0  -0.1898
  C  C49  1  0.455500  0.444500  0.076000  1.0  0.3481
  C  C50  1  0.404600  0.420300  0.741200  1.0  0.7476
  C  C51  1  0.502200  0.485700  0.191600  1.0  -0.0955
  C  C52  1  0.453500  0.459200  0.880600  1.0  -0.1911
  C  C53  1  0.122170  0.777830  0.409330  1.0  0.3481
  C  C54  1  0.071270  0.753630  0.074530  1.0  0.7471
  C  C55  1  0.168870  0.819030  0.524930  1.0  -0.0955
  C  C56  1  0.120170  0.792530  0.213930  1.0  -0.1909
  C  C57  1  0.788830  0.111170  0.742670  1.0  0.3481
  C  C58  1  0.737930  0.086970  0.407870  1.0  0.7476
  C  C59  1  0.835530  0.152370  0.858270  1.0  -0.0966
  C  C60  1  0.786830  0.125870  0.547270  1.0  -0.191
  C  C61  1  0.555500  0.011000  0.076000  1.0  0.3517
  C  C62  1  0.579700  0.984300  0.741200  1.0  0.7449
  C  C63  1  0.514300  0.016500  0.191600  1.0  -0.0989
  C  C64  1  0.540800  0.994300  0.880600  1.0  -0.1898
  C  C65  1  0.222170  0.344330  0.409330  1.0  0.3523
  C  C66  1  0.246370  0.317630  0.074530  1.0  0.7457
  C  C67  1  0.180970  0.349830  0.524930  1.0  -0.0982
  C  C68  1  0.207470  0.327630  0.213930  1.0  -0.1898
  C  C69  1  0.888830  0.677670  0.742670  1.0  0.3515
  C  C70  1  0.913030  0.650970  0.407870  1.0  0.7449
  C  C71  1  0.847630  0.683170  0.858270  1.0  -0.0998
  C  C72  1  0.874130  0.660970  0.547270  1.0  -0.1898
  C  C73  1  0.011000  0.455500  0.924000  1.0  0.3487
  C  C74  1  0.984300  0.404600  0.258800  1.0  0.7474
  C  C75  1  0.016500  0.502200  0.808400  1.0  -0.0962
  C  C76  1  0.994300  0.453500  0.119400  1.0  -0.1907
  C  C77  1  0.677670  0.788830  0.257330  1.0  0.3487
  C  C78  1  0.650970  0.737930  0.592130  1.0  0.7475
  C  C79  1  0.683170  0.835530  0.141730  1.0  -0.0975
  C  C80  1  0.660970  0.786830  0.452730  1.0  -0.1907
  C  C81  1  0.344330  0.122170  0.590670  1.0  0.3474
  C  C82  1  0.317630  0.071270  0.925470  1.0  0.7469
  C  C83  1  0.349830  0.168870  0.475070  1.0  -0.0968
  C  C84  1  0.327630  0.120170  0.786070  1.0  -0.1907
  C  C85  1  0.544500  0.555500  0.924000  1.0  0.349
  C  C86  1  0.595400  0.579700  0.258800  1.0  0.7481
  C  C87  1  0.497800  0.514300  0.808400  1.0  -0.095
  C  C88  1  0.546500  0.540800  0.119400  1.0  -0.1911
  C  C89  1  0.211170  0.888830  0.257330  1.0  0.349
  C  C90  1  0.262070  0.913030  0.592130  1.0  0.7481
  C  C91  1  0.164470  0.847630  0.141730  1.0  -0.0964
  C  C92  1  0.213170  0.874130  0.452730  1.0  -0.1911
  C  C93  1  0.877830  0.222170  0.590670  1.0  0.349
  C  C94  1  0.928730  0.246370  0.925470  1.0  0.7476
  C  C95  1  0.831130  0.180970  0.475070  1.0  -0.095
  C  C96  1  0.879830  0.207470  0.786070  1.0  -0.191
  C  C97  1  0.444500  0.989000  0.924000  1.0  0.3504
  C  C98  1  0.420300  0.015700  0.258800  1.0  0.7449
  C  C99  1  0.485700  0.983500  0.808400  1.0  -0.0974
  C  C100  1  0.459200  0.005700  0.119400  1.0  -0.1902
  C  C101  1  0.111170  0.322330  0.257330  1.0  0.3502
  C  C102  1  0.086970  0.349030  0.592130  1.0  0.7447
  C  C103  1  0.152370  0.316830  0.141730  1.0  -0.0982
  C  C104  1  0.125870  0.339030  0.452730  1.0  -0.1902
  C  C105  1  0.777830  0.655670  0.590670  1.0  0.351
  C  C106  1  0.753630  0.682370  0.925470  1.0  0.7456
  C  C107  1  0.819030  0.650170  0.475070  1.0  -0.0967
  C  C108  1  0.792530  0.672370  0.786070  1.0  -0.1902
  O  O109  1  0.895300  0.633500  0.235000  1.0  -0.6135
  O  O110  1  0.940700  0.690200  0.830900  1.0  -0.6802
  O  O111  1  0.007300  0.636700  0.803000  1.0  -0.631
  O  O112  1  0.561970  0.966830  0.568330  1.0  -0.6135
  O  O113  1  0.607370  0.023530  0.164230  1.0  -0.6802
  O  O114  1  0.673970  0.970030  0.136330  1.0  -0.6311
  O  O115  1  0.228630  0.300170  0.901670  1.0  -0.6075
  O  O116  1  0.274030  0.356870  0.497570  1.0  -0.6886
  O  O117  1  0.340630  0.303370  0.469670  1.0  -0.6312
  O  O118  1  0.366500  0.261800  0.235000  1.0  -0.6122
  O  O119  1  0.309800  0.250500  0.830900  1.0  -0.6783
  O  O120  1  0.363300  0.370600  0.803000  1.0  -0.63
  O  O121  1  0.033170  0.595130  0.568330  1.0  -0.6123
  O  O122  1  0.976470  0.583830  0.164230  1.0  -0.6784
  O  O123  1  0.029970  0.703930  0.136330  1.0  -0.6308
  O  O124  1  0.699830  0.928470  0.901670  1.0  -0.607
  O  O125  1  0.643130  0.917170  0.497570  1.0  -0.6868
  O  O126  1  0.696630  0.037270  0.469670  1.0  -0.63
  O  O127  1  0.738200  0.104700  0.235000  1.0  -0.6127
  O  O128  1  0.749500  0.059300  0.830900  1.0  -0.6861
  O  O129  1  0.629400  0.992700  0.803000  1.0  -0.6321
  O  O130  1  0.404870  0.438030  0.568330  1.0  -0.6127
  O  O131  1  0.416170  0.392630  0.164230  1.0  -0.6861
  O  O132  1  0.296070  0.326030  0.136330  1.0  -0.6313
  O  O133  1  0.071530  0.771370  0.901670  1.0  -0.6014
  O  O134  1  0.082830  0.725970  0.497570  1.0  -0.6776
  O  O135  1  0.962730  0.659370  0.469670  1.0  -0.632
  O  O136  1  0.104700  0.366500  0.765000  1.0  -0.6128
  O  O137  1  0.059300  0.309800  0.169100  1.0  -0.6786
  O  O138  1  0.992700  0.363300  0.197000  1.0  -0.6337
  O  O139  1  0.771370  0.699830  0.098330  1.0  -0.6075
  O  O140  1  0.725970  0.643130  0.502430  1.0  -0.6866
  O  O141  1  0.659370  0.696630  0.530330  1.0  -0.6338
  O  O142  1  0.438030  0.033170  0.431670  1.0  -0.6128
  O  O143  1  0.392630  0.976470  0.835770  1.0  -0.6786
  O  O144  1  0.326030  0.029970  0.863670  1.0  -0.6338
  O  O145  1  0.633500  0.738200  0.765000  1.0  -0.6126
  O  O146  1  0.690200  0.749500  0.169100  1.0  -0.6766
  O  O147  1  0.636700  0.629400  0.197000  1.0  -0.6295
  O  O148  1  0.300170  0.071530  0.098330  1.0  -0.608
  O  O149  1  0.356870  0.082830  0.502430  1.0  -0.6849
  O  O150  1  0.303370  0.962730  0.530330  1.0  -0.6296
  O  O151  1  0.966830  0.404870  0.431670  1.0  -0.6127
  O  O152  1  0.023530  0.416170  0.835770  1.0  -0.6767
  O  O153  1  0.970030  0.296070  0.863670  1.0  -0.6303
  O  O154  1  0.261800  0.895300  0.765000  1.0  -0.6126
  O  O155  1  0.250500  0.940700  0.169100  1.0  -0.6867
  O  O156  1  0.370600  0.007300  0.197000  1.0  -0.6307
  O  O157  1  0.928470  0.228630  0.098330  1.0  -0.602
  O  O158  1  0.917170  0.274030  0.502430  1.0  -0.6779
  O  O159  1  0.037270  0.340630  0.530330  1.0  -0.6306
  O  O160  1  0.595130  0.561970  0.431670  1.0  -0.6126
  O  O161  1  0.583830  0.607370  0.835770  1.0  -0.6867
  O  O162  1  0.703930  0.673970  0.863670  1.0  -0.6298
