# generated using pymatgen
data_CuC4O3
_symmetry_space_group_name_H-M   'P 1'
_cell_length_a   25.89780000
_cell_length_b   25.89780000
_cell_length_c   6.27850000
_cell_angle_alpha   90.00000000
_cell_angle_beta   90.00000000
_cell_angle_gamma   120.00000000
_symmetry_Int_Tables_number   1
_chemical_formula_structural   CuC4O3
_chemical_formula_sum   'Cu18 C72 O54'
_cell_volume   3646.80276623
_cell_formula_units_Z   18
loop_
 _symmetry_equiv_pos_site_id
 _symmetry_equiv_pos_as_xyz
  1  'x, y, z'
loop_
 _atom_site_type_symbol
 _atom_site_label
 _atom_site_symmetry_multiplicity
 _atom_site_fract_x
 _atom_site_fract_y
 _atom_site_fract_z
 _atom_site_occupancy
 _atom_site_charge
  Cu  Cu1  1  0.387400  0.349160  0.175100  1.0  0.8856
  Cu  Cu2  1  0.054070  0.682490  0.508430  1.0  0.8855
  Cu  Cu3  1  0.720730  0.015830  0.841770  1.0  0.8857
  Cu  Cu4  1  0.650840  0.038240  0.175100  1.0  0.8889
  Cu  Cu5  1  0.317510  0.371570  0.508430  1.0  0.8919
  Cu  Cu6  1  0.984170  0.704910  0.841770  1.0  0.8889
  Cu  Cu7  1  0.961760  0.612600  0.175100  1.0  0.8879
  Cu  Cu8  1  0.628430  0.945930  0.508430  1.0  0.888
  Cu  Cu9  1  0.295090  0.279270  0.841770  1.0  0.888
  Cu  Cu10  1  0.612600  0.650840  0.824900  1.0  0.8862
  Cu  Cu11  1  0.279270  0.984170  0.158230  1.0  0.8862
  Cu  Cu12  1  0.945930  0.317510  0.491570  1.0  0.886
  Cu  Cu13  1  0.349160  0.961760  0.824900  1.0  0.8868
  Cu  Cu14  1  0.015830  0.295090  0.158230  1.0  0.8867
  Cu  Cu15  1  0.682490  0.628430  0.491570  1.0  0.8897
  Cu  Cu16  1  0.038240  0.387400  0.824900  1.0  0.8903
  Cu  Cu17  1  0.704910  0.720730  0.158230  1.0  0.8904
  Cu  Cu18  1  0.371570  0.054070  0.491570  1.0  0.8904
  C  C19  1  0.328400  0.247800  0.485000  1.0  0.6765
  C  C20  1  0.328900  0.208200  0.304100  1.0  -0.1149
  C  C21  1  0.347900  0.222500  0.090700  1.0  0.3593
  C  C22  1  0.354600  0.183800  0.975900  1.0  0.0789
  C  C23  1  0.995070  0.581130  0.818330  1.0  0.6766
  C  C24  1  0.995570  0.541530  0.637430  1.0  -0.1167
  C  C25  1  0.014570  0.555830  0.424030  1.0  0.3593
  C  C26  1  0.021270  0.517130  0.309230  1.0  0.0795
  C  C27  1  0.661730  0.914470  0.151670  1.0  0.6765
  C  C28  1  0.662230  0.874870  0.970770  1.0  -0.1149
  C  C29  1  0.681230  0.889170  0.757370  1.0  0.3593
  C  C30  1  0.687930  0.850470  0.642570  1.0  0.0789
  C  C31  1  0.752200  0.080600  0.485000  1.0  0.6765
  C  C32  1  0.791800  0.120700  0.304100  1.0  -0.1142
  C  C33  1  0.777500  0.125400  0.090700  1.0  0.3599
  C  C34  1  0.816200  0.170800  0.975900  1.0  0.079
  C  C35  1  0.418870  0.413930  0.818330  1.0  0.6764
  C  C36  1  0.458470  0.454030  0.637430  1.0  -0.1162
  C  C37  1  0.444170  0.458730  0.424030  1.0  0.3599
  C  C38  1  0.482870  0.504130  0.309230  1.0  0.0787
  C  C39  1  0.085530  0.747270  0.151670  1.0  0.6765
  C  C40  1  0.125130  0.787370  0.970770  1.0  -0.1142
  C  C41  1  0.110830  0.792070  0.757370  1.0  0.3599
  C  C42  1  0.149530  0.837470  0.642570  1.0  0.079
  C  C43  1  0.919400  0.671600  0.485000  1.0  0.6762
  C  C44  1  0.879300  0.671100  0.304100  1.0  -0.1169
  C  C45  1  0.874600  0.652100  0.090700  1.0  0.3593
  C  C46  1  0.829200  0.645400  0.975900  1.0  0.0774
  C  C47  1  0.586070  0.004930  0.818330  1.0  0.6762
  C  C48  1  0.545970  0.004430  0.637430  1.0  -0.1149
  C  C49  1  0.541270  0.985430  0.424030  1.0  0.3593
  C  C50  1  0.495870  0.978730  0.309230  1.0  0.0778
  C  C51  1  0.252730  0.338270  0.151670  1.0  0.6763
  C  C52  1  0.212630  0.337770  0.970770  1.0  -0.1169
  C  C53  1  0.207930  0.318770  0.757370  1.0  0.3593
  C  C54  1  0.162530  0.312070  0.642570  1.0  0.0774
  C  C55  1  0.671600  0.752200  0.515000  1.0  0.6766
  C  C56  1  0.671100  0.791800  0.695900  1.0  -0.1129
  C  C57  1  0.652100  0.777500  0.909300  1.0  0.3603
  C  C58  1  0.645400  0.816200  0.024100  1.0  0.0743
  C  C59  1  0.338270  0.085530  0.848330  1.0  0.6765
  C  C60  1  0.337770  0.125130  0.029230  1.0  -0.1129
  C  C61  1  0.318770  0.110830  0.242630  1.0  0.3603
  C  C62  1  0.312070  0.149530  0.357430  1.0  0.0743
  C  C63  1  0.004930  0.418870  0.181670  1.0  0.6767
  C  C64  1  0.004430  0.458470  0.362570  1.0  -0.1148
  C  C65  1  0.985430  0.444170  0.575970  1.0  0.3603
  C  C66  1  0.978730  0.482870  0.690770  1.0  0.0749
  C  C67  1  0.247800  0.919400  0.515000  1.0  0.6756
  C  C68  1  0.208200  0.879300  0.695900  1.0  -0.1125
  C  C69  1  0.222500  0.874600  0.909300  1.0  0.3626
  C  C70  1  0.183800  0.829200  0.024100  1.0  0.0742
  C  C71  1  0.914470  0.252730  0.848330  1.0  0.6756
  C  C72  1  0.874870  0.212630  0.029230  1.0  -0.1125
  C  C73  1  0.889170  0.207930  0.242630  1.0  0.3626
  C  C74  1  0.850470  0.162530  0.357430  1.0  0.0742
  C  C75  1  0.581130  0.586070  0.181670  1.0  0.6756
  C  C76  1  0.541530  0.545970  0.362570  1.0  -0.1145
  C  C77  1  0.555830  0.541270  0.575970  1.0  0.3627
  C  C78  1  0.517130  0.495870  0.690770  1.0  0.0738
  C  C79  1  0.080600  0.328400  0.515000  1.0  0.6785
  C  C80  1  0.120700  0.328900  0.695900  1.0  -0.1153
  C  C81  1  0.125400  0.347900  0.909300  1.0  0.3609
  C  C82  1  0.170800  0.354600  0.024100  1.0  0.0725
  C  C83  1  0.747270  0.661730  0.848330  1.0  0.6786
  C  C84  1  0.787370  0.662230  0.029230  1.0  -0.1153
  C  C85  1  0.792070  0.681230  0.242630  1.0  0.3609
  C  C86  1  0.837470  0.687930  0.357430  1.0  0.0725
  C  C87  1  0.413930  0.995070  0.181670  1.0  0.6786
  C  C88  1  0.454030  0.995570  0.362570  1.0  -0.1133
  C  C89  1  0.458730  0.014570  0.575970  1.0  0.3609
  C  C90  1  0.504130  0.021270  0.690770  1.0  0.0729
  O  O91  1  0.354400  0.300400  0.426500  1.0  -0.6461
  O  O92  1  0.289900  0.225500  0.633300  1.0  -0.5854
  O  O93  1  0.362400  0.278100  0.011900  1.0  -0.6558
  O  O94  1  0.021070  0.633730  0.759830  1.0  -0.6462
  O  O95  1  0.956570  0.558830  0.966630  1.0  -0.5858
  O  O96  1  0.029070  0.611430  0.345230  1.0  -0.6558
  O  O97  1  0.687730  0.967070  0.093170  1.0  -0.6461
  O  O98  1  0.623230  0.892170  0.299970  1.0  -0.5858
  O  O99  1  0.695730  0.944770  0.678570  1.0  -0.6558
  O  O100  1  0.699600  0.054000  0.426500  1.0  -0.6471
  O  O101  1  0.774500  0.064400  0.633300  1.0  -0.5803
  O  O102  1  0.721900  0.084300  0.011900  1.0  -0.6541
  O  O103  1  0.366270  0.387330  0.759830  1.0  -0.6469
  O  O104  1  0.441170  0.397730  0.966630  1.0  -0.5837
  O  O105  1  0.388570  0.417630  0.345230  1.0  -0.6541
  O  O106  1  0.032930  0.720670  0.093170  1.0  -0.6472
  O  O107  1  0.107830  0.731070  0.299970  1.0  -0.5839
  O  O108  1  0.055230  0.750970  0.678570  1.0  -0.6541
  O  O109  1  0.946000  0.645600  0.426500  1.0  -0.646
  O  O110  1  0.935600  0.710100  0.633300  1.0  -0.5835
  O  O111  1  0.915700  0.637600  0.011900  1.0  -0.6551
  O  O112  1  0.612670  0.978930  0.759830  1.0  -0.6456
  O  O113  1  0.602270  0.043430  0.966630  1.0  -0.587
  O  O114  1  0.582370  0.970930  0.345230  1.0  -0.655
  O  O115  1  0.279330  0.312270  0.093170  1.0  -0.6458
  O  O116  1  0.268930  0.376770  0.299970  1.0  -0.5869
  O  O117  1  0.249030  0.304270  0.678570  1.0  -0.6551
  O  O118  1  0.645600  0.699600  0.573500  1.0  -0.6467
  O  O119  1  0.710100  0.774500  0.366700  1.0  -0.5857
  O  O120  1  0.637600  0.721900  0.988100  1.0  -0.6567
  O  O121  1  0.312270  0.032930  0.906830  1.0  -0.6466
  O  O122  1  0.376770  0.107830  0.700030  1.0  -0.586
  O  O123  1  0.304270  0.055230  0.321430  1.0  -0.6567
  O  O124  1  0.978930  0.366270  0.240170  1.0  -0.6468
  O  O125  1  0.043430  0.441170  0.033370  1.0  -0.586
  O  O126  1  0.970930  0.388570  0.654770  1.0  -0.6567
  O  O127  1  0.300400  0.946000  0.573500  1.0  -0.6451
  O  O128  1  0.225500  0.935600  0.366700  1.0  -0.5794
  O  O129  1  0.278100  0.915700  0.988100  1.0  -0.6552
  O  O130  1  0.967070  0.279330  0.906830  1.0  -0.6451
  O  O131  1  0.892170  0.268930  0.700030  1.0  -0.5831
  O  O132  1  0.944770  0.249030  0.321430  1.0  -0.6553
  O  O133  1  0.633730  0.612670  0.240170  1.0  -0.6448
  O  O134  1  0.558830  0.602270  0.033370  1.0  -0.583
  O  O135  1  0.611430  0.582370  0.654770  1.0  -0.6553
  O  O136  1  0.054000  0.354400  0.573500  1.0  -0.648
  O  O137  1  0.064400  0.289900  0.366700  1.0  -0.5817
  O  O138  1  0.084300  0.362400  0.988100  1.0  -0.6576
  O  O139  1  0.720670  0.687730  0.906830  1.0  -0.6478
  O  O140  1  0.731070  0.623230  0.700030  1.0  -0.5849
  O  O141  1  0.750970  0.695730  0.321430  1.0  -0.6576
  O  O142  1  0.387330  0.021070  0.240170  1.0  -0.6477
  O  O143  1  0.397730  0.956570  0.033370  1.0  -0.585
  O  O144  1  0.417630  0.029070  0.654770  1.0  -0.6576
