# generated using pymatgen
data_FeHC4O3
_symmetry_space_group_name_H-M   'P 1'
_cell_length_a   26.08180000
_cell_length_b   26.08180000
_cell_length_c   6.87830000
_cell_angle_alpha   90.00000000
_cell_angle_beta   90.00000000
_cell_angle_gamma   120.00000000
_symmetry_Int_Tables_number   1
_chemical_formula_structural   FeHC4O3
_chemical_formula_sum   'Fe18 H18 C72 O54'
_cell_volume   4052.16262201
_cell_formula_units_Z   18
loop_
 _symmetry_equiv_pos_site_id
 _symmetry_equiv_pos_as_xyz
  1  'x, y, z'
loop_
 _atom_site_type_symbol
 _atom_site_label
 _atom_site_symmetry_multiplicity
 _atom_site_fract_x
 _atom_site_fract_y
 _atom_site_fract_z
 _atom_site_occupancy
 _atom_site_charge
  Fe  Fe1  1  0.386200  0.355700  0.134200  1.0  0.9922
  Fe  Fe2  1  0.052870  0.689030  0.467530  1.0  0.9921
  Fe  Fe3  1  0.719530  0.022370  0.800870  1.0  0.9921
  Fe  Fe4  1  0.644300  0.030500  0.134200  1.0  0.9957
  Fe  Fe5  1  0.310970  0.363830  0.467530  1.0  0.996
  Fe  Fe6  1  0.977630  0.697170  0.800870  1.0  0.9956
  Fe  Fe7  1  0.969500  0.613800  0.134200  1.0  0.9946
  Fe  Fe8  1  0.636170  0.947130  0.467530  1.0  0.9943
  Fe  Fe9  1  0.302830  0.280470  0.800870  1.0  0.9946
  Fe  Fe10  1  0.613800  0.644300  0.865800  1.0  0.9956
  Fe  Fe11  1  0.280470  0.977630  0.199130  1.0  0.9955
  Fe  Fe12  1  0.947130  0.310970  0.532470  1.0  0.9955
  Fe  Fe13  1  0.355700  0.969500  0.865800  1.0  0.9936
  Fe  Fe14  1  0.022370  0.302830  0.199130  1.0  0.9935
  Fe  Fe15  1  0.689030  0.636170  0.532470  1.0  0.9939
  Fe  Fe16  1  0.030500  0.386200  0.865800  1.0  0.996
  Fe  Fe17  1  0.697170  0.719530  0.199130  1.0  0.996
  Fe  Fe18  1  0.363830  0.052870  0.532470  1.0  0.9958
  H  H19  1  0.361300  0.192800  0.838200  1.0  0.1361
  H  H20  1  0.027970  0.526130  0.171530  1.0  0.1359
  H  H21  1  0.694630  0.859470  0.504870  1.0  0.1361
  H  H22  1  0.807200  0.168500  0.838200  1.0  0.1347
  H  H23  1  0.473870  0.501830  0.171530  1.0  0.1356
  H  H24  1  0.140530  0.835170  0.504870  1.0  0.1364
  H  H25  1  0.831500  0.638700  0.838200  1.0  0.1353
  H  H26  1  0.498170  0.972030  0.171530  1.0  0.1352
  H  H27  1  0.164830  0.305370  0.504870  1.0  0.1367
  H  H28  1  0.638700  0.807200  0.161800  1.0  0.1368
  H  H29  1  0.305370  0.140530  0.495130  1.0  0.137
  H  H30  1  0.972030  0.473870  0.828470  1.0  0.1367
  H  H31  1  0.192800  0.831500  0.161800  1.0  0.1365
  H  H32  1  0.859470  0.164830  0.495130  1.0  0.1375
  H  H33  1  0.526130  0.498170  0.828470  1.0  0.1372
  H  H34  1  0.168500  0.361300  0.161800  1.0  0.1369
  H  H35  1  0.835170  0.694630  0.495130  1.0  0.1379
  H  H36  1  0.501830  0.027970  0.828470  1.0  0.1367
  C  C37  1  0.320600  0.249400  0.420300  1.0  0.7176
  C  C38  1  0.341000  0.216400  0.117200  1.0  0.1709
  C  C39  1  0.315700  0.199400  0.300300  1.0  -0.0918
  C  C40  1  0.345100  0.181800  0.975500  1.0  -0.0562
  C  C41  1  0.987270  0.582730  0.753630  1.0  0.7176
  C  C42  1  0.007670  0.549730  0.450530  1.0  0.1709
  C  C43  1  0.982370  0.532730  0.633630  1.0  -0.0907
  C  C44  1  0.011770  0.515130  0.308830  1.0  -0.0563
  C  C45  1  0.653930  0.916070  0.086970  1.0  0.7169
  C  C46  1  0.674330  0.883070  0.783870  1.0  0.1709
  C  C47  1  0.649030  0.866070  0.966970  1.0  -0.0928
  C  C48  1  0.678430  0.848470  0.642170  1.0  -0.0562
  C  C49  1  0.750600  0.071200  0.420300  1.0  0.717
  C  C50  1  0.783600  0.124600  0.117200  1.0  0.1702
  C  C51  1  0.800600  0.116300  0.300300  1.0  -0.0823
  C  C52  1  0.818200  0.163300  0.975500  1.0  -0.0594
  C  C53  1  0.417270  0.404530  0.753630  1.0  0.7172
  C  C54  1  0.450270  0.457930  0.450530  1.0  0.1702
  C  C55  1  0.467270  0.449630  0.633630  1.0  -0.0849
  C  C56  1  0.484870  0.496630  0.308830  1.0  -0.0592
  C  C57  1  0.083930  0.737870  0.086970  1.0  0.7175
  C  C58  1  0.116930  0.791270  0.783870  1.0  0.1702
  C  C59  1  0.133930  0.782970  0.966970  1.0  -0.0861
  C  C60  1  0.151530  0.829970  0.642170  1.0  -0.0594
  C  C61  1  0.928800  0.679400  0.420300  1.0  0.7134
  C  C62  1  0.875400  0.659000  0.117200  1.0  0.1733
  C  C63  1  0.883700  0.684300  0.300300  1.0  -0.0863
  C  C64  1  0.836700  0.654900  0.975500  1.0  -0.0559
  C  C65  1  0.595470  0.012730  0.753630  1.0  0.7135
  C  C66  1  0.542070  0.992330  0.450530  1.0  0.1733
  C  C67  1  0.550370  0.017630  0.633630  1.0  -0.0895
  C  C68  1  0.503370  0.988230  0.308830  1.0  -0.0556
  C  C69  1  0.262130  0.346070  0.086970  1.0  0.7149
  C  C70  1  0.208730  0.325670  0.783870  1.0  0.1733
  C  C71  1  0.217030  0.350970  0.966970  1.0  -0.0835
  C  C72  1  0.170030  0.321570  0.642170  1.0  -0.056
  C  C73  1  0.679400  0.750600  0.579700  1.0  0.7164
  C  C74  1  0.659000  0.783600  0.882800  1.0  0.1635
  C  C75  1  0.684300  0.800600  0.699700  1.0  -0.0877
  C  C76  1  0.654900  0.818200  0.024500  1.0  -0.0585
  C  C77  1  0.346070  0.083930  0.913030  1.0  0.7157
  C  C78  1  0.325670  0.116930  0.216130  1.0  0.1635
  C  C79  1  0.350970  0.133930  0.033030  1.0  -0.0891
  C  C80  1  0.321570  0.151530  0.357830  1.0  -0.0585
  C  C81  1  0.012730  0.417270  0.246370  1.0  0.7164
  C  C82  1  0.992330  0.450270  0.549470  1.0  0.1635
  C  C83  1  0.017630  0.467270  0.366370  1.0  -0.0862
  C  C84  1  0.988230  0.484870  0.691170  1.0  -0.0587
  C  C85  1  0.249400  0.928800  0.579700  1.0  0.717
  C  C86  1  0.216400  0.875400  0.882800  1.0  0.1655
  C  C87  1  0.199400  0.883700  0.699700  1.0  -0.0849
  C  C88  1  0.181800  0.836700  0.024500  1.0  -0.0557
  C  C89  1  0.916070  0.262130  0.913030  1.0  0.7174
  C  C90  1  0.883070  0.208730  0.216130  1.0  0.1655
  C  C91  1  0.866070  0.217030  0.033030  1.0  -0.0887
  C  C92  1  0.848470  0.170030  0.357830  1.0  -0.0557
  C  C93  1  0.582730  0.595470  0.246370  1.0  0.7173
  C  C94  1  0.549730  0.542070  0.549470  1.0  0.1655
  C  C95  1  0.532730  0.550370  0.366370  1.0  -0.0869
  C  C96  1  0.515130  0.503370  0.691170  1.0  -0.0555
  C  C97  1  0.071200  0.320600  0.579700  1.0  0.7139
  C  C98  1  0.124600  0.341000  0.882800  1.0  0.1632
  C  C99  1  0.116300  0.315700  0.699700  1.0  -0.0855
  C  C100  1  0.163300  0.345100  0.024500  1.0  -0.0543
  C  C101  1  0.737870  0.653930  0.913030  1.0  0.7154
  C  C102  1  0.791270  0.674330  0.216130  1.0  0.1632
  C  C103  1  0.782970  0.649030  0.033030  1.0  -0.0847
  C  C104  1  0.829970  0.678430  0.357830  1.0  -0.0543
  C  C105  1  0.404530  0.987270  0.246370  1.0  0.714
  C  C106  1  0.457930  0.007670  0.549470  1.0  0.1632
  C  C107  1  0.449630  0.982370  0.366370  1.0  -0.0893
  C  C108  1  0.496630  0.011770  0.691170  1.0  -0.054
  O  O109  1  0.325600  0.296600  0.369700  1.0  -0.6087
  O  O110  1  0.357300  0.266800  0.009800  1.0  -0.7001
  O  O111  1  0.437300  0.407300  0.923700  1.0  -0.5602
  O  O112  1  0.992270  0.629930  0.703030  1.0  -0.609
  O  O113  1  0.023970  0.600130  0.343130  1.0  -0.7001
  O  O114  1  0.103970  0.740630  0.257030  1.0  -0.56
  O  O115  1  0.658930  0.963270  0.036370  1.0  -0.6089
  O  O116  1  0.690630  0.933470  0.676470  1.0  -0.7001
  O  O117  1  0.770630  0.073970  0.590370  1.0  -0.5601
  O  O118  1  0.703400  0.029000  0.369700  1.0  -0.6114
  O  O119  1  0.733200  0.090500  0.009800  1.0  -0.7033
  O  O120  1  0.592700  0.030000  0.923700  1.0  -0.5619
  O  O121  1  0.370070  0.362330  0.703030  1.0  -0.6114
  O  O122  1  0.399870  0.423830  0.343130  1.0  -0.7033
  O  O123  1  0.259370  0.363330  0.257030  1.0  -0.5628
  O  O124  1  0.036730  0.695670  0.036370  1.0  -0.6114
  O  O125  1  0.066530  0.757170  0.676470  1.0  -0.7033
  O  O126  1  0.926030  0.696670  0.590370  1.0  -0.5619
  O  O127  1  0.971000  0.674400  0.369700  1.0  -0.6081
  O  O128  1  0.909500  0.642700  0.009800  1.0  -0.7008
  O  O129  1  0.970000  0.562700  0.923700  1.0  -0.5601
  O  O130  1  0.637670  0.007730  0.703030  1.0  -0.6075
  O  O131  1  0.576170  0.976030  0.343130  1.0  -0.7008
  O  O132  1  0.636670  0.896030  0.257030  1.0  -0.5594
  O  O133  1  0.304330  0.341070  0.036370  1.0  -0.6084
  O  O134  1  0.242830  0.309370  0.676470  1.0  -0.7008
  O  O135  1  0.303330  0.229370  0.590370  1.0  -0.5599
  O  O136  1  0.674400  0.703400  0.630300  1.0  -0.6097
  O  O137  1  0.642700  0.733200  0.990200  1.0  -0.7005
  O  O138  1  0.562700  0.592700  0.076300  1.0  -0.5604
  O  O139  1  0.341070  0.036730  0.963630  1.0  -0.6099
  O  O140  1  0.309370  0.066530  0.323530  1.0  -0.7006
  O  O141  1  0.229370  0.926030  0.409630  1.0  -0.5604
  O  O142  1  0.007730  0.370070  0.296970  1.0  -0.61
  O  O143  1  0.976030  0.399870  0.656870  1.0  -0.7005
  O  O144  1  0.896030  0.259370  0.742970  1.0  -0.5603
  O  O145  1  0.296600  0.971000  0.630300  1.0  -0.6112
  O  O146  1  0.266800  0.909500  0.990200  1.0  -0.7005
  O  O147  1  0.407300  0.970000  0.076300  1.0  -0.5592
  O  O148  1  0.963270  0.304330  0.963630  1.0  -0.6112
  O  O149  1  0.933470  0.242830  0.323530  1.0  -0.7005
  O  O150  1  0.073970  0.303330  0.409630  1.0  -0.5593
  O  O151  1  0.629930  0.637670  0.296970  1.0  -0.6112
  O  O152  1  0.600130  0.576170  0.656870  1.0  -0.7005
  O  O153  1  0.740630  0.636670  0.742970  1.0  -0.5602
  O  O154  1  0.029000  0.325600  0.630300  1.0  -0.61
  O  O155  1  0.090500  0.357300  0.990200  1.0  -0.7004
  O  O156  1  0.030000  0.437300  0.076300  1.0  -0.559
  O  O157  1  0.695670  0.658930  0.963630  1.0  -0.6101
  O  O158  1  0.757170  0.690630  0.323530  1.0  -0.7004
  O  O159  1  0.696670  0.770630  0.409630  1.0  -0.5587
  O  O160  1  0.362330  0.992270  0.296970  1.0  -0.6091
  O  O161  1  0.423830  0.023970  0.656870  1.0  -0.7004
  O  O162  1  0.363330  0.103970  0.742970  1.0  -0.5581
