# generated using pymatgen
data_ZnHC4O3
_symmetry_space_group_name_H-M   'P 1'
_cell_length_a   25.88700000
_cell_length_b   25.88700000
_cell_length_c   6.82100000
_cell_angle_alpha   90.00000000
_cell_angle_beta   90.00000000
_cell_angle_gamma   120.00000000
_symmetry_Int_Tables_number   1
_chemical_formula_structural   ZnHC4O3
_chemical_formula_sum   'Zn18 H18 C72 O54'
_cell_volume   3958.60463334
_cell_formula_units_Z   18
loop_
 _symmetry_equiv_pos_site_id
 _symmetry_equiv_pos_as_xyz
  1  'x, y, z'
loop_
 _atom_site_type_symbol
 _atom_site_label
 _atom_site_symmetry_multiplicity
 _atom_site_fract_x
 _atom_site_fract_y
 _atom_site_fract_z
 _atom_site_occupancy
 _atom_site_charge
  Zn  Zn1  1  0.383600  0.352400  0.135500  1.0  1.0075
  Zn  Zn2  1  0.050270  0.685730  0.468830  1.0  1.0076
  Zn  Zn3  1  0.716930  0.019070  0.802170  1.0  1.0075
  Zn  Zn4  1  0.647600  0.031200  0.135500  1.0  1.0076
  Zn  Zn5  1  0.314270  0.364530  0.468830  1.0  1.0072
  Zn  Zn6  1  0.980930  0.697870  0.802170  1.0  1.0076
  Zn  Zn7  1  0.968800  0.616400  0.135500  1.0  1.0072
  Zn  Zn8  1  0.635470  0.949730  0.468830  1.0  1.0065
  Zn  Zn9  1  0.302130  0.283070  0.802170  1.0  1.0072
  Zn  Zn10  1  0.616400  0.647600  0.864500  1.0  1.0057
  Zn  Zn11  1  0.283070  0.980930  0.197830  1.0  1.0057
  Zn  Zn12  1  0.949730  0.314270  0.531170  1.0  1.0058
  Zn  Zn13  1  0.352400  0.968800  0.864500  1.0  1.0066
  Zn  Zn14  1  0.019070  0.302130  0.197830  1.0  1.0066
  Zn  Zn15  1  0.685730  0.635470  0.531170  1.0  1.0062
  Zn  Zn16  1  0.031200  0.383600  0.864500  1.0  1.0089
  Zn  Zn17  1  0.697870  0.716930  0.197830  1.0  1.0089
  Zn  Zn18  1  0.364530  0.050270  0.531170  1.0  1.0083
  H  H19  1  0.363700  0.194000  0.847000  1.0  0.1282
  H  H20  1  0.030370  0.527330  0.180330  1.0  0.1282
  H  H21  1  0.697030  0.860670  0.513670  1.0  0.127
  H  H22  1  0.806000  0.169700  0.847000  1.0  0.1261
  H  H23  1  0.472670  0.503030  0.180330  1.0  0.1261
  H  H24  1  0.139330  0.836370  0.513670  1.0  0.1295
  H  H25  1  0.830300  0.636300  0.847000  1.0  0.1264
  H  H26  1  0.496970  0.969630  0.180330  1.0  0.1264
  H  H27  1  0.163630  0.302970  0.513670  1.0  0.1268
  H  H28  1  0.636300  0.806000  0.153000  1.0  0.1293
  H  H29  1  0.302970  0.139330  0.486330  1.0  0.128
  H  H30  1  0.969630  0.472670  0.819670  1.0  0.1293
  H  H31  1  0.194000  0.830300  0.153000  1.0  0.1272
  H  H32  1  0.860670  0.163630  0.486330  1.0  0.1302
  H  H33  1  0.527330  0.496970  0.819670  1.0  0.1273
  H  H34  1  0.169700  0.363700  0.153000  1.0  0.1276
  H  H35  1  0.836370  0.697030  0.486330  1.0  0.1279
  H  H36  1  0.503030  0.030370  0.819670  1.0  0.1276
  C  C37  1  0.316000  0.244700  0.429500  1.0  0.7208
  C  C38  1  0.325900  0.206400  0.283300  1.0  -0.1586
  C  C39  1  0.341200  0.220200  0.093900  1.0  0.3403
  C  C40  1  0.349300  0.180700  0.972300  1.0  -0.1004
  C  C41  1  0.982670  0.578030  0.762830  1.0  0.7209
  C  C42  1  0.992570  0.539730  0.616630  1.0  -0.1592
  C  C43  1  0.007870  0.553530  0.427230  1.0  0.3397
  C  C44  1  0.015970  0.514030  0.305630  1.0  -0.0999
  C  C45  1  0.649330  0.911370  0.096170  1.0  0.7209
  C  C46  1  0.659230  0.873070  0.949970  1.0  -0.1578
  C  C47  1  0.674530  0.886870  0.760570  1.0  0.3403
  C  C48  1  0.682630  0.847370  0.638970  1.0  -0.1026
  C  C49  1  0.755300  0.071300  0.429500  1.0  0.7202
  C  C50  1  0.793600  0.119500  0.283300  1.0  -0.1583
  C  C51  1  0.779800  0.121000  0.093900  1.0  0.3419
  C  C52  1  0.819300  0.168600  0.972300  1.0  -0.1028
  C  C53  1  0.421970  0.404630  0.762830  1.0  0.7203
  C  C54  1  0.460270  0.452830  0.616630  1.0  -0.1585
  C  C55  1  0.446470  0.454330  0.427230  1.0  0.3425
  C  C56  1  0.485970  0.501930  0.305630  1.0  -0.1038
  C  C57  1  0.088630  0.737970  0.096170  1.0  0.7202
  C  C58  1  0.126930  0.786170  0.949970  1.0  -0.158
  C  C59  1  0.113130  0.787670  0.760570  1.0  0.3419
  C  C60  1  0.152630  0.835270  0.638970  1.0  -0.1068
  C  C61  1  0.928700  0.684000  0.429500  1.0  0.7184
  C  C62  1  0.880500  0.674100  0.283300  1.0  -0.1558
  C  C63  1  0.879000  0.658800  0.093900  1.0  0.3436
  C  C64  1  0.831400  0.650700  0.972300  1.0  -0.1019
  C  C65  1  0.595370  0.017330  0.762830  1.0  0.7184
  C  C66  1  0.547170  0.007430  0.616630  1.0  -0.1553
  C  C67  1  0.545670  0.992130  0.427230  1.0  0.3435
  C  C68  1  0.498070  0.984030  0.305630  1.0  -0.1012
  C  C69  1  0.262030  0.350670  0.096170  1.0  0.7184
  C  C70  1  0.213830  0.340770  0.949970  1.0  -0.1568
  C  C71  1  0.212330  0.325470  0.760570  1.0  0.3437
  C  C72  1  0.164730  0.317370  0.638970  1.0  -0.1006
  C  C73  1  0.684000  0.755300  0.570500  1.0  0.7193
  C  C74  1  0.674100  0.793600  0.716700  1.0  -0.1587
  C  C75  1  0.658800  0.779800  0.906100  1.0  0.3409
  C  C76  1  0.650700  0.819300  0.027700  1.0  -0.1016
  C  C77  1  0.350670  0.088630  0.903830  1.0  0.7193
  C  C78  1  0.340770  0.126930  0.050030  1.0  -0.1579
  C  C79  1  0.325470  0.113130  0.239430  1.0  0.3409
  C  C80  1  0.317370  0.152630  0.361030  1.0  -0.1039
  C  C81  1  0.017330  0.421970  0.237170  1.0  0.7192
  C  C82  1  0.007430  0.460270  0.383370  1.0  -0.1592
  C  C83  1  0.992130  0.446470  0.572770  1.0  0.3403
  C  C84  1  0.984030  0.485970  0.694370  1.0  -0.1014
  C  C85  1  0.244700  0.928700  0.570500  1.0  0.7204
  C  C86  1  0.206400  0.880500  0.716700  1.0  -0.1568
  C  C87  1  0.220200  0.879000  0.906100  1.0  0.3418
  C  C88  1  0.180700  0.831400  0.027700  1.0  -0.1029
  C  C89  1  0.911370  0.262030  0.903830  1.0  0.7204
  C  C90  1  0.873070  0.213830  0.050030  1.0  -0.1564
  C  C91  1  0.886870  0.212330  0.239430  1.0  0.3418
  C  C92  1  0.847370  0.164730  0.361030  1.0  -0.1075
  C  C93  1  0.578030  0.595370  0.237170  1.0  0.7205
  C  C94  1  0.539730  0.547170  0.383370  1.0  -0.157
  C  C95  1  0.553530  0.545670  0.572770  1.0  0.3425
  C  C96  1  0.514030  0.498070  0.694370  1.0  -0.1036
  C  C97  1  0.071300  0.316000  0.570500  1.0  0.7158
  C  C98  1  0.119500  0.325900  0.716700  1.0  -0.1578
  C  C99  1  0.121000  0.341200  0.906100  1.0  0.3426
  C  C100  1  0.168600  0.349300  0.027700  1.0  -0.1037
  C  C101  1  0.737970  0.649330  0.903830  1.0  0.7157
  C  C102  1  0.786170  0.659230  0.050030  1.0  -0.1588
  C  C103  1  0.787670  0.674530  0.239430  1.0  0.3426
  C  C104  1  0.835270  0.682630  0.361030  1.0  -0.1026
  C  C105  1  0.404630  0.982670  0.237170  1.0  0.7157
  C  C106  1  0.452830  0.992570  0.383370  1.0  -0.1573
  C  C107  1  0.454330  0.007870  0.572770  1.0  0.3425
  C  C108  1  0.501930  0.015970  0.694370  1.0  -0.103
  O  O109  1  0.327100  0.294400  0.361800  1.0  -0.6379
  O  O110  1  0.303300  0.228300  0.607700  1.0  -0.6081
  O  O111  1  0.354200  0.273800  0.002600  1.0  -0.6898
  O  O112  1  0.993770  0.627730  0.695130  1.0  -0.6369
  O  O113  1  0.969970  0.561630  0.941030  1.0  -0.608
  O  O114  1  0.020870  0.607130  0.335930  1.0  -0.6897
  O  O115  1  0.660430  0.961070  0.028470  1.0  -0.6379
  O  O116  1  0.636630  0.894970  0.274370  1.0  -0.608
  O  O117  1  0.687530  0.940470  0.669270  1.0  -0.69
  O  O118  1  0.705600  0.032700  0.361800  1.0  -0.6401
  O  O119  1  0.771700  0.075000  0.607700  1.0  -0.6074
  O  O120  1  0.726200  0.080400  0.002600  1.0  -0.689
  O  O121  1  0.372270  0.366030  0.695130  1.0  -0.64
  O  O122  1  0.438370  0.408330  0.941030  1.0  -0.6073
  O  O123  1  0.392870  0.413730  0.335930  1.0  -0.689
  O  O124  1  0.038930  0.699370  0.028470  1.0  -0.6401
  O  O125  1  0.105030  0.741670  0.274370  1.0  -0.6074
  O  O126  1  0.059530  0.747070  0.669270  1.0  -0.6892
  O  O127  1  0.967300  0.672900  0.361800  1.0  -0.6386
  O  O128  1  0.925000  0.696700  0.607700  1.0  -0.6072
  O  O129  1  0.919600  0.645800  0.002600  1.0  -0.6896
  O  O130  1  0.633970  0.006230  0.695130  1.0  -0.6396
  O  O131  1  0.591670  0.030030  0.941030  1.0  -0.6072
  O  O132  1  0.586270  0.979130  0.335930  1.0  -0.6896
  O  O133  1  0.300630  0.339570  0.028470  1.0  -0.6386
  O  O134  1  0.258330  0.363370  0.274370  1.0  -0.6069
  O  O135  1  0.252930  0.312470  0.669270  1.0  -0.6894
  O  O136  1  0.672900  0.705600  0.638200  1.0  -0.6399
  O  O137  1  0.696700  0.771700  0.392300  1.0  -0.6061
  O  O138  1  0.645800  0.726200  0.997400  1.0  -0.6901
  O  O139  1  0.339570  0.038930  0.971530  1.0  -0.6399
  O  O140  1  0.363370  0.105030  0.725630  1.0  -0.606
  O  O141  1  0.312470  0.059530  0.330730  1.0  -0.6903
  O  O142  1  0.006230  0.372270  0.304870  1.0  -0.639
  O  O143  1  0.030030  0.438370  0.058970  1.0  -0.6061
  O  O144  1  0.979130  0.392870  0.664070  1.0  -0.6901
  O  O145  1  0.294400  0.967300  0.638200  1.0  -0.6385
  O  O146  1  0.228300  0.925000  0.392300  1.0  -0.6074
  O  O147  1  0.273800  0.919600  0.997400  1.0  -0.6871
  O  O148  1  0.961070  0.300630  0.971530  1.0  -0.6385
  O  O149  1  0.894970  0.258330  0.725630  1.0  -0.6074
  O  O150  1  0.940470  0.252930  0.330730  1.0  -0.6873
  O  O151  1  0.627730  0.633970  0.304870  1.0  -0.6381
  O  O152  1  0.561630  0.591670  0.058970  1.0  -0.6073
  O  O153  1  0.607130  0.586270  0.664070  1.0  -0.6871
  O  O154  1  0.032700  0.327100  0.638200  1.0  -0.6379
  O  O155  1  0.075000  0.303300  0.392300  1.0  -0.607
  O  O156  1  0.080400  0.354200  0.997400  1.0  -0.6913
  O  O157  1  0.699370  0.660430  0.971530  1.0  -0.6379
  O  O158  1  0.741670  0.636630  0.725630  1.0  -0.6067
  O  O159  1  0.747070  0.687530  0.330730  1.0  -0.6912
  O  O160  1  0.366030  0.993770  0.304870  1.0  -0.6388
  O  O161  1  0.408330  0.969970  0.058970  1.0  -0.607
  O  O162  1  0.413730  0.020870  0.664070  1.0  -0.6913
