# generated using pymatgen
data_InH12C24(NO2)2
_symmetry_space_group_name_H-M   'P 1'
_cell_length_a   7.63330000
_cell_length_b   24.13320000
_cell_length_c   30.52910000
_cell_angle_alpha   90.00000000
_cell_angle_beta   93.50500000
_cell_angle_gamma   90.00000000
_symmetry_Int_Tables_number   1
_chemical_formula_structural   InH12C24(NO2)2
_chemical_formula_sum   'In8 H96 C192 N16 O32'
_cell_volume   5613.42755056
_cell_formula_units_Z   8
loop_
 _symmetry_equiv_pos_site_id
 _symmetry_equiv_pos_as_xyz
  1  'x, y, z'
loop_
 _atom_site_type_symbol
 _atom_site_label
 _atom_site_symmetry_multiplicity
 _atom_site_fract_x
 _atom_site_fract_y
 _atom_site_fract_z
 _atom_site_occupancy
 _atom_site_charge
  In  In1  1  0.500000  0.848830  0.250000  1.0  1.5121
  In  In2  1  0.000000  0.348830  0.250000  1.0  1.5121
  In  In3  1  0.500000  0.151170  0.750000  1.0  1.5116
  In  In4  1  0.000000  0.651170  0.750000  1.0  1.5116
  In  In5  1  0.500000  0.000000  0.000000  1.0  1.5471
  In  In6  1  0.000000  0.500000  0.000000  1.0  1.5471
  In  In7  1  0.500000  0.000000  0.500000  1.0  1.5471
  In  In8  1  0.000000  0.500000  0.500000  1.0  1.5471
  H  H9  1  0.100300  0.179400  0.160400  1.0  0.1045
  H  H10  1  0.656600  0.265900  0.136800  1.0  0.0955
  H  H11  1  0.993700  0.111000  0.112700  1.0  0.0909
  H  H12  1  0.844800  0.993100  0.076700  1.0  0.1043
  H  H13  1  0.044200  0.897600  0.202000  1.0  0.0969
  H  H14  1  0.648100  0.968000  0.128600  1.0  0.0874
  H  H15  1  0.551300  0.199000  0.088100  1.0  0.1191
  H  H16  1  0.498600  0.108700  0.145300  1.0  0.1256
  H  H17  1  0.249600  0.044300  0.148400  1.0  0.0983
  H  H18  1  0.024100  0.849900  0.972000  1.0  0.1168
  H  H19  1  0.960800  0.889200  0.043400  1.0  0.1078
  H  H20  1  0.239400  0.925700  0.150900  1.0  0.0921
  H  H21  1  0.600300  0.679400  0.160400  1.0  0.1045
  H  H22  1  0.156600  0.765900  0.136800  1.0  0.0955
  H  H23  1  0.493700  0.611000  0.112700  1.0  0.0909
  H  H24  1  0.344800  0.493100  0.076700  1.0  0.1043
  H  H25  1  0.544200  0.397600  0.202000  1.0  0.0969
  H  H26  1  0.148100  0.468000  0.128600  1.0  0.0874
  H  H27  1  0.051300  0.699000  0.088100  1.0  0.1191
  H  H28  1  0.998600  0.608700  0.145300  1.0  0.1256
  H  H29  1  0.749600  0.544300  0.148400  1.0  0.0983
  H  H30  1  0.524100  0.349900  0.972000  1.0  0.1168
  H  H31  1  0.460800  0.389200  0.043400  1.0  0.1078
  H  H32  1  0.739400  0.425700  0.150900  1.0  0.0921
  H  H33  1  0.899700  0.179400  0.339600  1.0  0.1046
  H  H34  1  0.343400  0.265900  0.363200  1.0  0.0951
  H  H35  1  0.006300  0.111000  0.387300  1.0  0.0911
  H  H36  1  0.155200  0.993100  0.423300  1.0  0.105
  H  H37  1  0.955800  0.897600  0.298000  1.0  0.0964
  H  H38  1  0.351900  0.968000  0.371400  1.0  0.0877
  H  H39  1  0.448700  0.199000  0.411900  1.0  0.1182
  H  H40  1  0.501400  0.108700  0.354700  1.0  0.1259
  H  H41  1  0.750400  0.044300  0.351600  1.0  0.0991
  H  H42  1  0.975900  0.849900  0.528000  1.0  0.1183
  H  H43  1  0.039200  0.889200  0.456600  1.0  0.1076
  H  H44  1  0.760600  0.925700  0.349100  1.0  0.0919
  H  H45  1  0.399700  0.679400  0.339600  1.0  0.1046
  H  H46  1  0.843400  0.765900  0.363200  1.0  0.0951
  H  H47  1  0.506300  0.611000  0.387300  1.0  0.0911
  H  H48  1  0.655200  0.493100  0.423300  1.0  0.105
  H  H49  1  0.455800  0.397600  0.298000  1.0  0.0964
  H  H50  1  0.851900  0.468000  0.371400  1.0  0.0877
  H  H51  1  0.948700  0.699000  0.411900  1.0  0.1182
  H  H52  1  0.001400  0.608700  0.354700  1.0  0.1259
  H  H53  1  0.250400  0.544300  0.351600  1.0  0.0991
  H  H54  1  0.475900  0.349900  0.528000  1.0  0.1183
  H  H55  1  0.539200  0.389200  0.456600  1.0  0.1076
  H  H56  1  0.260600  0.425700  0.349100  1.0  0.0919
  H  H57  1  0.899700  0.820600  0.839600  1.0  0.1048
  H  H58  1  0.343400  0.734100  0.863200  1.0  0.0955
  H  H59  1  0.006300  0.889000  0.887300  1.0  0.0897
  H  H60  1  0.155200  0.006900  0.923300  1.0  0.1047
  H  H61  1  0.955800  0.102400  0.798000  1.0  0.0963
  H  H62  1  0.351900  0.032000  0.871400  1.0  0.0877
  H  H63  1  0.448700  0.801000  0.911900  1.0  0.1188
  H  H64  1  0.501400  0.891300  0.854700  1.0  0.1256
  H  H65  1  0.750400  0.955700  0.851600  1.0  0.0989
  H  H66  1  0.975900  0.150100  0.028000  1.0  0.1171
  H  H67  1  0.039200  0.110800  0.956600  1.0  0.1074
  H  H68  1  0.760600  0.074300  0.849100  1.0  0.0922
  H  H69  1  0.399700  0.320600  0.839600  1.0  0.1048
  H  H70  1  0.843400  0.234100  0.863200  1.0  0.0955
  H  H71  1  0.506300  0.389000  0.887300  1.0  0.0897
  H  H72  1  0.655200  0.506900  0.923300  1.0  0.1047
  H  H73  1  0.455800  0.602400  0.798000  1.0  0.0963
  H  H74  1  0.851900  0.532000  0.871400  1.0  0.0877
  H  H75  1  0.948700  0.301000  0.911900  1.0  0.1188
  H  H76  1  0.001400  0.391300  0.854700  1.0  0.1256
  H  H77  1  0.250400  0.455700  0.851600  1.0  0.0989
  H  H78  1  0.475900  0.650100  0.028000  1.0  0.1171
  H  H79  1  0.539200  0.610800  0.956600  1.0  0.1074
  H  H80  1  0.260600  0.574300  0.849100  1.0  0.0922
  H  H81  1  0.100300  0.820600  0.660400  1.0  0.1046
  H  H82  1  0.656600  0.734100  0.636800  1.0  0.0951
  H  H83  1  0.993700  0.889000  0.612700  1.0  0.0889
  H  H84  1  0.844800  0.006900  0.576700  1.0  0.1046
  H  H85  1  0.044200  0.102400  0.702000  1.0  0.0966
  H  H86  1  0.648100  0.032000  0.628600  1.0  0.0873
  H  H87  1  0.551300  0.801000  0.588100  1.0  0.1196
  H  H88  1  0.498600  0.891300  0.645300  1.0  0.1257
  H  H89  1  0.249600  0.955700  0.648400  1.0  0.0983
  H  H90  1  0.024100  0.150100  0.472000  1.0  0.1181
  H  H91  1  0.960800  0.110800  0.543400  1.0  0.1071
  H  H92  1  0.239400  0.074300  0.650900  1.0  0.0919
  H  H93  1  0.600300  0.320600  0.660400  1.0  0.1046
  H  H94  1  0.156600  0.234100  0.636800  1.0  0.0951
  H  H95  1  0.493700  0.389000  0.612700  1.0  0.0889
  H  H96  1  0.344800  0.506900  0.576700  1.0  0.1046
  H  H97  1  0.544200  0.602400  0.702000  1.0  0.0966
  H  H98  1  0.148100  0.532000  0.628600  1.0  0.0873
  H  H99  1  0.051300  0.301000  0.588100  1.0  0.1196
  H  H100  1  0.998600  0.391300  0.645300  1.0  0.1257
  H  H101  1  0.749600  0.455700  0.648400  1.0  0.0983
  H  H102  1  0.524100  0.650100  0.472000  1.0  0.1181
  H  H103  1  0.460800  0.610800  0.543400  1.0  0.1071
  H  H104  1  0.739400  0.574300  0.650900  1.0  0.0919
  C  C105  1  0.940800  0.272300  0.187500  1.0  0.6889
  C  C106  1  0.759500  0.146400  0.096500  1.0  0.0761
  C  C107  1  0.988100  0.183100  0.146200  1.0  -0.069
  C  C108  1  0.885400  0.230100  0.154100  1.0  -0.1316
  C  C109  1  0.310200  0.016000  0.085610  1.0  0.1838
  C  C110  1  0.725700  0.234500  0.132100  1.0  -0.0409
  C  C111  1  0.924000  0.142200  0.117700  1.0  -0.1364
  C  C112  1  0.537100  0.074100  0.082130  1.0  0.2029
  C  C113  1  0.824700  0.929000  0.169510  1.0  -0.1325
  C  C114  1  0.061600  0.961100  0.108770  1.0  0.0237
  C  C115  1  0.173300  0.944500  0.036090  1.0  0.1614
  C  C116  1  0.885100  0.973900  0.102160  1.0  -0.1116
  C  C117  1  0.003200  0.916900  0.176630  1.0  -0.0447
  C  C118  1  0.767200  0.958400  0.132930  1.0  -0.0375
  C  C119  1  0.686600  0.101700  0.067710  1.0  -0.0667
  C  C120  1  0.661200  0.194200  0.103200  1.0  -0.1375
  C  C121  1  0.460700  0.083100  0.123550  1.0  -0.1846
  C  C122  1  0.188100  0.975300  0.074530  1.0  -0.0724
  C  C123  1  0.232700  0.909200  0.971680  1.0  0.1982
  C  C124  1  0.323800  0.047500  0.125070  1.0  -0.1672
  C  C125  1  0.084700  0.879100  0.986700  1.0  -0.1838
  C  C126  1  0.050600  0.900800  0.025700  1.0  -0.1558
  C  C127  1  0.119200  0.933500  0.146020  1.0  -0.1193
  C  C128  1  0.697300  0.907400  0.201370  1.0  0.6711
  C  C129  1  0.440800  0.772300  0.187500  1.0  0.6889
  C  C130  1  0.259500  0.646400  0.096500  1.0  0.0761
  C  C131  1  0.488100  0.683100  0.146200  1.0  -0.069
  C  C132  1  0.385400  0.730100  0.154100  1.0  -0.1316
  C  C133  1  0.810200  0.516000  0.085610  1.0  0.1838
  C  C134  1  0.225700  0.734500  0.132100  1.0  -0.0409
  C  C135  1  0.424000  0.642200  0.117700  1.0  -0.1364
  C  C136  1  0.037100  0.574100  0.082130  1.0  0.2029
  C  C137  1  0.324700  0.429000  0.169510  1.0  -0.1325
  C  C138  1  0.561600  0.461100  0.108770  1.0  0.0237
  C  C139  1  0.673300  0.444500  0.036090  1.0  0.1614
  C  C140  1  0.385100  0.473900  0.102160  1.0  -0.1116
  C  C141  1  0.503200  0.416900  0.176630  1.0  -0.0447
  C  C142  1  0.267200  0.458400  0.132930  1.0  -0.0375
  C  C143  1  0.186600  0.601700  0.067710  1.0  -0.0667
  C  C144  1  0.161200  0.694200  0.103200  1.0  -0.1375
  C  C145  1  0.960700  0.583100  0.123550  1.0  -0.1846
  C  C146  1  0.688100  0.475300  0.074530  1.0  -0.0724
  C  C147  1  0.732700  0.409200  0.971680  1.0  0.1982
  C  C148  1  0.823800  0.547500  0.125070  1.0  -0.1672
  C  C149  1  0.584700  0.379100  0.986700  1.0  -0.1838
  C  C150  1  0.550600  0.400800  0.025700  1.0  -0.1558
  C  C151  1  0.619200  0.433500  0.146020  1.0  -0.1193
  C  C152  1  0.197300  0.407400  0.201370  1.0  0.6711
  C  C153  1  0.059200  0.272300  0.312500  1.0  0.6883
  C  C154  1  0.240500  0.146400  0.403500  1.0  0.0762
  C  C155  1  0.011900  0.183100  0.353800  1.0  -0.0695
  C  C156  1  0.114600  0.230100  0.345900  1.0  -0.1312
  C  C157  1  0.689800  0.016000  0.414390  1.0  0.1835
  C  C158  1  0.274300  0.234500  0.367900  1.0  -0.0419
  C  C159  1  0.076000  0.142200  0.382300  1.0  -0.1367
  C  C160  1  0.462900  0.074100  0.417870  1.0  0.202
  C  C161  1  0.175300  0.929000  0.330490  1.0  -0.1331
  C  C162  1  0.938400  0.961100  0.391230  1.0  0.0233
  C  C163  1  0.826700  0.944500  0.463910  1.0  0.1608
  C  C164  1  0.114900  0.973900  0.397840  1.0  -0.111
  C  C165  1  0.996800  0.916900  0.323370  1.0  -0.0442
  C  C166  1  0.232800  0.958400  0.367070  1.0  -0.037
  C  C167  1  0.313400  0.101700  0.432290  1.0  -0.0667
  C  C168  1  0.338800  0.194200  0.396800  1.0  -0.137
  C  C169  1  0.539300  0.083100  0.376450  1.0  -0.1833
  C  C170  1  0.811900  0.975300  0.425470  1.0  -0.0726
  C  C171  1  0.767300  0.909200  0.528320  1.0  0.1999
  C  C172  1  0.676200  0.047500  0.374930  1.0  -0.166
  C  C173  1  0.915300  0.879100  0.513300  1.0  -0.1846
  C  C174  1  0.949400  0.900800  0.474300  1.0  -0.1579
  C  C175  1  0.880800  0.933500  0.353980  1.0  -0.1185
  C  C176  1  0.302700  0.907400  0.298630  1.0  0.671
  C  C177  1  0.559200  0.772300  0.312500  1.0  0.6883
  C  C178  1  0.740500  0.646400  0.403500  1.0  0.0762
  C  C179  1  0.511900  0.683100  0.353800  1.0  -0.0695
  C  C180  1  0.614600  0.730100  0.345900  1.0  -0.1312
  C  C181  1  0.189800  0.516000  0.414390  1.0  0.1835
  C  C182  1  0.774300  0.734500  0.367900  1.0  -0.0419
  C  C183  1  0.576000  0.642200  0.382300  1.0  -0.1367
  C  C184  1  0.962900  0.574100  0.417870  1.0  0.202
  C  C185  1  0.675300  0.429000  0.330490  1.0  -0.1331
  C  C186  1  0.438400  0.461100  0.391230  1.0  0.0233
  C  C187  1  0.326700  0.444500  0.463910  1.0  0.1608
  C  C188  1  0.614900  0.473900  0.397840  1.0  -0.111
  C  C189  1  0.496800  0.416900  0.323370  1.0  -0.0442
  C  C190  1  0.732800  0.458400  0.367070  1.0  -0.037
  C  C191  1  0.813400  0.601700  0.432290  1.0  -0.0667
  C  C192  1  0.838800  0.694200  0.396800  1.0  -0.137
  C  C193  1  0.039300  0.583100  0.376450  1.0  -0.1833
  C  C194  1  0.311900  0.475300  0.425470  1.0  -0.0726
  C  C195  1  0.267300  0.409200  0.528320  1.0  0.1999
  C  C196  1  0.176200  0.547500  0.374930  1.0  -0.166
  C  C197  1  0.415300  0.379100  0.513300  1.0  -0.1846
  C  C198  1  0.449400  0.400800  0.474300  1.0  -0.1579
  C  C199  1  0.380800  0.433500  0.353980  1.0  -0.1185
  C  C200  1  0.802700  0.407400  0.298630  1.0  0.671
  C  C201  1  0.059200  0.727700  0.812500  1.0  0.6886
  C  C202  1  0.240500  0.853600  0.903500  1.0  0.0758
  C  C203  1  0.011900  0.816900  0.853800  1.0  -0.0698
  C  C204  1  0.114600  0.769900  0.845900  1.0  -0.1316
  C  C205  1  0.689800  0.984000  0.914390  1.0  0.1836
  C  C206  1  0.274300  0.765500  0.867900  1.0  -0.042
  C  C207  1  0.076000  0.857800  0.882300  1.0  -0.1375
  C  C208  1  0.462900  0.925900  0.917870  1.0  0.2022
  C  C209  1  0.175300  0.071000  0.830490  1.0  -0.1332
  C  C210  1  0.938400  0.038900  0.891230  1.0  0.0237
  C  C211  1  0.826700  0.055500  0.963910  1.0  0.1612
  C  C212  1  0.114900  0.026100  0.897840  1.0  -0.1109
  C  C213  1  0.996800  0.083100  0.823370  1.0  -0.044
  C  C214  1  0.232800  0.041600  0.867070  1.0  -0.037
  C  C215  1  0.313400  0.898300  0.932290  1.0  -0.067
  C  C216  1  0.338800  0.805800  0.896800  1.0  -0.136
  C  C217  1  0.539300  0.916900  0.876450  1.0  -0.1847
  C  C218  1  0.811900  0.024700  0.925470  1.0  -0.0729
  C  C219  1  0.767300  0.090800  0.028320  1.0  0.202
  C  C220  1  0.676200  0.952500  0.874930  1.0  -0.1656
  C  C221  1  0.915300  0.120900  0.013300  1.0  -0.1844
  C  C222  1  0.949400  0.099200  0.974300  1.0  -0.1571
  C  C223  1  0.880800  0.066500  0.853980  1.0  -0.1184
  C  C224  1  0.302700  0.092600  0.798630  1.0  0.6709
  C  C225  1  0.559200  0.227700  0.812500  1.0  0.6886
  C  C226  1  0.740500  0.353600  0.903500  1.0  0.0758
  C  C227  1  0.511900  0.316900  0.853800  1.0  -0.0698
  C  C228  1  0.614600  0.269900  0.845900  1.0  -0.1316
  C  C229  1  0.189800  0.484000  0.914390  1.0  0.1836
  C  C230  1  0.774300  0.265500  0.867900  1.0  -0.042
  C  C231  1  0.576000  0.357800  0.882300  1.0  -0.1375
  C  C232  1  0.962900  0.425900  0.917870  1.0  0.2022
  C  C233  1  0.675300  0.571000  0.830490  1.0  -0.1332
  C  C234  1  0.438400  0.538900  0.891230  1.0  0.0237
  C  C235  1  0.326700  0.555500  0.963910  1.0  0.1612
  C  C236  1  0.614900  0.526100  0.897840  1.0  -0.1109
  C  C237  1  0.496800  0.583100  0.823370  1.0  -0.044
  C  C238  1  0.732800  0.541600  0.867070  1.0  -0.037
  C  C239  1  0.813400  0.398300  0.932290  1.0  -0.067
  C  C240  1  0.838800  0.305800  0.896800  1.0  -0.136
  C  C241  1  0.039300  0.416900  0.876450  1.0  -0.1847
  C  C242  1  0.311900  0.524700  0.925470  1.0  -0.0729
  C  C243  1  0.267300  0.590800  0.028320  1.0  0.202
  C  C244  1  0.176200  0.452500  0.874930  1.0  -0.1656
  C  C245  1  0.415300  0.620900  0.013300  1.0  -0.1844
  C  C246  1  0.449400  0.599200  0.974300  1.0  -0.1571
  C  C247  1  0.380800  0.566500  0.853980  1.0  -0.1184
  C  C248  1  0.802700  0.592600  0.798630  1.0  0.6709
  C  C249  1  0.940800  0.727700  0.687500  1.0  0.6893
  C  C250  1  0.759500  0.853600  0.596500  1.0  0.0759
  C  C251  1  0.988100  0.816900  0.646200  1.0  -0.0693
  C  C252  1  0.885400  0.769900  0.654100  1.0  -0.1313
  C  C253  1  0.310200  0.984000  0.585610  1.0  0.1841
  C  C254  1  0.725700  0.765500  0.632100  1.0  -0.0399
  C  C255  1  0.924000  0.857800  0.617700  1.0  -0.1369
  C  C256  1  0.537100  0.925900  0.582130  1.0  0.2027
  C  C257  1  0.824700  0.071000  0.669510  1.0  -0.1326
  C  C258  1  0.061600  0.038900  0.608770  1.0  0.0238
  C  C259  1  0.173300  0.055500  0.536090  1.0  0.1619
  C  C260  1  0.885100  0.026100  0.602160  1.0  -0.1124
  C  C261  1  0.003200  0.083100  0.676630  1.0  -0.0444
  C  C262  1  0.767200  0.041600  0.632930  1.0  -0.0375
  C  C263  1  0.686600  0.898300  0.567710  1.0  -0.0672
  C  C264  1  0.661200  0.805800  0.603200  1.0  -0.1372
  C  C265  1  0.460700  0.916900  0.623550  1.0  -0.1844
  C  C266  1  0.188100  0.024700  0.574530  1.0  -0.0724
  C  C267  1  0.232700  0.090800  0.471680  1.0  0.2008
  C  C268  1  0.323800  0.952500  0.625070  1.0  -0.1668
  C  C269  1  0.084700  0.120900  0.486700  1.0  -0.1857
  C  C270  1  0.050600  0.099200  0.525700  1.0  -0.1563
  C  C271  1  0.119200  0.066500  0.646020  1.0  -0.12
  C  C272  1  0.697300  0.092600  0.701370  1.0  0.6709
  C  C273  1  0.440800  0.227700  0.687500  1.0  0.6893
  C  C274  1  0.259500  0.353600  0.596500  1.0  0.0759
  C  C275  1  0.488100  0.316900  0.646200  1.0  -0.0693
  C  C276  1  0.385400  0.269900  0.654100  1.0  -0.1313
  C  C277  1  0.810200  0.484000  0.585610  1.0  0.1841
  C  C278  1  0.225700  0.265500  0.632100  1.0  -0.0399
  C  C279  1  0.424000  0.357800  0.617700  1.0  -0.1369
  C  C280  1  0.037100  0.425900  0.582130  1.0  0.2027
  C  C281  1  0.324700  0.571000  0.669510  1.0  -0.1326
  C  C282  1  0.561600  0.538900  0.608770  1.0  0.0238
  C  C283  1  0.673300  0.555500  0.536090  1.0  0.1619
  C  C284  1  0.385100  0.526100  0.602160  1.0  -0.1124
  C  C285  1  0.503200  0.583100  0.676630  1.0  -0.0444
  C  C286  1  0.267200  0.541600  0.632930  1.0  -0.0375
  C  C287  1  0.186600  0.398300  0.567710  1.0  -0.0672
  C  C288  1  0.161200  0.305800  0.603200  1.0  -0.1372
  C  C289  1  0.960700  0.416900  0.623550  1.0  -0.1844
  C  C290  1  0.688100  0.524700  0.574530  1.0  -0.0724
  C  C291  1  0.732700  0.590800  0.471680  1.0  0.2008
  C  C292  1  0.823800  0.452500  0.625070  1.0  -0.1668
  C  C293  1  0.584700  0.620900  0.486700  1.0  -0.1857
  C  C294  1  0.550600  0.599200  0.525700  1.0  -0.1563
  C  C295  1  0.619200  0.566500  0.646020  1.0  -0.12
  C  C296  1  0.197300  0.592600  0.701370  1.0  0.6709
  N  N297  1  0.281100  0.949560  0.001320  1.0  -0.4132
  N  N298  1  0.445000  0.033460  0.060240  1.0  -0.397
  N  N299  1  0.781100  0.449560  0.001320  1.0  -0.4132
  N  N300  1  0.945000  0.533460  0.060240  1.0  -0.397
  N  N301  1  0.718900  0.949560  0.498680  1.0  -0.4119
  N  N302  1  0.555000  0.033460  0.439760  1.0  -0.397
  N  N303  1  0.218900  0.449560  0.498680  1.0  -0.4119
  N  N304  1  0.055000  0.533460  0.439760  1.0  -0.397
  N  N305  1  0.718900  0.050440  0.998680  1.0  -0.4124
  N  N306  1  0.555000  0.966540  0.939760  1.0  -0.3977
  N  N307  1  0.218900  0.550440  0.998680  1.0  -0.4124
  N  N308  1  0.055000  0.466540  0.939760  1.0  -0.3977
  N  N309  1  0.281100  0.050440  0.501320  1.0  -0.4133
  N  N310  1  0.445000  0.966540  0.560240  1.0  -0.3968
  N  N311  1  0.781100  0.550440  0.501320  1.0  -0.4133
  N  N312  1  0.945000  0.466540  0.560240  1.0  -0.3968
  O  O313  1  0.538900  0.914410  0.194530  1.0  -0.587
  O  O314  1  0.756400  0.878860  0.233270  1.0  -0.5977
  O  O315  1  0.090200  0.270800  0.204500  1.0  -0.5946
  O  O316  1  0.835300  0.308500  0.197770  1.0  -0.5927
  O  O317  1  0.038900  0.414410  0.194530  1.0  -0.587
  O  O318  1  0.256400  0.378860  0.233270  1.0  -0.5977
  O  O319  1  0.590200  0.770800  0.204500  1.0  -0.5946
  O  O320  1  0.335300  0.808500  0.197770  1.0  -0.5928
  O  O321  1  0.461100  0.914410  0.305470  1.0  -0.589
  O  O322  1  0.243600  0.878860  0.266730  1.0  -0.5967
  O  O323  1  0.909800  0.270800  0.295500  1.0  -0.5963
  O  O324  1  0.164700  0.308500  0.302230  1.0  -0.5935
  O  O325  1  0.961100  0.414410  0.305470  1.0  -0.589
  O  O326  1  0.743600  0.378860  0.266730  1.0  -0.5967
  O  O327  1  0.409800  0.770800  0.295500  1.0  -0.5963
  O  O328  1  0.664700  0.808500  0.302230  1.0  -0.5938
  O  O329  1  0.461100  0.085590  0.805470  1.0  -0.5885
  O  O330  1  0.243600  0.121140  0.766730  1.0  -0.5965
  O  O331  1  0.909800  0.729200  0.795500  1.0  -0.5964
  O  O332  1  0.164700  0.691500  0.802230  1.0  -0.594
  O  O333  1  0.961100  0.585590  0.805470  1.0  -0.5885
  O  O334  1  0.743600  0.621140  0.766730  1.0  -0.5965
  O  O335  1  0.409800  0.229200  0.795500  1.0  -0.5964
  O  O336  1  0.664700  0.191500  0.802230  1.0  -0.5942
  O  O337  1  0.538900  0.085590  0.694530  1.0  -0.5861
  O  O338  1  0.756400  0.121140  0.733270  1.0  -0.5973
  O  O339  1  0.090200  0.729200  0.704500  1.0  -0.5943
  O  O340  1  0.835300  0.691500  0.697770  1.0  -0.5936
  O  O341  1  0.038900  0.585590  0.694530  1.0  -0.5861
  O  O342  1  0.256400  0.621140  0.733270  1.0  -0.5973
  O  O343  1  0.590200  0.229200  0.704500  1.0  -0.5943
  O  O344  1  0.335300  0.191500  0.697770  1.0  -0.5938
