# generated using pymatgen
data_Co3H13C33N6Cl3O13
_symmetry_space_group_name_H-M   'P 1'
_cell_length_a   17.55400000
_cell_length_b   28.81500000
_cell_length_c   8.42090000
_cell_angle_alpha   90.00000000
_cell_angle_beta   108.75300000
_cell_angle_gamma   90.00000000
_symmetry_Int_Tables_number   1
_chemical_formula_structural   Co3H13C33N6Cl3O13
_chemical_formula_sum   'Co12 H52 C132 N24 Cl12 O52'
_cell_volume   4033.32709104
_cell_formula_units_Z   4
loop_
 _symmetry_equiv_pos_site_id
 _symmetry_equiv_pos_as_xyz
  1  'x, y, z'
loop_
 _atom_site_type_symbol
 _atom_site_label
 _atom_site_symmetry_multiplicity
 _atom_site_fract_x
 _atom_site_fract_y
 _atom_site_fract_z
 _atom_site_occupancy
 _atom_site_charge
  Co  Co1  1  0.322400  0.216970  0.344760  1.0  1.1086
  Co  Co2  1  0.105030  0.289410  0.699930  1.0  1.04
  Co  Co3  1  0.954150  0.572460  0.766180  1.0  1.1302
  Co  Co4  1  0.822400  0.716970  0.344760  1.0  1.1086
  Co  Co5  1  0.605030  0.789410  0.699930  1.0  1.04
  Co  Co6  1  0.454150  0.072460  0.766180  1.0  1.1302
  Co  Co7  1  0.322400  0.783030  0.844760  1.0  1.1085
  Co  Co8  1  0.105030  0.710590  0.199930  1.0  1.0408
  Co  Co9  1  0.954150  0.427540  0.266180  1.0  1.1296
  Co  Co10  1  0.822400  0.283030  0.844760  1.0  1.1085
  Co  Co11  1  0.605030  0.210590  0.199930  1.0  1.0408
  Co  Co12  1  0.454150  0.927540  0.266180  1.0  1.1296
  H  H13  1  0.242400  0.115600  0.318600  1.0  0.1419
  H  H14  1  0.249800  0.046300  0.464500  1.0  0.135
  H  H15  1  0.031900  0.071200  0.507700  1.0  0.1374
  H  H16  1  0.026700  0.142200  0.372700  1.0  0.1342
  H  H17  1  0.031200  0.071400  0.008600  1.0  0.1393
  H  H18  1  0.993200  0.198200  0.652400  1.0  0.1387
  H  H19  1  0.885200  0.168000  0.722000  1.0  0.1367
  H  H20  1  0.140300  0.103300  0.946000  1.0  0.1353
  H  H21  1  0.039900  0.626400  0.669800  1.0  0.4911
  H  H22  1  0.318200  0.500000  0.364600  1.0  0.1391
  H  H23  1  0.246500  0.621700  0.128600  1.0  0.1373
  H  H24  1  0.146500  0.583100  0.922600  1.0  0.1301
  H  H25  1  0.215200  0.462100  0.165600  1.0  0.1397
  H  H26  1  0.742400  0.615600  0.318600  1.0  0.1419
  H  H27  1  0.749800  0.546300  0.464500  1.0  0.135
  H  H28  1  0.531900  0.571200  0.507700  1.0  0.1374
  H  H29  1  0.526700  0.642200  0.372700  1.0  0.1342
  H  H30  1  0.531200  0.571400  0.008600  1.0  0.1393
  H  H31  1  0.493200  0.698200  0.652400  1.0  0.1387
  H  H32  1  0.385200  0.668000  0.722000  1.0  0.1367
  H  H33  1  0.640300  0.603300  0.946000  1.0  0.1353
  H  H34  1  0.539900  0.126400  0.669800  1.0  0.4911
  H  H35  1  0.818200  0.000000  0.364600  1.0  0.1391
  H  H36  1  0.746500  0.121700  0.128600  1.0  0.1373
  H  H37  1  0.646500  0.083100  0.922600  1.0  0.1301
  H  H38  1  0.715200  0.962100  0.165600  1.0  0.1397
  H  H39  1  0.242400  0.884400  0.818600  1.0  0.1419
  H  H40  1  0.249800  0.953700  0.964500  1.0  0.135
  H  H41  1  0.031900  0.928800  0.007700  1.0  0.1371
  H  H42  1  0.026700  0.857800  0.872700  1.0  0.134
  H  H43  1  0.031200  0.928600  0.508600  1.0  0.1393
  H  H44  1  0.993200  0.801800  0.152400  1.0  0.1386
  H  H45  1  0.885200  0.832000  0.222000  1.0  0.1369
  H  H46  1  0.140300  0.896700  0.446000  1.0  0.1354
  H  H47  1  0.039900  0.373600  0.169800  1.0  0.4907
  H  H48  1  0.318200  0.500000  0.864600  1.0  0.1389
  H  H49  1  0.246500  0.378300  0.628600  1.0  0.1377
  H  H50  1  0.146500  0.416900  0.422600  1.0  0.1302
  H  H51  1  0.215200  0.537900  0.665600  1.0  0.1389
  H  H52  1  0.742400  0.384400  0.818600  1.0  0.1419
  H  H53  1  0.749800  0.453700  0.964500  1.0  0.135
  H  H54  1  0.531900  0.428800  0.007700  1.0  0.1371
  H  H55  1  0.526700  0.357800  0.872700  1.0  0.134
  H  H56  1  0.531200  0.428600  0.508600  1.0  0.1393
  H  H57  1  0.493200  0.301800  0.152400  1.0  0.1386
  H  H58  1  0.385200  0.332000  0.222000  1.0  0.1369
  H  H59  1  0.640300  0.396700  0.446000  1.0  0.1354
  H  H60  1  0.539900  0.873600  0.169800  1.0  0.4907
  H  H61  1  0.818200  0.000000  0.864600  1.0  0.1389
  H  H62  1  0.746500  0.878300  0.628600  1.0  0.1377
  H  H63  1  0.646500  0.916900  0.422600  1.0  0.1302
  H  H64  1  0.715200  0.037900  0.665600  1.0  0.1389
  C  C65  1  0.141200  0.052760  0.498800  1.0  0.0055
  C  C66  1  0.200800  0.107030  0.358500  1.0  -0.025
  C  C67  1  0.133800  0.136060  0.332300  1.0  -0.0388
  C  C68  1  0.205000  0.065380  0.444100  1.0  -0.0419
  C  C69  1  0.007800  0.260430  0.935900  1.0  0.7022
  C  C70  1  0.078100  0.235540  0.057700  1.0  -0.0003
  C  C71  1  0.074300  0.080570  0.471600  1.0  -0.0286
  C  C72  1  0.130100  0.179560  0.238400  1.0  0.3587
  C  C73  1  0.218400  0.266960  0.054200  1.0  0.724
  C  C74  1  0.071000  0.122790  0.389400  1.0  -0.0363
  C  C75  1  0.160600  0.236020  0.100100  1.0  0.0328
  C  C76  1  0.255200  0.176540  0.674500  1.0  -0.0107
  C  C77  1  0.078200  0.154980  0.795800  1.0  -0.0471
  C  C78  1  0.024200  0.097140  0.938700  1.0  -0.0318
  C  C79  1  0.948700  0.117090  0.870200  1.0  0.0019
  C  C80  1  0.001300  0.173310  0.726300  1.0  -0.0371
  C  C81  1  0.936100  0.154930  0.765600  1.0  -0.0587
  C  C82  1  0.145000  0.174760  0.748500  1.0  0.3443
  C  C83  1  0.232700  0.262320  0.562100  1.0  0.7023
  C  C84  1  0.214200  0.218190  0.635300  1.0  0.0421
  C  C85  1  0.327900  0.153780  0.648600  1.0  0.7149
  C  C86  1  0.089400  0.116300  0.901000  1.0  -0.0614
  C  C87  1  0.169100  0.518730  0.022800  1.0  -0.0123
  C  C88  1  0.282700  0.516530  0.276800  1.0  -0.0362
  C  C89  1  0.048200  0.440710  0.703100  1.0  -0.0148
  C  C90  1  0.290900  0.564350  0.264900  1.0  -0.0072
  C  C91  1  0.240300  0.589710  0.134500  1.0  -0.0624
  C  C92  1  0.180200  0.566580  0.012700  1.0  -0.0252
  C  C93  1  0.221700  0.493940  0.157300  1.0  -0.0277
  C  C94  1  0.106100  0.495410  0.889900  1.0  0.3153
  C  C95  1  0.931400  0.495250  0.529900  1.0  0.6902
  C  C96  1  0.006300  0.482430  0.663200  1.0  0.0443
  C  C97  1  0.046100  0.393770  0.627200  1.0  0.7173
  C  C98  1  0.641200  0.552760  0.498800  1.0  0.0055
  C  C99  1  0.700800  0.607030  0.358500  1.0  -0.025
  C  C100  1  0.633800  0.636060  0.332300  1.0  -0.0388
  C  C101  1  0.705000  0.565380  0.444100  1.0  -0.0419
  C  C102  1  0.507800  0.760430  0.935900  1.0  0.7022
  C  C103  1  0.578100  0.735540  0.057700  1.0  -0.0003
  C  C104  1  0.574300  0.580570  0.471600  1.0  -0.0286
  C  C105  1  0.630100  0.679560  0.238400  1.0  0.3587
  C  C106  1  0.718400  0.766960  0.054200  1.0  0.724
  C  C107  1  0.571000  0.622790  0.389400  1.0  -0.0363
  C  C108  1  0.660600  0.736020  0.100100  1.0  0.0328
  C  C109  1  0.755200  0.676540  0.674500  1.0  -0.0107
  C  C110  1  0.578200  0.654980  0.795800  1.0  -0.0471
  C  C111  1  0.524200  0.597140  0.938700  1.0  -0.0318
  C  C112  1  0.448700  0.617090  0.870200  1.0  0.0019
  C  C113  1  0.501300  0.673310  0.726300  1.0  -0.0371
  C  C114  1  0.436100  0.654930  0.765600  1.0  -0.0587
  C  C115  1  0.645000  0.674760  0.748500  1.0  0.3443
  C  C116  1  0.732700  0.762320  0.562100  1.0  0.7023
  C  C117  1  0.714200  0.718190  0.635300  1.0  0.0421
  C  C118  1  0.827900  0.653780  0.648600  1.0  0.7149
  C  C119  1  0.589400  0.616300  0.901000  1.0  -0.0614
  C  C120  1  0.669100  0.018730  0.022800  1.0  -0.0123
  C  C121  1  0.782700  0.016530  0.276800  1.0  -0.0362
  C  C122  1  0.548200  0.940710  0.703100  1.0  -0.0148
  C  C123  1  0.790900  0.064350  0.264900  1.0  -0.0072
  C  C124  1  0.740300  0.089710  0.134500  1.0  -0.0624
  C  C125  1  0.680200  0.066580  0.012700  1.0  -0.0252
  C  C126  1  0.721700  0.993940  0.157300  1.0  -0.0277
  C  C127  1  0.606100  0.995410  0.889900  1.0  0.3153
  C  C128  1  0.431400  0.995250  0.529900  1.0  0.6902
  C  C129  1  0.506300  0.982430  0.663200  1.0  0.0443
  C  C130  1  0.546100  0.893770  0.627200  1.0  0.7173
  C  C131  1  0.141200  0.947240  0.998800  1.0  0.0068
  C  C132  1  0.200800  0.892970  0.858500  1.0  -0.0244
  C  C133  1  0.133800  0.863940  0.832300  1.0  -0.0395
  C  C134  1  0.205000  0.934620  0.944100  1.0  -0.0411
  C  C135  1  0.007800  0.739570  0.435900  1.0  0.7012
  C  C136  1  0.078100  0.764460  0.557700  1.0  -0.0009
  C  C137  1  0.074300  0.919430  0.971600  1.0  -0.0298
  C  C138  1  0.130100  0.820440  0.738400  1.0  0.3595
  C  C139  1  0.218400  0.733040  0.554200  1.0  0.7238
  C  C140  1  0.071000  0.877210  0.889400  1.0  -0.0357
  C  C141  1  0.160600  0.763980  0.600100  1.0  0.032
  C  C142  1  0.255200  0.823460  0.174500  1.0  -0.0106
  C  C143  1  0.078200  0.845020  0.295800  1.0  -0.0479
  C  C144  1  0.024200  0.902860  0.438700  1.0  -0.0315
  C  C145  1  0.948700  0.882910  0.370200  1.0  0.0048
  C  C146  1  0.001300  0.826690  0.226300  1.0  -0.0375
  C  C147  1  0.936100  0.845070  0.265600  1.0  -0.0583
  C  C148  1  0.145000  0.825240  0.248500  1.0  0.3443
  C  C149  1  0.232700  0.737680  0.062100  1.0  0.7036
  C  C150  1  0.214200  0.781810  0.135300  1.0  0.041
  C  C151  1  0.327900  0.846220  0.148600  1.0  0.7147
  C  C152  1  0.089400  0.883700  0.401000  1.0  -0.0633
  C  C153  1  0.169100  0.481270  0.522800  1.0  -0.0129
  C  C154  1  0.282700  0.483470  0.776800  1.0  -0.0364
  C  C155  1  0.048200  0.559290  0.203100  1.0  -0.0155
  C  C156  1  0.290900  0.435650  0.764900  1.0  -0.0082
  C  C157  1  0.240300  0.410290  0.634500  1.0  -0.062
  C  C158  1  0.180200  0.433420  0.512700  1.0  -0.0247
  C  C159  1  0.221700  0.506060  0.657300  1.0  -0.031
  C  C160  1  0.106100  0.504590  0.389900  1.0  0.3154
  C  C161  1  0.931400  0.504750  0.029900  1.0  0.69
  C  C162  1  0.006300  0.517570  0.163200  1.0  0.0442
  C  C163  1  0.046100  0.606230  0.127200  1.0  0.7199
  C  C164  1  0.641200  0.447240  0.998800  1.0  0.0068
  C  C165  1  0.700800  0.392970  0.858500  1.0  -0.0244
  C  C166  1  0.633800  0.363940  0.832300  1.0  -0.0395
  C  C167  1  0.705000  0.434620  0.944100  1.0  -0.0411
  C  C168  1  0.507800  0.239570  0.435900  1.0  0.7012
  C  C169  1  0.578100  0.264460  0.557700  1.0  -0.0009
  C  C170  1  0.574300  0.419430  0.971600  1.0  -0.0298
  C  C171  1  0.630100  0.320440  0.738400  1.0  0.3595
  C  C172  1  0.718400  0.233040  0.554200  1.0  0.7238
  C  C173  1  0.571000  0.377210  0.889400  1.0  -0.0357
  C  C174  1  0.660600  0.263980  0.600100  1.0  0.032
  C  C175  1  0.755200  0.323460  0.174500  1.0  -0.0106
  C  C176  1  0.578200  0.345020  0.295800  1.0  -0.0479
  C  C177  1  0.524200  0.402860  0.438700  1.0  -0.0315
  C  C178  1  0.448700  0.382910  0.370200  1.0  0.0048
  C  C179  1  0.501300  0.326690  0.226300  1.0  -0.0375
  C  C180  1  0.436100  0.345070  0.265600  1.0  -0.0583
  C  C181  1  0.645000  0.325240  0.248500  1.0  0.3443
  C  C182  1  0.732700  0.237680  0.062100  1.0  0.7036
  C  C183  1  0.714200  0.281810  0.135300  1.0  0.041
  C  C184  1  0.827900  0.346220  0.148600  1.0  0.7147
  C  C185  1  0.589400  0.383700  0.401000  1.0  -0.0633
  C  C186  1  0.669100  0.981270  0.522800  1.0  -0.0129
  C  C187  1  0.782700  0.983470  0.776800  1.0  -0.0364
  C  C188  1  0.548200  0.059290  0.203100  1.0  -0.0155
  C  C189  1  0.790900  0.935650  0.764900  1.0  -0.0082
  C  C190  1  0.740300  0.910290  0.634500  1.0  -0.062
  C  C191  1  0.680200  0.933420  0.512700  1.0  -0.0247
  C  C192  1  0.721700  0.006060  0.657300  1.0  -0.031
  C  C193  1  0.606100  0.004590  0.389900  1.0  0.3154
  C  C194  1  0.431400  0.004750  0.029900  1.0  0.69
  C  C195  1  0.506300  0.017570  0.163200  1.0  0.0442
  C  C196  1  0.546100  0.106230  0.127200  1.0  0.7199
  N  N197  1  0.193100  0.201230  0.215000  1.0  -0.4144
  N  N198  1  0.060500  0.199950  0.148900  1.0  -0.3129
  N  N199  1  0.145700  0.217040  0.682800  1.0  -0.4177
  N  N200  1  0.210500  0.149840  0.749200  1.0  -0.3296
  N  N201  1  0.042100  0.515840  0.780700  1.0  -0.4159
  N  N202  1  0.110600  0.449860  0.848400  1.0  -0.3215
  N  N203  1  0.693100  0.701230  0.215000  1.0  -0.4144
  N  N204  1  0.560500  0.699950  0.148900  1.0  -0.3129
  N  N205  1  0.645700  0.717040  0.682800  1.0  -0.4177
  N  N206  1  0.710500  0.649840  0.749200  1.0  -0.3296
  N  N207  1  0.542100  0.015840  0.780700  1.0  -0.4159
  N  N208  1  0.610600  0.949860  0.848400  1.0  -0.3215
  N  N209  1  0.193100  0.798770  0.715000  1.0  -0.4138
  N  N210  1  0.060500  0.800050  0.648900  1.0  -0.312
  N  N211  1  0.145700  0.782960  0.182800  1.0  -0.4168
  N  N212  1  0.210500  0.850160  0.249200  1.0  -0.3293
  N  N213  1  0.042100  0.484160  0.280700  1.0  -0.4152
  N  N214  1  0.110600  0.550140  0.348400  1.0  -0.319
  N  N215  1  0.693100  0.298770  0.715000  1.0  -0.4138
  N  N216  1  0.560500  0.300050  0.648900  1.0  -0.312
  N  N217  1  0.645700  0.282960  0.182800  1.0  -0.4168
  N  N218  1  0.710500  0.350160  0.249200  1.0  -0.3293
  N  N219  1  0.542100  0.984160  0.280700  1.0  -0.4152
  N  N220  1  0.610600  0.050140  0.348400  1.0  -0.319
  Cl  Cl221  1  0.146130  0.000080  0.605070  1.0  -0.0836
  Cl  Cl222  1  0.867890  0.092900  0.919930  1.0  -0.0937
  Cl  Cl223  1  0.367600  0.592710  0.419780  1.0  -0.0953
  Cl  Cl224  1  0.646130  0.500080  0.605070  1.0  -0.0836
  Cl  Cl225  1  0.367890  0.592900  0.919930  1.0  -0.0937
  Cl  Cl226  1  0.867600  0.092710  0.419780  1.0  -0.0953
  Cl  Cl227  1  0.146130  0.999920  0.105070  1.0  -0.0827
  Cl  Cl228  1  0.867890  0.907100  0.419930  1.0  -0.094
  Cl  Cl229  1  0.367600  0.407290  0.919780  1.0  -0.0952
  Cl  Cl230  1  0.646130  0.499920  0.105070  1.0  -0.0827
  Cl  Cl231  1  0.367890  0.407100  0.419930  1.0  -0.094
  Cl  Cl232  1  0.867600  0.907290  0.919780  1.0  -0.0952
  O  O233  1  0.194010  0.294190  0.929800  1.0  -0.6003
  O  O234  1  0.018380  0.283840  0.817700  1.0  -0.6141
  O  O235  1  0.290940  0.264640  0.145800  1.0  -0.561
  O  O236  1  0.941420  0.254440  0.958900  1.0  -0.5901
  O  O237  1  0.284790  0.264170  0.490100  1.0  -0.5751
  O  O238  1  0.357170  0.170930  0.543800  1.0  -0.6067
  O  O239  1  0.351740  0.117680  0.731800  1.0  -0.5903
  O  O240  1  0.192190  0.297580  0.579700  1.0  -0.5679
  O  O241  1  0.902620  0.469810  0.401900  1.0  -0.5844
  O  O242  1  0.994300  0.617520  0.617600  1.0  -0.6634
  O  O243  1  0.005160  0.387220  0.476000  1.0  -0.5811
  O  O244  1  0.088080  0.362890  0.723500  1.0  -0.6287
  O  O245  1  0.898500  0.532750  0.550400  1.0  -0.5621
  O  O246  1  0.694010  0.794190  0.929800  1.0  -0.6003
  O  O247  1  0.518380  0.783840  0.817700  1.0  -0.6141
  O  O248  1  0.790940  0.764640  0.145800  1.0  -0.561
  O  O249  1  0.441420  0.754440  0.958900  1.0  -0.5901
  O  O250  1  0.784790  0.764170  0.490100  1.0  -0.5751
  O  O251  1  0.857170  0.670930  0.543800  1.0  -0.6067
  O  O252  1  0.851740  0.617680  0.731800  1.0  -0.5904
  O  O253  1  0.692190  0.797580  0.579700  1.0  -0.5679
  O  O254  1  0.402620  0.969810  0.401900  1.0  -0.5844
  O  O255  1  0.494300  0.117520  0.617600  1.0  -0.6634
  O  O256  1  0.505160  0.887220  0.476000  1.0  -0.5811
  O  O257  1  0.588080  0.862890  0.723500  1.0  -0.6287
  O  O258  1  0.398500  0.032750  0.550400  1.0  -0.5621
  O  O259  1  0.194010  0.705810  0.429800  1.0  -0.6011
  O  O260  1  0.018380  0.716160  0.317700  1.0  -0.6129
  O  O261  1  0.290940  0.735360  0.645800  1.0  -0.5608
  O  O262  1  0.941420  0.745560  0.458900  1.0  -0.5897
  O  O263  1  0.284790  0.735830  0.990100  1.0  -0.5753
  O  O264  1  0.357170  0.829070  0.043800  1.0  -0.6063
  O  O265  1  0.351740  0.882320  0.231800  1.0  -0.5905
  O  O266  1  0.192190  0.702420  0.079700  1.0  -0.568
  O  O267  1  0.902620  0.530190  0.901900  1.0  -0.5839
  O  O268  1  0.994300  0.382480  0.117600  1.0  -0.6632
  O  O269  1  0.005160  0.612780  0.976000  1.0  -0.5802
  O  O270  1  0.088080  0.637110  0.223500  1.0  -0.6287
  O  O271  1  0.898500  0.467250  0.050400  1.0  -0.5625
  O  O272  1  0.694010  0.205810  0.429800  1.0  -0.6011
  O  O273  1  0.518380  0.216160  0.317700  1.0  -0.6129
  O  O274  1  0.790940  0.235360  0.645800  1.0  -0.5608
  O  O275  1  0.441420  0.245560  0.458900  1.0  -0.5897
  O  O276  1  0.784790  0.235830  0.990100  1.0  -0.5753
  O  O277  1  0.857170  0.329070  0.043800  1.0  -0.6063
  O  O278  1  0.851740  0.382320  0.231800  1.0  -0.5905
  O  O279  1  0.692190  0.202420  0.079700  1.0  -0.568
  O  O280  1  0.402620  0.030190  0.901900  1.0  -0.5839
  O  O281  1  0.494300  0.882480  0.117600  1.0  -0.6632
  O  O282  1  0.505160  0.112780  0.976000  1.0  -0.5802
  O  O283  1  0.588080  0.137110  0.223500  1.0  -0.6287
  O  O284  1  0.398500  0.967250  0.050400  1.0  -0.5625
