# generated using pymatgen
data_GaH5C8O5
_symmetry_space_group_name_H-M   'P 1'
_cell_length_a   6.73400000
_cell_length_b   11.06200000
_cell_length_c   11.18090000
_cell_angle_alpha   119.64900000
_cell_angle_beta   107.52600000
_cell_angle_gamma   90.00000000
_symmetry_Int_Tables_number   1
_chemical_formula_structural   GaH5C8O5
_chemical_formula_sum   'Ga2 H10 C16 O10'
_cell_volume   678.99154139
_cell_formula_units_Z   2
loop_
 _symmetry_equiv_pos_site_id
 _symmetry_equiv_pos_as_xyz
  1  'x, y, z'
loop_
 _atom_site_type_symbol
 _atom_site_label
 _atom_site_symmetry_multiplicity
 _atom_site_fract_x
 _atom_site_fract_y
 _atom_site_fract_z
 _atom_site_occupancy
 _atom_site_charge
  Ga  Ga1  1  0.000000  0.500000  0.000000  1.0  1.6487
  Ga  Ga2  1  0.500000  0.500000  0.000000  1.0  1.6487
  H  H3  1  0.848500  0.512200  0.614800  1.0  0.1005
  H  H4  1  0.651500  0.897400  0.385200  1.0  0.1015
  H  H5  1  0.733700  0.487800  0.385200  1.0  0.0976
  H  H6  1  0.766300  0.102600  0.614800  1.0  0.098
  H  H7  1  0.151500  0.487800  0.385200  1.0  0.1015
  H  H8  1  0.348500  0.102600  0.614800  1.0  0.1009
  H  H9  1  0.266300  0.512200  0.614800  1.0  0.0975
  H  H10  1  0.233700  0.897400  0.385200  1.0  0.0978
  H  H11  1  0.750000  0.347000  0.000000  1.0  0.4942
  H  H12  1  0.250000  0.653000  0.000000  1.0  0.4942
  C  C13  1  0.705600  0.507100  0.569400  1.0  -0.0557
  C  C14  1  0.794400  0.937700  0.430600  1.0  -0.0575
  C  C15  1  0.636200  0.492900  0.430600  1.0  -0.0563
  C  C16  1  0.863800  0.062300  0.569400  1.0  -0.0543
  C  C17  1  0.294400  0.492900  0.430600  1.0  -0.0583
  C  C18  1  0.205600  0.062300  0.569400  1.0  -0.0549
  C  C19  1  0.363800  0.507100  0.569400  1.0  -0.0523
  C  C20  1  0.136200  0.937700  0.430600  1.0  -0.0577
  C  C21  1  0.568700  0.513500  0.637400  1.0  -0.1323
  C  C22  1  0.644200  0.528100  0.788400  1.0  0.7557
  C  C23  1  0.931300  0.876100  0.362600  1.0  -0.1331
  C  C24  1  0.855800  0.739700  0.211600  1.0  0.7566
  C  C25  1  0.431300  0.486500  0.362600  1.0  -0.1335
  C  C26  1  0.355800  0.471900  0.211600  1.0  0.7558
  C  C27  1  0.068700  0.123900  0.637400  1.0  -0.1337
  C  C28  1  0.144200  0.260300  0.788400  1.0  0.7564
  O  O29  1  0.831800  0.532500  0.842000  1.0  -0.6333
  O  O30  1  0.668200  0.690500  0.158000  1.0  -0.6301
  O  O31  1  0.489800  0.467500  0.158000  1.0  -0.6317
  O  O32  1  0.010200  0.309500  0.842000  1.0  -0.6312
  O  O33  1  0.168200  0.467500  0.158000  1.0  -0.6328
  O  O34  1  0.331800  0.309500  0.842000  1.0  -0.6307
  O  O35  1  0.510200  0.532500  0.842000  1.0  -0.6314
  O  O36  1  0.989800  0.690500  0.158000  1.0  -0.6316
  O  O37  1  0.750000  0.420800  0.000000  1.0  -1.0365
  O  O38  1  0.250000  0.579200  0.000000  1.0  -1.0368
