# generated using pymatgen
data_Na2Cd3H12(C8O5)4
_symmetry_space_group_name_H-M   'P 1'
_cell_length_a   8.64900000
_cell_length_b   14.76300000
_cell_length_c   16.03300000
_cell_angle_alpha   104.34400000
_cell_angle_beta   97.34900000
_cell_angle_gamma   105.90700000
_symmetry_Int_Tables_number   1
_chemical_formula_structural   Na2Cd3H12(C8O5)4
_chemical_formula_sum   'Na4 Cd6 H24 C64 O40'
_cell_volume   1864.81147426
_cell_formula_units_Z   2
loop_
 _symmetry_equiv_pos_site_id
 _symmetry_equiv_pos_as_xyz
  1  'x, y, z'
loop_
 _atom_site_type_symbol
 _atom_site_label
 _atom_site_symmetry_multiplicity
 _atom_site_fract_x
 _atom_site_fract_y
 _atom_site_fract_z
 _atom_site_occupancy
 _atom_site_charge
  Na  Na1  1  0.231300  0.235300  0.868300  1.0  0.9084
  Na  Na2  1  0.394900  0.124600  0.648100  1.0  0.9759
  Na  Na3  1  0.768700  0.764700  0.131700  1.0  0.9101
  Na  Na4  1  0.605100  0.875400  0.351900  1.0  0.9759
  Cd  Cd5  1  0.236210  0.534580  0.001840  1.0  1.1662
  Cd  Cd6  1  0.672010  0.187310  0.860710  1.0  1.0735
  Cd  Cd7  1  0.255840  0.958020  0.432620  1.0  1.1272
  Cd  Cd8  1  0.763790  0.465420  0.998160  1.0  1.1662
  Cd  Cd9  1  0.327990  0.812690  0.139290  1.0  1.0746
  Cd  Cd10  1  0.744160  0.041980  0.567380  1.0  1.1272
  H  H11  1  0.352000  0.568800  0.751000  1.0  0.1212
  H  H12  1  0.545300  0.438100  0.559700  1.0  0.119
  H  H13  1  0.596500  0.337200  0.641200  1.0  0.1012
  H  H14  1  0.350600  0.690300  0.523400  1.0  0.1306
  H  H15  1  0.617100  0.692800  0.750400  1.0  0.1295
  H  H16  1  0.684000  0.862800  0.800300  1.0  0.1162
  H  H17  1  0.856400  0.516500  0.717900  1.0  0.1253
  H  H18  1  0.157100  0.761500  0.683900  1.0  0.1338
  H  H19  1  0.273600  0.814900  0.833200  1.0  0.1146
  H  H20  1  0.866800  0.761200  0.616000  1.0  0.1104
  H  H21  1  0.977100  0.553300  0.447800  1.0  0.1161
  H  H22  1  0.972400  0.638400  0.342600  1.0  0.1234
  H  H23  1  0.648000  0.431200  0.249000  1.0  0.1212
  H  H24  1  0.454700  0.561900  0.440300  1.0  0.1185
  H  H25  1  0.403500  0.662800  0.358800  1.0  0.101
  H  H26  1  0.649400  0.309700  0.476600  1.0  0.1295
  H  H27  1  0.382900  0.307200  0.249600  1.0  0.1292
  H  H28  1  0.316000  0.137200  0.199700  1.0  0.1158
  H  H29  1  0.143600  0.483500  0.282100  1.0  0.1257
  H  H30  1  0.842900  0.238500  0.316100  1.0  0.1336
  H  H31  1  0.726400  0.185100  0.166800  1.0  0.1147
  H  H32  1  0.133200  0.238800  0.384000  1.0  0.1109
  H  H33  1  0.022900  0.446700  0.552200  1.0  0.1162
  H  H34  1  0.027600  0.361600  0.657400  1.0  0.1229
  C  C35  1  0.368300  0.474000  0.863000  1.0  0.6611
  C  C36  1  0.432300  0.462400  0.777800  1.0  -0.0016
  C  C37  1  0.403600  0.522900  0.729800  1.0  -0.1676
  C  C38  1  0.451700  0.516000  0.648200  1.0  0.2799
  C  C39  1  0.519000  0.445300  0.614900  1.0  -0.1832
  C  C40  1  0.548100  0.384300  0.663800  1.0  -0.0122
  C  C41  1  0.507300  0.391100  0.745900  1.0  -0.1405
  C  C42  1  0.557000  0.329100  0.799300  1.0  0.7071
  C  C43  1  0.398900  0.875300  0.545200  1.0  0.6821
  C  C44  1  0.462400  0.827500  0.608600  1.0  -0.0018
  C  C45  1  0.417100  0.725200  0.578800  1.0  -0.2174
  C  C46  1  0.474000  0.675700  0.634400  1.0  0.2764
  C  C47  1  0.576000  0.726400  0.715700  1.0  -0.2319
  C  C48  1  0.616500  0.828200  0.745100  1.0  0.0013
  C  C49  1  0.556600  0.880000  0.692200  1.0  -0.1501
  C  C50  1  0.606600  0.990700  0.725900  1.0  0.7041
  C  C51  1  0.932700  0.552100  0.887700  1.0  0.6634
  C  C52  1  0.006600  0.612200  0.831100  1.0  -0.0071
  C  C53  1  0.938700  0.577200  0.741300  1.0  -0.1721
  C  C54  1  0.995000  0.633900  0.686200  1.0  0.2856
  C  C55  1  0.119900  0.723700  0.720200  1.0  -0.2405
  C  C56  1  0.188200  0.755600  0.810100  1.0  0.0012
  C  C57  1  0.133800  0.702500  0.865800  1.0  -0.1257
  C  C58  1  0.208900  0.742600  0.962100  1.0  0.6782
  C  C59  1  0.851200  0.884700  0.526100  1.0  0.666
  C  C60  1  0.885800  0.789900  0.499900  1.0  -0.0794
  C  C61  1  0.888600  0.737000  0.561000  1.0  -0.1334
  C  C62  1  0.922800  0.650600  0.540800  1.0  0.2731
  C  C63  1  0.953600  0.612500  0.460600  1.0  -0.1762
  C  C64  1  0.949500  0.663400  0.397200  1.0  -0.0529
  C  C65  1  0.911500  0.750900  0.415700  1.0  -0.0827
  C  C66  1  0.913400  0.797000  0.344000  1.0  0.7113
  C  C67  1  0.631700  0.526000  0.137000  1.0  0.6609
  C  C68  1  0.567700  0.537600  0.222200  1.0  -0.0018
  C  C69  1  0.596400  0.477100  0.270200  1.0  -0.1681
  C  C70  1  0.548300  0.484000  0.351800  1.0  0.2801
  C  C71  1  0.481000  0.554700  0.385100  1.0  -0.1851
  C  C72  1  0.451900  0.615700  0.336200  1.0  -0.0078
  C  C73  1  0.492700  0.608900  0.254100  1.0  -0.1406
  C  C74  1  0.443000  0.670900  0.200700  1.0  0.7089
  C  C75  1  0.601100  0.124700  0.454800  1.0  0.6815
  C  C76  1  0.537600  0.172500  0.391400  1.0  -0.0005
  C  C77  1  0.582900  0.274800  0.421200  1.0  -0.2157
  C  C78  1  0.526000  0.324300  0.365600  1.0  0.2772
  C  C79  1  0.424000  0.273600  0.284300  1.0  -0.2312
  C  C80  1  0.383500  0.171800  0.254900  1.0  0.0146
  C  C81  1  0.443400  0.120000  0.307800  1.0  -0.1529
  C  C82  1  0.393400  0.009300  0.274100  1.0  0.7032
  C  C83  1  0.067300  0.447900  0.112300  1.0  0.6627
  C  C84  1  0.993400  0.387800  0.168900  1.0  -0.0092
  C  C85  1  0.061300  0.422800  0.258700  1.0  -0.1727
  C  C86  1  0.005000  0.366100  0.313800  1.0  0.2862
  C  C87  1  0.880100  0.276300  0.279800  1.0  -0.2426
  C  C88  1  0.811800  0.244400  0.189900  1.0  0.0021
  C  C89  1  0.866200  0.297500  0.134200  1.0  -0.1301
  C  C90  1  0.791100  0.257400  0.037900  1.0  0.6785
  C  C91  1  0.148800  0.115300  0.473900  1.0  0.6671
  C  C92  1  0.114200  0.210100  0.500100  1.0  -0.0806
  C  C93  1  0.111400  0.263000  0.439000  1.0  -0.134
  C  C94  1  0.077200  0.349400  0.459200  1.0  0.2723
  C  C95  1  0.046400  0.387500  0.539400  1.0  -0.1751
  C  C96  1  0.050500  0.336600  0.602800  1.0  -0.0515
  C  C97  1  0.088500  0.249100  0.584300  1.0  -0.083
  C  C98  1  0.086600  0.203000  0.656000  1.0  0.7118
  O  O99  1  0.411800  0.562200  0.914000  1.0  -0.5739
  O  O100  1  0.269100  0.404900  0.877100  1.0  -0.6355
  O  O101  1  0.566000  0.354200  0.881000  1.0  -0.6678
  O  O102  1  0.583800  0.253300  0.758400  1.0  -0.6432
  O  O103  1  0.421600  0.574600  0.598200  1.0  -0.217
  O  O104  1  0.475100  0.891100  0.486100  1.0  -0.7239
  O  O105  1  0.265500  0.892000  0.549800  1.0  -0.593
  O  O106  1  0.586600  0.038300  0.673200  1.0  -0.7036
  O  O107  1  0.664600  0.030200  0.808200  1.0  -0.5514
  O  O108  1  0.979300  0.480600  0.896900  1.0  -0.6273
  O  O109  1  0.819700  0.573700  0.921300  1.0  -0.5609
  O  O110  1  0.187700  0.682900  0.008300  1.0  -0.6443
  O  O111  1  0.280100  0.831700  0.996200  1.0  -0.5388
  O  O112  1  0.919600  0.592300  0.598600  1.0  -0.2258
  O  O113  1  0.851500  0.922900  0.604800  1.0  -0.5689
  O  O114  1  0.822900  0.926200  0.467700  1.0  -0.6852
  O  O115  1  0.059100  0.840000  0.331100  1.0  -0.5686
  O  O116  1  0.785800  0.786900  0.292200  1.0  -0.6761
  O  O117  1  0.935100  0.247100  0.832800  1.0  -0.2745
  O  O118  1  0.390100  0.117100  0.862000  1.0  -0.4263
  O  O119  1  0.588200  0.437800  0.086000  1.0  -0.5731
  O  O120  1  0.730900  0.595100  0.122900  1.0  -0.6348
  O  O121  1  0.434000  0.645800  0.119000  1.0  -0.667
  O  O122  1  0.416200  0.746700  0.241600  1.0  -0.6421
  O  O123  1  0.578400  0.425400  0.401800  1.0  -0.2164
  O  O124  1  0.524900  0.108900  0.513900  1.0  -0.7298
  O  O125  1  0.734500  0.108000  0.450200  1.0  -0.5945
  O  O126  1  0.413400  0.961700  0.326800  1.0  -0.7038
  O  O127  1  0.335400  0.969800  0.191800  1.0  -0.5512
  O  O128  1  0.020700  0.519400  0.103100  1.0  -0.6273
  O  O129  1  0.180300  0.426300  0.078700  1.0  -0.5617
  O  O130  1  0.812300  0.317100  0.991700  1.0  -0.6448
  O  O131  1  0.719900  0.168300  0.003800  1.0  -0.5397
  O  O132  1  0.080400  0.407700  0.401400  1.0  -0.2267
  O  O133  1  0.148500  0.077100  0.395200  1.0  -0.5737
  O  O134  1  0.177100  0.073800  0.532300  1.0  -0.6865
  O  O135  1  0.940900  0.160000  0.668900  1.0  -0.5724
  O  O136  1  0.214200  0.213100  0.707800  1.0  -0.6736
  O  O137  1  0.064900  0.752900  0.167200  1.0  -0.2777
  O  O138  1  0.609900  0.882900  0.138000  1.0  -0.4219
