# generated using pymatgen
data_ZnH21C27N3O5
_symmetry_space_group_name_H-M   'P 1'
_cell_length_a   23.26670000
_cell_length_b   15.23520000
_cell_length_c   16.83470000
_cell_angle_alpha   90.00000000
_cell_angle_beta   90.00000000
_cell_angle_gamma   90.00000000
_symmetry_Int_Tables_number   1
_chemical_formula_structural   ZnH21C27N3O5
_chemical_formula_sum   'Zn8 H168 C216 N24 O40'
_cell_volume   5967.44371484
_cell_formula_units_Z   8
loop_
 _symmetry_equiv_pos_site_id
 _symmetry_equiv_pos_as_xyz
  1  'x, y, z'
loop_
 _atom_site_type_symbol
 _atom_site_label
 _atom_site_symmetry_multiplicity
 _atom_site_fract_x
 _atom_site_fract_y
 _atom_site_fract_z
 _atom_site_occupancy
 _atom_site_charge
  Zn  Zn1  1  0.011730  0.583420  0.243600  1.0  0.9139
  Zn  Zn2  1  0.511730  0.416580  0.256400  1.0  0.9141
  Zn  Zn3  1  0.511730  0.083420  0.756400  1.0  0.914
  Zn  Zn4  1  0.011730  0.916580  0.743600  1.0  0.914
  Zn  Zn5  1  0.488270  0.916580  0.243600  1.0  0.9148
  Zn  Zn6  1  0.988270  0.083420  0.256400  1.0  0.915
  Zn  Zn7  1  0.988270  0.416580  0.756400  1.0  0.915
  Zn  Zn8  1  0.488270  0.583420  0.743600  1.0  0.9149
  H  H9  1  0.748200  0.986000  0.195700  1.0  0.2644
  H  H10  1  0.668100  0.230400  0.144400  1.0  0.1077
  H  H11  1  0.731300  0.116100  0.163900  1.0  0.1096
  H  H12  1  0.703100  0.125800  0.394500  1.0  0.1173
  H  H13  1  0.638900  0.239200  0.376000  1.0  0.0989
  H  H14  1  0.768300  0.854500  0.139600  1.0  0.1207
  H  H15  1  0.826100  0.730100  0.130900  1.0  0.0888
  H  H16  1  0.916400  0.809700  0.313500  1.0  0.0898
  H  H17  1  0.858600  0.933900  0.322500  1.0  0.0799
  H  H18  1  0.075700  0.527700  0.097600  1.0  0.0857
  H  H19  1  0.073300  0.418800  0.002400  1.0  0.1084
  H  H20  1  0.933100  0.323400  0.103300  1.0  0.1029
  H  H21  1  0.938100  0.433900  0.196800  1.0  0.0952
  H  H22  1  0.035500  0.287900  0.948600  1.0  0.0903
  H  H23  1  0.968100  0.290600  0.948900  1.0  0.1037
  H  H24  1  0.033100  0.188200  0.057500  1.0  0.0937
  H  H25  1  0.965600  0.188700  0.053600  1.0  0.0851
  H  H26  1  0.088200  0.120600  0.946900  1.0  0.1288
  H  H27  1  0.091000  0.017800  0.847200  1.0  0.0733
  H  H28  1  0.926000  0.991100  0.857000  1.0  0.0722
  H  H29  1  0.917800  0.094900  0.954100  1.0  0.1393
  H  H30  1  0.248200  0.014000  0.304300  1.0  0.2656
  H  H31  1  0.168100  0.769600  0.355600  1.0  0.1071
  H  H32  1  0.231300  0.883900  0.336100  1.0  0.1093
  H  H33  1  0.203100  0.874200  0.105500  1.0  0.1175
  H  H34  1  0.138900  0.760800  0.124000  1.0  0.0991
  H  H35  1  0.268300  0.145500  0.360400  1.0  0.1208
  H  H36  1  0.326100  0.269900  0.369100  1.0  0.0893
  H  H37  1  0.416400  0.190300  0.186500  1.0  0.0891
  H  H38  1  0.358600  0.066100  0.177500  1.0  0.0783
  H  H39  1  0.575700  0.472300  0.402400  1.0  0.0856
  H  H40  1  0.573300  0.581200  0.497600  1.0  0.1084
  H  H41  1  0.433100  0.676600  0.396700  1.0  0.1034
  H  H42  1  0.438100  0.566100  0.303200  1.0  0.0951
  H  H43  1  0.535500  0.712100  0.551400  1.0  0.0897
  H  H44  1  0.468100  0.709400  0.551100  1.0  0.1027
  H  H45  1  0.533100  0.811800  0.442500  1.0  0.0933
  H  H46  1  0.465600  0.811300  0.446400  1.0  0.0856
  H  H47  1  0.588200  0.879400  0.553100  1.0  0.129
  H  H48  1  0.591000  0.982200  0.652800  1.0  0.0731
  H  H49  1  0.426000  0.008900  0.643000  1.0  0.072
  H  H50  1  0.417800  0.905100  0.545900  1.0  0.1396
  H  H51  1  0.248200  0.486000  0.804300  1.0  0.2655
  H  H52  1  0.168100  0.730400  0.855600  1.0  0.1068
  H  H53  1  0.231300  0.616100  0.836100  1.0  0.1096
  H  H54  1  0.203100  0.625800  0.605500  1.0  0.1173
  H  H55  1  0.138900  0.739200  0.624000  1.0  0.0991
  H  H56  1  0.268300  0.354500  0.860400  1.0  0.1207
  H  H57  1  0.326100  0.230100  0.869100  1.0  0.0894
  H  H58  1  0.416400  0.309700  0.686500  1.0  0.089
  H  H59  1  0.358600  0.433900  0.677500  1.0  0.0788
  H  H60  1  0.575700  0.027700  0.902400  1.0  0.0855
  H  H61  1  0.573300  0.918800  0.997600  1.0  0.1079
  H  H62  1  0.433100  0.823400  0.896700  1.0  0.1032
  H  H63  1  0.438100  0.933900  0.803200  1.0  0.0954
  H  H64  1  0.535500  0.787900  0.051400  1.0  0.0897
  H  H65  1  0.468100  0.790600  0.051100  1.0  0.1027
  H  H66  1  0.533100  0.688200  0.942500  1.0  0.0931
  H  H67  1  0.465600  0.688700  0.946400  1.0  0.0853
  H  H68  1  0.588200  0.620600  0.053100  1.0  0.1289
  H  H69  1  0.591000  0.517800  0.152800  1.0  0.0731
  H  H70  1  0.426000  0.491100  0.143000  1.0  0.0722
  H  H71  1  0.417800  0.594900  0.045900  1.0  0.1396
  H  H72  1  0.748200  0.514000  0.695700  1.0  0.2647
  H  H73  1  0.668100  0.269600  0.644400  1.0  0.1076
  H  H74  1  0.731300  0.383900  0.663900  1.0  0.1096
  H  H75  1  0.703100  0.374200  0.894500  1.0  0.1172
  H  H76  1  0.638900  0.260800  0.876000  1.0  0.0991
  H  H77  1  0.768300  0.645500  0.639600  1.0  0.1204
  H  H78  1  0.826100  0.769900  0.630900  1.0  0.0888
  H  H79  1  0.916400  0.690300  0.813500  1.0  0.0893
  H  H80  1  0.858600  0.566100  0.822500  1.0  0.0797
  H  H81  1  0.075700  0.972300  0.597600  1.0  0.0856
  H  H82  1  0.073300  0.081200  0.502400  1.0  0.1085
  H  H83  1  0.933100  0.176600  0.603300  1.0  0.103
  H  H84  1  0.938100  0.066100  0.696800  1.0  0.0953
  H  H85  1  0.035500  0.212100  0.448600  1.0  0.09
  H  H86  1  0.968100  0.209400  0.448900  1.0  0.1035
  H  H87  1  0.033100  0.311800  0.557500  1.0  0.0936
  H  H88  1  0.965600  0.311300  0.553600  1.0  0.085
  H  H89  1  0.088200  0.379400  0.446900  1.0  0.1291
  H  H90  1  0.091000  0.482200  0.347200  1.0  0.0732
  H  H91  1  0.926000  0.508900  0.357000  1.0  0.0722
  H  H92  1  0.917800  0.405100  0.454100  1.0  0.1394
  H  H93  1  0.751800  0.514000  0.195700  1.0  0.2644
  H  H94  1  0.831900  0.269600  0.144400  1.0  0.1076
  H  H95  1  0.768700  0.383900  0.163900  1.0  0.1097
  H  H96  1  0.796900  0.374200  0.394500  1.0  0.1176
  H  H97  1  0.861100  0.260800  0.376000  1.0  0.0995
  H  H98  1  0.731700  0.645500  0.139600  1.0  0.12
  H  H99  1  0.673900  0.769900  0.130900  1.0  0.089
  H  H100  1  0.583600  0.690300  0.313500  1.0  0.0894
  H  H101  1  0.641400  0.566100  0.322500  1.0  0.0797
  H  H102  1  0.424300  0.972300  0.097600  1.0  0.084
  H  H103  1  0.426700  0.081200  0.002400  1.0  0.1087
  H  H104  1  0.566900  0.176600  0.103300  1.0  0.1038
  H  H105  1  0.561900  0.066100  0.196800  1.0  0.0958
  H  H106  1  0.464500  0.212100  0.948600  1.0  0.0903
  H  H107  1  0.531900  0.209400  0.948900  1.0  0.1017
  H  H108  1  0.466900  0.311800  0.057500  1.0  0.0944
  H  H109  1  0.534400  0.311300  0.053600  1.0  0.0847
  H  H110  1  0.411800  0.379400  0.946900  1.0  0.1286
  H  H111  1  0.409000  0.482200  0.847200  1.0  0.0739
  H  H112  1  0.574000  0.508900  0.857000  1.0  0.0726
  H  H113  1  0.582200  0.405100  0.954100  1.0  0.1402
  H  H114  1  0.251800  0.486000  0.304300  1.0  0.2653
  H  H115  1  0.331900  0.730400  0.355600  1.0  0.1071
  H  H116  1  0.268700  0.616100  0.336100  1.0  0.1099
  H  H117  1  0.296900  0.625800  0.105500  1.0  0.1172
  H  H118  1  0.361100  0.739200  0.124000  1.0  0.0992
  H  H119  1  0.231700  0.354500  0.360400  1.0  0.1202
  H  H120  1  0.173900  0.230100  0.369100  1.0  0.0892
  H  H121  1  0.083600  0.309700  0.186500  1.0  0.0891
  H  H122  1  0.141400  0.433900  0.177500  1.0  0.0792
  H  H123  1  0.924300  0.027700  0.402400  1.0  0.0842
  H  H124  1  0.926700  0.918800  0.497600  1.0  0.1081
  H  H125  1  0.066900  0.823400  0.396700  1.0  0.1041
  H  H126  1  0.061900  0.933900  0.303200  1.0  0.0957
  H  H127  1  0.964500  0.787900  0.551400  1.0  0.0904
  H  H128  1  0.031900  0.790600  0.551100  1.0  0.1008
  H  H129  1  0.966900  0.688200  0.442500  1.0  0.0946
  H  H130  1  0.034400  0.688700  0.446400  1.0  0.0852
  H  H131  1  0.911800  0.620600  0.553100  1.0  0.1288
  H  H132  1  0.909000  0.517800  0.652800  1.0  0.0734
  H  H133  1  0.074000  0.491100  0.643000  1.0  0.0721
  H  H134  1  0.082200  0.594900  0.545900  1.0  0.1399
  H  H135  1  0.251800  0.014000  0.804300  1.0  0.2656
  H  H136  1  0.331900  0.769600  0.855600  1.0  0.1075
  H  H137  1  0.268700  0.883900  0.836100  1.0  0.1096
  H  H138  1  0.296900  0.874200  0.605500  1.0  0.1172
  H  H139  1  0.361100  0.760800  0.624000  1.0  0.0996
  H  H140  1  0.231700  0.145500  0.860400  1.0  0.1204
  H  H141  1  0.173900  0.269900  0.869100  1.0  0.0891
  H  H142  1  0.083600  0.190300  0.686500  1.0  0.0894
  H  H143  1  0.141400  0.066100  0.677500  1.0  0.0788
  H  H144  1  0.924300  0.472300  0.902400  1.0  0.084
  H  H145  1  0.926700  0.581200  0.997600  1.0  0.1084
  H  H146  1  0.066900  0.676600  0.896700  1.0  0.1041
  H  H147  1  0.061900  0.566100  0.803200  1.0  0.0954
  H  H148  1  0.964500  0.712100  0.051400  1.0  0.0905
  H  H149  1  0.031900  0.709400  0.051100  1.0  0.1009
  H  H150  1  0.966900  0.811800  0.942500  1.0  0.0948
  H  H151  1  0.034400  0.811300  0.946400  1.0  0.0852
  H  H152  1  0.911800  0.879400  0.053100  1.0  0.1288
  H  H153  1  0.909000  0.982200  0.152800  1.0  0.0737
  H  H154  1  0.074000  0.008900  0.143000  1.0  0.0723
  H  H155  1  0.082200  0.905100  0.045900  1.0  0.1399
  H  H156  1  0.751800  0.986000  0.695700  1.0  0.2643
  H  H157  1  0.831900  0.230400  0.644400  1.0  0.1075
  H  H158  1  0.768700  0.116100  0.663900  1.0  0.1096
  H  H159  1  0.796900  0.125800  0.894500  1.0  0.1179
  H  H160  1  0.861100  0.239200  0.876000  1.0  0.0991
  H  H161  1  0.731700  0.854500  0.639600  1.0  0.1201
  H  H162  1  0.673900  0.730100  0.630900  1.0  0.0891
  H  H163  1  0.583600  0.809700  0.813500  1.0  0.0896
  H  H164  1  0.641400  0.933900  0.822500  1.0  0.0797
  H  H165  1  0.424300  0.527700  0.597600  1.0  0.0844
  H  H166  1  0.426700  0.418800  0.502400  1.0  0.1086
  H  H167  1  0.566900  0.323400  0.603300  1.0  0.104
  H  H168  1  0.561900  0.433900  0.696800  1.0  0.0956
  H  H169  1  0.464500  0.287900  0.448600  1.0  0.0907
  H  H170  1  0.531900  0.290600  0.448900  1.0  0.1019
  H  H171  1  0.466900  0.188200  0.557500  1.0  0.0945
  H  H172  1  0.534400  0.188700  0.553600  1.0  0.0848
  H  H173  1  0.411800  0.120600  0.446900  1.0  0.1284
  H  H174  1  0.409000  0.017800  0.347200  1.0  0.0737
  H  H175  1  0.574000  0.991100  0.357000  1.0  0.0722
  H  H176  1  0.582200  0.094900  0.454100  1.0  0.1402
  C  C177  1  0.646100  0.245700  0.257800  1.0  -0.1454
  C  C178  1  0.674300  0.209000  0.195400  1.0  -0.0751
  C  C179  1  0.712000  0.140100  0.207100  1.0  -0.1122
  C  C180  1  0.721100  0.107700  0.279500  1.0  -0.0267
  C  C181  1  0.695200  0.145800  0.343500  1.0  -0.0776
  C  C182  1  0.657200  0.214200  0.332300  1.0  -0.0363
  C  C183  1  0.804400  0.901900  0.238800  1.0  0.214
  C  C184  1  0.796700  0.844500  0.177400  1.0  -0.2206
  C  C185  1  0.832300  0.769900  0.171900  1.0  -0.0406
  C  C186  1  0.874700  0.754600  0.224200  1.0  -0.1396
  C  C187  1  0.885400  0.816300  0.279100  1.0  -0.0904
  C  C188  1  0.849900  0.891000  0.285100  1.0  -0.1639
  C  C189  1  0.603800  0.319600  0.240900  1.0  0.6615
  C  C190  1  0.912600  0.673600  0.221200  1.0  0.6884
  C  C191  1  0.762400  0.031500  0.295400  1.0  0.5942
  C  C192  1  0.046200  0.486400  0.099000  1.0  0.1192
  C  C193  1  0.045100  0.420200  0.041600  1.0  -0.1878
  C  C194  1  0.003200  0.357800  0.042500  1.0  0.1338
  C  C195  1  0.962800  0.364200  0.100900  1.0  -0.1908
  C  C196  1  0.965600  0.431100  0.156800  1.0  0.169
  C  C197  1  0.001800  0.284100  0.982300  1.0  -0.2114
  C  C198  1  0.000300  0.194300  0.022200  1.0  -0.2037
  C  C199  1  0.002000  0.122600  0.959100  1.0  0.124
  C  C200  1  0.054200  0.096500  0.927800  1.0  -0.1521
  C  C201  1  0.055700  0.034600  0.868100  1.0  0.164
  C  C202  1  0.959200  0.019800  0.873800  1.0  0.1777
  C  C203  1  0.953600  0.081500  0.932700  1.0  -0.2323
  C  C204  1  0.146100  0.754300  0.242200  1.0  -0.1458
  C  C205  1  0.174300  0.791000  0.304600  1.0  -0.0749
  C  C206  1  0.212000  0.859900  0.292900  1.0  -0.1124
  C  C207  1  0.221100  0.892300  0.220500  1.0  -0.0269
  C  C208  1  0.195200  0.854200  0.156500  1.0  -0.0781
  C  C209  1  0.157200  0.785800  0.167700  1.0  -0.037
  C  C210  1  0.304400  0.098100  0.261200  1.0  0.2129
  C  C211  1  0.296700  0.155500  0.322600  1.0  -0.2218
  C  C212  1  0.332300  0.230100  0.328100  1.0  -0.0399
  C  C213  1  0.374700  0.245400  0.275800  1.0  -0.1394
  C  C214  1  0.385400  0.183700  0.220900  1.0  -0.0885
  C  C215  1  0.349900  0.109000  0.214900  1.0  -0.1646
  C  C216  1  0.103800  0.680400  0.259100  1.0  0.6614
  C  C217  1  0.412600  0.326400  0.278800  1.0  0.6883
  C  C218  1  0.262400  0.968500  0.204600  1.0  0.5952
  C  C219  1  0.546200  0.513600  0.401000  1.0  0.1189
  C  C220  1  0.545100  0.579800  0.458400  1.0  -0.1893
  C  C221  1  0.503200  0.642200  0.457500  1.0  0.1335
  C  C222  1  0.462800  0.635800  0.399100  1.0  -0.1908
  C  C223  1  0.465600  0.568900  0.343200  1.0  0.1692
  C  C224  1  0.501800  0.715900  0.517700  1.0  -0.2127
  C  C225  1  0.500300  0.805700  0.477800  1.0  -0.2014
  C  C226  1  0.502000  0.877400  0.540900  1.0  0.1235
  C  C227  1  0.554200  0.903500  0.572200  1.0  -0.1524
  C  C228  1  0.555700  0.965400  0.631900  1.0  0.1642
  C  C229  1  0.459200  0.980200  0.626200  1.0  0.1783
  C  C230  1  0.453600  0.918500  0.567300  1.0  -0.2325
  C  C231  1  0.146100  0.745700  0.742200  1.0  -0.1454
  C  C232  1  0.174300  0.709000  0.804600  1.0  -0.0749
  C  C233  1  0.212000  0.640100  0.792900  1.0  -0.1117
  C  C234  1  0.221100  0.607700  0.720500  1.0  -0.0274
  C  C235  1  0.195200  0.645800  0.656500  1.0  -0.0763
  C  C236  1  0.157200  0.714200  0.667700  1.0  -0.0369
  C  C237  1  0.304400  0.401900  0.761200  1.0  0.2125
  C  C238  1  0.296700  0.344500  0.822600  1.0  -0.2216
  C  C239  1  0.332300  0.269900  0.828100  1.0  -0.0399
  C  C240  1  0.374700  0.254600  0.775800  1.0  -0.1396
  C  C241  1  0.385400  0.316300  0.720900  1.0  -0.0894
  C  C242  1  0.349900  0.391000  0.714900  1.0  -0.1646
  C  C243  1  0.103800  0.819600  0.759100  1.0  0.6615
  C  C244  1  0.412600  0.173600  0.778800  1.0  0.6877
  C  C245  1  0.262400  0.531500  0.704600  1.0  0.5953
  C  C246  1  0.546200  0.986400  0.901000  1.0  0.1192
  C  C247  1  0.545100  0.920200  0.958400  1.0  -0.1892
  C  C248  1  0.503200  0.857800  0.957500  1.0  0.1335
  C  C249  1  0.462800  0.864200  0.899100  1.0  -0.1909
  C  C250  1  0.465600  0.931100  0.843200  1.0  0.1694
  C  C251  1  0.501800  0.784100  0.017700  1.0  -0.2128
  C  C252  1  0.500300  0.694300  0.977800  1.0  -0.2014
  C  C253  1  0.502000  0.622600  0.040900  1.0  0.1238
  C  C254  1  0.554200  0.596500  0.072200  1.0  -0.1523
  C  C255  1  0.555700  0.534600  0.131900  1.0  0.164
  C  C256  1  0.459200  0.519800  0.126200  1.0  0.1786
  C  C257  1  0.453600  0.581500  0.067300  1.0  -0.2325
  C  C258  1  0.646100  0.254300  0.757800  1.0  -0.1457
  C  C259  1  0.674300  0.291000  0.695400  1.0  -0.0752
  C  C260  1  0.712000  0.359900  0.707100  1.0  -0.1131
  C  C261  1  0.721100  0.392300  0.779500  1.0  -0.0267
  C  C262  1  0.695200  0.354200  0.843500  1.0  -0.0783
  C  C263  1  0.657200  0.285800  0.832300  1.0  -0.0364
  C  C264  1  0.804400  0.598100  0.738800  1.0  0.2141
  C  C265  1  0.796700  0.655500  0.677400  1.0  -0.2203
  C  C266  1  0.832300  0.730100  0.671900  1.0  -0.0391
  C  C267  1  0.874700  0.745400  0.724200  1.0  -0.1396
  C  C268  1  0.885400  0.683700  0.779100  1.0  -0.0899
  C  C269  1  0.849900  0.609000  0.785100  1.0  -0.1643
  C  C270  1  0.603800  0.180400  0.740900  1.0  0.6614
  C  C271  1  0.912600  0.826400  0.721200  1.0  0.6887
  C  C272  1  0.762400  0.468500  0.795400  1.0  0.5947
  C  C273  1  0.046200  0.013600  0.599000  1.0  0.119
  C  C274  1  0.045100  0.079800  0.541600  1.0  -0.1881
  C  C275  1  0.003200  0.142200  0.542500  1.0  0.1337
  C  C276  1  0.962800  0.135800  0.600900  1.0  -0.1907
  C  C277  1  0.965600  0.068900  0.656800  1.0  0.1692
  C  C278  1  0.001800  0.215900  0.482300  1.0  -0.2116
  C  C279  1  0.000300  0.305700  0.522200  1.0  -0.2039
  C  C280  1  0.002000  0.377400  0.459100  1.0  0.1237
  C  C281  1  0.054200  0.403500  0.427800  1.0  -0.1525
  C  C282  1  0.055700  0.465400  0.368100  1.0  0.1644
  C  C283  1  0.959200  0.480200  0.373800  1.0  0.1781
  C  C284  1  0.953600  0.418500  0.432700  1.0  -0.2322
  C  C285  1  0.853900  0.254300  0.257800  1.0  -0.145
  C  C286  1  0.825700  0.291000  0.195400  1.0  -0.075
  C  C287  1  0.788000  0.359900  0.207100  1.0  -0.1116
  C  C288  1  0.778900  0.392300  0.279500  1.0  -0.0262
  C  C289  1  0.804800  0.354200  0.343500  1.0  -0.0793
  C  C290  1  0.842800  0.285800  0.332300  1.0  -0.0375
  C  C291  1  0.695600  0.598100  0.238800  1.0  0.2143
  C  C292  1  0.703300  0.655500  0.177400  1.0  -0.2202
  C  C293  1  0.667700  0.730100  0.171900  1.0  -0.0389
  C  C294  1  0.625300  0.745400  0.224200  1.0  -0.1387
  C  C295  1  0.614600  0.683700  0.279100  1.0  -0.0883
  C  C296  1  0.650100  0.609000  0.285100  1.0  -0.1635
  C  C297  1  0.896200  0.180400  0.240900  1.0  0.6625
  C  C298  1  0.587400  0.826400  0.221200  1.0  0.6884
  C  C299  1  0.737600  0.468500  0.295400  1.0  0.597
  C  C300  1  0.453800  0.013600  0.099000  1.0  0.1196
  C  C301  1  0.454900  0.079800  0.041600  1.0  -0.1884
  C  C302  1  0.496800  0.142200  0.042500  1.0  0.1335
  C  C303  1  0.537200  0.135800  0.100900  1.0  -0.1895
  C  C304  1  0.534400  0.068900  0.156800  1.0  0.1694
  C  C305  1  0.498200  0.215900  0.982300  1.0  -0.2118
  C  C306  1  0.499700  0.305700  0.022200  1.0  -0.2045
  C  C307  1  0.498000  0.377400  0.959100  1.0  0.1237
  C  C308  1  0.445800  0.403500  0.927800  1.0  -0.153
  C  C309  1  0.444300  0.465400  0.868100  1.0  0.1657
  C  C310  1  0.540800  0.480200  0.873800  1.0  0.1789
  C  C311  1  0.546400  0.418500  0.932700  1.0  -0.2325
  C  C312  1  0.353900  0.745700  0.242200  1.0  -0.1453
  C  C313  1  0.325700  0.709000  0.304600  1.0  -0.075
  C  C314  1  0.288000  0.640100  0.292900  1.0  -0.1116
  C  C315  1  0.278900  0.607700  0.220500  1.0  -0.0272
  C  C316  1  0.304800  0.645800  0.156500  1.0  -0.0752
  C  C317  1  0.342800  0.714200  0.167700  1.0  -0.0383
  C  C318  1  0.195600  0.401900  0.261200  1.0  0.2131
  C  C319  1  0.203300  0.344500  0.322600  1.0  -0.2206
  C  C320  1  0.167700  0.269900  0.328100  1.0  -0.0395
  C  C321  1  0.125300  0.254600  0.275800  1.0  -0.1393
  C  C322  1  0.114600  0.316300  0.220900  1.0  -0.0881
  C  C323  1  0.150100  0.391000  0.214900  1.0  -0.1646
  C  C324  1  0.396200  0.819600  0.259100  1.0  0.6628
  C  C325  1  0.087400  0.173600  0.278800  1.0  0.6885
  C  C326  1  0.237600  0.531500  0.204600  1.0  0.5974
  C  C327  1  0.953800  0.986400  0.401000  1.0  0.1198
  C  C328  1  0.954900  0.920200  0.458400  1.0  -0.1893
  C  C329  1  0.996800  0.857800  0.457500  1.0  0.1332
  C  C330  1  0.037200  0.864200  0.399100  1.0  -0.1897
  C  C331  1  0.034400  0.931100  0.343200  1.0  0.1696
  C  C332  1  0.998200  0.784100  0.517700  1.0  -0.2133
  C  C333  1  0.999700  0.694300  0.477800  1.0  -0.2017
  C  C334  1  0.998000  0.622600  0.540900  1.0  0.1238
  C  C335  1  0.945800  0.596500  0.572200  1.0  -0.1529
  C  C336  1  0.944300  0.534600  0.631900  1.0  0.1653
  C  C337  1  0.040800  0.519800  0.626200  1.0  0.1794
  C  C338  1  0.046400  0.581500  0.567300  1.0  -0.2331
  C  C339  1  0.353900  0.754300  0.742200  1.0  -0.1452
  C  C340  1  0.325700  0.791000  0.804600  1.0  -0.075
  C  C341  1  0.288000  0.859900  0.792900  1.0  -0.1119
  C  C342  1  0.278900  0.892300  0.720500  1.0  -0.0266
  C  C343  1  0.304800  0.854200  0.656500  1.0  -0.0765
  C  C344  1  0.342800  0.785800  0.667700  1.0  -0.0385
  C  C345  1  0.195600  0.098100  0.761200  1.0  0.2134
  C  C346  1  0.203300  0.155500  0.822600  1.0  -0.2207
  C  C347  1  0.167700  0.230100  0.828100  1.0  -0.0395
  C  C348  1  0.125300  0.245400  0.775800  1.0  -0.1386
  C  C349  1  0.114600  0.183700  0.720900  1.0  -0.0875
  C  C350  1  0.150100  0.109000  0.714900  1.0  -0.1645
  C  C351  1  0.396200  0.680400  0.759100  1.0  0.6626
  C  C352  1  0.087400  0.326400  0.778800  1.0  0.6883
  C  C353  1  0.237600  0.968500  0.704600  1.0  0.5969
  C  C354  1  0.953800  0.513600  0.901000  1.0  0.1196
  C  C355  1  0.954900  0.579800  0.958400  1.0  -0.1892
  C  C356  1  0.996800  0.642200  0.957500  1.0  0.1332
  C  C357  1  0.037200  0.635800  0.899100  1.0  -0.1896
  C  C358  1  0.034400  0.568900  0.843200  1.0  0.1694
  C  C359  1  0.998200  0.715900  0.017700  1.0  -0.2132
  C  C360  1  0.999700  0.805700  0.977800  1.0  -0.2017
  C  C361  1  0.998000  0.877400  0.040900  1.0  0.1235
  C  C362  1  0.945800  0.903500  0.072200  1.0  -0.1532
  C  C363  1  0.944300  0.965400  0.131900  1.0  0.1655
  C  C364  1  0.040800  0.980200  0.126200  1.0  0.1787
  C  C365  1  0.046400  0.918500  0.067300  1.0  -0.2329
  C  C366  1  0.853900  0.245700  0.757800  1.0  -0.1452
  C  C367  1  0.825700  0.209000  0.695400  1.0  -0.0749
  C  C368  1  0.788000  0.140100  0.707100  1.0  -0.111
  C  C369  1  0.778900  0.107700  0.779500  1.0  -0.0262
  C  C370  1  0.804800  0.145800  0.843500  1.0  -0.0784
  C  C371  1  0.842800  0.214200  0.832300  1.0  -0.0376
  C  C372  1  0.695600  0.901900  0.738800  1.0  0.2142
  C  C373  1  0.703300  0.844500  0.677400  1.0  -0.2205
  C  C374  1  0.667700  0.769900  0.671900  1.0  -0.0404
  C  C375  1  0.625300  0.754600  0.724200  1.0  -0.1393
  C  C376  1  0.614600  0.816300  0.779100  1.0  -0.0886
  C  C377  1  0.650100  0.891000  0.785100  1.0  -0.1631
  C  C378  1  0.896200  0.319600  0.740900  1.0  0.6628
  C  C379  1  0.587400  0.673600  0.721200  1.0  0.6889
  C  C380  1  0.737600  0.031500  0.795400  1.0  0.5969
  C  C381  1  0.453800  0.486400  0.599000  1.0  0.1198
  C  C382  1  0.454900  0.420200  0.541600  1.0  -0.1883
  C  C383  1  0.496800  0.357800  0.542500  1.0  0.1335
  C  C384  1  0.537200  0.364200  0.600900  1.0  -0.1897
  C  C385  1  0.534400  0.431100  0.656800  1.0  0.169
  C  C386  1  0.498200  0.284100  0.482300  1.0  -0.2116
  C  C387  1  0.499700  0.194300  0.522200  1.0  -0.2042
  C  C388  1  0.498000  0.122600  0.459100  1.0  0.124
  C  C389  1  0.445800  0.096500  0.427800  1.0  -0.1526
  C  C390  1  0.444300  0.034600  0.368100  1.0  0.1652
  C  C391  1  0.540800  0.019800  0.373800  1.0  0.1789
  C  C392  1  0.546400  0.081500  0.432700  1.0  -0.2327
  N  N393  1  0.768000  0.976600  0.238000  1.0  -0.3751
  N  N394  1  0.007900  0.998300  0.839400  1.0  -0.3287
  N  N395  1  0.007600  0.492100  0.154000  1.0  -0.3403
  N  N396  1  0.268000  0.023400  0.262000  1.0  -0.3756
  N  N397  1  0.507900  0.001700  0.660600  1.0  -0.3276
  N  N398  1  0.507600  0.507900  0.346000  1.0  -0.3397
  N  N399  1  0.268000  0.476600  0.762000  1.0  -0.3758
  N  N400  1  0.507900  0.498300  0.160600  1.0  -0.3269
  N  N401  1  0.507600  0.992100  0.846000  1.0  -0.3408
  N  N402  1  0.768000  0.523400  0.738000  1.0  -0.3752
  N  N403  1  0.007900  0.501700  0.339400  1.0  -0.3282
  N  N404  1  0.007600  0.007900  0.654000  1.0  -0.3384
  N  N405  1  0.732000  0.523400  0.238000  1.0  -0.3754
  N  N406  1  0.492100  0.501700  0.839400  1.0  -0.3283
  N  N407  1  0.492400  0.007900  0.154000  1.0  -0.3382
  N  N408  1  0.232000  0.476600  0.262000  1.0  -0.3761
  N  N409  1  0.992100  0.498300  0.660600  1.0  -0.3269
  N  N410  1  0.992400  0.992100  0.346000  1.0  -0.3405
  N  N411  1  0.232000  0.023400  0.762000  1.0  -0.3762
  N  N412  1  0.992100  0.001700  0.160600  1.0  -0.3276
  N  N413  1  0.992400  0.507900  0.846000  1.0  -0.3395
  N  N414  1  0.732000  0.976600  0.738000  1.0  -0.3751
  N  N415  1  0.492100  0.998300  0.339400  1.0  -0.3289
  N  N416  1  0.492400  0.492100  0.654000  1.0  -0.34
  O  O417  1  0.952800  0.668900  0.265700  1.0  -0.5897
  O  O418  1  0.903900  0.623500  0.162800  1.0  -0.5624
  O  O419  1  0.598100  0.349400  0.176000  1.0  -0.5652
  O  O420  1  0.575300  0.344000  0.301200  1.0  -0.6067
  O  O421  1  0.788100  0.025700  0.360200  1.0  -0.5466
  O  O422  1  0.452800  0.331100  0.234300  1.0  -0.5901
  O  O423  1  0.403900  0.376500  0.337200  1.0  -0.5633
  O  O424  1  0.098100  0.650600  0.324000  1.0  -0.5646
  O  O425  1  0.075300  0.656000  0.198800  1.0  -0.606
  O  O426  1  0.288100  0.974300  0.139800  1.0  -0.544
  O  O427  1  0.452800  0.168900  0.734300  1.0  -0.5899
  O  O428  1  0.403900  0.123500  0.837200  1.0  -0.5624
  O  O429  1  0.098100  0.849400  0.824000  1.0  -0.5644
  O  O430  1  0.075300  0.844000  0.698800  1.0  -0.6056
  O  O431  1  0.288100  0.525700  0.639800  1.0  -0.544
  O  O432  1  0.952800  0.831100  0.765700  1.0  -0.5899
  O  O433  1  0.903900  0.876500  0.662800  1.0  -0.5621
  O  O434  1  0.598100  0.150600  0.676000  1.0  -0.5662
  O  O435  1  0.575300  0.156000  0.801200  1.0  -0.6066
  O  O436  1  0.788100  0.474300  0.860200  1.0  -0.5467
  O  O437  1  0.547200  0.831100  0.265700  1.0  -0.5895
  O  O438  1  0.596100  0.876500  0.162800  1.0  -0.5633
  O  O439  1  0.901900  0.150600  0.176000  1.0  -0.5671
  O  O440  1  0.924700  0.156000  0.301200  1.0  -0.6064
  O  O441  1  0.711900  0.474300  0.360200  1.0  -0.5442
  O  O442  1  0.047200  0.168900  0.234300  1.0  -0.5893
  O  O443  1  0.096100  0.123500  0.337200  1.0  -0.5649
  O  O444  1  0.401900  0.849400  0.324000  1.0  -0.5655
  O  O445  1  0.424700  0.844000  0.198800  1.0  -0.6065
  O  O446  1  0.211900  0.525700  0.139800  1.0  -0.5429
  O  O447  1  0.047200  0.331100  0.734300  1.0  -0.5894
  O  O448  1  0.096100  0.376500  0.837200  1.0  -0.5652
  O  O449  1  0.401900  0.650600  0.824000  1.0  -0.5658
  O  O450  1  0.424700  0.656000  0.698800  1.0  -0.6062
  O  O451  1  0.211900  0.974300  0.639800  1.0  -0.5426
  O  O452  1  0.547200  0.668900  0.765700  1.0  -0.5894
  O  O453  1  0.596100  0.623500  0.662800  1.0  -0.5636
  O  O454  1  0.901900  0.349400  0.676000  1.0  -0.5659
  O  O455  1  0.924700  0.344000  0.801200  1.0  -0.6069
  O  O456  1  0.711900  0.025700  0.860200  1.0  -0.5444
