# generated using pymatgen
data_CoH22C24(NO2)2
_symmetry_space_group_name_H-M   'P 1'
_cell_length_a   13.39970000
_cell_length_b   13.66990000
_cell_length_c   46.33900000
_cell_angle_alpha   97.66330000
_cell_angle_beta   90.00000000
_cell_angle_gamma   119.34800000
_symmetry_Int_Tables_number   1
_chemical_formula_structural   CoH22C24(NO2)2
_chemical_formula_sum   'Co12 H264 C288 N24 O48'
_cell_volume   7311.57617298
_cell_formula_units_Z   12
loop_
 _symmetry_equiv_pos_site_id
 _symmetry_equiv_pos_as_xyz
  1  'x, y, z'
loop_
 _atom_site_type_symbol
 _atom_site_label
 _atom_site_symmetry_multiplicity
 _atom_site_fract_x
 _atom_site_fract_y
 _atom_site_fract_z
 _atom_site_occupancy
 _atom_site_charge
  Co  Co1  1  0.352200  0.642840  0.880000  1.0  0.9351
  Co  Co2  1  0.318880  0.643440  0.789880  1.0  0.9437
  Co  Co3  1  0.013100  0.964100  0.956220  1.0  0.9353
  Co  Co4  1  0.709360  0.357160  0.620000  1.0  0.9355
  Co  Co5  1  0.675440  0.356560  0.710120  1.0  0.9436
  Co  Co6  1  0.049000  0.035900  0.543780  1.0  0.9356
  Co  Co7  1  0.647800  0.357160  0.120000  1.0  0.9349
  Co  Co8  1  0.681120  0.356560  0.210120  1.0  0.9436
  Co  Co9  1  0.986900  0.035900  0.043770  1.0  0.9349
  Co  Co10  1  0.290640  0.642840  0.380000  1.0  0.9345
  Co  Co11  1  0.324560  0.643440  0.289880  1.0  0.9438
  Co  Co12  1  0.951000  0.964100  0.456220  1.0  0.935
  H  H13  1  0.643700  0.770400  0.947300  1.0  0.1078
  H  H14  1  0.667200  0.917600  0.029900  1.0  0.0986
  H  H15  1  0.362800  0.743800  0.984400  1.0  0.1006
  H  H16  1  0.568900  0.912800  0.071600  1.0  0.11
  H  H17  1  0.589700  0.008800  0.053300  1.0  0.1067
  H  H18  1  0.494200  0.972400  0.075500  1.0  0.1067
  H  H19  1  0.328900  0.761000  0.064900  1.0  0.1055
  H  H20  1  0.318200  0.692800  0.033900  1.0  0.1076
  H  H21  1  0.417900  0.720600  0.056900  1.0  0.1068
  H  H22  1  0.412700  0.967800  0.019200  1.0  0.106
  H  H23  1  0.306300  0.845000  0.016000  1.0  0.1054
  H  H24  1  0.340100  0.925800  0.046000  1.0  0.11
  H  H25  1  0.576400  0.544600  0.865600  1.0  0.0982
  H  H26  1  0.739400  0.414200  0.815900  1.0  0.0998
  H  H27  1  0.502900  0.466200  0.778900  1.0  0.1026
  H  H28  1  0.623000  0.316200  0.877100  1.0  0.1092
  H  H29  1  0.724600  0.326800  0.858500  1.0  0.0986
  H  H30  1  0.744500  0.359400  0.892600  1.0  0.1034
  H  H31  1  0.904900  0.547200  0.885900  1.0  0.0992
  H  H32  1  0.879600  0.507400  0.852100  1.0  0.1046
  H  H33  1  0.886300  0.621800  0.865900  1.0  0.1128
  H  H34  1  0.730600  0.607600  0.899700  1.0  0.1191
  H  H35  1  0.626500  0.486800  0.901500  1.0  0.1045
  H  H36  1  0.747200  0.523400  0.916300  1.0  0.1102
  H  H37  1  0.182900  0.840400  0.889600  1.0  0.1053
  H  H38  1  0.951800  0.896400  0.850800  1.0  0.1014
  H  H39  1  0.094800  0.737000  0.803800  1.0  0.1
  H  H40  1  0.925500  0.917400  0.772900  1.0  0.1047
  H  H41  1  0.974700  0.969600  0.805300  1.0  0.1036
  H  H42  1  0.053100  0.954400  0.782100  1.0  0.1115
  H  H43  1  0.765000  0.740200  0.785000  1.0  0.1128
  H  H44  1  0.787100  0.680200  0.808800  1.0  0.1176
  H  H45  1  0.802900  0.802200  0.817300  1.0  0.1031
  H  H46  1  0.021000  0.766400  0.762400  1.0  0.1071
  H  H47  1  0.932200  0.658800  0.775300  1.0  0.1187
  H  H48  1  0.889200  0.713200  0.754200  1.0  0.1075
  H  H49  1  0.613300  0.750800  0.886100  1.0  0.0743
  H  H50  1  0.781200  0.915800  0.884600  1.0  0.1119
  H  H51  1  0.596400  0.057200  0.864000  1.0  0.1174
  H  H52  1  0.433500  0.889600  0.866800  1.0  0.0736
  H  H53  1  0.800000  0.173400  0.868000  1.0  0.1065
  H  H54  1  0.935300  0.088800  0.883300  1.0  0.0973
  H  H55  1  0.143200  0.218000  0.881400  1.0  0.1295
  H  H56  1  0.294900  0.397000  0.881200  1.0  0.0824
  H  H57  1  0.089800  0.521000  0.879200  1.0  0.0723
  H  H58  1  0.933500  0.346600  0.878600  1.0  0.1097
  H  H59  1  0.057600  0.532000  0.781100  1.0  0.0747
  H  H60  1  0.889800  0.365800  0.781600  1.0  0.1213
  H  H61  1  0.075500  0.231800  0.807200  1.0  0.1211
  H  H62  1  0.237700  0.399800  0.804900  1.0  0.0707
  H  H63  1  0.873200  0.110600  0.800300  1.0  0.1039
  H  H64  1  0.737400  0.194400  0.784600  1.0  0.0962
  H  H65  1  0.529900  0.065000  0.787100  1.0  0.1305
  H  H66  1  0.378900  0.886600  0.788400  1.0  0.0847
  H  H67  1  0.583300  0.763000  0.790300  1.0  0.0739
  H  H68  1  0.739600  0.938200  0.790200  1.0  0.1065
  H  H69  1  0.846700  0.717000  0.968100  1.0  0.0795
  H  H70  1  0.841700  0.549800  0.971200  1.0  0.119
  H  H71  1  0.168000  0.690400  0.950100  1.0  0.1183
  H  H72  1  0.165600  0.855000  0.949400  1.0  0.0727
  H  H73  1  0.926200  0.430000  0.965800  1.0  0.11
  H  H74  1  0.149200  0.517400  0.952900  1.0  0.0947
  H  H75  1  0.888800  0.258400  0.954200  1.0  0.1131
  H  H76  1  0.870600  0.083600  0.954200  1.0  0.0712
  H  H77  1  0.201500  0.212200  0.959000  1.0  0.0783
  H  H78  1  0.228400  0.390200  0.958000  1.0  0.1319
  H  H79  1  0.873300  0.229600  0.552700  1.0  0.1079
  H  H80  1  0.749600  0.082400  0.470100  1.0  0.0989
  H  H81  1  0.619000  0.256200  0.515600  1.0  0.1006
  H  H82  1  0.656100  0.087200  0.428400  1.0  0.1119
  H  H83  1  0.580900  0.991200  0.446700  1.0  0.1089
  H  H84  1  0.521800  0.027600  0.424500  1.0  0.1068
  H  H85  1  0.567900  0.239000  0.435100  1.0  0.1062
  H  H86  1  0.625400  0.307200  0.466100  1.0  0.1076
  H  H87  1  0.697300  0.279400  0.443100  1.0  0.107
  H  H88  1  0.444900  0.032200  0.480800  1.0  0.1063
  H  H89  1  0.461300  0.155000  0.484000  1.0  0.1049
  H  H90  1  0.414300  0.074200  0.454000  1.0  0.1099
  H  H91  1  0.031800  0.455400  0.634400  1.0  0.0988
  H  H92  1  0.325200  0.585800  0.684100  1.0  0.1003
  H  H93  1  0.036700  0.533800  0.721100  1.0  0.1031
  H  H94  1  0.306800  0.683800  0.622900  1.0  0.1091
  H  H95  1  0.397800  0.673200  0.641500  1.0  0.0982
  H  H96  1  0.385100  0.640600  0.607400  1.0  0.1041
  H  H97  1  0.357700  0.452800  0.614100  1.0  0.0995
  H  H98  1  0.372200  0.492600  0.647900  1.0  0.104
  H  H99  1  0.264500  0.378200  0.634100  1.0  0.1104
  H  H100  1  0.123000  0.392400  0.600300  1.0  0.1164
  H  H101  1  0.139700  0.513200  0.598500  1.0  0.1018
  H  H102  1  0.223800  0.476600  0.583700  1.0  0.109
  H  H103  1  0.342500  0.159600  0.610400  1.0  0.1045
  H  H104  1  0.055400  0.103600  0.649200  1.0  0.1017
  H  H105  1  0.357800  0.263000  0.696200  1.0  0.1001
  H  H106  1  0.008100  0.082600  0.727100  1.0  0.1041
  H  H107  1  0.005100  0.030400  0.694700  1.0  0.1032
  H  H108  1  0.098700  0.045600  0.717900  1.0  0.1116
  H  H109  1  0.024800  0.259800  0.715000  1.0  0.1131
  H  H110  1  0.106900  0.319800  0.691200  1.0  0.1161
  H  H111  1  0.000700  0.197800  0.682700  1.0  0.1035
  H  H112  1  0.254600  0.233600  0.737600  1.0  0.1067
  H  H113  1  0.273400  0.341200  0.724700  1.0  0.1166
  H  H114  1  0.176000  0.286800  0.745800  1.0  0.109
  H  H115  1  0.862500  0.249200  0.613900  1.0  0.0739
  H  H116  1  0.865400  0.084200  0.615400  1.0  0.1115
  H  H117  1  0.539200  0.942800  0.636000  1.0  0.1173
  H  H118  1  0.543900  0.110400  0.633200  1.0  0.0733
  H  H119  1  0.626600  0.826600  0.632000  1.0  0.1058
  H  H120  1  0.846500  0.911200  0.616700  1.0  0.0975
  H  H121  1  0.925200  0.782000  0.618600  1.0  0.1296
  H  H122  1  0.897900  0.603000  0.618800  1.0  0.0822
  H  H123  1  0.568800  0.479000  0.620800  1.0  0.0719
  H  H124  1  0.586900  0.653400  0.621400  1.0  0.1098
  H  H125  1  0.525600  0.468000  0.718900  1.0  0.0744
  H  H126  1  0.524000  0.634200  0.718400  1.0  0.1209
  H  H127  1  0.843700  0.768200  0.692800  1.0  0.1215
  H  H128  1  0.837900  0.600200  0.695100  1.0  0.0707
  H  H129  1  0.762600  0.889400  0.699700  1.0  0.1036
  H  H130  1  0.543000  0.805600  0.715400  1.0  0.096
  H  H131  1  0.464900  0.935000  0.712900  1.0  0.13
  H  H132  1  0.492300  0.113400  0.711600  1.0  0.085
  H  H133  1  0.820300  0.237000  0.709700  1.0  0.0738
  H  H134  1  0.801400  0.061800  0.709800  1.0  0.1068
  H  H135  1  0.129700  0.283000  0.531900  1.0  0.0795
  H  H136  1  0.291900  0.450200  0.528800  1.0  0.1191
  H  H137  1  0.477600  0.309600  0.549900  1.0  0.1181
  H  H138  1  0.310600  0.145000  0.550600  1.0  0.0733
  H  H139  1  0.496200  0.570000  0.534200  1.0  0.1099
  H  H140  1  0.631800  0.482600  0.547100  1.0  0.0944
  H  H141  1  0.630400  0.741600  0.545800  1.0  0.1131
  H  H142  1  0.787000  0.916400  0.545800  1.0  0.0714
  H  H143  1  0.989300  0.787800  0.541000  1.0  0.0781
  H  H144  1  0.838200  0.609800  0.542000  1.0  0.132
  H  H145  1  0.356300  0.229600  0.052700  1.0  0.1078
  H  H146  1  0.332800  0.082400  0.970100  1.0  0.0998
  H  H147  1  0.637200  0.256200  0.015600  1.0  0.1002
  H  H148  1  0.431100  0.087200  0.928400  1.0  0.1111
  H  H149  1  0.410300  0.991200  0.946700  1.0  0.1067
  H  H150  1  0.505800  0.027600  0.924500  1.0  0.1057
  H  H151  1  0.671100  0.239000  0.935100  1.0  0.1074
  H  H152  1  0.681800  0.307200  0.966100  1.0  0.1075
  H  H153  1  0.582100  0.279400  0.943100  1.0  0.1078
  H  H154  1  0.587300  0.032200  0.980800  1.0  0.106
  H  H155  1  0.693700  0.155000  0.984000  1.0  0.1053
  H  H156  1  0.659900  0.074200  0.954000  1.0  0.1112
  H  H157  1  0.423600  0.455400  0.134400  1.0  0.098
  H  H158  1  0.260600  0.585800  0.184100  1.0  0.0997
  H  H159  1  0.497100  0.533800  0.221100  1.0  0.1032
  H  H160  1  0.377000  0.683800  0.122900  1.0  0.1096
  H  H161  1  0.275400  0.673200  0.141500  1.0  0.0989
  H  H162  1  0.255500  0.640600  0.107400  1.0  0.1039
  H  H163  1  0.095100  0.452800  0.114100  1.0  0.0989
  H  H164  1  0.120400  0.492600  0.147900  1.0  0.1038
  H  H165  1  0.113700  0.378200  0.134100  1.0  0.1101
  H  H166  1  0.269400  0.392400  0.100300  1.0  0.1183
  H  H167  1  0.373500  0.513200  0.098500  1.0  0.1052
  H  H168  1  0.252800  0.476600  0.083700  1.0  0.1104
  H  H169  1  0.817100  0.159600  0.110400  1.0  0.1049
  H  H170  1  0.048200  0.103600  0.149200  1.0  0.1017
  H  H171  1  0.905200  0.263000  0.196200  1.0  0.1002
  H  H172  1  0.074500  0.082600  0.227100  1.0  0.1053
  H  H173  1  0.025300  0.030400  0.194700  1.0  0.1035
  H  H174  1  0.946900  0.045600  0.217900  1.0  0.1118
  H  H175  1  0.235000  0.259800  0.215000  1.0  0.1128
  H  H176  1  0.212900  0.319800  0.191200  1.0  0.1168
  H  H177  1  0.197100  0.197800  0.182700  1.0  0.1036
  H  H178  1  0.979000  0.233600  0.237600  1.0  0.1076
  H  H179  1  0.067800  0.341200  0.224700  1.0  0.1175
  H  H180  1  0.110800  0.286800  0.245800  1.0  0.1083
  H  H181  1  0.386700  0.249200  0.113900  1.0  0.0739
  H  H182  1  0.218800  0.084200  0.115400  1.0  0.1127
  H  H183  1  0.403600  0.942800  0.136000  1.0  0.1171
  H  H184  1  0.566500  0.110400  0.133200  1.0  0.0726
  H  H185  1  0.200000  0.826600  0.132000  1.0  0.1056
  H  H186  1  0.064700  0.911200  0.116700  1.0  0.098
  H  H187  1  0.856800  0.782000  0.118600  1.0  0.1297
  H  H188  1  0.705100  0.603000  0.118800  1.0  0.0816
  H  H189  1  0.910200  0.479000  0.120800  1.0  0.072
  H  H190  1  0.066500  0.653400  0.121400  1.0  0.1099
  H  H191  1  0.942400  0.468000  0.218900  1.0  0.0749
  H  H192  1  0.110200  0.634200  0.218400  1.0  0.1188
  H  H193  1  0.924500  0.768200  0.192800  1.0  0.1215
  H  H194  1  0.762300  0.600200  0.195100  1.0  0.0719
  H  H195  1  0.126800  0.889400  0.199700  1.0  0.1041
  H  H196  1  0.262600  0.805600  0.215400  1.0  0.0951
  H  H197  1  0.470100  0.935000  0.212900  1.0  0.1295
  H  H198  1  0.621100  0.113400  0.211600  1.0  0.0844
  H  H199  1  0.416700  0.237000  0.209700  1.0  0.0734
  H  H200  1  0.260400  0.061800  0.209800  1.0  0.1056
  H  H201  1  0.153300  0.283000  0.031900  1.0  0.0778
  H  H202  1  0.158300  0.450200  0.028800  1.0  0.119
  H  H203  1  0.832000  0.309600  0.049900  1.0  0.1189
  H  H204  1  0.834400  0.145000  0.050600  1.0  0.073
  H  H205  1  0.073800  0.570000  0.034200  1.0  0.109
  H  H206  1  0.850800  0.482600  0.047100  1.0  0.0946
  H  H207  1  0.111200  0.741600  0.045800  1.0  0.1146
  H  H208  1  0.129400  0.916400  0.045800  1.0  0.0716
  H  H209  1  0.798500  0.787800  0.041000  1.0  0.0778
  H  H210  1  0.771600  0.609800  0.042000  1.0  0.1321
  H  H211  1  0.126700  0.770400  0.447300  1.0  0.1078
  H  H212  1  0.250400  0.917600  0.529900  1.0  0.099
  H  H213  1  0.381000  0.743800  0.484400  1.0  0.1005
  H  H214  1  0.343900  0.912800  0.571600  1.0  0.1117
  H  H215  1  0.419100  0.008800  0.553300  1.0  0.1082
  H  H216  1  0.478200  0.972400  0.575500  1.0  0.1057
  H  H217  1  0.432100  0.761000  0.564900  1.0  0.1071
  H  H218  1  0.374600  0.692800  0.533900  1.0  0.1076
  H  H219  1  0.302700  0.720600  0.556900  1.0  0.1082
  H  H220  1  0.555100  0.967800  0.519200  1.0  0.1063
  H  H221  1  0.538700  0.845000  0.516000  1.0  0.1062
  H  H222  1  0.585700  0.925800  0.546000  1.0  0.1103
  H  H223  1  0.968200  0.544600  0.365600  1.0  0.0976
  H  H224  1  0.674800  0.414200  0.315900  1.0  0.0988
  H  H225  1  0.963300  0.466200  0.278900  1.0  0.1026
  H  H226  1  0.693200  0.316200  0.377100  1.0  0.1096
  H  H227  1  0.602200  0.326800  0.358500  1.0  0.0994
  H  H228  1  0.614900  0.359400  0.392600  1.0  0.1032
  H  H229  1  0.642300  0.547200  0.385900  1.0  0.0991
  H  H230  1  0.627800  0.507400  0.352100  1.0  0.1045
  H  H231  1  0.735500  0.621800  0.365900  1.0  0.1122
  H  H232  1  0.877000  0.607600  0.399700  1.0  0.1176
  H  H233  1  0.860300  0.486800  0.401500  1.0  0.1031
  H  H234  1  0.776200  0.523400  0.416300  1.0  0.1111
  H  H235  1  0.657500  0.840400  0.389600  1.0  0.1055
  H  H236  1  0.944600  0.896400  0.350800  1.0  0.1007
  H  H237  1  0.642200  0.737000  0.303800  1.0  0.1005
  H  H238  1  0.991900  0.917400  0.272900  1.0  0.1059
  H  H239  1  0.994900  0.969600  0.305300  1.0  0.1039
  H  H240  1  0.901300  0.954400  0.282100  1.0  0.1108
  H  H241  1  0.975200  0.740200  0.285000  1.0  0.1125
  H  H242  1  0.893100  0.680200  0.308800  1.0  0.1182
  H  H243  1  0.999300  0.802200  0.317300  1.0  0.1034
  H  H244  1  0.745400  0.766400  0.262400  1.0  0.1049
  H  H245  1  0.726600  0.658800  0.275300  1.0  0.1154
  H  H246  1  0.824000  0.713200  0.254200  1.0  0.1065
  H  H247  1  0.137500  0.750800  0.386100  1.0  0.0741
  H  H248  1  0.134600  0.915800  0.384600  1.0  0.1125
  H  H249  1  0.460800  0.057200  0.364000  1.0  0.1173
  H  H250  1  0.456100  0.889600  0.366800  1.0  0.073
  H  H251  1  0.373400  0.173400  0.368000  1.0  0.1056
  H  H252  1  0.153500  0.088800  0.383300  1.0  0.0974
  H  H253  1  0.074800  0.218000  0.381400  1.0  0.1293
  H  H254  1  0.102100  0.397000  0.381200  1.0  0.0818
  H  H255  1  0.431200  0.521000  0.379200  1.0  0.0719
  H  H256  1  0.413100  0.346600  0.378600  1.0  0.11
  H  H257  1  0.474400  0.532000  0.281100  1.0  0.0746
  H  H258  1  0.476000  0.365800  0.281600  1.0  0.1188
  H  H259  1  0.156300  0.231800  0.307200  1.0  0.1211
  H  H260  1  0.162100  0.399800  0.304900  1.0  0.0718
  H  H261  1  0.237400  0.110600  0.300300  1.0  0.1037
  H  H262  1  0.457000  0.194400  0.284600  1.0  0.0958
  H  H263  1  0.535100  0.065000  0.287100  1.0  0.1296
  H  H264  1  0.507700  0.886600  0.288400  1.0  0.0844
  H  H265  1  0.179700  0.763000  0.290300  1.0  0.0731
  H  H266  1  0.198600  0.938200  0.290200  1.0  0.1058
  H  H267  1  0.870300  0.717000  0.468100  1.0  0.0778
  H  H268  1  0.708100  0.549800  0.471200  1.0  0.119
  H  H269  1  0.522400  0.690400  0.450100  1.0  0.1197
  H  H270  1  0.689400  0.855000  0.449400  1.0  0.0729
  H  H271  1  0.503800  0.430000  0.465800  1.0  0.1099
  H  H272  1  0.368200  0.517400  0.452900  1.0  0.0956
  H  H273  1  0.369600  0.258400  0.454200  1.0  0.1144
  H  H274  1  0.213000  0.083600  0.454200  1.0  0.0717
  H  H275  1  0.010700  0.212200  0.459000  1.0  0.0779
  H  H276  1  0.161800  0.390200  0.458000  1.0  0.1325
  C  C277  1  0.491660  0.745320  0.961640  1.0  -0.1209
  C  C278  1  0.609300  0.787400  0.963190  1.0  0.0163
  C  C279  1  0.675580  0.854960  0.988440  1.0  -0.1387
  C  C280  1  0.622560  0.875320  0.012700  1.0  -0.1061
  C  C281  1  0.504890  0.833980  0.011830  1.0  -0.0005
  C  C282  1  0.441550  0.770500  0.985770  1.0  -0.1161
  C  C283  1  0.423010  0.684620  0.933100  1.0  0.6599
  C  C284  1  0.804350  0.911100  0.989490  1.0  0.6846
  C  C285  1  0.446500  0.858200  0.038090  1.0  0.2257
  C  C286  1  0.532600  0.946000  0.061770  1.0  -0.3836
  C  C287  1  0.371000  0.748200  0.049490  1.0  -0.3811
  C  C288  1  0.369200  0.903400  0.028990  1.0  -0.3787
  C  C289  1  0.529330  0.514860  0.822490  1.0  -0.1476
  C  C290  1  0.589660  0.517320  0.847410  1.0  -0.1035
  C  C291  1  0.669410  0.479420  0.845430  1.0  -0.0131
  C  C292  1  0.685000  0.437800  0.817820  1.0  -0.1308
  C  C293  1  0.622410  0.430220  0.792910  1.0  -0.1321
  C  C294  1  0.544670  0.469940  0.795430  1.0  -0.0125
  C  C295  1  0.447830  0.560860  0.825410  1.0  0.6698
  C  C296  1  0.641110  0.386220  0.763260  1.0  0.6552
  C  C297  1  0.737400  0.483400  0.872660  1.0  0.1853
  C  C298  1  0.704200  0.359800  0.875480  1.0  -0.3793
  C  C299  1  0.863300  0.545400  0.868800  1.0  -0.3645
  C  C300  1  0.707900  0.529400  0.899920  1.0  -0.3816
  C  C301  1  0.148570  0.779140  0.846610  1.0  -0.1324
  C  C302  1  0.140120  0.834040  0.872940  1.0  -0.012
  C  C303  1  0.067340  0.879880  0.874490  1.0  -0.131
  C  C304  1  0.002210  0.867820  0.849460  1.0  -0.1142
  C  C305  1  0.010180  0.814560  0.822540  1.0  -0.0052
  C  C306  1  0.085970  0.771540  0.821600  1.0  -0.1011
  C  C307  1  0.225260  0.727320  0.844780  1.0  0.6672
  C  C308  1  0.052350  0.933500  0.903450  1.0  0.6361
  C  C309  1  0.938300  0.804400  0.795370  1.0  0.2219
  C  C310  1  0.976400  0.922200  0.788270  1.0  -0.378
  C  C311  1  0.811400  0.751800  0.802260  1.0  -0.3786
  C  C312  1  0.945900  0.728800  0.769440  1.0  -0.381
  C  C313  1  0.609870  0.813740  0.881830  1.0  0.1769
  C  C314  1  0.711520  0.912840  0.880800  1.0  -0.1761
  C  C315  1  0.709930  0.008060  0.874180  1.0  0.1359
  C  C316  1  0.602340  0.996280  0.868750  1.0  -0.2146
  C  C317  1  0.504260  0.894720  0.870410  1.0  0.1857
  C  C318  1  0.812300  0.116600  0.873320  1.0  -0.1073
  C  C319  1  0.920380  0.145160  0.879030  1.0  -0.127
  C  C320  1  0.018830  0.259060  0.879140  1.0  0.1459
  C  C321  1  0.129650  0.278100  0.880570  1.0  -0.2062
  C  C322  1  0.220930  0.386660  0.880790  1.0  0.1719
  C  C323  1  0.101010  0.459220  0.879500  1.0  0.1857
  C  C324  1  0.006450  0.354300  0.879030  1.0  -0.1984
  C  C325  1  0.060990  0.469980  0.786060  1.0  0.1712
  C  C326  1  0.959570  0.370540  0.786510  1.0  -0.2093
  C  C327  1  0.962330  0.277660  0.794280  1.0  0.1417
  C  C328  1  0.069690  0.291580  0.801460  1.0  -0.2092
  C  C329  1  0.166900  0.393200  0.800150  1.0  0.1774
  C  C330  1  0.860390  0.167180  0.795050  1.0  -0.0775
  C  C331  1  0.752620  0.138640  0.789180  1.0  -0.1414
  C  C332  1  0.654890  0.024380  0.789420  1.0  0.1246
  C  C333  1  0.543700  0.005200  0.788200  1.0  -0.2051
  C  C334  1  0.452900  0.897000  0.788590  1.0  0.1733
  C  C335  1  0.571990  0.824780  0.789850  1.0  0.1802
  C  C336  1  0.666667  0.930420  0.789880  1.0  -0.2017
  C  C337  1  0.912400  0.711800  0.964610  1.0  0.179
  C  C338  1  0.908450  0.610500  0.966280  1.0  -0.2168
  C  C339  1  0.003770  0.598540  0.960610  1.0  0.1328
  C  C340  1  0.101530  0.693660  0.954050  1.0  -0.1913
  C  C341  1  0.098830  0.791860  0.953430  1.0  0.1828
  C  C342  1  0.996460  0.487720  0.961400  1.0  -0.0728
  C  C343  1  0.077250  0.460500  0.956580  1.0  -0.136
  C  C344  1  0.061380  0.346560  0.956700  1.0  0.1229
  C  C345  1  0.954300  0.251400  0.955230  1.0  -0.2033
  C  C346  1  0.944020  0.146240  0.955250  1.0  0.1838
  C  C347  1  0.137270  0.221340  0.957890  1.0  0.1703
  C  C348  1  0.154330  0.329260  0.957590  1.0  -0.2159
  C  C349  1  0.746340  0.254680  0.538360  1.0  -0.1214
  C  C350  1  0.821900  0.212600  0.536810  1.0  0.018
  C  C351  1  0.820620  0.145040  0.511560  1.0  -0.1385
  C  C352  1  0.747240  0.124680  0.487300  1.0  -0.1054
  C  C353  1  0.670910  0.166020  0.488170  1.0  -0.0
  C  C354  1  0.671050  0.229500  0.514230  1.0  -0.1175
  C  C355  1  0.738390  0.315380  0.566900  1.0  0.6604
  C  C356  1  0.893250  0.088900  0.510510  1.0  0.6844
  C  C357  1  0.588300  0.141800  0.461910  1.0  0.2241
  C  C358  1  0.586600  0.054000  0.438230  1.0  -0.3837
  C  C359  1  0.622800  0.251800  0.450510  1.0  -0.382
  C  C360  1  0.465800  0.096600  0.471010  1.0  -0.3792
  C  C361  1  0.014470  0.485140  0.677510  1.0  -0.1475
  C  C362  1  0.072340  0.482680  0.652590  1.0  -0.1032
  C  C363  1  0.189990  0.520580  0.654570  1.0  -0.0133
  C  C364  1  0.247200  0.562200  0.682180  1.0  -0.1303
  C  C365  1  0.192190  0.569780  0.707090  1.0  -0.1327
  C  C366  1  0.074730  0.530060  0.704570  1.0  -0.0119
  C  C367  1  0.886970  0.439140  0.674590  1.0  0.6692
  C  C368  1  0.254890  0.613780  0.736740  1.0  0.6551
  C  C369  1  0.254000  0.516600  0.627340  1.0  0.1857
  C  C370  1  0.344400  0.640200  0.624520  1.0  -0.3786
  C  C371  1  0.317900  0.454600  0.631200  1.0  -0.3653
  C  C372  1  0.178500  0.470600  0.600080  1.0  -0.38
  C  C373  1  0.369430  0.220860  0.653390  1.0  -0.133
  C  C374  1  0.306080  0.165960  0.627060  1.0  -0.012
  C  C375  1  0.187460  0.120120  0.625510  1.0  -0.1308
  C  C376  1  0.134390  0.132180  0.650540  1.0  -0.1112
  C  C377  1  0.195620  0.185440  0.677460  1.0  -0.0054
  C  C378  1  0.314430  0.228460  0.678400  1.0  -0.1015
  C  C379  1  0.497940  0.272680  0.655220  1.0  0.6676
  C  C380  1  0.118850  0.066500  0.596550  1.0  0.6363
  C  C381  1  0.133900  0.195600  0.704630  1.0  0.2225
  C  C382  1  0.054200  0.077800  0.711730  1.0  -0.3773
  C  C383  1  0.059600  0.248200  0.697740  1.0  -0.3782
  C  C384  1  0.217100  0.271200  0.730560  1.0  -0.379
  C  C385  1  0.796130  0.186260  0.618170  1.0  0.1769
  C  C386  1  0.798680  0.087160  0.619200  1.0  -0.1756
  C  C387  1  0.701870  0.991940  0.625820  1.0  0.1453
  C  C388  1  0.606060  0.003720  0.631250  1.0  -0.2149
  C  C389  1  0.609540  0.105280  0.629590  1.0  0.1856
  C  C390  1  0.695700  0.883400  0.626680  1.0  -0.1083
  C  C391  1  0.775220  0.854840  0.620970  1.0  -0.1272
  C  C392  1  0.759770  0.740940  0.620860  1.0  0.1458
  C  C393  1  0.851550  0.721900  0.619430  1.0  -0.2067
  C  C394  1  0.834270  0.613340  0.619210  1.0  0.1721
  C  C395  1  0.641790  0.540780  0.620500  1.0  0.186
  C  C396  1  0.652150  0.645700  0.620970  1.0  -0.1983
  C  C397  1  0.591010  0.530020  0.713940  1.0  0.171
  C  C398  1  0.589030  0.629460  0.713490  1.0  -0.2095
  C  C399  1  0.684670  0.722340  0.705720  1.0  0.1419
  C  C400  1  0.778110  0.708420  0.698540  1.0  -0.2088
  C  C401  1  0.773700  0.606800  0.699850  1.0  0.1772
  C  C402  1  0.693210  0.832820  0.704950  1.0  -0.0772
  C  C403  1  0.613980  0.861360  0.710820  1.0  -0.141
  C  C404  1  0.630510  0.975620  0.710580  1.0  0.124
  C  C405  1  0.538500  0.994800  0.711800  1.0  -0.2049
  C  C406  1  0.555900  0.103000  0.711410  1.0  0.1736
  C  C407  1  0.747210  0.175220  0.710150  1.0  0.1803
  C  C408  1  0.736290  0.069580  0.710120  1.0  -0.1984
  C  C409  1  0.200600  0.288200  0.535390  1.0  0.1789
  C  C410  1  0.297950  0.389500  0.533720  1.0  -0.2166
  C  C411  1  0.405230  0.401460  0.539390  1.0  0.1327
  C  C412  1  0.407870  0.306340  0.545950  1.0  -0.1918
  C  C413  1  0.306970  0.208140  0.546570  1.0  0.1826
  C  C414  1  0.508740  0.512280  0.538600  1.0  -0.0725
  C  C415  1  0.616750  0.539500  0.543420  1.0  -0.1357
  C  C416  1  0.714820  0.653440  0.543300  1.0  0.1235
  C  C417  1  0.702900  0.748600  0.544770  1.0  -0.2032
  C  C418  1  0.797780  0.853760  0.544750  1.0  0.1841
  C  C419  1  0.915930  0.778660  0.542110  1.0  0.1702
  C  C420  1  0.825070  0.670740  0.542410  1.0  -0.2142
  C  C421  1  0.508340  0.254680  0.038360  1.0  -0.1221
  C  C422  1  0.390700  0.212600  0.036810  1.0  0.0178
  C  C423  1  0.324420  0.145040  0.011560  1.0  -0.1387
  C  C424  1  0.377440  0.124680  0.987300  1.0  -0.1052
  C  C425  1  0.495110  0.166020  0.988170  1.0  0.0004
  C  C426  1  0.558450  0.229500  0.014230  1.0  -0.119
  C  C427  1  0.576990  0.315380  0.066900  1.0  0.6603
  C  C428  1  0.195650  0.088900  0.010510  1.0  0.6835
  C  C429  1  0.553500  0.141800  0.961910  1.0  0.2251
  C  C430  1  0.467400  0.054000  0.938230  1.0  -0.3838
  C  C431  1  0.629000  0.251800  0.950510  1.0  -0.3832
  C  C432  1  0.630800  0.096600  0.971010  1.0  -0.379
  C  C433  1  0.470670  0.485140  0.177510  1.0  -0.1466
  C  C434  1  0.410340  0.482680  0.152590  1.0  -0.1047
  C  C435  1  0.330590  0.520580  0.154570  1.0  -0.0135
  C  C436  1  0.315000  0.562200  0.182180  1.0  -0.1288
  C  C437  1  0.377590  0.569780  0.207090  1.0  -0.1326
  C  C438  1  0.455330  0.530060  0.204570  1.0  -0.0122
  C  C439  1  0.552170  0.439140  0.174590  1.0  0.6707
  C  C440  1  0.358890  0.613780  0.236740  1.0  0.655
  C  C441  1  0.262600  0.516600  0.127340  1.0  0.1852
  C  C442  1  0.295800  0.640200  0.124520  1.0  -0.3779
  C  C443  1  0.136700  0.454600  0.131200  1.0  -0.3641
  C  C444  1  0.292100  0.470600  0.100080  1.0  -0.3806
  C  C445  1  0.851430  0.220860  0.153390  1.0  -0.1322
  C  C446  1  0.859880  0.165960  0.127060  1.0  -0.012
  C  C447  1  0.932660  0.120120  0.125510  1.0  -0.1314
  C  C448  1  0.997790  0.132180  0.150540  1.0  -0.1132
  C  C449  1  0.989820  0.185440  0.177460  1.0  -0.0063
  C  C450  1  0.914030  0.228460  0.178400  1.0  -0.102
  C  C451  1  0.774740  0.272680  0.155220  1.0  0.6659
  C  C452  1  0.947650  0.066500  0.096550  1.0  0.6358
  C  C453  1  0.061700  0.195600  0.204630  1.0  0.2231
  C  C454  1  0.023600  0.077800  0.211730  1.0  -0.3794
  C  C455  1  0.188600  0.248200  0.197740  1.0  -0.3771
  C  C456  1  0.054100  0.271200  0.230560  1.0  -0.3805
  C  C457  1  0.390130  0.186260  0.118170  1.0  0.1767
  C  C458  1  0.288480  0.087160  0.119200  1.0  -0.1752
  C  C459  1  0.290070  0.991940  0.125820  1.0  0.1358
  C  C460  1  0.397660  0.003720  0.131250  1.0  -0.2155
  C  C461  1  0.495740  0.105280  0.129590  1.0  0.1861
  C  C462  1  0.187700  0.883400  0.126680  1.0  -0.108
  C  C463  1  0.079620  0.854840  0.120970  1.0  -0.1274
  C  C464  1  0.981170  0.740940  0.120860  1.0  0.145
  C  C465  1  0.870350  0.721900  0.119430  1.0  -0.2065
  C  C466  1  0.779070  0.613340  0.119210  1.0  0.1715
  C  C467  1  0.898990  0.540780  0.120500  1.0  0.1861
  C  C468  1  0.993550  0.645700  0.120970  1.0  -0.1971
  C  C469  1  0.939010  0.530020  0.213940  1.0  0.17
  C  C470  1  0.040430  0.629460  0.213490  1.0  -0.2083
  C  C471  1  0.037670  0.722340  0.205720  1.0  0.1427
  C  C472  1  0.930310  0.708420  0.198540  1.0  -0.2083
  C  C473  1  0.833100  0.606800  0.199850  1.0  0.1784
  C  C474  1  0.139610  0.832820  0.204950  1.0  -0.0765
  C  C475  1  0.247380  0.861360  0.210820  1.0  -0.14
  C  C476  1  0.345110  0.975620  0.210580  1.0  0.1246
  C  C477  1  0.456300  0.994800  0.211800  1.0  -0.2034
  C  C478  1  0.547100  0.103000  0.211410  1.0  0.1743
  C  C479  1  0.428010  0.175220  0.210150  1.0  0.1802
  C  C480  1  0.333290  0.069580  0.210120  1.0  -0.1991
  C  C481  1  0.087600  0.288200  0.035390  1.0  0.1791
  C  C482  1  0.091550  0.389500  0.033720  1.0  -0.217
  C  C483  1  0.996230  0.401460  0.039390  1.0  0.1325
  C  C484  1  0.898470  0.306340  0.045950  1.0  -0.1917
  C  C485  1  0.901170  0.208140  0.046570  1.0  0.1831
  C  C486  1  0.003540  0.512280  0.038600  1.0  -0.0731
  C  C487  1  0.922750  0.539500  0.043420  1.0  -0.1357
  C  C488  1  0.938620  0.653440  0.043300  1.0  0.1224
  C  C489  1  0.045700  0.748600  0.044770  1.0  -0.2047
  C  C490  1  0.055980  0.853760  0.044750  1.0  0.1835
  C  C491  1  0.862730  0.778660  0.042110  1.0  0.1683
  C  C492  1  0.845670  0.670740  0.042410  1.0  -0.2146
  C  C493  1  0.253660  0.745320  0.461640  1.0  -0.1217
  C  C494  1  0.178100  0.787400  0.463190  1.0  0.0166
  C  C495  1  0.179380  0.854960  0.488440  1.0  -0.1394
  C  C496  1  0.252760  0.875320  0.512700  1.0  -0.1063
  C  C497  1  0.329090  0.833980  0.511830  1.0  0.0003
  C  C498  1  0.328950  0.770500  0.485770  1.0  -0.1179
  C  C499  1  0.261610  0.684620  0.433100  1.0  0.6595
  C  C500  1  0.106750  0.911100  0.489490  1.0  0.6838
  C  C501  1  0.411700  0.858200  0.538090  1.0  0.226
  C  C502  1  0.413400  0.946000  0.561770  1.0  -0.3836
  C  C503  1  0.377200  0.748200  0.549490  1.0  -0.3833
  C  C504  1  0.534200  0.903400  0.528990  1.0  -0.3785
  C  C505  1  0.985530  0.514860  0.322490  1.0  -0.1463
  C  C506  1  0.927660  0.517320  0.347410  1.0  -0.1048
  C  C507  1  0.810010  0.479420  0.345430  1.0  -0.0133
  C  C508  1  0.752800  0.437800  0.317820  1.0  -0.1287
  C  C509  1  0.807810  0.430220  0.292910  1.0  -0.1318
  C  C510  1  0.925270  0.469940  0.295430  1.0  -0.0123
  C  C511  1  0.113030  0.560860  0.325410  1.0  0.6715
  C  C512  1  0.745110  0.386220  0.263260  1.0  0.6552
  C  C513  1  0.746000  0.483400  0.372660  1.0  0.1849
  C  C514  1  0.655600  0.359800  0.375480  1.0  -0.377
  C  C515  1  0.682100  0.545400  0.368800  1.0  -0.363
  C  C516  1  0.821500  0.529400  0.399920  1.0  -0.3812
  C  C517  1  0.630570  0.779140  0.346610  1.0  -0.1315
  C  C518  1  0.693920  0.834040  0.372940  1.0  -0.0112
  C  C519  1  0.812540  0.879880  0.374490  1.0  -0.1309
  C  C520  1  0.865610  0.867820  0.349460  1.0  -0.1156
  C  C521  1  0.804380  0.814560  0.322540  1.0  -0.0059
  C  C522  1  0.685570  0.771540  0.321600  1.0  -0.1015
  C  C523  1  0.502060  0.727320  0.344780  1.0  0.6653
  C  C524  1  0.881150  0.933500  0.403450  1.0  0.6358
  C  C525  1  0.866100  0.804400  0.295370  1.0  0.223
  C  C526  1  0.945800  0.922200  0.288270  1.0  -0.3793
  C  C527  1  0.940400  0.751800  0.302260  1.0  -0.3779
  C  C528  1  0.782900  0.728800  0.269440  1.0  -0.3818
  C  C529  1  0.203870  0.813740  0.381830  1.0  0.1772
  C  C530  1  0.201320  0.912840  0.380800  1.0  -0.1752
  C  C531  1  0.298130  0.008060  0.374180  1.0  0.1456
  C  C532  1  0.393940  0.996280  0.368750  1.0  -0.2153
  C  C533  1  0.390460  0.894720  0.370410  1.0  0.1858
  C  C534  1  0.304300  0.116600  0.373320  1.0  -0.1075
  C  C535  1  0.224780  0.145160  0.379030  1.0  -0.1276
  C  C536  1  0.240230  0.259060  0.379140  1.0  0.145
  C  C537  1  0.148450  0.278100  0.380570  1.0  -0.2057
  C  C538  1  0.165730  0.386660  0.380790  1.0  0.1708
  C  C539  1  0.358210  0.459220  0.379500  1.0  0.1862
  C  C540  1  0.347850  0.354300  0.379030  1.0  -0.1972
  C  C541  1  0.408990  0.469980  0.286060  1.0  0.1706
  C  C542  1  0.410970  0.370540  0.286510  1.0  -0.2078
  C  C543  1  0.315330  0.277660  0.294280  1.0  0.1424
  C  C544  1  0.221890  0.291580  0.301460  1.0  -0.209
  C  C545  1  0.226300  0.393200  0.300150  1.0  0.1784
  C  C546  1  0.306790  0.167180  0.295050  1.0  -0.0773
  C  C547  1  0.386020  0.138640  0.289180  1.0  -0.1411
  C  C548  1  0.369490  0.024380  0.289420  1.0  0.1239
  C  C549  1  0.461500  0.005200  0.288200  1.0  -0.2035
  C  C550  1  0.444100  0.897000  0.288590  1.0  0.1742
  C  C551  1  0.252790  0.824780  0.289850  1.0  0.1801
  C  C552  1  0.263710  0.930420  0.289880  1.0  -0.1992
  C  C553  1  0.799400  0.711800  0.464610  1.0  0.1797
  C  C554  1  0.702050  0.610500  0.466280  1.0  -0.2171
  C  C555  1  0.594770  0.598540  0.460610  1.0  0.1324
  C  C556  1  0.592130  0.693660  0.454050  1.0  -0.1912
  C  C557  1  0.693030  0.791860  0.453430  1.0  0.183
  C  C558  1  0.491260  0.487720  0.461400  1.0  -0.0733
  C  C559  1  0.383250  0.460500  0.456580  1.0  -0.1354
  C  C560  1  0.285180  0.346560  0.456700  1.0  0.122
  C  C561  1  0.297100  0.251400  0.455230  1.0  -0.2047
  C  C562  1  0.202220  0.146240  0.455250  1.0  0.1827
  C  C563  1  0.084070  0.221340  0.457890  1.0  0.1686
  C  C564  1  0.174930  0.329260  0.457590  1.0  -0.2158
  N  N565  1  0.506290  0.803380  0.876970  1.0  -0.327
  N  N566  1  0.208140  0.477280  0.880430  1.0  -0.3328
  N  N567  1  0.165390  0.482580  0.792490  1.0  -0.3297
  N  N568  1  0.465750  0.807300  0.789220  1.0  -0.3213
  N  N569  1  0.005820  0.803240  0.958240  1.0  -0.3186
  N  N570  1  0.033570  0.129140  0.956650  1.0  -0.319
  N  N571  1  0.702910  0.196620  0.623030  1.0  -0.3266
  N  N572  1  0.730860  0.522720  0.619570  1.0  -0.3321
  N  N573  1  0.682810  0.517420  0.707510  1.0  -0.3289
  N  N574  1  0.658450  0.192700  0.710780  1.0  -0.3219
  N  N575  1  0.202580  0.196760  0.541760  1.0  -0.318
  N  N576  1  0.904430  0.870860  0.543350  1.0  -0.3199
  N  N577  1  0.493710  0.196620  0.123030  1.0  -0.3264
  N  N578  1  0.791860  0.522720  0.119570  1.0  -0.333
  N  N579  1  0.834610  0.517420  0.207510  1.0  -0.3307
  N  N580  1  0.534250  0.192700  0.210780  1.0  -0.3214
  N  N581  1  0.994180  0.196760  0.041760  1.0  -0.3172
  N  N582  1  0.966430  0.870860  0.043350  1.0  -0.3191
  N  N583  1  0.297090  0.803380  0.376970  1.0  -0.3257
  N  N584  1  0.269140  0.477280  0.380430  1.0  -0.3326
  N  N585  1  0.317190  0.482580  0.292490  1.0  -0.3306
  N  N586  1  0.341550  0.807300  0.289220  1.0  -0.3204
  N  N587  1  0.797420  0.803240  0.458240  1.0  -0.3184
  N  N588  1  0.095570  0.129140  0.456650  1.0  -0.3192
  O  O589  1  0.453610  0.628060  0.915360  1.0  -0.5823
  O  O590  1  0.340290  0.697860  0.926080  1.0  -0.5926
  O  O591  1  0.848340  0.895540  0.966680  1.0  -0.5955
  O  O592  1  0.858980  0.972420  0.012600  1.0  -0.6302
  O  O593  1  0.411880  0.569180  0.849770  1.0  -0.6193
  O  O594  1  0.421710  0.586280  0.802570  1.0  -0.6037
  O  O595  1  0.558970  0.336740  0.744060  1.0  -0.5774
  O  O596  1  0.739590  0.403980  0.757440  1.0  -0.583
  O  O597  1  0.262230  0.717360  0.820590  1.0  -0.6216
  O  O598  1  0.247710  0.700100  0.867610  1.0  -0.6042
  O  O599  1  0.136520  0.987080  0.922040  1.0  -0.5842
  O  O600  1  0.955220  0.918040  0.909160  1.0  -0.5814
  O  O601  1  0.825550  0.371940  0.584640  1.0  -0.5829
  O  O602  1  0.642430  0.302140  0.573920  1.0  -0.593
  O  O603  1  0.952800  0.104460  0.533320  1.0  -0.5952
  O  O604  1  0.886560  0.027580  0.487400  1.0  -0.6303
  O  O605  1  0.842700  0.430820  0.650230  1.0  -0.6187
  O  O606  1  0.835430  0.413720  0.697430  1.0  -0.6047
  O  O607  1  0.222230  0.663260  0.755940  1.0  -0.5791
  O  O608  1  0.335610  0.596020  0.742560  1.0  -0.583
  O  O609  1  0.544870  0.282640  0.679410  1.0  -0.6213
  O  O610  1  0.547610  0.299900  0.632390  1.0  -0.6036
  O  O611  1  0.149440  0.012920  0.577960  1.0  -0.5839
  O  O612  1  0.037180  0.081960  0.590840  1.0  -0.5809
  O  O613  1  0.546390  0.371940  0.084640  1.0  -0.5829
  O  O614  1  0.659710  0.302140  0.073920  1.0  -0.593
  O  O615  1  0.151660  0.104460  0.033320  1.0  -0.595
  O  O616  1  0.141020  0.027580  0.987400  1.0  -0.6299
  O  O617  1  0.588120  0.430820  0.150230  1.0  -0.6192
  O  O618  1  0.578290  0.413720  0.197430  1.0  -0.6048
  O  O619  1  0.441030  0.663260  0.255940  1.0  -0.5767
  O  O620  1  0.260410  0.596020  0.242560  1.0  -0.5833
  O  O621  1  0.737770  0.282640  0.179410  1.0  -0.6221
  O  O622  1  0.752290  0.299900  0.132390  1.0  -0.604
  O  O623  1  0.863480  0.012920  0.077960  1.0  -0.5839
  O  O624  1  0.044780  0.081960  0.090840  1.0  -0.5814
  O  O625  1  0.174450  0.628060  0.415360  1.0  -0.5823
  O  O626  1  0.357570  0.697860  0.426080  1.0  -0.5932
  O  O627  1  0.047200  0.895540  0.466680  1.0  -0.5954
  O  O628  1  0.113440  0.972420  0.512600  1.0  -0.6301
  O  O629  1  0.157300  0.569180  0.349770  1.0  -0.6191
  O  O630  1  0.164570  0.586280  0.302570  1.0  -0.6033
  O  O631  1  0.777770  0.336740  0.244060  1.0  -0.5776
  O  O632  1  0.664390  0.403980  0.257440  1.0  -0.583
  O  O633  1  0.455130  0.717360  0.320590  1.0  -0.6216
  O  O634  1  0.452390  0.700100  0.367610  1.0  -0.6042
  O  O635  1  0.850560  0.987080  0.422040  1.0  -0.5843
  O  O636  1  0.962820  0.918040  0.409160  1.0  -0.5815
