# generated using pymatgen
data_ZnH15C23N2O5
_symmetry_space_group_name_H-M   'P 1'
_cell_length_a   14.90000000
_cell_length_b   24.32400000
_cell_length_c   16.25300000
_cell_angle_alpha   90.00000000
_cell_angle_beta   113.23300000
_cell_angle_gamma   90.00000000
_symmetry_Int_Tables_number   1
_chemical_formula_structural   ZnH15C23N2O5
_chemical_formula_sum   'Zn8 H120 C184 N16 O40'
_cell_volume   5412.86217846
_cell_formula_units_Z   8
loop_
 _symmetry_equiv_pos_site_id
 _symmetry_equiv_pos_as_xyz
  1  'x, y, z'
loop_
 _atom_site_type_symbol
 _atom_site_label
 _atom_site_symmetry_multiplicity
 _atom_site_fract_x
 _atom_site_fract_y
 _atom_site_fract_z
 _atom_site_occupancy
 _atom_site_charge
  Zn  Zn1  1  0.418650  0.013450  0.637760  1.0  0.957
  Zn  Zn2  1  0.918650  0.513450  0.637760  1.0  0.957
  Zn  Zn3  1  0.581350  0.013450  0.862240  1.0  0.9571
  Zn  Zn4  1  0.081350  0.513450  0.862240  1.0  0.9571
  Zn  Zn5  1  0.581350  0.986550  0.362240  1.0  0.957
  Zn  Zn6  1  0.081350  0.486550  0.362240  1.0  0.957
  Zn  Zn7  1  0.418650  0.986550  0.137760  1.0  0.9568
  Zn  Zn8  1  0.918650  0.486550  0.137760  1.0  0.9568
  H  H9  1  0.528500  0.842300  0.621800  1.0  0.1059
  H  H10  1  0.525900  0.746500  0.612900  1.0  0.1392
  H  H11  1  0.276000  0.744600  0.658800  1.0  0.1245
  H  H12  1  0.278700  0.841100  0.664500  1.0  0.1071
  H  H13  1  0.413100  0.646400  0.786100  1.0  0.1146
  H  H14  1  0.294600  0.598100  0.816400  1.0  0.1079
  H  H15  1  0.115100  0.600800  0.553300  1.0  0.1044
  H  H16  1  0.235700  0.647100  0.521800  1.0  0.1167
  H  H17  1  0.434700  0.061400  0.474100  1.0  0.0864
  H  H18  1  0.348500  0.066900  0.322300  1.0  0.1298
  H  H19  1  0.115400  0.001700  0.356600  1.0  0.1106
  H  H20  1  0.208200  0.998900  0.509500  1.0  0.0849
  H  H21  1  0.197700  0.049400  0.187000  1.0  0.1047
  H  H22  1  0.000200  0.925600  0.091400  1.0  0.104
  H  H23  1  0.072500  0.083700  0.063900  1.0  0.1221
  H  H24  1  0.028500  0.342300  0.621800  1.0  0.1059
  H  H25  1  0.025900  0.246500  0.612900  1.0  0.1392
  H  H26  1  0.776000  0.244600  0.658800  1.0  0.1245
  H  H27  1  0.778700  0.341100  0.664500  1.0  0.1071
  H  H28  1  0.913100  0.146400  0.786100  1.0  0.1146
  H  H29  1  0.794600  0.098100  0.816400  1.0  0.1079
  H  H30  1  0.615100  0.100800  0.553300  1.0  0.1044
  H  H31  1  0.735700  0.147100  0.521800  1.0  0.1167
  H  H32  1  0.934700  0.561400  0.474100  1.0  0.0864
  H  H33  1  0.848500  0.566900  0.322300  1.0  0.1298
  H  H34  1  0.615400  0.501700  0.356600  1.0  0.1106
  H  H35  1  0.708200  0.498900  0.509500  1.0  0.0849
  H  H36  1  0.697700  0.549400  0.187000  1.0  0.1047
  H  H37  1  0.500200  0.425600  0.091400  1.0  0.104
  H  H38  1  0.572500  0.583700  0.063900  1.0  0.1221
  H  H39  1  0.471500  0.842300  0.878200  1.0  0.1059
  H  H40  1  0.474100  0.746500  0.887100  1.0  0.1402
  H  H41  1  0.724000  0.744600  0.841200  1.0  0.1246
  H  H42  1  0.721300  0.841100  0.835500  1.0  0.1076
  H  H43  1  0.586900  0.646400  0.713900  1.0  0.1144
  H  H44  1  0.705400  0.598100  0.683600  1.0  0.1076
  H  H45  1  0.884900  0.600800  0.946700  1.0  0.1044
  H  H46  1  0.764300  0.647100  0.978200  1.0  0.1161
  H  H47  1  0.565300  0.061400  0.025900  1.0  0.0866
  H  H48  1  0.651500  0.066900  0.177700  1.0  0.13
  H  H49  1  0.884600  0.001700  0.143400  1.0  0.1104
  H  H50  1  0.791800  0.998900  0.990500  1.0  0.0853
  H  H51  1  0.802300  0.049400  0.313000  1.0  0.1045
  H  H52  1  0.999800  0.925600  0.408600  1.0  0.1035
  H  H53  1  0.927500  0.083700  0.436100  1.0  0.1226
  H  H54  1  0.971500  0.342300  0.878200  1.0  0.1059
  H  H55  1  0.974100  0.246500  0.887100  1.0  0.1402
  H  H56  1  0.224000  0.244600  0.841200  1.0  0.1246
  H  H57  1  0.221300  0.341100  0.835500  1.0  0.1076
  H  H58  1  0.086900  0.146400  0.713900  1.0  0.1144
  H  H59  1  0.205400  0.098100  0.683600  1.0  0.1076
  H  H60  1  0.384900  0.100800  0.946700  1.0  0.1044
  H  H61  1  0.264300  0.147100  0.978200  1.0  0.1161
  H  H62  1  0.065300  0.561400  0.025900  1.0  0.0866
  H  H63  1  0.151500  0.566900  0.177700  1.0  0.13
  H  H64  1  0.384600  0.501700  0.143400  1.0  0.1104
  H  H65  1  0.291800  0.498900  0.990500  1.0  0.0853
  H  H66  1  0.302300  0.549400  0.313000  1.0  0.1045
  H  H67  1  0.499800  0.425600  0.408600  1.0  0.1035
  H  H68  1  0.427500  0.583700  0.436100  1.0  0.1226
  H  H69  1  0.471500  0.157700  0.378200  1.0  0.1061
  H  H70  1  0.474100  0.253500  0.387100  1.0  0.1381
  H  H71  1  0.724000  0.255400  0.341200  1.0  0.1244
  H  H72  1  0.721300  0.158900  0.335500  1.0  0.1074
  H  H73  1  0.586900  0.353600  0.213900  1.0  0.1141
  H  H74  1  0.705400  0.401900  0.183600  1.0  0.109
  H  H75  1  0.884900  0.399200  0.446700  1.0  0.1048
  H  H76  1  0.764300  0.352900  0.478200  1.0  0.1177
  H  H77  1  0.565300  0.938600  0.525900  1.0  0.0864
  H  H78  1  0.651500  0.933100  0.677700  1.0  0.1302
  H  H79  1  0.884600  0.998300  0.643400  1.0  0.1103
  H  H80  1  0.791800  0.001100  0.490500  1.0  0.0851
  H  H81  1  0.802300  0.950600  0.813000  1.0  0.1049
  H  H82  1  0.999800  0.074400  0.908600  1.0  0.1037
  H  H83  1  0.927500  0.916300  0.936100  1.0  0.1218
  H  H84  1  0.971500  0.657700  0.378200  1.0  0.1061
  H  H85  1  0.974100  0.753500  0.387100  1.0  0.1381
  H  H86  1  0.224000  0.755400  0.341200  1.0  0.1244
  H  H87  1  0.221300  0.658900  0.335500  1.0  0.1074
  H  H88  1  0.086900  0.853600  0.213900  1.0  0.1141
  H  H89  1  0.205400  0.901900  0.183600  1.0  0.109
  H  H90  1  0.384900  0.899200  0.446700  1.0  0.1048
  H  H91  1  0.264300  0.852900  0.478200  1.0  0.1177
  H  H92  1  0.065300  0.438600  0.525900  1.0  0.0864
  H  H93  1  0.151500  0.433100  0.677700  1.0  0.1302
  H  H94  1  0.384600  0.498300  0.643400  1.0  0.1103
  H  H95  1  0.291800  0.501100  0.490500  1.0  0.0851
  H  H96  1  0.302300  0.450600  0.813000  1.0  0.1049
  H  H97  1  0.499800  0.574400  0.908600  1.0  0.1037
  H  H98  1  0.427500  0.416300  0.936100  1.0  0.1218
  H  H99  1  0.528500  0.157700  0.121800  1.0  0.106
  H  H100  1  0.525900  0.253500  0.112900  1.0  0.1404
  H  H101  1  0.276000  0.255400  0.158800  1.0  0.1243
  H  H102  1  0.278700  0.158900  0.164500  1.0  0.1072
  H  H103  1  0.413100  0.353600  0.286100  1.0  0.115
  H  H104  1  0.294600  0.401900  0.316400  1.0  0.1089
  H  H105  1  0.115100  0.399200  0.053300  1.0  0.1047
  H  H106  1  0.235700  0.352900  0.021800  1.0  0.1179
  H  H107  1  0.434700  0.938600  0.974100  1.0  0.0868
  H  H108  1  0.348500  0.933100  0.822300  1.0  0.1294
  H  H109  1  0.115400  0.998300  0.856600  1.0  0.1107
  H  H110  1  0.208200  0.001100  0.009500  1.0  0.0852
  H  H111  1  0.197700  0.950600  0.687000  1.0  0.1048
  H  H112  1  0.000200  0.074400  0.591400  1.0  0.104
  H  H113  1  0.072500  0.916300  0.563900  1.0  0.1224
  H  H114  1  0.028500  0.657700  0.121800  1.0  0.106
  H  H115  1  0.025900  0.753500  0.112900  1.0  0.1404
  H  H116  1  0.776000  0.755400  0.158800  1.0  0.1243
  H  H117  1  0.778700  0.658900  0.164500  1.0  0.1072
  H  H118  1  0.913100  0.853600  0.286100  1.0  0.115
  H  H119  1  0.794600  0.901900  0.316400  1.0  0.1089
  H  H120  1  0.615100  0.899200  0.053300  1.0  0.1047
  H  H121  1  0.735700  0.852900  0.021800  1.0  0.1179
  H  H122  1  0.934700  0.438600  0.974100  1.0  0.0868
  H  H123  1  0.848500  0.433100  0.822300  1.0  0.1294
  H  H124  1  0.615400  0.498300  0.856600  1.0  0.1107
  H  H125  1  0.708200  0.501100  0.009500  1.0  0.0852
  H  H126  1  0.697700  0.450600  0.687000  1.0  0.1048
  H  H127  1  0.500200  0.574400  0.591400  1.0  0.104
  H  H128  1  0.572500  0.416300  0.563900  1.0  0.1224
  C  C129  1  0.403600  0.850700  0.643100  1.0  -0.122
  C  C130  1  0.477000  0.822360  0.628600  1.0  -0.0263
  C  C131  1  0.476200  0.765640  0.624100  1.0  -0.1647
  C  C132  1  0.401200  0.736830  0.636300  1.0  0.2405
  C  C133  1  0.327000  0.764470  0.651100  1.0  -0.1435
  C  C134  1  0.328800  0.821760  0.654400  1.0  -0.068
  C  C135  1  0.402200  0.911730  0.644200  1.0  0.6329
  C  C136  1  0.334000  0.651590  0.651000  1.0  0.2357
  C  C137  1  0.352700  0.637140  0.739100  1.0  -0.2236
  C  C138  1  0.282000  0.609220  0.756800  1.0  -0.0024
  C  C139  1  0.191800  0.597010  0.688400  1.0  -0.121
  C  C140  1  0.175200  0.610390  0.600500  1.0  0.0093
  C  C141  1  0.246600  0.637800  0.581800  1.0  -0.1893
  C  C142  1  0.115300  0.567790  0.710200  1.0  0.7151
  C  C143  1  0.369000  0.048840  0.449800  1.0  0.1807
  C  C144  1  0.318500  0.052400  0.359500  1.0  -0.1883
  C  C145  1  0.222100  0.034340  0.323000  1.0  -0.0637
  C  C146  1  0.181200  0.014130  0.379800  1.0  -0.12
  C  C147  1  0.237100  0.012220  0.470700  1.0  0.1917
  C  C148  1  0.169800  0.032230  0.223900  1.0  0.143
  C  C149  1  0.044900  0.005990  0.093200  1.0  0.1533
  C  C150  1  0.000200  0.955690  0.054100  1.0  -0.1674
  C  C151  1  0.043400  0.049760  0.038200  1.0  -0.0822
  C  C152  1  0.903600  0.350700  0.643100  1.0  -0.122
  C  C153  1  0.977000  0.322360  0.628600  1.0  -0.0263
  C  C154  1  0.976200  0.265640  0.624100  1.0  -0.1647
  C  C155  1  0.901200  0.236830  0.636300  1.0  0.2405
  C  C156  1  0.827000  0.264470  0.651100  1.0  -0.1435
  C  C157  1  0.828800  0.321760  0.654400  1.0  -0.068
  C  C158  1  0.902200  0.411730  0.644200  1.0  0.6329
  C  C159  1  0.834000  0.151590  0.651000  1.0  0.2357
  C  C160  1  0.852700  0.137140  0.739100  1.0  -0.2236
  C  C161  1  0.782000  0.109220  0.756800  1.0  -0.0024
  C  C162  1  0.691800  0.097010  0.688400  1.0  -0.121
  C  C163  1  0.675200  0.110390  0.600500  1.0  0.0093
  C  C164  1  0.746600  0.137800  0.581800  1.0  -0.1893
  C  C165  1  0.615300  0.067790  0.710200  1.0  0.7151
  C  C166  1  0.869000  0.548840  0.449800  1.0  0.1807
  C  C167  1  0.818500  0.552400  0.359500  1.0  -0.1883
  C  C168  1  0.722100  0.534340  0.323000  1.0  -0.0637
  C  C169  1  0.681200  0.514130  0.379800  1.0  -0.12
  C  C170  1  0.737100  0.512220  0.470700  1.0  0.1917
  C  C171  1  0.669800  0.532230  0.223900  1.0  0.143
  C  C172  1  0.544900  0.505990  0.093200  1.0  0.1533
  C  C173  1  0.500200  0.455690  0.054100  1.0  -0.1674
  C  C174  1  0.543400  0.549760  0.038200  1.0  -0.0822
  C  C175  1  0.596400  0.850700  0.856900  1.0  -0.1222
  C  C176  1  0.523000  0.822360  0.871400  1.0  -0.0258
  C  C177  1  0.523800  0.765640  0.875900  1.0  -0.1662
  C  C178  1  0.598800  0.736830  0.863700  1.0  0.2406
  C  C179  1  0.673000  0.764470  0.848900  1.0  -0.1434
  C  C180  1  0.671200  0.821760  0.845600  1.0  -0.0698
  C  C181  1  0.597800  0.911730  0.855800  1.0  0.6325
  C  C182  1  0.666000  0.651590  0.849000  1.0  0.2351
  C  C183  1  0.647300  0.637140  0.760900  1.0  -0.2217
  C  C184  1  0.718000  0.609220  0.743200  1.0  0.0004
  C  C185  1  0.808200  0.597010  0.811600  1.0  -0.1211
  C  C186  1  0.824800  0.610390  0.899500  1.0  0.0106
  C  C187  1  0.753400  0.637800  0.918200  1.0  -0.1894
  C  C188  1  0.884700  0.567790  0.789800  1.0  0.7153
  C  C189  1  0.631000  0.048840  0.050200  1.0  0.1825
  C  C190  1  0.681500  0.052400  0.140500  1.0  -0.188
  C  C191  1  0.777900  0.034340  0.177000  1.0  -0.0632
  C  C192  1  0.818800  0.014130  0.120200  1.0  -0.1194
  C  C193  1  0.762900  0.012220  0.029300  1.0  0.1915
  C  C194  1  0.830200  0.032230  0.276100  1.0  0.1414
  C  C195  1  0.955100  0.005990  0.406800  1.0  0.155
  C  C196  1  0.999800  0.955690  0.445900  1.0  -0.1667
  C  C197  1  0.956600  0.049760  0.461800  1.0  -0.0818
  C  C198  1  0.096400  0.350700  0.856900  1.0  -0.1222
  C  C199  1  0.023000  0.322360  0.871400  1.0  -0.0258
  C  C200  1  0.023800  0.265640  0.875900  1.0  -0.1662
  C  C201  1  0.098800  0.236830  0.863700  1.0  0.2406
  C  C202  1  0.173000  0.264470  0.848900  1.0  -0.1434
  C  C203  1  0.171200  0.321760  0.845600  1.0  -0.0698
  C  C204  1  0.097800  0.411730  0.855800  1.0  0.6325
  C  C205  1  0.166000  0.151590  0.849000  1.0  0.2351
  C  C206  1  0.147300  0.137140  0.760900  1.0  -0.2217
  C  C207  1  0.218000  0.109220  0.743200  1.0  0.0004
  C  C208  1  0.308200  0.097010  0.811600  1.0  -0.1211
  C  C209  1  0.324800  0.110390  0.899500  1.0  0.0106
  C  C210  1  0.253400  0.137800  0.918200  1.0  -0.1894
  C  C211  1  0.384700  0.067790  0.789800  1.0  0.7153
  C  C212  1  0.131000  0.548840  0.050200  1.0  0.1825
  C  C213  1  0.181500  0.552400  0.140500  1.0  -0.188
  C  C214  1  0.277900  0.534340  0.177000  1.0  -0.0632
  C  C215  1  0.318800  0.514130  0.120200  1.0  -0.1194
  C  C216  1  0.262900  0.512220  0.029300  1.0  0.1915
  C  C217  1  0.330200  0.532230  0.276100  1.0  0.1414
  C  C218  1  0.455100  0.505990  0.406800  1.0  0.155
  C  C219  1  0.499800  0.455690  0.445900  1.0  -0.1667
  C  C220  1  0.456600  0.549760  0.461800  1.0  -0.0818
  C  C221  1  0.596400  0.149300  0.356900  1.0  -0.1229
  C  C222  1  0.523000  0.177640  0.371400  1.0  -0.0257
  C  C223  1  0.523800  0.234360  0.375900  1.0  -0.1663
  C  C224  1  0.598800  0.263170  0.363700  1.0  0.2403
  C  C225  1  0.673000  0.235530  0.348900  1.0  -0.1429
  C  C226  1  0.671200  0.178240  0.345600  1.0  -0.0709
  C  C227  1  0.597800  0.088270  0.355800  1.0  0.6333
  C  C228  1  0.666000  0.348410  0.349000  1.0  0.2353
  C  C229  1  0.647300  0.362860  0.260900  1.0  -0.2217
  C  C230  1  0.718000  0.390780  0.243200  1.0  -0.0002
  C  C231  1  0.808200  0.402990  0.311600  1.0  -0.1203
  C  C232  1  0.824800  0.389610  0.399500  1.0  0.0094
  C  C233  1  0.753400  0.362200  0.418200  1.0  -0.1887
  C  C234  1  0.884700  0.432210  0.289800  1.0  0.7153
  C  C235  1  0.631000  0.951160  0.550200  1.0  0.182
  C  C236  1  0.681500  0.947600  0.640500  1.0  -0.1875
  C  C237  1  0.777900  0.965660  0.677000  1.0  -0.0635
  C  C238  1  0.818800  0.985870  0.620200  1.0  -0.1192
  C  C239  1  0.762900  0.987780  0.529300  1.0  0.1909
  C  C240  1  0.830200  0.967770  0.776100  1.0  0.1406
  C  C241  1  0.955100  0.994010  0.906800  1.0  0.1548
  C  C242  1  0.999800  0.044310  0.945900  1.0  -0.1662
  C  C243  1  0.956600  0.950240  0.961800  1.0  -0.0825
  C  C244  1  0.096400  0.649300  0.356900  1.0  -0.1229
  C  C245  1  0.023000  0.677640  0.371400  1.0  -0.0257
  C  C246  1  0.023800  0.734360  0.375900  1.0  -0.1663
  C  C247  1  0.098800  0.763170  0.363700  1.0  0.2403
  C  C248  1  0.173000  0.735530  0.348900  1.0  -0.1429
  C  C249  1  0.171200  0.678240  0.345600  1.0  -0.0709
  C  C250  1  0.097800  0.588270  0.355800  1.0  0.6333
  C  C251  1  0.166000  0.848410  0.349000  1.0  0.2353
  C  C252  1  0.147300  0.862860  0.260900  1.0  -0.2217
  C  C253  1  0.218000  0.890780  0.243200  1.0  -0.0002
  C  C254  1  0.308200  0.902990  0.311600  1.0  -0.1203
  C  C255  1  0.324800  0.889610  0.399500  1.0  0.0094
  C  C256  1  0.253400  0.862200  0.418200  1.0  -0.1887
  C  C257  1  0.384700  0.932210  0.289800  1.0  0.7153
  C  C258  1  0.131000  0.451160  0.550200  1.0  0.182
  C  C259  1  0.181500  0.447600  0.640500  1.0  -0.1875
  C  C260  1  0.277900  0.465660  0.677000  1.0  -0.0635
  C  C261  1  0.318800  0.485870  0.620200  1.0  -0.1192
  C  C262  1  0.262900  0.487780  0.529300  1.0  0.1909
  C  C263  1  0.330200  0.467770  0.776100  1.0  0.1406
  C  C264  1  0.455100  0.494010  0.906800  1.0  0.1548
  C  C265  1  0.499800  0.544310  0.945900  1.0  -0.1662
  C  C266  1  0.456600  0.450240  0.961800  1.0  -0.0825
  C  C267  1  0.403600  0.149300  0.143100  1.0  -0.1227
  C  C268  1  0.477000  0.177640  0.128600  1.0  -0.0264
  C  C269  1  0.476200  0.234360  0.124100  1.0  -0.1648
  C  C270  1  0.401200  0.263170  0.136300  1.0  0.2412
  C  C271  1  0.327000  0.235530  0.151100  1.0  -0.143
  C  C272  1  0.328800  0.178240  0.154400  1.0  -0.0683
  C  C273  1  0.402200  0.088270  0.144200  1.0  0.6335
  C  C274  1  0.334000  0.348410  0.151000  1.0  0.236
  C  C275  1  0.352700  0.362860  0.239100  1.0  -0.2234
  C  C276  1  0.282000  0.390780  0.256800  1.0  -0.002
  C  C277  1  0.191800  0.402990  0.188400  1.0  -0.1206
  C  C278  1  0.175200  0.389610  0.100500  1.0  0.0099
  C  C279  1  0.246600  0.362200  0.081800  1.0  -0.1897
  C  C280  1  0.115300  0.432210  0.210200  1.0  0.7162
  C  C281  1  0.369000  0.951160  0.949800  1.0  0.1807
  C  C282  1  0.318500  0.947600  0.859500  1.0  -0.1882
  C  C283  1  0.222100  0.965660  0.823000  1.0  -0.0636
  C  C284  1  0.181200  0.985870  0.879800  1.0  -0.1191
  C  C285  1  0.237100  0.987780  0.970700  1.0  0.1921
  C  C286  1  0.169800  0.967770  0.723900  1.0  0.1429
  C  C287  1  0.044900  0.994010  0.593200  1.0  0.1533
  C  C288  1  0.000200  0.044310  0.554100  1.0  -0.1674
  C  C289  1  0.043400  0.950240  0.538200  1.0  -0.0839
  C  C290  1  0.903600  0.649300  0.143100  1.0  -0.1227
  C  C291  1  0.977000  0.677640  0.128600  1.0  -0.0264
  C  C292  1  0.976200  0.734360  0.124100  1.0  -0.1648
  C  C293  1  0.901200  0.763170  0.136300  1.0  0.2412
  C  C294  1  0.827000  0.735530  0.151100  1.0  -0.143
  C  C295  1  0.828800  0.678240  0.154400  1.0  -0.0683
  C  C296  1  0.902200  0.588270  0.144200  1.0  0.6335
  C  C297  1  0.834000  0.848410  0.151000  1.0  0.236
  C  C298  1  0.852700  0.862860  0.239100  1.0  -0.2234
  C  C299  1  0.782000  0.890780  0.256800  1.0  -0.002
  C  C300  1  0.691800  0.902990  0.188400  1.0  -0.1206
  C  C301  1  0.675200  0.889610  0.100500  1.0  0.0099
  C  C302  1  0.746600  0.862200  0.081800  1.0  -0.1897
  C  C303  1  0.615300  0.932210  0.210200  1.0  0.7162
  C  C304  1  0.869000  0.451160  0.949800  1.0  0.1807
  C  C305  1  0.818500  0.447600  0.859500  1.0  -0.1882
  C  C306  1  0.722100  0.465660  0.823000  1.0  -0.0636
  C  C307  1  0.681200  0.485870  0.879800  1.0  -0.1191
  C  C308  1  0.737100  0.487780  0.970700  1.0  0.1921
  C  C309  1  0.669800  0.467770  0.723900  1.0  0.1429
  C  C310  1  0.544900  0.494010  0.593200  1.0  0.1533
  C  C311  1  0.500200  0.544310  0.554100  1.0  -0.1674
  C  C312  1  0.543400  0.450240  0.538200  1.0  -0.0839
  N  N313  1  0.332000  0.028750  0.506700  1.0  -0.3464
  N  N314  1  0.088700  0.007930  0.188400  1.0  -0.4023
  N  N315  1  0.832000  0.528750  0.506700  1.0  -0.3464
  N  N316  1  0.588700  0.507930  0.188400  1.0  -0.4023
  N  N317  1  0.668000  0.028750  0.993300  1.0  -0.3472
  N  N318  1  0.911300  0.007930  0.311600  1.0  -0.4028
  N  N319  1  0.168000  0.528750  0.993300  1.0  -0.3472
  N  N320  1  0.411300  0.507930  0.311600  1.0  -0.4028
  N  N321  1  0.668000  0.971250  0.493300  1.0  -0.3485
  N  N322  1  0.911300  0.992070  0.811600  1.0  -0.4025
  N  N323  1  0.168000  0.471250  0.493300  1.0  -0.3485
  N  N324  1  0.411300  0.492070  0.811600  1.0  -0.4025
  N  N325  1  0.332000  0.971250  0.006700  1.0  -0.3458
  N  N326  1  0.088700  0.992070  0.688400  1.0  -0.4025
  N  N327  1  0.832000  0.471250  0.006700  1.0  -0.3458
  N  N328  1  0.588700  0.492070  0.688400  1.0  -0.4025
  O  O329  1  0.404800  0.679910  0.631400  1.0  -0.2606
  O  O330  1  0.476800  0.938320  0.642900  1.0  -0.5673
  O  O331  1  0.329900  0.937680  0.644700  1.0  -0.5894
  O  O332  1  0.034300  0.558340  0.646100  1.0  -0.6355
  O  O333  1  0.137500  0.555090  0.790400  1.0  -0.642
  O  O334  1  0.904800  0.179910  0.631400  1.0  -0.2606
  O  O335  1  0.976800  0.438320  0.642900  1.0  -0.5673
  O  O336  1  0.829900  0.437680  0.644700  1.0  -0.5894
  O  O337  1  0.534300  0.058340  0.646100  1.0  -0.6355
  O  O338  1  0.637500  0.055090  0.790400  1.0  -0.642
  O  O339  1  0.595200  0.679910  0.868600  1.0  -0.2615
  O  O340  1  0.523200  0.938320  0.857100  1.0  -0.5674
  O  O341  1  0.670100  0.937680  0.855300  1.0  -0.5891
  O  O342  1  0.965700  0.558340  0.853900  1.0  -0.6366
  O  O343  1  0.862500  0.555090  0.709600  1.0  -0.6407
  O  O344  1  0.095200  0.179910  0.868600  1.0  -0.2615
  O  O345  1  0.023200  0.438320  0.857100  1.0  -0.5674
  O  O346  1  0.170100  0.437680  0.855300  1.0  -0.5891
  O  O347  1  0.465700  0.058340  0.853900  1.0  -0.6366
  O  O348  1  0.362500  0.055090  0.709600  1.0  -0.6405
  O  O349  1  0.595200  0.320090  0.368600  1.0  -0.2615
  O  O350  1  0.523200  0.061680  0.357100  1.0  -0.5679
  O  O351  1  0.670100  0.062320  0.355300  1.0  -0.5893
  O  O352  1  0.965700  0.441660  0.353900  1.0  -0.6373
  O  O353  1  0.862500  0.444910  0.209600  1.0  -0.6392
  O  O354  1  0.095200  0.820090  0.368600  1.0  -0.2615
  O  O355  1  0.023200  0.561680  0.357100  1.0  -0.5679
  O  O356  1  0.170100  0.562320  0.355300  1.0  -0.5893
  O  O357  1  0.465700  0.941660  0.353900  1.0  -0.6373
  O  O358  1  0.362500  0.944910  0.209600  1.0  -0.6392
  O  O359  1  0.404800  0.320090  0.131400  1.0  -0.2605
  O  O360  1  0.476800  0.061680  0.142900  1.0  -0.5675
  O  O361  1  0.329900  0.062320  0.144700  1.0  -0.5892
  O  O362  1  0.034300  0.441660  0.146100  1.0  -0.636
  O  O363  1  0.137500  0.444910  0.290400  1.0  -0.6417
  O  O364  1  0.904800  0.820090  0.131400  1.0  -0.2605
  O  O365  1  0.976800  0.561680  0.142900  1.0  -0.5675
  O  O366  1  0.829900  0.562320  0.144700  1.0  -0.5892
  O  O367  1  0.534300  0.941660  0.146100  1.0  -0.636
  O  O368  1  0.637500  0.944910  0.290400  1.0  -0.6416
