# generated using pymatgen
data_Mn3CoH66C75(NO)12
_symmetry_space_group_name_H-M   'P 1'
_cell_length_a   12.39890000
_cell_length_b   33.41800000
_cell_length_c   12.94450000
_cell_angle_alpha   90.00000000
_cell_angle_beta   98.31200000
_cell_angle_gamma   90.00000000
_symmetry_Int_Tables_number   1
_chemical_formula_structural   Mn3CoH66C75(NO)12
_chemical_formula_sum   'Mn6 Co2 H132 C150 N24 O24'
_cell_volume   5307.16671023
_cell_formula_units_Z   2
loop_
 _symmetry_equiv_pos_site_id
 _symmetry_equiv_pos_as_xyz
  1  'x, y, z'
loop_
 _atom_site_type_symbol
 _atom_site_label
 _atom_site_symmetry_multiplicity
 _atom_site_fract_x
 _atom_site_fract_y
 _atom_site_fract_z
 _atom_site_occupancy
 _atom_site_charge
  Mn  Mn1  1  0.299430  0.430720  0.893930  1.0  1.0483
  Mn  Mn2  1  0.700570  0.930720  0.106070  1.0  1.0474
  Mn  Mn3  1  0.700570  0.569280  0.106070  1.0  1.0479
  Mn  Mn4  1  0.299430  0.069280  0.893930  1.0  1.0486
  Mn  Mn5  1  0.500000  0.500000  0.000000  1.0  1.1458
  Mn  Mn6  1  0.500000  0.000000  0.000000  1.0  1.1458
  Co  Co7  1  0.754740  0.750000  0.800740  1.0  0.7437
  Co  Co8  1  0.245260  0.250000  0.199260  1.0  0.7426
  H  H9  1  0.651600  0.458400  0.855800  1.0  0.1019
  H  H10  1  0.175700  0.326700  0.718800  1.0  0.083
  H  H11  1  0.261900  0.344400  0.811700  1.0  0.1113
  H  H12  1  0.059600  0.526300  0.791100  1.0  0.1038
  H  H13  1  0.831500  0.450200  0.831600  1.0  0.0999
  H  H14  1  0.950600  0.582600  0.750400  1.0  0.085
  H  H15  1  0.026500  0.471600  0.931000  1.0  0.1246
  H  H16  1  0.110400  0.449000  0.017100  1.0  0.1156
  H  H17  1  0.981900  0.442700  0.013900  1.0  0.1017
  H  H18  1  0.631200  0.340700  0.925000  1.0  0.1088
  H  H19  1  0.816400  0.332900  0.907300  1.0  0.0977
  H  H20  1  0.339200  0.378200  0.221500  1.0  0.0961
  H  H21  1  0.316100  0.496300  0.282300  1.0  0.0895
  H  H22  1  0.323900  0.597300  0.862600  1.0  0.0993
  H  H23  1  0.320800  0.363200  0.392600  1.0  0.0959
  H  H24  1  0.809800  0.668900  0.913800  1.0  0.1324
  H  H25  1  0.932100  0.656300  0.958800  1.0  0.1161
  H  H26  1  0.855800  0.626200  0.885100  1.0  0.1184
  H  H27  1  0.288100  0.481600  0.452500  1.0  0.0941
  H  H28  1  0.214000  0.654200  0.822700  1.0  0.107
  H  H29  1  0.432600  0.469900  0.728200  1.0  0.1323
  H  H30  1  0.350600  0.491500  0.638600  1.0  0.1251
  H  H31  1  0.452500  0.466800  0.609100  1.0  0.1318
  H  H32  1  0.145400  0.712900  0.628300  1.0  0.1204
  H  H33  1  0.055500  0.696900  0.536300  1.0  0.1078
  H  H34  1  0.134400  0.666000  0.604600  1.0  0.1168
  H  H35  1  0.985900  0.299800  0.755700  1.0  0.1222
  H  H36  1  0.974500  0.328500  0.655700  1.0  0.1243
  H  H37  1  0.877500  0.325700  0.724600  1.0  0.1165
  H  H38  1  0.086000  0.348200  0.536300  1.0  0.0979
  H  H39  1  0.192000  0.321500  0.530500  1.0  0.1124
  H  H40  1  0.155400  0.354300  0.442400  1.0  0.1051
  H  H41  1  0.348400  0.958400  0.144200  1.0  0.1022
  H  H42  1  0.824300  0.826700  0.281200  1.0  0.0829
  H  H43  1  0.738100  0.844400  0.188300  1.0  0.111
  H  H44  1  0.940400  0.026300  0.208900  1.0  0.104
  H  H45  1  0.168500  0.950200  0.168400  1.0  0.1002
  H  H46  1  0.049400  0.082600  0.249600  1.0  0.0862
  H  H47  1  0.973500  0.971600  0.069000  1.0  0.124
  H  H48  1  0.889600  0.949000  0.982900  1.0  0.1155
  H  H49  1  0.018100  0.942700  0.986100  1.0  0.1025
  H  H50  1  0.368800  0.840700  0.075000  1.0  0.1089
  H  H51  1  0.183600  0.832900  0.092700  1.0  0.0971
  H  H52  1  0.660800  0.878200  0.778500  1.0  0.0965
  H  H53  1  0.683900  0.996300  0.717700  1.0  0.0893
  H  H54  1  0.676100  0.097300  0.137400  1.0  0.0974
  H  H55  1  0.679200  0.863200  0.607400  1.0  0.0953
  H  H56  1  0.190200  0.168900  0.086200  1.0  0.1336
  H  H57  1  0.067900  0.156300  0.041200  1.0  0.1168
  H  H58  1  0.144200  0.126200  0.114900  1.0  0.1189
  H  H59  1  0.711900  0.981600  0.547500  1.0  0.094
  H  H60  1  0.786000  0.154200  0.177300  1.0  0.1076
  H  H61  1  0.567400  0.969900  0.271800  1.0  0.1317
  H  H62  1  0.649400  0.991500  0.361400  1.0  0.124
  H  H63  1  0.547500  0.966800  0.390900  1.0  0.1323
  H  H64  1  0.854600  0.212900  0.371700  1.0  0.1201
  H  H65  1  0.944500  0.196900  0.463700  1.0  0.1061
  H  H66  1  0.865600  0.166000  0.395400  1.0  0.1169
  H  H67  1  0.014100  0.799800  0.244300  1.0  0.1227
  H  H68  1  0.025500  0.828500  0.344300  1.0  0.1266
  H  H69  1  0.122500  0.825700  0.275400  1.0  0.1112
  H  H70  1  0.914000  0.848200  0.463700  1.0  0.0984
  H  H71  1  0.808000  0.821500  0.469500  1.0  0.1117
  H  H72  1  0.844600  0.854300  0.557600  1.0  0.1045
  H  H73  1  0.348400  0.541600  0.144200  1.0  0.1019
  H  H74  1  0.824300  0.673300  0.281200  1.0  0.0823
  H  H75  1  0.738100  0.655600  0.188300  1.0  0.1119
  H  H76  1  0.940400  0.473700  0.208900  1.0  0.104
  H  H77  1  0.168500  0.549800  0.168400  1.0  0.1
  H  H78  1  0.049400  0.417400  0.249600  1.0  0.0857
  H  H79  1  0.973500  0.528400  0.069000  1.0  0.125
  H  H80  1  0.889600  0.551000  0.982900  1.0  0.115
  H  H81  1  0.018100  0.557300  0.986100  1.0  0.1013
  H  H82  1  0.368800  0.659300  0.075000  1.0  0.1093
  H  H83  1  0.183600  0.667100  0.092700  1.0  0.0975
  H  H84  1  0.660800  0.621800  0.778500  1.0  0.0969
  H  H85  1  0.683900  0.503700  0.717700  1.0  0.0891
  H  H86  1  0.676100  0.402700  0.137400  1.0  0.0978
  H  H87  1  0.679200  0.636800  0.607400  1.0  0.0954
  H  H88  1  0.190200  0.331100  0.086200  1.0  0.1326
  H  H89  1  0.067900  0.343700  0.041200  1.0  0.1162
  H  H90  1  0.144200  0.373800  0.114900  1.0  0.1166
  H  H91  1  0.711900  0.518400  0.547500  1.0  0.0935
  H  H92  1  0.786000  0.345800  0.177300  1.0  0.107
  H  H93  1  0.567400  0.530100  0.271800  1.0  0.1316
  H  H94  1  0.649400  0.508500  0.361400  1.0  0.1257
  H  H95  1  0.547500  0.533200  0.390900  1.0  0.132
  H  H96  1  0.854600  0.287100  0.371700  1.0  0.1203
  H  H97  1  0.944500  0.303100  0.463700  1.0  0.1059
  H  H98  1  0.865600  0.334000  0.395400  1.0  0.1174
  H  H99  1  0.014100  0.700200  0.244300  1.0  0.1216
  H  H100  1  0.025500  0.671500  0.344300  1.0  0.1254
  H  H101  1  0.122500  0.674300  0.275400  1.0  0.1117
  H  H102  1  0.914000  0.651800  0.463700  1.0  0.098
  H  H103  1  0.808000  0.678500  0.469500  1.0  0.1124
  H  H104  1  0.844600  0.645700  0.557600  1.0  0.106
  H  H105  1  0.651600  0.041600  0.855800  1.0  0.1015
  H  H106  1  0.175700  0.173300  0.718800  1.0  0.0832
  H  H107  1  0.261900  0.155600  0.811700  1.0  0.1111
  H  H108  1  0.059600  0.973700  0.791100  1.0  0.1038
  H  H109  1  0.831500  0.049800  0.831600  1.0  0.0996
  H  H110  1  0.950600  0.917400  0.750400  1.0  0.0856
  H  H111  1  0.026500  0.028400  0.931000  1.0  0.1243
  H  H112  1  0.110400  0.051000  0.017100  1.0  0.1158
  H  H113  1  0.981900  0.057300  0.013900  1.0  0.101
  H  H114  1  0.631200  0.159300  0.925000  1.0  0.1108
  H  H115  1  0.816400  0.167100  0.907300  1.0  0.0971
  H  H116  1  0.339200  0.121800  0.221500  1.0  0.0966
  H  H117  1  0.316100  0.003700  0.282300  1.0  0.0895
  H  H118  1  0.323900  0.902700  0.862600  1.0  0.0991
  H  H119  1  0.320800  0.136800  0.392600  1.0  0.0956
  H  H120  1  0.809800  0.831100  0.913800  1.0  0.1323
  H  H121  1  0.932100  0.843700  0.958800  1.0  0.1166
  H  H122  1  0.855800  0.873800  0.885100  1.0  0.1169
  H  H123  1  0.288100  0.018400  0.452500  1.0  0.094
  H  H124  1  0.214000  0.845800  0.822700  1.0  0.1072
  H  H125  1  0.432600  0.030100  0.728200  1.0  0.1328
  H  H126  1  0.350600  0.008500  0.638600  1.0  0.1254
  H  H127  1  0.452500  0.033200  0.609100  1.0  0.1316
  H  H128  1  0.145400  0.787100  0.628300  1.0  0.1208
  H  H129  1  0.055500  0.803100  0.536300  1.0  0.1074
  H  H130  1  0.134400  0.834000  0.604600  1.0  0.1176
  H  H131  1  0.985900  0.200200  0.755700  1.0  0.1215
  H  H132  1  0.974500  0.171500  0.655700  1.0  0.1244
  H  H133  1  0.877500  0.174300  0.724600  1.0  0.1158
  H  H134  1  0.086000  0.151800  0.536300  1.0  0.0974
  H  H135  1  0.192000  0.178500  0.530500  1.0  0.1117
  H  H136  1  0.155400  0.145700  0.442400  1.0  0.1072
  H  H137  1  0.829000  0.750000  0.589900  1.0  0.1021
  H  H138  1  0.950600  0.750000  0.561900  1.0  0.0678
  H  H139  1  0.171000  0.250000  0.410100  1.0  0.1018
  H  H140  1  0.049400  0.250000  0.438100  1.0  0.0684
  C  C141  1  0.300600  0.421150  0.441600  1.0  0.0084
  C  C142  1  0.043500  0.412100  0.898100  1.0  0.1891
  C  C143  1  0.842100  0.390610  0.864200  1.0  -0.0178
  C  C144  1  0.328400  0.430850  0.642300  1.0  0.2977
  C  C145  1  0.346000  0.447800  0.123400  1.0  0.7107
  C  C146  1  0.958200  0.386580  0.851700  1.0  -0.1676
  C  C147  1  0.331100  0.438870  0.235000  1.0  -0.119
  C  C148  1  0.273000  0.520660  0.864700  1.0  0.6835
  C  C149  1  0.625400  0.400690  0.894100  1.0  -0.1409
  C  C150  1  0.684800  0.432760  0.865500  1.0  -0.0507
  C  C151  1  0.508800  0.407270  0.907100  1.0  0.6629
  C  C152  1  0.200800  0.351510  0.756800  1.0  0.0279
  C  C153  1  0.014400  0.687590  0.680900  1.0  0.0851
  C  C154  1  0.091000  0.552240  0.797800  1.0  -0.0818
  C  C155  1  0.791500  0.427870  0.851000  1.0  -0.1262
  C  C156  1  0.201800  0.556690  0.832300  1.0  -0.1503
  C  C157  1  0.285300  0.410890  0.549500  1.0  -0.1887
  C  C158  1  0.006200  0.358880  0.793600  1.0  0.1536
  C  C159  1  0.002500  0.660440  0.757200  1.0  -0.0586
  C  C160  1  0.026500  0.585790  0.773300  1.0  -0.0927
  C  C161  1  0.071200  0.624050  0.781600  1.0  0.0083
  C  C162  1  0.040300  0.446900  0.971400  1.0  -0.3606
  C  C163  1  0.913100  0.672140  0.805600  1.0  0.1808
  C  C164  1  0.672600  0.362920  0.907600  1.0  -0.0829
  C  C165  1  0.782300  0.358240  0.895000  1.0  -0.1011
  C  C166  1  0.228200  0.378560  0.579700  1.0  0.1942
  C  C167  1  0.330600  0.399240  0.268900  1.0  -0.0621
  C  C168  1  0.315700  0.469180  0.304500  1.0  -0.0685
  C  C169  1  0.247900  0.594330  0.840400  1.0  -0.0371
  C  C170  1  0.317900  0.390320  0.370200  1.0  -0.1357
  C  C171  1  0.874400  0.654390  0.898700  1.0  -0.3956
  C  C172  1  0.299800  0.460430  0.406400  1.0  -0.1332
  C  C173  1  0.182300  0.628240  0.815900  1.0  -0.1185
  C  C174  1  0.397000  0.467970  0.655700  1.0  -0.3852
  C  C175  1  0.094200  0.691150  0.606100  1.0  -0.3873
  C  C176  1  0.956800  0.325360  0.726600  1.0  -0.4274
  C  C177  1  0.159500  0.348000  0.516800  1.0  -0.4095
  C  C178  1  0.699400  0.921150  0.558400  1.0  0.0084
  C  C179  1  0.956500  0.912100  0.101900  1.0  0.1883
  C  C180  1  0.157900  0.890610  0.135800  1.0  -0.0185
  C  C181  1  0.671600  0.930850  0.357700  1.0  0.2978
  C  C182  1  0.654000  0.947800  0.876600  1.0  0.7111
  C  C183  1  0.041800  0.886580  0.148300  1.0  -0.1679
  C  C184  1  0.668900  0.938870  0.765000  1.0  -0.1175
  C  C185  1  0.727000  0.020660  0.135300  1.0  0.6835
  C  C186  1  0.374600  0.900690  0.105900  1.0  -0.141
  C  C187  1  0.315200  0.932760  0.134500  1.0  -0.051
  C  C188  1  0.491200  0.907270  0.092900  1.0  0.6641
  C  C189  1  0.799200  0.851510  0.243200  1.0  0.029
  C  C190  1  0.985600  0.187590  0.319100  1.0  0.0866
  C  C191  1  0.909000  0.052240  0.202200  1.0  -0.082
  C  C192  1  0.208500  0.927870  0.149000  1.0  -0.1258
  C  C193  1  0.798200  0.056690  0.167700  1.0  -0.1497
  C  C194  1  0.714700  0.910890  0.450500  1.0  -0.1892
  C  C195  1  0.993800  0.858880  0.206400  1.0  0.1541
  C  C196  1  0.997500  0.160440  0.242800  1.0  -0.0571
  C  C197  1  0.973500  0.085790  0.226700  1.0  -0.0929
  C  C198  1  0.928800  0.124050  0.218400  1.0  0.0081
  C  C199  1  0.959700  0.946900  0.028600  1.0  -0.3607
  C  C200  1  0.086900  0.172140  0.194400  1.0  0.182
  C  C201  1  0.327400  0.862920  0.092400  1.0  -0.0837
  C  C202  1  0.217700  0.858240  0.105000  1.0  -0.0991
  C  C203  1  0.771800  0.878560  0.420300  1.0  0.194
  C  C204  1  0.669400  0.899240  0.731100  1.0  -0.0617
  C  C205  1  0.684300  0.969180  0.695500  1.0  -0.0685
  C  C206  1  0.752100  0.094330  0.159600  1.0  -0.038
  C  C207  1  0.682100  0.890320  0.629800  1.0  -0.1367
  C  C208  1  0.125600  0.154390  0.101300  1.0  -0.3952
  C  C209  1  0.700200  0.960430  0.593600  1.0  -0.1335
  C  C210  1  0.817700  0.128240  0.184100  1.0  -0.1183
  C  C211  1  0.603000  0.967970  0.344300  1.0  -0.3852
  C  C212  1  0.905800  0.191150  0.393900  1.0  -0.3866
  C  C213  1  0.043200  0.825360  0.273400  1.0  -0.4256
  C  C214  1  0.840500  0.848000  0.483200  1.0  -0.4095
  C  C215  1  0.699400  0.578850  0.558400  1.0  0.009
  C  C216  1  0.956500  0.587900  0.101900  1.0  0.189
  C  C217  1  0.157900  0.609390  0.135800  1.0  -0.0183
  C  C218  1  0.671600  0.569150  0.357700  1.0  0.2977
  C  C219  1  0.654000  0.552200  0.876600  1.0  0.7109
  C  C220  1  0.041800  0.613420  0.148300  1.0  -0.1679
  C  C221  1  0.668900  0.561130  0.765000  1.0  -0.1175
  C  C222  1  0.727000  0.479340  0.135300  1.0  0.6835
  C  C223  1  0.374600  0.599310  0.105900  1.0  -0.1398
  C  C224  1  0.315200  0.567240  0.134500  1.0  -0.0513
  C  C225  1  0.491200  0.592730  0.092900  1.0  0.6646
  C  C226  1  0.799200  0.648490  0.243200  1.0  0.0281
  C  C227  1  0.985600  0.312410  0.319100  1.0  0.0867
  C  C228  1  0.909000  0.447760  0.202200  1.0  -0.0831
  C  C229  1  0.208500  0.572130  0.149000  1.0  -0.1259
  C  C230  1  0.798200  0.443310  0.167700  1.0  -0.1511
  C  C231  1  0.714700  0.589110  0.450500  1.0  -0.1892
  C  C232  1  0.993800  0.641120  0.206400  1.0  0.1537
  C  C233  1  0.997500  0.339560  0.242800  1.0  -0.0576
  C  C234  1  0.973500  0.414210  0.226700  1.0  -0.0926
  C  C235  1  0.928800  0.375950  0.218400  1.0  0.0076
  C  C236  1  0.959700  0.553100  0.028600  1.0  -0.3613
  C  C237  1  0.086900  0.327860  0.194400  1.0  0.1811
  C  C238  1  0.327400  0.637080  0.092400  1.0  -0.0824
  C  C239  1  0.217700  0.641760  0.105000  1.0  -0.099
  C  C240  1  0.771800  0.621440  0.420300  1.0  0.194
  C  C241  1  0.669400  0.600760  0.731100  1.0  -0.0627
  C  C242  1  0.684300  0.530820  0.695500  1.0  -0.0673
  C  C243  1  0.752100  0.405670  0.159600  1.0  -0.0375
  C  C244  1  0.682100  0.609680  0.629800  1.0  -0.1379
  C  C245  1  0.125600  0.345610  0.101300  1.0  -0.396
  C  C246  1  0.700200  0.539570  0.593600  1.0  -0.1333
  C  C247  1  0.817700  0.371760  0.184100  1.0  -0.1184
  C  C248  1  0.603000  0.532030  0.344300  1.0  -0.3862
  C  C249  1  0.905800  0.308850  0.393900  1.0  -0.3871
  C  C250  1  0.043200  0.674640  0.273400  1.0  -0.4246
  C  C251  1  0.840500  0.652000  0.483200  1.0  -0.4093
  C  C252  1  0.300600  0.078850  0.441600  1.0  0.0087
  C  C253  1  0.043500  0.087900  0.898100  1.0  0.1896
  C  C254  1  0.842100  0.109390  0.864200  1.0  -0.0178
  C  C255  1  0.328400  0.069150  0.642300  1.0  0.2977
  C  C256  1  0.346000  0.052200  0.123400  1.0  0.7106
  C  C257  1  0.958200  0.113420  0.851700  1.0  -0.1675
  C  C258  1  0.331100  0.061130  0.235000  1.0  -0.1191
  C  C259  1  0.273000  0.979340  0.864700  1.0  0.6838
  C  C260  1  0.625400  0.099310  0.894100  1.0  -0.1399
  C  C261  1  0.684800  0.067240  0.865500  1.0  -0.0509
  C  C262  1  0.508800  0.092730  0.907100  1.0  0.6628
  C  C263  1  0.200800  0.148490  0.756800  1.0  0.0255
  C  C264  1  0.014400  0.812410  0.680900  1.0  0.0852
  C  C265  1  0.091000  0.947760  0.797800  1.0  -0.0809
  C  C266  1  0.791500  0.072130  0.851000  1.0  -0.1263
  C  C267  1  0.201800  0.943310  0.832300  1.0  -0.15
  C  C268  1  0.285300  0.089110  0.549500  1.0  -0.1888
  C  C269  1  0.006200  0.141120  0.793600  1.0  0.1538
  C  C270  1  0.002500  0.839560  0.757200  1.0  -0.0585
  C  C271  1  0.026500  0.914210  0.773300  1.0  -0.0916
  C  C272  1  0.071200  0.875950  0.781600  1.0  0.0082
  C  C273  1  0.040300  0.053100  0.971400  1.0  -0.361
  C  C274  1  0.913100  0.827860  0.805600  1.0  0.1807
  C  C275  1  0.672600  0.137080  0.907600  1.0  -0.081
  C  C276  1  0.782300  0.141760  0.895000  1.0  -0.1001
  C  C277  1  0.228200  0.121440  0.579700  1.0  0.1943
  C  C278  1  0.330600  0.100760  0.268900  1.0  -0.0622
  C  C279  1  0.315700  0.030820  0.304500  1.0  -0.0679
  C  C280  1  0.247900  0.905670  0.840400  1.0  -0.0373
  C  C281  1  0.317900  0.109680  0.370200  1.0  -0.1374
  C  C282  1  0.874400  0.845610  0.898700  1.0  -0.3943
  C  C283  1  0.299800  0.039570  0.406400  1.0  -0.1327
  C  C284  1  0.182300  0.871760  0.815900  1.0  -0.1187
  C  C285  1  0.397000  0.032030  0.655700  1.0  -0.3859
  C  C286  1  0.094200  0.808850  0.606100  1.0  -0.3873
  C  C287  1  0.956800  0.174640  0.726600  1.0  -0.4255
  C  C288  1  0.159500  0.152000  0.516800  1.0  -0.4099
  C  C289  1  0.907000  0.750000  0.620200  1.0  -0.0042
  C  C290  1  0.093000  0.250000  0.379800  1.0  -0.007
  N  N291  1  0.113300  0.367900  0.804500  1.0  0.134
  N  N292  1  0.299700  0.411760  0.724500  1.0  -0.3897
  N  N293  1  0.239200  0.379560  0.684800  1.0  0.146
  N  N294  1  0.137600  0.400290  0.869200  1.0  -0.3195
  N  N295  1  0.930700  0.714680  0.681100  1.0  0.06
  N  N296  1  0.868700  0.706220  0.758500  1.0  -0.3799
  N  N297  1  0.886700  0.867900  0.195500  1.0  0.1334
  N  N298  1  0.700300  0.911760  0.275500  1.0  -0.3898
  N  N299  1  0.760800  0.879560  0.315200  1.0  0.1447
  N  N300  1  0.862400  0.900290  0.130800  1.0  -0.32
  N  N301  1  0.069300  0.214680  0.318900  1.0  0.0603
  N  N302  1  0.131300  0.206220  0.241500  1.0  -0.379
  N  N303  1  0.886700  0.632100  0.195500  1.0  0.1336
  N  N304  1  0.700300  0.588240  0.275500  1.0  -0.3898
  N  N305  1  0.760800  0.620440  0.315200  1.0  0.1448
  N  N306  1  0.862400  0.599710  0.130800  1.0  -0.3197
  N  N307  1  0.069300  0.285320  0.318900  1.0  0.0621
  N  N308  1  0.131300  0.293780  0.241500  1.0  -0.3791
  N  N309  1  0.113300  0.132100  0.804500  1.0  0.1343
  N  N310  1  0.299700  0.088240  0.724500  1.0  -0.389
  N  N311  1  0.239200  0.120440  0.684800  1.0  0.1461
  N  N312  1  0.137600  0.099710  0.869200  1.0  -0.3189
  N  N313  1  0.930700  0.785320  0.681100  1.0  0.0619
  N  N314  1  0.868700  0.793780  0.758500  1.0  -0.3784
  O  O315  1  0.305100  0.423840  0.055600  1.0  -0.587
  O  O316  1  0.445100  0.378350  0.913000  1.0  -0.6326
  O  O317  1  0.473200  0.443270  0.907100  1.0  -0.6927
  O  O318  1  0.229900  0.486710  0.851000  1.0  -0.6181
  O  O319  1  0.369500  0.527160  0.903100  1.0  -0.6129
  O  O320  1  0.397000  0.478760  0.108300  1.0  -0.5861
  O  O321  1  0.694900  0.923840  0.944400  1.0  -0.5866
  O  O322  1  0.554900  0.878350  0.087000  1.0  -0.631
  O  O323  1  0.526800  0.943270  0.092900  1.0  -0.6932
  O  O324  1  0.770100  0.986710  0.149000  1.0  -0.6179
  O  O325  1  0.630500  0.027160  0.096900  1.0  -0.613
  O  O326  1  0.603000  0.978760  0.891700  1.0  -0.5862
  O  O327  1  0.694900  0.576160  0.944400  1.0  -0.5871
  O  O328  1  0.554900  0.621650  0.087000  1.0  -0.6281
  O  O329  1  0.526800  0.556730  0.092900  1.0  -0.693
  O  O330  1  0.770100  0.513290  0.149000  1.0  -0.6177
  O  O331  1  0.630500  0.472840  0.096900  1.0  -0.6132
  O  O332  1  0.603000  0.521240  0.891700  1.0  -0.5862
  O  O333  1  0.305100  0.076160  0.055600  1.0  -0.5872
  O  O334  1  0.445100  0.121650  0.913000  1.0  -0.6294
  O  O335  1  0.473200  0.056730  0.907100  1.0  -0.692
  O  O336  1  0.229900  0.013290  0.851000  1.0  -0.6174
  O  O337  1  0.369500  0.972840  0.903100  1.0  -0.6128
  O  O338  1  0.397000  0.021240  0.108300  1.0  -0.5861
