# generated using pymatgen
data_MnH22C25(NO)4
_symmetry_space_group_name_H-M   'P 1'
_cell_length_a   16.92930000
_cell_length_b   18.46940000
_cell_length_c   28.34600000
_cell_angle_alpha   90.00000000
_cell_angle_beta   100.62900000
_cell_angle_gamma   90.00000000
_symmetry_Int_Tables_number   1
_chemical_formula_structural   MnH22C25(NO)4
_chemical_formula_sum   'Mn12 H264 C300 N48 O48'
_cell_volume   8710.98628026
_cell_formula_units_Z   12
loop_
 _symmetry_equiv_pos_site_id
 _symmetry_equiv_pos_as_xyz
  1  'x, y, z'
loop_
 _atom_site_type_symbol
 _atom_site_label
 _atom_site_symmetry_multiplicity
 _atom_site_fract_x
 _atom_site_fract_y
 _atom_site_fract_z
 _atom_site_occupancy
 _atom_site_charge
  Mn  Mn1  1  0.217460  0.380040  0.088290  1.0  0.9977
  Mn  Mn2  1  0.717460  0.880040  0.088290  1.0  0.9977
  Mn  Mn3  1  0.782540  0.380040  0.411710  1.0  0.9982
  Mn  Mn4  1  0.282540  0.880040  0.411710  1.0  0.9982
  Mn  Mn5  1  0.782540  0.619960  0.911710  1.0  0.9982
  Mn  Mn6  1  0.282540  0.119960  0.911710  1.0  0.9982
  Mn  Mn7  1  0.217460  0.619960  0.588290  1.0  0.9976
  Mn  Mn8  1  0.717460  0.119960  0.588290  1.0  0.9976
  Mn  Mn9  1  0.250000  0.250000  0.000000  1.0  1.0711
  Mn  Mn10  1  0.750000  0.250000  0.500000  1.0  1.0711
  Mn  Mn11  1  0.750000  0.750000  0.000000  1.0  1.0711
  Mn  Mn12  1  0.250000  0.750000  0.500000  1.0  1.0711
  H  H13  1  0.452400  0.426800  0.059400  1.0  0.1382
  H  H14  1  0.393600  0.485100  0.029500  1.0  0.1376
  H  H15  1  0.359500  0.407700  0.041500  1.0  0.1464
  H  H16  1  0.061000  0.513800  0.035900  1.0  0.1348
  H  H17  1  0.984700  0.505900  0.061600  1.0  0.1121
  H  H18  1  0.039800  0.436900  0.056500  1.0  0.13
  H  H19  1  0.975700  0.777900  0.771700  1.0  0.0983
  H  H20  1  0.613900  0.616500  0.051800  1.0  0.1096
  H  H21  1  0.478700  0.770300  0.100800  1.0  0.0982
  H  H22  1  0.924100  0.730900  0.057800  1.0  0.1015
  H  H23  1  0.282800  0.490300  0.223900  1.0  0.0975
  H  H24  1  0.263100  0.415300  0.195900  1.0  0.1246
  H  H25  1  0.985600  0.603300  0.202300  1.0  0.1043
  H  H26  1  0.539600  0.526700  0.083000  1.0  0.1135
  H  H27  1  0.220800  0.412700  0.891000  1.0  0.0958
  H  H28  1  0.027800  0.647800  0.069700  1.0  0.1212
  H  H29  1  0.881400  0.687700  0.191300  1.0  0.1106
  H  H30  1  0.169700  0.557000  0.986600  1.0  0.1158
  H  H31  1  0.192100  0.498700  0.830000  1.0  0.1077
  H  H32  1  0.942300  0.669900  0.824600  1.0  0.121
  H  H33  1  0.986100  0.602500  0.853900  1.0  0.1178
  H  H34  1  0.952600  0.595400  0.797500  1.0  0.1291
  H  H35  1  0.399400  0.681900  0.125700  1.0  0.1093
  H  H36  1  0.138700  0.643400  0.925500  1.0  0.1137
  H  H37  1  0.291400  0.699800  0.788300  1.0  0.1543
  H  H38  1  0.290100  0.617900  0.806600  1.0  0.1514
  H  H39  1  0.298400  0.683100  0.844300  1.0  0.1568
  H  H40  1  0.440400  0.618800  0.207600  1.0  0.1296
  H  H41  1  0.381600  0.572300  0.233900  1.0  0.1228
  H  H42  1  0.346000  0.635500  0.197600  1.0  0.1313
  H  H43  1  0.163400  0.563700  0.253100  1.0  0.1284
  H  H44  1  0.131100  0.636400  0.225300  1.0  0.1258
  H  H45  1  0.223000  0.612700  0.229000  1.0  0.136
  H  H46  1  0.952400  0.926800  0.059400  1.0  0.1382
  H  H47  1  0.893600  0.985100  0.029500  1.0  0.1376
  H  H48  1  0.859500  0.907700  0.041500  1.0  0.1465
  H  H49  1  0.561000  0.013800  0.035900  1.0  0.1348
  H  H50  1  0.484700  0.005900  0.061600  1.0  0.1121
  H  H51  1  0.539800  0.936900  0.056500  1.0  0.13
  H  H52  1  0.475700  0.277900  0.771700  1.0  0.0983
  H  H53  1  0.113900  0.116500  0.051800  1.0  0.1096
  H  H54  1  0.978700  0.270300  0.100800  1.0  0.0982
  H  H55  1  0.424100  0.230900  0.057800  1.0  0.1015
  H  H56  1  0.782800  0.990300  0.223900  1.0  0.0975
  H  H57  1  0.763100  0.915300  0.195900  1.0  0.1246
  H  H58  1  0.485600  0.103300  0.202300  1.0  0.1043
  H  H59  1  0.039600  0.026700  0.083000  1.0  0.1135
  H  H60  1  0.720800  0.912700  0.891000  1.0  0.0958
  H  H61  1  0.527800  0.147800  0.069700  1.0  0.1212
  H  H62  1  0.381400  0.187700  0.191300  1.0  0.1106
  H  H63  1  0.669700  0.057000  0.986600  1.0  0.1158
  H  H64  1  0.692100  0.998700  0.830000  1.0  0.1077
  H  H65  1  0.442300  0.169900  0.824600  1.0  0.121
  H  H66  1  0.486100  0.102500  0.853900  1.0  0.1178
  H  H67  1  0.452600  0.095400  0.797500  1.0  0.1291
  H  H68  1  0.899400  0.181900  0.125700  1.0  0.1093
  H  H69  1  0.638700  0.143400  0.925500  1.0  0.1137
  H  H70  1  0.791400  0.199800  0.788300  1.0  0.1543
  H  H71  1  0.790100  0.117900  0.806600  1.0  0.1514
  H  H72  1  0.798400  0.183100  0.844300  1.0  0.1568
  H  H73  1  0.940400  0.118800  0.207600  1.0  0.1296
  H  H74  1  0.881600  0.072300  0.233900  1.0  0.1228
  H  H75  1  0.846000  0.135500  0.197600  1.0  0.1313
  H  H76  1  0.663400  0.063700  0.253100  1.0  0.1284
  H  H77  1  0.631100  0.136400  0.225300  1.0  0.1258
  H  H78  1  0.723000  0.112700  0.229000  1.0  0.136
  H  H79  1  0.547600  0.426800  0.440600  1.0  0.1374
  H  H80  1  0.606400  0.485100  0.470500  1.0  0.1377
  H  H81  1  0.640500  0.407700  0.458500  1.0  0.1457
  H  H82  1  0.939000  0.513800  0.464100  1.0  0.1343
  H  H83  1  0.015300  0.505900  0.438400  1.0  0.1151
  H  H84  1  0.960200  0.436900  0.443500  1.0  0.1301
  H  H85  1  0.024300  0.777900  0.728300  1.0  0.0982
  H  H86  1  0.386100  0.616500  0.448200  1.0  0.11
  H  H87  1  0.521300  0.770300  0.399200  1.0  0.0975
  H  H88  1  0.075900  0.730900  0.442200  1.0  0.1016
  H  H89  1  0.717200  0.490300  0.276100  1.0  0.098
  H  H90  1  0.736900  0.415300  0.304100  1.0  0.125
  H  H91  1  0.014400  0.603300  0.297700  1.0  0.1047
  H  H92  1  0.460400  0.526700  0.417000  1.0  0.1133
  H  H93  1  0.779200  0.412700  0.609000  1.0  0.0953
  H  H94  1  0.972200  0.647800  0.430300  1.0  0.121
  H  H95  1  0.118600  0.687700  0.308700  1.0  0.1114
  H  H96  1  0.830300  0.557000  0.513400  1.0  0.1157
  H  H97  1  0.807900  0.498700  0.670000  1.0  0.1077
  H  H98  1  0.057700  0.669900  0.675400  1.0  0.1204
  H  H99  1  0.013900  0.602500  0.646100  1.0  0.1179
  H  H100  1  0.047400  0.595400  0.702500  1.0  0.1296
  H  H101  1  0.600600  0.681900  0.374300  1.0  0.1105
  H  H102  1  0.861300  0.643400  0.574500  1.0  0.1138
  H  H103  1  0.708600  0.699800  0.711700  1.0  0.1544
  H  H104  1  0.709900  0.617900  0.693400  1.0  0.1514
  H  H105  1  0.701600  0.683100  0.655700  1.0  0.1559
  H  H106  1  0.559600  0.618800  0.292400  1.0  0.1276
  H  H107  1  0.618400  0.572300  0.266100  1.0  0.1231
  H  H108  1  0.654000  0.635500  0.302400  1.0  0.1313
  H  H109  1  0.836600  0.563700  0.246900  1.0  0.1276
  H  H110  1  0.868900  0.636400  0.274700  1.0  0.1251
  H  H111  1  0.777000  0.612700  0.271000  1.0  0.1347
  H  H112  1  0.047600  0.926800  0.440600  1.0  0.1374
  H  H113  1  0.106400  0.985100  0.470500  1.0  0.1377
  H  H114  1  0.140500  0.907700  0.458500  1.0  0.1459
  H  H115  1  0.439000  0.013800  0.464100  1.0  0.1343
  H  H116  1  0.515300  0.005900  0.438400  1.0  0.1151
  H  H117  1  0.460200  0.936900  0.443500  1.0  0.1301
  H  H118  1  0.524300  0.277900  0.728300  1.0  0.0982
  H  H119  1  0.886100  0.116500  0.448200  1.0  0.11
  H  H120  1  0.021300  0.270300  0.399200  1.0  0.0975
  H  H121  1  0.575900  0.230900  0.442200  1.0  0.1016
  H  H122  1  0.217200  0.990300  0.276100  1.0  0.098
  H  H123  1  0.236900  0.915300  0.304100  1.0  0.125
  H  H124  1  0.514400  0.103300  0.297700  1.0  0.1047
  H  H125  1  0.960400  0.026700  0.417000  1.0  0.1133
  H  H126  1  0.279200  0.912700  0.609000  1.0  0.0953
  H  H127  1  0.472200  0.147800  0.430300  1.0  0.121
  H  H128  1  0.618600  0.187700  0.308700  1.0  0.1114
  H  H129  1  0.330300  0.057000  0.513400  1.0  0.1157
  H  H130  1  0.307900  0.998700  0.670000  1.0  0.1077
  H  H131  1  0.557700  0.169900  0.675400  1.0  0.1204
  H  H132  1  0.513900  0.102500  0.646100  1.0  0.1179
  H  H133  1  0.547400  0.095400  0.702500  1.0  0.1296
  H  H134  1  0.100600  0.181900  0.374300  1.0  0.1105
  H  H135  1  0.361300  0.143400  0.574500  1.0  0.1138
  H  H136  1  0.208600  0.199800  0.711700  1.0  0.1544
  H  H137  1  0.209900  0.117900  0.693400  1.0  0.1514
  H  H138  1  0.201600  0.183100  0.655700  1.0  0.1559
  H  H139  1  0.059600  0.118800  0.292400  1.0  0.1276
  H  H140  1  0.118400  0.072300  0.266100  1.0  0.1231
  H  H141  1  0.154000  0.135500  0.302400  1.0  0.1313
  H  H142  1  0.336600  0.063700  0.246900  1.0  0.1276
  H  H143  1  0.368900  0.136400  0.274700  1.0  0.1251
  H  H144  1  0.277000  0.112700  0.271000  1.0  0.1347
  H  H145  1  0.547600  0.573200  0.940600  1.0  0.136
  H  H146  1  0.606400  0.514900  0.970500  1.0  0.1383
  H  H147  1  0.640500  0.592300  0.958500  1.0  0.1452
  H  H148  1  0.939000  0.486200  0.964100  1.0  0.1349
  H  H149  1  0.015300  0.494100  0.938400  1.0  0.1152
  H  H150  1  0.960200  0.563100  0.943500  1.0  0.1299
  H  H151  1  0.024300  0.222100  0.228300  1.0  0.0972
  H  H152  1  0.386100  0.383500  0.948200  1.0  0.11
  H  H153  1  0.521300  0.229700  0.899200  1.0  0.0974
  H  H154  1  0.075900  0.269100  0.942200  1.0  0.102
  H  H155  1  0.717200  0.509700  0.776100  1.0  0.0984
  H  H156  1  0.736900  0.584700  0.804100  1.0  0.127
  H  H157  1  0.014400  0.396700  0.797700  1.0  0.1043
  H  H158  1  0.460400  0.473300  0.917000  1.0  0.114
  H  H159  1  0.779200  0.587300  0.109000  1.0  0.0954
  H  H160  1  0.972200  0.352200  0.930300  1.0  0.1213
  H  H161  1  0.118600  0.312300  0.808700  1.0  0.1114
  H  H162  1  0.830300  0.443000  0.013400  1.0  0.1153
  H  H163  1  0.807900  0.501300  0.170000  1.0  0.1074
  H  H164  1  0.057700  0.330100  0.175400  1.0  0.1209
  H  H165  1  0.013900  0.397500  0.146100  1.0  0.1187
  H  H166  1  0.047400  0.404600  0.202500  1.0  0.1295
  H  H167  1  0.600600  0.318100  0.874300  1.0  0.1106
  H  H168  1  0.861300  0.356600  0.074500  1.0  0.1135
  H  H169  1  0.708600  0.300200  0.211700  1.0  0.1549
  H  H170  1  0.709900  0.382100  0.193400  1.0  0.1529
  H  H171  1  0.701600  0.316900  0.155700  1.0  0.1562
  H  H172  1  0.559600  0.381200  0.792400  1.0  0.1265
  H  H173  1  0.618400  0.427700  0.766100  1.0  0.123
  H  H174  1  0.654000  0.364500  0.802400  1.0  0.1308
  H  H175  1  0.836600  0.436300  0.746900  1.0  0.127
  H  H176  1  0.868900  0.363600  0.774700  1.0  0.1263
  H  H177  1  0.777000  0.387300  0.771000  1.0  0.1344
  H  H178  1  0.047600  0.073200  0.940600  1.0  0.136
  H  H179  1  0.106400  0.014900  0.970500  1.0  0.1383
  H  H180  1  0.140500  0.092300  0.958500  1.0  0.1453
  H  H181  1  0.439000  0.986200  0.964100  1.0  0.1349
  H  H182  1  0.515300  0.994100  0.938400  1.0  0.1152
  H  H183  1  0.460200  0.063100  0.943500  1.0  0.1299
  H  H184  1  0.524300  0.722100  0.228300  1.0  0.0972
  H  H185  1  0.886100  0.883500  0.948200  1.0  0.11
  H  H186  1  0.021300  0.729700  0.899200  1.0  0.0974
  H  H187  1  0.575900  0.769100  0.942200  1.0  0.102
  H  H188  1  0.217200  0.009700  0.776100  1.0  0.0984
  H  H189  1  0.236900  0.084700  0.804100  1.0  0.127
  H  H190  1  0.514400  0.896700  0.797700  1.0  0.1043
  H  H191  1  0.960400  0.973300  0.917000  1.0  0.114
  H  H192  1  0.279200  0.087300  0.109000  1.0  0.0954
  H  H193  1  0.472200  0.852200  0.930300  1.0  0.1213
  H  H194  1  0.618600  0.812300  0.808700  1.0  0.1114
  H  H195  1  0.330300  0.943000  0.013400  1.0  0.1153
  H  H196  1  0.307900  0.001300  0.170000  1.0  0.1074
  H  H197  1  0.557700  0.830100  0.175400  1.0  0.1209
  H  H198  1  0.513900  0.897500  0.146100  1.0  0.1187
  H  H199  1  0.547400  0.904600  0.202500  1.0  0.1295
  H  H200  1  0.100600  0.818100  0.874300  1.0  0.1106
  H  H201  1  0.361300  0.856600  0.074500  1.0  0.1135
  H  H202  1  0.208600  0.800200  0.211700  1.0  0.1549
  H  H203  1  0.209900  0.882100  0.193400  1.0  0.1529
  H  H204  1  0.201600  0.816900  0.155700  1.0  0.1562
  H  H205  1  0.059600  0.881200  0.792400  1.0  0.1265
  H  H206  1  0.118400  0.927700  0.766100  1.0  0.123
  H  H207  1  0.154000  0.864500  0.802400  1.0  0.1308
  H  H208  1  0.336600  0.936300  0.746900  1.0  0.127
  H  H209  1  0.368900  0.863600  0.774700  1.0  0.1263
  H  H210  1  0.277000  0.887300  0.771000  1.0  0.1344
  H  H211  1  0.452400  0.573200  0.559400  1.0  0.1383
  H  H212  1  0.393600  0.514900  0.529500  1.0  0.1376
  H  H213  1  0.359500  0.592300  0.541500  1.0  0.146
  H  H214  1  0.061000  0.486200  0.535900  1.0  0.1354
  H  H215  1  0.984700  0.494100  0.561600  1.0  0.1123
  H  H216  1  0.039800  0.563100  0.556500  1.0  0.1299
  H  H217  1  0.975700  0.222100  0.271700  1.0  0.098
  H  H218  1  0.613900  0.383500  0.551800  1.0  0.1096
  H  H219  1  0.478700  0.229700  0.600800  1.0  0.0979
  H  H220  1  0.924100  0.269100  0.557800  1.0  0.1015
  H  H221  1  0.282800  0.509700  0.723900  1.0  0.0974
  H  H222  1  0.263100  0.584700  0.695900  1.0  0.1263
  H  H223  1  0.985600  0.396700  0.702300  1.0  0.1044
  H  H224  1  0.539600  0.473300  0.583000  1.0  0.1137
  H  H225  1  0.220800  0.587300  0.391000  1.0  0.0957
  H  H226  1  0.027800  0.352200  0.569700  1.0  0.1214
  H  H227  1  0.881400  0.312300  0.691300  1.0  0.1105
  H  H228  1  0.169700  0.443000  0.486600  1.0  0.1155
  H  H229  1  0.192100  0.501300  0.330000  1.0  0.1078
  H  H230  1  0.942300  0.330100  0.324600  1.0  0.1208
  H  H231  1  0.986100  0.397500  0.353900  1.0  0.1189
  H  H232  1  0.952600  0.404600  0.297500  1.0  0.1296
  H  H233  1  0.399400  0.318100  0.625700  1.0  0.1092
  H  H234  1  0.138700  0.356600  0.425500  1.0  0.1136
  H  H235  1  0.291400  0.300200  0.288300  1.0  0.1553
  H  H236  1  0.290100  0.382100  0.306600  1.0  0.1525
  H  H237  1  0.298400  0.316900  0.344300  1.0  0.1566
  H  H238  1  0.440400  0.381200  0.707600  1.0  0.1279
  H  H239  1  0.381600  0.427700  0.733900  1.0  0.1225
  H  H240  1  0.346000  0.364500  0.697600  1.0  0.1308
  H  H241  1  0.163400  0.436300  0.753100  1.0  0.1275
  H  H242  1  0.131100  0.363600  0.725300  1.0  0.1265
  H  H243  1  0.223000  0.387300  0.729000  1.0  0.1357
  H  H244  1  0.952400  0.073200  0.559400  1.0  0.1383
  H  H245  1  0.893600  0.014900  0.529500  1.0  0.1376
  H  H246  1  0.859500  0.092300  0.541500  1.0  0.1462
  H  H247  1  0.561000  0.986200  0.535900  1.0  0.1354
  H  H248  1  0.484700  0.994100  0.561600  1.0  0.1123
  H  H249  1  0.539800  0.063100  0.556500  1.0  0.1299
  H  H250  1  0.475700  0.722100  0.271700  1.0  0.098
  H  H251  1  0.113900  0.883500  0.551800  1.0  0.1096
  H  H252  1  0.978700  0.729700  0.600800  1.0  0.0979
  H  H253  1  0.424100  0.769100  0.557800  1.0  0.1015
  H  H254  1  0.782800  0.009700  0.723900  1.0  0.0974
  H  H255  1  0.763100  0.084700  0.695900  1.0  0.1263
  H  H256  1  0.485600  0.896700  0.702300  1.0  0.1044
  H  H257  1  0.039600  0.973300  0.583000  1.0  0.1137
  H  H258  1  0.720800  0.087300  0.391000  1.0  0.0957
  H  H259  1  0.527800  0.852200  0.569700  1.0  0.1214
  H  H260  1  0.381400  0.812300  0.691300  1.0  0.1105
  H  H261  1  0.669700  0.943000  0.486600  1.0  0.1155
  H  H262  1  0.692100  0.001300  0.330000  1.0  0.1078
  H  H263  1  0.442300  0.830100  0.324600  1.0  0.1208
  H  H264  1  0.486100  0.897500  0.353900  1.0  0.1189
  H  H265  1  0.452600  0.904600  0.297500  1.0  0.1296
  H  H266  1  0.899400  0.818100  0.625700  1.0  0.1092
  H  H267  1  0.638700  0.856600  0.425500  1.0  0.1136
  H  H268  1  0.791400  0.800200  0.288300  1.0  0.1553
  H  H269  1  0.790100  0.882100  0.306600  1.0  0.1525
  H  H270  1  0.798400  0.816900  0.344300  1.0  0.1566
  H  H271  1  0.940400  0.881200  0.707600  1.0  0.1279
  H  H272  1  0.881600  0.927700  0.733900  1.0  0.1225
  H  H273  1  0.846000  0.864500  0.697600  1.0  0.1308
  H  H274  1  0.663400  0.936300  0.753100  1.0  0.1275
  H  H275  1  0.631100  0.863600  0.725300  1.0  0.1265
  H  H276  1  0.723000  0.887300  0.729000  1.0  0.1357
  C  C277  1  0.378900  0.475700  0.098800  1.0  0.2611
  C  C278  1  0.397700  0.446300  0.053500  1.0  -0.3836
  C  C279  1  0.039800  0.489400  0.061700  1.0  -0.3672
  C  C280  1  0.211800  0.419100  0.983200  1.0  0.6829
  C  C281  1  0.821600  0.769500  0.114400  1.0  0.6713
  C  C282  1  0.017400  0.616300  0.137100  1.0  0.069
  C  C283  1  0.082300  0.561500  0.142400  1.0  -0.1916
  C  C284  1  0.571600  0.629800  0.067900  1.0  -0.0197
  C  C285  1  0.409500  0.540700  0.123100  1.0  -0.2136
  C  C286  1  0.056200  0.653700  0.813200  1.0  0.1172
  C  C287  1  0.606100  0.758400  0.057600  1.0  0.7036
  C  C288  1  0.490400  0.720800  0.096300  1.0  -0.0445
  C  C289  1  0.145500  0.553200  0.180100  1.0  0.1422
  C  C290  1  0.935800  0.705100  0.087300  1.0  -0.0409
  C  C291  1  0.266500  0.468300  0.191800  1.0  -0.0032
  C  C292  1  0.133700  0.631800  0.832100  1.0  -0.2026
  C  C293  1  0.460900  0.596000  0.106800  1.0  -0.0008
  C  C294  1  0.973100  0.629100  0.172900  1.0  -0.1674
  C  C295  1  0.091800  0.507200  0.109300  1.0  0.2226
  C  C296  1  0.526200  0.576300  0.085500  1.0  -0.0975
  C  C297  1  0.203500  0.459600  0.898300  1.0  -0.005
  C  C298  1  0.157600  0.578500  0.871300  1.0  0.0224
  C  C299  1  0.554500  0.702700  0.074100  1.0  -0.1444
  C  C300  1  0.197100  0.475700  0.944200  1.0  -0.1386
  C  C301  1  0.183300  0.671200  0.806300  1.0  0.2169
  C  C302  1  0.997700  0.655500  0.094400  1.0  -0.1267
  C  C303  1  0.910600  0.679400  0.166200  1.0  -0.0419
  C  C304  1  0.890100  0.718100  0.122500  1.0  -0.1384
  C  C305  1  0.374600  0.544400  0.163500  1.0  0.1445
  C  C306  1  0.173200  0.544500  0.954600  1.0  -0.0957
  C  C307  1  0.185400  0.510600  0.861700  1.0  -0.1112
  C  C308  1  0.977600  0.628200  0.823200  1.0  -0.3866
  C  C309  1  0.443900  0.668300  0.111600  1.0  -0.1272
  C  C310  1  0.154200  0.596000  0.918000  1.0  -0.0924
  C  C311  1  0.273800  0.667700  0.811800  1.0  -0.4164
  C  C312  1  0.386700  0.597300  0.204200  1.0  -0.3956
  C  C313  1  0.167700  0.595100  0.225800  1.0  -0.3887
  C  C314  1  0.878900  0.975700  0.098800  1.0  0.2611
  C  C315  1  0.897700  0.946300  0.053500  1.0  -0.3836
  C  C316  1  0.539800  0.989400  0.061700  1.0  -0.3672
  C  C317  1  0.711800  0.919100  0.983200  1.0  0.6829
  C  C318  1  0.321600  0.269500  0.114400  1.0  0.6713
  C  C319  1  0.517400  0.116300  0.137100  1.0  0.069
  C  C320  1  0.582300  0.061500  0.142400  1.0  -0.1916
  C  C321  1  0.071600  0.129800  0.067900  1.0  -0.0197
  C  C322  1  0.909500  0.040700  0.123100  1.0  -0.2136
  C  C323  1  0.556200  0.153700  0.813200  1.0  0.1172
  C  C324  1  0.106100  0.258400  0.057600  1.0  0.7036
  C  C325  1  0.990400  0.220800  0.096300  1.0  -0.0445
  C  C326  1  0.645500  0.053200  0.180100  1.0  0.1422
  C  C327  1  0.435800  0.205100  0.087300  1.0  -0.0409
  C  C328  1  0.766500  0.968300  0.191800  1.0  -0.0032
  C  C329  1  0.633700  0.131800  0.832100  1.0  -0.2026
  C  C330  1  0.960900  0.096000  0.106800  1.0  -0.0008
  C  C331  1  0.473100  0.129100  0.172900  1.0  -0.1674
  C  C332  1  0.591800  0.007200  0.109300  1.0  0.2226
  C  C333  1  0.026200  0.076300  0.085500  1.0  -0.0975
  C  C334  1  0.703500  0.959600  0.898300  1.0  -0.005
  C  C335  1  0.657600  0.078500  0.871300  1.0  0.0224
  C  C336  1  0.054500  0.202700  0.074100  1.0  -0.1444
  C  C337  1  0.697100  0.975700  0.944200  1.0  -0.1386
  C  C338  1  0.683300  0.171200  0.806300  1.0  0.2169
  C  C339  1  0.497700  0.155500  0.094400  1.0  -0.1267
  C  C340  1  0.410600  0.179400  0.166200  1.0  -0.0419
  C  C341  1  0.390100  0.218100  0.122500  1.0  -0.1384
  C  C342  1  0.874600  0.044400  0.163500  1.0  0.1445
  C  C343  1  0.673200  0.044500  0.954600  1.0  -0.0957
  C  C344  1  0.685400  0.010600  0.861700  1.0  -0.1112
  C  C345  1  0.477600  0.128200  0.823200  1.0  -0.3866
  C  C346  1  0.943900  0.168300  0.111600  1.0  -0.1272
  C  C347  1  0.654200  0.096000  0.918000  1.0  -0.0924
  C  C348  1  0.773800  0.167700  0.811800  1.0  -0.4164
  C  C349  1  0.886700  0.097300  0.204200  1.0  -0.3956
  C  C350  1  0.667700  0.095100  0.225800  1.0  -0.3887
  C  C351  1  0.621100  0.475700  0.401200  1.0  0.2607
  C  C352  1  0.602300  0.446300  0.446500  1.0  -0.383
  C  C353  1  0.960200  0.489400  0.438300  1.0  -0.3679
  C  C354  1  0.788200  0.419100  0.516800  1.0  0.6816
  C  C355  1  0.178400  0.769500  0.385600  1.0  0.6717
  C  C356  1  0.982600  0.616300  0.362900  1.0  0.0681
  C  C357  1  0.917700  0.561500  0.357600  1.0  -0.193
  C  C358  1  0.428400  0.629800  0.432100  1.0  -0.0191
  C  C359  1  0.590500  0.540700  0.376900  1.0  -0.2139
  C  C360  1  0.943800  0.653700  0.686800  1.0  0.1176
  C  C361  1  0.393900  0.758400  0.442400  1.0  0.7042
  C  C362  1  0.509600  0.720800  0.403700  1.0  -0.045
  C  C363  1  0.854500  0.553200  0.319900  1.0  0.1421
  C  C364  1  0.064200  0.705100  0.412700  1.0  -0.0419
  C  C365  1  0.733500  0.468300  0.308200  1.0  -0.0011
  C  C366  1  0.866300  0.631800  0.667900  1.0  -0.2017
  C  C367  1  0.539100  0.596000  0.393200  1.0  -0.0006
  C  C368  1  0.026900  0.629100  0.327100  1.0  -0.1675
  C  C369  1  0.908200  0.507200  0.390700  1.0  0.2215
  C  C370  1  0.473800  0.576300  0.414500  1.0  -0.0979
  C  C371  1  0.796500  0.459600  0.601700  1.0  -0.0048
  C  C372  1  0.842400  0.578500  0.628700  1.0  0.0229
  C  C373  1  0.445500  0.702700  0.425900  1.0  -0.1441
  C  C374  1  0.802900  0.475700  0.555800  1.0  -0.1405
  C  C375  1  0.816700  0.671200  0.693700  1.0  0.2163
  C  C376  1  0.002300  0.655500  0.405600  1.0  -0.1272
  C  C377  1  0.089400  0.679400  0.333800  1.0  -0.0416
  C  C378  1  0.109900  0.718100  0.377500  1.0  -0.1393
  C  C379  1  0.625400  0.544400  0.336500  1.0  0.1444
  C  C380  1  0.826800  0.544500  0.545400  1.0  -0.0934
  C  C381  1  0.814600  0.510600  0.638300  1.0  -0.1107
  C  C382  1  0.022400  0.628200  0.676800  1.0  -0.3871
  C  C383  1  0.556100  0.668300  0.388400  1.0  -0.1294
  C  C384  1  0.845800  0.596000  0.582000  1.0  -0.0921
  C  C385  1  0.726200  0.667700  0.688200  1.0  -0.4168
  C  C386  1  0.613300  0.597300  0.295800  1.0  -0.3953
  C  C387  1  0.832300  0.595100  0.274200  1.0  -0.3905
  C  C388  1  0.121100  0.975700  0.401200  1.0  0.2607
  C  C389  1  0.102300  0.946300  0.446500  1.0  -0.383
  C  C390  1  0.460200  0.989400  0.438300  1.0  -0.3679
  C  C391  1  0.288200  0.919100  0.516800  1.0  0.6816
  C  C392  1  0.678400  0.269500  0.385600  1.0  0.6717
  C  C393  1  0.482600  0.116300  0.362900  1.0  0.0681
  C  C394  1  0.417700  0.061500  0.357600  1.0  -0.193
  C  C395  1  0.928400  0.129800  0.432100  1.0  -0.0191
  C  C396  1  0.090500  0.040700  0.376900  1.0  -0.2139
  C  C397  1  0.443800  0.153700  0.686800  1.0  0.1176
  C  C398  1  0.893900  0.258400  0.442400  1.0  0.7042
  C  C399  1  0.009600  0.220800  0.403700  1.0  -0.045
  C  C400  1  0.354500  0.053200  0.319900  1.0  0.1421
  C  C401  1  0.564200  0.205100  0.412700  1.0  -0.0419
  C  C402  1  0.233500  0.968300  0.308200  1.0  -0.0011
  C  C403  1  0.366300  0.131800  0.667900  1.0  -0.2017
  C  C404  1  0.039100  0.096000  0.393200  1.0  -0.0006
  C  C405  1  0.526900  0.129100  0.327100  1.0  -0.1675
  C  C406  1  0.408200  0.007200  0.390700  1.0  0.2215
  C  C407  1  0.973800  0.076300  0.414500  1.0  -0.0979
  C  C408  1  0.296500  0.959600  0.601700  1.0  -0.0048
  C  C409  1  0.342400  0.078500  0.628700  1.0  0.0229
  C  C410  1  0.945500  0.202700  0.425900  1.0  -0.1441
  C  C411  1  0.302900  0.975700  0.555800  1.0  -0.1405
  C  C412  1  0.316700  0.171200  0.693700  1.0  0.2163
  C  C413  1  0.502300  0.155500  0.405600  1.0  -0.1272
  C  C414  1  0.589400  0.179400  0.333800  1.0  -0.0416
  C  C415  1  0.609900  0.218100  0.377500  1.0  -0.1393
  C  C416  1  0.125400  0.044400  0.336500  1.0  0.1444
  C  C417  1  0.326800  0.044500  0.545400  1.0  -0.0934
  C  C418  1  0.314600  0.010600  0.638300  1.0  -0.1107
  C  C419  1  0.522400  0.128200  0.676800  1.0  -0.3871
  C  C420  1  0.056100  0.168300  0.388400  1.0  -0.1294
  C  C421  1  0.345800  0.096000  0.582000  1.0  -0.0921
  C  C422  1  0.226200  0.167700  0.688200  1.0  -0.4168
  C  C423  1  0.113300  0.097300  0.295800  1.0  -0.3953
  C  C424  1  0.332300  0.095100  0.274200  1.0  -0.3905
  C  C425  1  0.621100  0.524300  0.901200  1.0  0.2612
  C  C426  1  0.602300  0.553700  0.946500  1.0  -0.3828
  C  C427  1  0.960200  0.510600  0.938300  1.0  -0.3679
  C  C428  1  0.788200  0.580900  0.016800  1.0  0.6823
  C  C429  1  0.178400  0.230500  0.885600  1.0  0.6711
  C  C430  1  0.982600  0.383700  0.862900  1.0  0.0681
  C  C431  1  0.917700  0.438500  0.857600  1.0  -0.1929
  C  C432  1  0.428400  0.370200  0.932100  1.0  -0.0195
  C  C433  1  0.590500  0.459300  0.876900  1.0  -0.2139
  C  C434  1  0.943800  0.346300  0.186800  1.0  0.1178
  C  C435  1  0.393900  0.241600  0.942400  1.0  0.7036
  C  C436  1  0.509600  0.279200  0.903700  1.0  -0.0452
  C  C437  1  0.854500  0.446800  0.819900  1.0  0.1425
  C  C438  1  0.064200  0.294900  0.912700  1.0  -0.0421
  C  C439  1  0.733500  0.531700  0.808200  1.0  1e-04
  C  C440  1  0.866300  0.368200  0.167900  1.0  -0.2015
  C  C441  1  0.539100  0.404000  0.893200  1.0  -0.0008
  C  C442  1  0.026900  0.370900  0.827100  1.0  -0.1671
  C  C443  1  0.908200  0.492800  0.890700  1.0  0.2219
  C  C444  1  0.473800  0.423700  0.914500  1.0  -0.0983
  C  C445  1  0.796500  0.540400  0.101700  1.0  -0.0042
  C  C446  1  0.842400  0.421500  0.128700  1.0  0.0229
  C  C447  1  0.445500  0.297300  0.925900  1.0  -0.1438
  C  C448  1  0.802900  0.524300  0.055800  1.0  -0.1398
  C  C449  1  0.816700  0.328800  0.193700  1.0  0.2164
  C  C450  1  0.002300  0.344500  0.905600  1.0  -0.1264
  C  C451  1  0.089400  0.320600  0.833800  1.0  -0.0438
  C  C452  1  0.109900  0.281900  0.877500  1.0  -0.141
  C  C453  1  0.625400  0.455600  0.836500  1.0  0.1442
  C  C454  1  0.826800  0.455500  0.045400  1.0  -0.0935
  C  C455  1  0.814600  0.489400  0.138300  1.0  -0.1105
  C  C456  1  0.022400  0.371800  0.176800  1.0  -0.3868
  C  C457  1  0.556100  0.331700  0.888400  1.0  -0.1292
  C  C458  1  0.845800  0.404000  0.082000  1.0  -0.0948
  C  C459  1  0.726200  0.332300  0.188200  1.0  -0.4166
  C  C460  1  0.613300  0.402700  0.795800  1.0  -0.3953
  C  C461  1  0.832300  0.404900  0.774200  1.0  -0.3914
  C  C462  1  0.121100  0.024300  0.901200  1.0  0.2612
  C  C463  1  0.102300  0.053700  0.946500  1.0  -0.3828
  C  C464  1  0.460200  0.010600  0.938300  1.0  -0.3679
  C  C465  1  0.288200  0.080900  0.016800  1.0  0.6823
  C  C466  1  0.678400  0.730500  0.885600  1.0  0.6711
  C  C467  1  0.482600  0.883700  0.862900  1.0  0.0681
  C  C468  1  0.417700  0.938500  0.857600  1.0  -0.1929
  C  C469  1  0.928400  0.870200  0.932100  1.0  -0.0195
  C  C470  1  0.090500  0.959300  0.876900  1.0  -0.2139
  C  C471  1  0.443800  0.846300  0.186800  1.0  0.1178
  C  C472  1  0.893900  0.741600  0.942400  1.0  0.7036
  C  C473  1  0.009600  0.779200  0.903700  1.0  -0.0452
  C  C474  1  0.354500  0.946800  0.819900  1.0  0.1425
  C  C475  1  0.564200  0.794900  0.912700  1.0  -0.0421
  C  C476  1  0.233500  0.031700  0.808200  1.0  1e-04
  C  C477  1  0.366300  0.868200  0.167900  1.0  -0.2015
  C  C478  1  0.039100  0.904000  0.893200  1.0  -0.0008
  C  C479  1  0.526900  0.870900  0.827100  1.0  -0.1671
  C  C480  1  0.408200  0.992800  0.890700  1.0  0.2219
  C  C481  1  0.973800  0.923700  0.914500  1.0  -0.0983
  C  C482  1  0.296500  0.040400  0.101700  1.0  -0.0042
  C  C483  1  0.342400  0.921500  0.128700  1.0  0.0229
  C  C484  1  0.945500  0.797300  0.925900  1.0  -0.1438
  C  C485  1  0.302900  0.024300  0.055800  1.0  -0.1398
  C  C486  1  0.316700  0.828800  0.193700  1.0  0.2164
  C  C487  1  0.502300  0.844500  0.905600  1.0  -0.1264
  C  C488  1  0.589400  0.820600  0.833800  1.0  -0.0438
  C  C489  1  0.609900  0.781900  0.877500  1.0  -0.141
  C  C490  1  0.125400  0.955600  0.836500  1.0  0.1442
  C  C491  1  0.326800  0.955500  0.045400  1.0  -0.0935
  C  C492  1  0.314600  0.989400  0.138300  1.0  -0.1105
  C  C493  1  0.522400  0.871800  0.176800  1.0  -0.3868
  C  C494  1  0.056100  0.831700  0.888400  1.0  -0.1292
  C  C495  1  0.345800  0.904000  0.082000  1.0  -0.0948
  C  C496  1  0.226200  0.832300  0.188200  1.0  -0.4166
  C  C497  1  0.113300  0.902700  0.795800  1.0  -0.3953
  C  C498  1  0.332300  0.904900  0.774200  1.0  -0.3914
  C  C499  1  0.378900  0.524300  0.598800  1.0  0.2613
  C  C500  1  0.397700  0.553700  0.553500  1.0  -0.3837
  C  C501  1  0.039800  0.510600  0.561700  1.0  -0.3674
  C  C502  1  0.211800  0.580900  0.483200  1.0  0.6835
  C  C503  1  0.821600  0.230500  0.614400  1.0  0.6709
  C  C504  1  0.017400  0.383700  0.637100  1.0  0.0696
  C  C505  1  0.082300  0.438500  0.642400  1.0  -0.1919
  C  C506  1  0.571600  0.370200  0.567900  1.0  -0.0201
  C  C507  1  0.409500  0.459300  0.623100  1.0  -0.2138
  C  C508  1  0.056200  0.346300  0.313200  1.0  0.1172
  C  C509  1  0.606100  0.241600  0.557600  1.0  0.7031
  C  C510  1  0.490400  0.279200  0.596300  1.0  -0.0445
  C  C511  1  0.145500  0.446800  0.680100  1.0  0.1422
  C  C512  1  0.935800  0.294900  0.587300  1.0  -0.0409
  C  C513  1  0.266500  0.531700  0.691800  1.0  -0.0028
  C  C514  1  0.133700  0.368200  0.332100  1.0  -0.2028
  C  C515  1  0.460900  0.404000  0.606800  1.0  -0.0009
  C  C516  1  0.973100  0.370900  0.672900  1.0  -0.1676
  C  C517  1  0.091800  0.492800  0.609300  1.0  0.2226
  C  C518  1  0.526200  0.423700  0.585500  1.0  -0.0979
  C  C519  1  0.203500  0.540400  0.398300  1.0  -0.0037
  C  C520  1  0.157600  0.421500  0.371300  1.0  0.0221
  C  C521  1  0.554500  0.297300  0.574100  1.0  -0.144
  C  C522  1  0.197100  0.524300  0.444200  1.0  -0.1383
  C  C523  1  0.183300  0.328800  0.306300  1.0  0.2168
  C  C524  1  0.997700  0.344500  0.594400  1.0  -0.1255
  C  C525  1  0.910600  0.320600  0.666200  1.0  -0.0432
  C  C526  1  0.890100  0.281900  0.622500  1.0  -0.1385
  C  C527  1  0.374600  0.455600  0.663500  1.0  0.1442
  C  C528  1  0.173200  0.455500  0.454600  1.0  -0.0963
  C  C529  1  0.185400  0.489400  0.361700  1.0  -0.1115
  C  C530  1  0.977600  0.371800  0.323200  1.0  -0.3867
  C  C531  1  0.443900  0.331700  0.611600  1.0  -0.1271
  C  C532  1  0.154200  0.404000  0.418000  1.0  -0.0944
  C  C533  1  0.273800  0.332300  0.311800  1.0  -0.4164
  C  C534  1  0.386700  0.402700  0.704200  1.0  -0.3964
  C  C535  1  0.167700  0.404900  0.725800  1.0  -0.3897
  C  C536  1  0.878900  0.024300  0.598800  1.0  0.2613
  C  C537  1  0.897700  0.053700  0.553500  1.0  -0.3837
  C  C538  1  0.539800  0.010600  0.561700  1.0  -0.3674
  C  C539  1  0.711800  0.080900  0.483200  1.0  0.6835
  C  C540  1  0.321600  0.730500  0.614400  1.0  0.6709
  C  C541  1  0.517400  0.883700  0.637100  1.0  0.0696
  C  C542  1  0.582300  0.938500  0.642400  1.0  -0.1919
  C  C543  1  0.071600  0.870200  0.567900  1.0  -0.0201
  C  C544  1  0.909500  0.959300  0.623100  1.0  -0.2138
  C  C545  1  0.556200  0.846300  0.313200  1.0  0.1172
  C  C546  1  0.106100  0.741600  0.557600  1.0  0.7031
  C  C547  1  0.990400  0.779200  0.596300  1.0  -0.0445
  C  C548  1  0.645500  0.946800  0.680100  1.0  0.1422
  C  C549  1  0.435800  0.794900  0.587300  1.0  -0.0409
  C  C550  1  0.766500  0.031700  0.691800  1.0  -0.0028
  C  C551  1  0.633700  0.868200  0.332100  1.0  -0.2028
  C  C552  1  0.960900  0.904000  0.606800  1.0  -0.0009
  C  C553  1  0.473100  0.870900  0.672900  1.0  -0.1676
  C  C554  1  0.591800  0.992800  0.609300  1.0  0.2226
  C  C555  1  0.026200  0.923700  0.585500  1.0  -0.0979
  C  C556  1  0.703500  0.040400  0.398300  1.0  -0.0037
  C  C557  1  0.657600  0.921500  0.371300  1.0  0.0221
  C  C558  1  0.054500  0.797300  0.574100  1.0  -0.144
  C  C559  1  0.697100  0.024300  0.444200  1.0  -0.1383
  C  C560  1  0.683300  0.828800  0.306300  1.0  0.2168
  C  C561  1  0.497700  0.844500  0.594400  1.0  -0.1255
  C  C562  1  0.410600  0.820600  0.666200  1.0  -0.0432
  C  C563  1  0.390100  0.781900  0.622500  1.0  -0.1385
  C  C564  1  0.874600  0.955600  0.663500  1.0  0.1442
  C  C565  1  0.673200  0.955500  0.454600  1.0  -0.0963
  C  C566  1  0.685400  0.989400  0.361700  1.0  -0.1115
  C  C567  1  0.477600  0.871800  0.323200  1.0  -0.3867
  C  C568  1  0.943900  0.831700  0.611600  1.0  -0.1271
  C  C569  1  0.654200  0.904000  0.418000  1.0  -0.0944
  C  C570  1  0.773800  0.832300  0.311800  1.0  -0.4164
  C  C571  1  0.886700  0.902700  0.704200  1.0  -0.3964
  C  C572  1  0.667700  0.904900  0.725800  1.0  -0.3897
  C  C573  1  0.000000  0.746300  0.750000  1.0  0.064
  C  C574  1  0.500000  0.246300  0.750000  1.0  0.064
  C  C575  1  0.000000  0.253700  0.250000  1.0  0.0642
  C  C576  1  0.500000  0.753700  0.250000  1.0  0.0642
  N  N577  1  0.188000  0.496200  0.169400  1.0  0.1385
  N  N578  1  0.062100  0.703000  0.778200  1.0  0.0883
  N  N579  1  0.326200  0.484600  0.162700  1.0  0.0581
  N  N580  1  0.326900  0.443700  0.122500  1.0  -0.3745
  N  N581  1  0.156200  0.466200  0.125500  1.0  -0.3636
  N  N582  1  0.139600  0.714400  0.773500  1.0  -0.3828
  N  N583  1  0.688000  0.996200  0.169400  1.0  0.1385
  N  N584  1  0.562100  0.203000  0.778200  1.0  0.0883
  N  N585  1  0.826200  0.984600  0.162700  1.0  0.0581
  N  N586  1  0.826900  0.943700  0.122500  1.0  -0.3745
  N  N587  1  0.656200  0.966200  0.125500  1.0  -0.3636
  N  N588  1  0.639600  0.214400  0.773500  1.0  -0.3828
  N  N589  1  0.812000  0.496200  0.330600  1.0  0.1375
  N  N590  1  0.937900  0.703000  0.721800  1.0  0.0887
  N  N591  1  0.673800  0.484600  0.337300  1.0  0.0578
  N  N592  1  0.673100  0.443700  0.377500  1.0  -0.3743
  N  N593  1  0.843800  0.466200  0.374500  1.0  -0.3631
  N  N594  1  0.860400  0.714400  0.726500  1.0  -0.3826
  N  N595  1  0.312000  0.996200  0.330600  1.0  0.1375
  N  N596  1  0.437900  0.203000  0.721800  1.0  0.0887
  N  N597  1  0.173800  0.984600  0.337300  1.0  0.0578
  N  N598  1  0.173100  0.943700  0.377500  1.0  -0.3743
  N  N599  1  0.343800  0.966200  0.374500  1.0  -0.3631
  N  N600  1  0.360400  0.214400  0.726500  1.0  -0.3826
  N  N601  1  0.812000  0.503800  0.830600  1.0  0.1381
  N  N602  1  0.937900  0.297000  0.221800  1.0  0.089
  N  N603  1  0.673800  0.515400  0.837300  1.0  0.0587
  N  N604  1  0.673100  0.556300  0.877500  1.0  -0.375
  N  N605  1  0.843800  0.533800  0.874500  1.0  -0.3641
  N  N606  1  0.860400  0.285600  0.226500  1.0  -0.3808
  N  N607  1  0.312000  0.003800  0.830600  1.0  0.1381
  N  N608  1  0.437900  0.797000  0.221800  1.0  0.089
  N  N609  1  0.173800  0.015400  0.837300  1.0  0.0587
  N  N610  1  0.173100  0.056300  0.877500  1.0  -0.375
  N  N611  1  0.343800  0.033800  0.874500  1.0  -0.3641
  N  N612  1  0.360400  0.785600  0.226500  1.0  -0.3808
  N  N613  1  0.188000  0.503800  0.669400  1.0  0.1389
  N  N614  1  0.062100  0.297000  0.278200  1.0  0.0886
  N  N615  1  0.326200  0.515400  0.662700  1.0  0.0582
  N  N616  1  0.326900  0.556300  0.622500  1.0  -0.3747
  N  N617  1  0.156200  0.533800  0.625500  1.0  -0.364
  N  N618  1  0.139600  0.285600  0.273500  1.0  -0.3818
  N  N619  1  0.688000  0.003800  0.669400  1.0  0.1389
  N  N620  1  0.562100  0.797000  0.278200  1.0  0.0886
  N  N621  1  0.826200  0.015400  0.662700  1.0  0.0582
  N  N622  1  0.826900  0.056300  0.622500  1.0  -0.3747
  N  N623  1  0.656200  0.033800  0.625500  1.0  -0.364
  N  N624  1  0.639600  0.785600  0.273500  1.0  -0.3818
  O  O625  1  0.800000  0.795000  0.072150  1.0  -0.6645
  O  O626  1  0.786000  0.787700  0.147530  1.0  -0.6119
  O  O627  1  0.614300  0.817200  0.081100  1.0  -0.5769
  O  O628  1  0.638500  0.744400  0.022410  1.0  -0.6098
  O  O629  1  0.201200  0.437100  0.024370  1.0  -0.5995
  O  O630  1  0.234400  0.358000  0.971350  1.0  -0.6013
  O  O631  1  0.300000  0.295000  0.072150  1.0  -0.6645
  O  O632  1  0.286000  0.287700  0.147530  1.0  -0.6119
  O  O633  1  0.114300  0.317200  0.081100  1.0  -0.5769
  O  O634  1  0.138500  0.244400  0.022410  1.0  -0.6098
  O  O635  1  0.701200  0.937100  0.024370  1.0  -0.5995
  O  O636  1  0.734400  0.858000  0.971350  1.0  -0.6013
  O  O637  1  0.200000  0.795000  0.427850  1.0  -0.6646
  O  O638  1  0.214000  0.787700  0.352470  1.0  -0.6089
  O  O639  1  0.385700  0.817200  0.418900  1.0  -0.5766
  O  O640  1  0.361500  0.744400  0.477590  1.0  -0.6095
  O  O641  1  0.798800  0.437100  0.475630  1.0  -0.6005
  O  O642  1  0.765600  0.358000  0.528650  1.0  -0.6018
  O  O643  1  0.700000  0.295000  0.427850  1.0  -0.6646
  O  O644  1  0.714000  0.287700  0.352470  1.0  -0.6089
  O  O645  1  0.885700  0.317200  0.418900  1.0  -0.5766
  O  O646  1  0.861500  0.244400  0.477590  1.0  -0.6095
  O  O647  1  0.298800  0.937100  0.475630  1.0  -0.6005
  O  O648  1  0.265600  0.858000  0.528650  1.0  -0.6018
  O  O649  1  0.200000  0.205000  0.927850  1.0  -0.6644
  O  O650  1  0.214000  0.212300  0.852470  1.0  -0.6089
  O  O651  1  0.385700  0.182800  0.918900  1.0  -0.5769
  O  O652  1  0.361500  0.255600  0.977590  1.0  -0.6097
  O  O653  1  0.798800  0.562900  0.975630  1.0  -0.6005
  O  O654  1  0.765600  0.642000  0.028650  1.0  -0.6013
  O  O655  1  0.700000  0.705000  0.927850  1.0  -0.6644
  O  O656  1  0.714000  0.712300  0.852470  1.0  -0.6089
  O  O657  1  0.885700  0.682800  0.918900  1.0  -0.5769
  O  O658  1  0.861500  0.755600  0.977590  1.0  -0.6097
  O  O659  1  0.298800  0.062900  0.975630  1.0  -0.6005
  O  O660  1  0.265600  0.142000  0.028650  1.0  -0.6013
  O  O661  1  0.800000  0.205000  0.572150  1.0  -0.6646
  O  O662  1  0.786000  0.212300  0.647530  1.0  -0.6115
  O  O663  1  0.614300  0.182800  0.581100  1.0  -0.5773
  O  O664  1  0.638500  0.255600  0.522410  1.0  -0.6097
  O  O665  1  0.201200  0.562900  0.524370  1.0  -0.5994
  O  O666  1  0.234400  0.642000  0.471350  1.0  -0.6008
  O  O667  1  0.300000  0.705000  0.572150  1.0  -0.6646
  O  O668  1  0.286000  0.712300  0.647530  1.0  -0.6115
  O  O669  1  0.114300  0.682800  0.581100  1.0  -0.5773
  O  O670  1  0.138500  0.755600  0.522410  1.0  -0.6097
  O  O671  1  0.701200  0.062900  0.524370  1.0  -0.5994
  O  O672  1  0.734400  0.142000  0.471350  1.0  -0.6008
