# generated using pymatgen
data_MnAl3(PO4)4
_symmetry_space_group_name_H-M   'P 1'
_cell_length_a   12.74600000
_cell_length_b   12.74600000
_cell_length_c   9.14000000
_cell_angle_alpha   90.00000000
_cell_angle_beta   90.00000000
_cell_angle_gamma   120.00000000
_symmetry_Int_Tables_number   1
_chemical_formula_structural   MnAl3(PO4)4
_chemical_formula_sum   'Mn2 Al6 P8 O32'
_cell_volume   1285.95169647
_cell_formula_units_Z   2
loop_
 _symmetry_equiv_pos_site_id
 _symmetry_equiv_pos_as_xyz
  1  'x, y, z'
loop_
 _atom_site_type_symbol
 _atom_site_label
 _atom_site_symmetry_multiplicity
 _atom_site_fract_x
 _atom_site_fract_y
 _atom_site_fract_z
 _atom_site_occupancy
 _atom_site_charge
  Mn  Mn1  1  0.666667  0.333333  0.821700  1.0  1.0289
  Mn  Mn2  1  0.333333  0.666667  0.178300  1.0  1.0303
  Al  Al3  1  0.673200  0.530400  0.417200  1.0  1.9684
  Al  Al4  1  0.469600  0.142800  0.417200  1.0  1.9677
  Al  Al5  1  0.857200  0.326800  0.417200  1.0  1.9678
  Al  Al6  1  0.326800  0.469600  0.582800  1.0  1.9685
  Al  Al7  1  0.530400  0.857200  0.582800  1.0  1.968
  Al  Al8  1  0.142800  0.673200  0.582800  1.0  1.9678
  P  P9  1  0.455300  0.321700  0.617600  1.0  1.9089
  P  P10  1  0.678300  0.133600  0.617600  1.0  1.9152
  P  P11  1  0.866400  0.544700  0.617600  1.0  1.9165
  P  P12  1  0.544700  0.678300  0.382400  1.0  1.9155
  P  P13  1  0.321700  0.866400  0.382400  1.0  1.908
  P  P14  1  0.133600  0.455300  0.382400  1.0  1.9158
  P  P15  1  0.666667  0.333333  0.201900  1.0  1.8378
  P  P16  1  0.333333  0.666667  0.798100  1.0  1.8363
  O  O17  1  0.559700  0.421400  0.530200  1.0  -1.0397
  O  O18  1  0.399800  0.207800  0.522900  1.0  -0.8631
  O  O19  1  0.360300  0.359300  0.641700  1.0  -0.9318
  O  O20  1  0.680900  0.452500  0.260000  1.0  -1.0016
  O  O21  1  0.500500  0.305100  0.761700  1.0  -0.7405
  O  O22  1  0.578600  0.138300  0.530200  1.0  -1.0397
  O  O23  1  0.792200  0.192000  0.522900  1.0  -0.863
  O  O24  1  0.640700  0.001000  0.641700  1.0  -0.9318
  O  O25  1  0.547500  0.228400  0.260000  1.0  -0.9987
  O  O26  1  0.694900  0.195400  0.761700  1.0  -0.7374
  O  O27  1  0.861700  0.440300  0.530200  1.0  -1.038
  O  O28  1  0.808000  0.600200  0.522900  1.0  -0.8644
  O  O29  1  0.999000  0.639700  0.641700  1.0  -0.934
  O  O30  1  0.771600  0.319100  0.260000  1.0  -0.9984
  O  O31  1  0.804600  0.499500  0.761700  1.0  -0.7386
  O  O32  1  0.440300  0.578600  0.469800  1.0  -1.0389
  O  O33  1  0.600200  0.792200  0.477100  1.0  -0.8636
  O  O34  1  0.639700  0.640700  0.358300  1.0  -0.9311
  O  O35  1  0.319100  0.547500  0.740000  1.0  -1.0018
  O  O36  1  0.499500  0.694900  0.238300  1.0  -0.7408
  O  O37  1  0.421400  0.861700  0.469800  1.0  -1.04
  O  O38  1  0.207800  0.808000  0.477100  1.0  -0.8604
  O  O39  1  0.359300  0.999000  0.358300  1.0  -0.9307
  O  O40  1  0.452500  0.771600  0.740000  1.0  -1.0001
  O  O41  1  0.305100  0.804600  0.238300  1.0  -0.7408
  O  O42  1  0.138300  0.559700  0.469800  1.0  -1.0392
  O  O43  1  0.192000  0.399800  0.477100  1.0  -0.8656
  O  O44  1  0.001000  0.360300  0.358300  1.0  -0.9333
  O  O45  1  0.228400  0.680900  0.740000  1.0  -1.0006
  O  O46  1  0.195400  0.500500  0.238300  1.0  -0.7397
  O  O47  1  0.666667  0.333333  0.040900  1.0  -0.7862
  O  O48  1  0.333333  0.666667  0.959100  1.0  -0.7878
