# generated using pymatgen
data_MgH5C15NO6
_symmetry_space_group_name_H-M   'P 1'
_cell_length_a   34.34130000
_cell_length_b   10.04470000
_cell_length_c   17.73820000
_cell_angle_alpha   90.00000000
_cell_angle_beta   96.23400000
_cell_angle_gamma   90.00000000
_symmetry_Int_Tables_number   1
_chemical_formula_structural   MgH5C15NO6
_chemical_formula_sum   'Mg8 H40 C120 N8 O48'
_cell_volume   6082.57556460
_cell_formula_units_Z   8
loop_
 _symmetry_equiv_pos_site_id
 _symmetry_equiv_pos_as_xyz
  1  'x, y, z'
loop_
 _atom_site_type_symbol
 _atom_site_label
 _atom_site_symmetry_multiplicity
 _atom_site_fract_x
 _atom_site_fract_y
 _atom_site_fract_z
 _atom_site_occupancy
 _atom_site_charge
  Mg  Mg1  1  0.225810  0.937870  0.236810  1.0  1.5157
  Mg  Mg2  1  0.303570  0.717350  0.276170  1.0  1.5163
  Mg  Mg3  1  0.774190  0.937870  0.263190  1.0  1.515
  Mg  Mg4  1  0.696430  0.717350  0.223830  1.0  1.5154
  Mg  Mg5  1  0.774190  0.062130  0.763190  1.0  1.5151
  Mg  Mg6  1  0.696430  0.282650  0.723830  1.0  1.5166
  Mg  Mg7  1  0.225810  0.062130  0.736810  1.0  1.5158
  Mg  Mg8  1  0.303570  0.282650  0.776170  1.0  1.5188
  H  H9  1  0.248300  0.034000  0.496600  1.0  0.0962
  H  H10  1  0.128700  0.240200  0.148600  1.0  0.1122
  H  H11  1  0.356500  0.108600  0.598900  1.0  0.1089
  H  H12  1  0.229300  0.394800  0.245100  1.0  0.097
  H  H13  1  0.141000  0.635800  0.166800  1.0  0.0948
  H  H14  1  0.341100  0.951500  0.396600  1.0  0.2072
  H  H15  1  0.989800  0.454100  0.187500  1.0  0.081
  H  H16  1  0.073200  0.529700  0.885800  1.0  0.0952
  H  H17  1  0.532700  0.264200  0.411900  1.0  0.0886
  H  H18  1  0.465100  0.236900  0.374600  1.0  0.0946
  H  H19  1  0.751700  0.034000  0.003400  1.0  0.0978
  H  H20  1  0.871300  0.240200  0.351400  1.0  0.1122
  H  H21  1  0.643500  0.108600  0.901100  1.0  0.1093
  H  H22  1  0.770700  0.394800  0.254900  1.0  0.0979
  H  H23  1  0.859000  0.635800  0.333200  1.0  0.0946
  H  H24  1  0.658900  0.951500  0.103400  1.0  0.2088
  H  H25  1  0.010200  0.454100  0.312500  1.0  0.0803
  H  H26  1  0.926800  0.529700  0.614200  1.0  0.0953
  H  H27  1  0.467300  0.264200  0.088100  1.0  0.0888
  H  H28  1  0.534900  0.236900  0.125400  1.0  0.0958
  H  H29  1  0.751700  0.966000  0.503400  1.0  0.0979
  H  H30  1  0.871300  0.759800  0.851400  1.0  0.1121
  H  H31  1  0.643500  0.891400  0.401100  1.0  0.1091
  H  H32  1  0.770700  0.605200  0.754900  1.0  0.0981
  H  H33  1  0.859000  0.364200  0.833200  1.0  0.095
  H  H34  1  0.658900  0.048500  0.603400  1.0  0.208
  H  H35  1  0.010200  0.545900  0.812500  1.0  0.0805
  H  H36  1  0.926800  0.470300  0.114200  1.0  0.0955
  H  H37  1  0.467300  0.735800  0.588100  1.0  0.0879
  H  H38  1  0.534900  0.763100  0.625400  1.0  0.0952
  H  H39  1  0.248300  0.966000  0.996600  1.0  0.0964
  H  H40  1  0.128700  0.759800  0.648600  1.0  0.1133
  H  H41  1  0.356500  0.891400  0.098900  1.0  0.1089
  H  H42  1  0.229300  0.605200  0.745100  1.0  0.0971
  H  H43  1  0.141000  0.364200  0.666800  1.0  0.095
  H  H44  1  0.341100  0.048500  0.896600  1.0  0.206
  H  H45  1  0.989800  0.545900  0.687500  1.0  0.0807
  H  H46  1  0.073200  0.470300  0.385800  1.0  0.0952
  H  H47  1  0.532700  0.735800  0.911900  1.0  0.0879
  H  H48  1  0.465100  0.763100  0.874600  1.0  0.094
  C  C49  1  0.275370  0.031800  0.495900  1.0  -0.0119
  C  C50  1  0.143820  0.314000  0.164600  1.0  -0.1066
  C  C51  1  0.264410  0.945500  0.363800  1.0  0.6502
  C  C52  1  0.188510  0.535500  0.210800  1.0  -0.1777
  C  C53  1  0.198320  0.159300  0.213500  1.0  0.6217
  C  C54  1  0.214310  0.653000  0.234600  1.0  0.701
  C  C55  1  0.339950  0.075200  0.558300  1.0  -0.1375
  C  C56  1  0.479240  0.003300  0.499500  1.0  0.0318
  C  C57  1  0.354700  0.023000  0.496500  1.0  0.1732
  C  C58  1  0.020020  0.467400  0.098700  1.0  -0.1931
  C  C59  1  0.203740  0.406500  0.222600  1.0  0.012
  C  C60  1  0.091320  0.483600  0.031200  1.0  0.5587
  C  C61  1  0.018630  0.493100  0.022400  1.0  -0.041
  C  C62  1  0.129090  0.441900  0.152000  1.0  0.1811
  C  C63  1  0.458770  0.102500  0.455900  1.0  -0.1278
  C  C64  1  0.181160  0.297800  0.201100  1.0  -0.1325
  C  C65  1  0.290850  0.983400  0.432400  1.0  -0.1872
  C  C66  1  0.299750  0.077500  0.559100  1.0  -0.1399
  C  C67  1  0.151290  0.550800  0.175200  1.0  -0.1165
  C  C68  1  0.282650  0.126700  0.629100  1.0  0.7407
  C  C69  1  0.415330  0.110100  0.453900  1.0  0.5359
  C  C70  1  0.331270  0.980200  0.433300  1.0  0.0005
  C  C71  1  0.985340  0.464100  0.134100  1.0  -0.0934
  C  C72  1  0.050300  0.522400  0.909100  1.0  -0.0654
  C  C73  1  0.052810  0.498300  0.985800  1.0  -0.1184
  C  C74  1  0.058270  0.455000  0.146400  1.0  0.5187
  C  C75  1  0.416570  0.913500  0.539700  1.0  0.5389
  C  C76  1  0.460350  0.909600  0.539600  1.0  -0.1621
  C  C77  1  0.518470  0.186100  0.417100  1.0  -0.1059
  C  C78  1  0.478200  0.191800  0.415500  1.0  -0.1269
  C  C79  1  0.724630  0.031800  0.004100  1.0  -0.0085
  C  C80  1  0.856180  0.314000  0.335400  1.0  -0.1076
  C  C81  1  0.735590  0.945500  0.136200  1.0  0.6491
  C  C82  1  0.811490  0.535500  0.289200  1.0  -0.1779
  C  C83  1  0.801680  0.159300  0.286500  1.0  0.6225
  C  C84  1  0.785690  0.653000  0.265400  1.0  0.7013
  C  C85  1  0.660050  0.075200  0.941700  1.0  -0.1372
  C  C86  1  0.520760  0.003300  0.000500  1.0  0.0314
  C  C87  1  0.645300  0.023000  0.003500  1.0  0.1724
  C  C88  1  0.979980  0.467400  0.401300  1.0  -0.1928
  C  C89  1  0.796260  0.406500  0.277400  1.0  0.0102
  C  C90  1  0.908680  0.483600  0.468800  1.0  0.5582
  C  C91  1  0.981370  0.493100  0.477600  1.0  -0.041
  C  C92  1  0.870910  0.441900  0.348000  1.0  0.1804
  C  C93  1  0.541230  0.102500  0.044100  1.0  -0.1277
  C  C94  1  0.818840  0.297800  0.298900  1.0  -0.133
  C  C95  1  0.709150  0.983400  0.067600  1.0  -0.1868
  C  C96  1  0.700250  0.077500  0.940900  1.0  -0.1398
  C  C97  1  0.848710  0.550800  0.324800  1.0  -0.116
  C  C98  1  0.717350  0.126700  0.870900  1.0  0.7406
  C  C99  1  0.584670  0.110100  0.046100  1.0  0.5376
  C  C100  1  0.668730  0.980200  0.066700  1.0  0.0008
  C  C101  1  0.014660  0.464100  0.365900  1.0  -0.0961
  C  C102  1  0.949700  0.522400  0.590900  1.0  -0.0646
  C  C103  1  0.947190  0.498300  0.514200  1.0  -0.1182
  C  C104  1  0.941730  0.455000  0.353600  1.0  0.5178
  C  C105  1  0.583430  0.913500  0.960300  1.0  0.5376
  C  C106  1  0.539650  0.909600  0.960400  1.0  -0.1641
  C  C107  1  0.481530  0.186100  0.082900  1.0  -0.1042
  C  C108  1  0.521800  0.191800  0.084500  1.0  -0.1258
  C  C109  1  0.724630  0.968200  0.504100  1.0  -0.0084
  C  C110  1  0.856180  0.686000  0.835400  1.0  -0.1066
  C  C111  1  0.735590  0.054500  0.636200  1.0  0.6489
  C  C112  1  0.811490  0.464500  0.789200  1.0  -0.1786
  C  C113  1  0.801680  0.840700  0.786500  1.0  0.6218
  C  C114  1  0.785690  0.347000  0.765400  1.0  0.7007
  C  C115  1  0.660050  0.924800  0.441700  1.0  -0.1371
  C  C116  1  0.520760  0.996700  0.500500  1.0  0.0323
  C  C117  1  0.645300  0.977000  0.503500  1.0  0.1727
  C  C118  1  0.979980  0.532600  0.901300  1.0  -0.1927
  C  C119  1  0.796260  0.593500  0.777400  1.0  0.0102
  C  C120  1  0.908680  0.516400  0.968800  1.0  0.5582
  C  C121  1  0.981370  0.506900  0.977600  1.0  -0.041
  C  C122  1  0.870910  0.558100  0.848000  1.0  0.1803
  C  C123  1  0.541230  0.897500  0.544100  1.0  -0.1287
  C  C124  1  0.818840  0.702200  0.798900  1.0  -0.1331
  C  C125  1  0.709150  0.016600  0.567600  1.0  -0.1872
  C  C126  1  0.700250  0.922500  0.440900  1.0  -0.1405
  C  C127  1  0.848710  0.449200  0.824800  1.0  -0.1164
  C  C128  1  0.717350  0.873300  0.370900  1.0  0.7411
  C  C129  1  0.584670  0.889900  0.546100  1.0  0.5369
  C  C130  1  0.668730  0.019800  0.566700  1.0  0.0005
  C  C131  1  0.014660  0.535900  0.865900  1.0  -0.0964
  C  C132  1  0.949700  0.477600  0.090900  1.0  -0.0644
  C  C133  1  0.947190  0.501700  0.014200  1.0  -0.118
  C  C134  1  0.941730  0.545000  0.853600  1.0  0.5177
  C  C135  1  0.583430  0.086500  0.460300  1.0  0.5395
  C  C136  1  0.539650  0.090400  0.460400  1.0  -0.164
  C  C137  1  0.481530  0.813900  0.582900  1.0  -0.1047
  C  C138  1  0.521800  0.808200  0.584500  1.0  -0.1257
  C  C139  1  0.275370  0.968200  0.995900  1.0  -0.012
  C  C140  1  0.143820  0.686000  0.664600  1.0  -0.1063
  C  C141  1  0.264410  0.054500  0.863800  1.0  0.6505
  C  C142  1  0.188510  0.464500  0.710800  1.0  -0.1778
  C  C143  1  0.198320  0.840700  0.713500  1.0  0.6211
  C  C144  1  0.214310  0.347000  0.734600  1.0  0.7005
  C  C145  1  0.339950  0.924800  0.058300  1.0  -0.1372
  C  C146  1  0.479240  0.996700  0.999500  1.0  0.0308
  C  C147  1  0.354700  0.977000  0.996500  1.0  0.1735
  C  C148  1  0.020020  0.532600  0.598700  1.0  -0.1935
  C  C149  1  0.203740  0.593500  0.722600  1.0  0.0121
  C  C150  1  0.091320  0.516400  0.531200  1.0  0.5584
  C  C151  1  0.018630  0.506900  0.522400  1.0  -0.041
  C  C152  1  0.129090  0.558100  0.652000  1.0  0.181
  C  C153  1  0.458770  0.897500  0.955900  1.0  -0.1285
  C  C154  1  0.181160  0.702200  0.701100  1.0  -0.1326
  C  C155  1  0.290850  0.016600  0.932400  1.0  -0.187
  C  C156  1  0.299750  0.922500  0.059100  1.0  -0.1405
  C  C157  1  0.151290  0.449200  0.675200  1.0  -0.1168
  C  C158  1  0.282650  0.873300  0.129100  1.0  0.7408
  C  C159  1  0.415330  0.889900  0.953900  1.0  0.5351
  C  C160  1  0.331270  0.019800  0.933300  1.0  0.0002
  C  C161  1  0.985340  0.535900  0.634100  1.0  -0.0937
  C  C162  1  0.050300  0.477600  0.409100  1.0  -0.0656
  C  C163  1  0.052810  0.501700  0.485800  1.0  -0.1185
  C  C164  1  0.058270  0.545000  0.646400  1.0  0.5189
  C  C165  1  0.416570  0.086500  0.039700  1.0  0.5387
  C  C166  1  0.460350  0.090400  0.039600  1.0  -0.1605
  C  C167  1  0.518470  0.813900  0.917100  1.0  -0.1048
  C  C168  1  0.478200  0.808200  0.915500  1.0  -0.1265
  N  N169  1  0.091050  0.458900  0.107850  1.0  -0.248
  N  N170  1  0.397820  0.015100  0.496300  1.0  -0.2567
  N  N171  1  0.908950  0.458900  0.392150  1.0  -0.2487
  N  N172  1  0.602180  0.015100  0.003700  1.0  -0.257
  N  N173  1  0.908950  0.541100  0.892150  1.0  -0.2485
  N  N174  1  0.602180  0.984900  0.503700  1.0  -0.257
  N  N175  1  0.091050  0.541100  0.607850  1.0  -0.2478
  N  N176  1  0.397820  0.984900  0.996300  1.0  -0.2567
  O  O177  1  0.249220  0.633500  0.255150  1.0  -0.6829
  O  O178  1  0.304060  0.205500  0.670400  1.0  -0.6731
  O  O179  1  0.396310  0.196400  0.420000  1.0  -0.4681
  O  O180  1  0.398110  0.835900  0.572700  1.0  -0.444
  O  O181  1  0.280020  0.900500  0.307100  1.0  -0.6719
  O  O182  1  0.228400  0.965300  0.360270  1.0  -0.577
  O  O183  1  0.249740  0.084900  0.640060  1.0  -0.5947
  O  O184  1  0.197650  0.765500  0.230420  1.0  -0.6069
  O  O185  1  0.177090  0.059000  0.202710  1.0  -0.5795
  O  O186  1  0.233970  0.149900  0.235260  1.0  -0.5622
  O  O187  1  0.061880  0.433200  0.214200  1.0  -0.4927
  O  O188  1  0.122270  0.489900  0.003200  1.0  -0.4757
  O  O189  1  0.750780  0.633500  0.244850  1.0  -0.6827
  O  O190  1  0.695940  0.205500  0.829600  1.0  -0.6725
  O  O191  1  0.603690  0.196400  0.080000  1.0  -0.4664
  O  O192  1  0.601890  0.835900  0.927300  1.0  -0.4427
  O  O193  1  0.719980  0.900500  0.192900  1.0  -0.6712
  O  O194  1  0.771600  0.965300  0.139730  1.0  -0.5747
  O  O195  1  0.750260  0.084900  0.859940  1.0  -0.5927
  O  O196  1  0.802350  0.765500  0.269580  1.0  -0.6068
  O  O197  1  0.822910  0.059000  0.297290  1.0  -0.5817
  O  O198  1  0.766030  0.149900  0.264740  1.0  -0.5648
  O  O199  1  0.938120  0.433200  0.285800  1.0  -0.4892
  O  O200  1  0.877730  0.489900  0.496800  1.0  -0.4737
  O  O201  1  0.750780  0.366500  0.744850  1.0  -0.6839
  O  O202  1  0.695940  0.794500  0.329600  1.0  -0.6739
  O  O203  1  0.603690  0.803600  0.580000  1.0  -0.4652
  O  O204  1  0.601890  0.164100  0.427300  1.0  -0.4443
  O  O205  1  0.719980  0.099500  0.692900  1.0  -0.6712
  O  O206  1  0.771600  0.034700  0.639730  1.0  -0.5745
  O  O207  1  0.750260  0.915100  0.359940  1.0  -0.5927
  O  O208  1  0.802350  0.234500  0.769580  1.0  -0.6064
  O  O209  1  0.822910  0.941000  0.797290  1.0  -0.5816
  O  O210  1  0.766030  0.850100  0.764740  1.0  -0.5644
  O  O211  1  0.938120  0.566800  0.785800  1.0  -0.4896
  O  O212  1  0.877730  0.510100  0.996800  1.0  -0.4734
  O  O213  1  0.249220  0.366500  0.755150  1.0  -0.6839
  O  O214  1  0.304060  0.794500  0.170400  1.0  -0.6739
  O  O215  1  0.396310  0.803600  0.920000  1.0  -0.4662
  O  O216  1  0.398110  0.164100  0.072700  1.0  -0.4427
  O  O217  1  0.280020  0.099500  0.807100  1.0  -0.6713
  O  O218  1  0.228400  0.034700  0.860270  1.0  -0.5767
  O  O219  1  0.249740  0.915100  0.140060  1.0  -0.5945
  O  O220  1  0.197650  0.234500  0.730420  1.0  -0.6059
  O  O221  1  0.177090  0.941000  0.702710  1.0  -0.579
  O  O222  1  0.233970  0.850100  0.735260  1.0  -0.5629
  O  O223  1  0.061880  0.566800  0.714200  1.0  -0.4927
  O  O224  1  0.122270  0.510100  0.503200  1.0  -0.4755
