# generated using pymatgen
data_InH6C12(NO2)2
_symmetry_space_group_name_H-M   'P 1'
_cell_length_a   24.68100000
_cell_length_b   24.68100000
_cell_length_c   10.81900000
_cell_angle_alpha   90.00000000
_cell_angle_beta   90.00000000
_cell_angle_gamma   90.00000000
_symmetry_Int_Tables_number   1
_chemical_formula_structural   InH6C12(NO2)2
_chemical_formula_sum   'In8 H48 C96 N16 O32'
_cell_volume   6590.41290226
_cell_formula_units_Z   8
loop_
 _symmetry_equiv_pos_site_id
 _symmetry_equiv_pos_as_xyz
  1  'x, y, z'
loop_
 _atom_site_type_symbol
 _atom_site_label
 _atom_site_symmetry_multiplicity
 _atom_site_fract_x
 _atom_site_fract_y
 _atom_site_fract_z
 _atom_site_occupancy
 _atom_site_charge
  In  In1  1  0.380160  0.789800  0.355560  1.0  1.3359
  In  In2  1  0.880160  0.289800  0.855560  1.0  1.3254
  In  In3  1  0.619840  0.210200  0.355560  1.0  1.337
  In  In4  1  0.119840  0.710200  0.855560  1.0  1.3265
  In  In5  1  0.789800  0.619840  0.644440  1.0  1.3383
  In  In6  1  0.289800  0.119840  0.144440  1.0  1.3276
  In  In7  1  0.210200  0.380160  0.644440  1.0  1.3369
  In  In8  1  0.710200  0.880160  0.144440  1.0  1.3252
  H  H9  1  0.505400  0.825900  0.334300  1.0  0.0709
  H  H10  1  0.550900  0.838800  0.983000  1.0  0.0978
  H  H11  1  0.461200  0.814700  0.933200  1.0  0.0655
  H  H12  1  0.383200  0.786300  0.885200  1.0  0.0769
  H  H13  1  0.298700  0.761400  0.840700  1.0  0.0893
  H  H14  1  0.277300  0.750600  0.211600  1.0  0.0604
  H  H15  1  0.005400  0.325900  0.834300  1.0  0.0709
  H  H16  1  0.050900  0.338800  0.483000  1.0  0.0978
  H  H17  1  0.961200  0.314700  0.433200  1.0  0.0655
  H  H18  1  0.883200  0.286300  0.385200  1.0  0.0764
  H  H19  1  0.798700  0.261400  0.340700  1.0  0.0893
  H  H20  1  0.777300  0.250600  0.711600  1.0  0.0604
  H  H21  1  0.494600  0.174100  0.334300  1.0  0.0709
  H  H22  1  0.449100  0.161200  0.983000  1.0  0.0975
  H  H23  1  0.538800  0.185300  0.933200  1.0  0.0651
  H  H24  1  0.616800  0.213700  0.885200  1.0  0.0772
  H  H25  1  0.701300  0.238600  0.840700  1.0  0.089
  H  H26  1  0.722700  0.249400  0.211600  1.0  0.0598
  H  H27  1  0.994600  0.674100  0.834300  1.0  0.0709
  H  H28  1  0.949100  0.661200  0.483000  1.0  0.0975
  H  H29  1  0.038800  0.685300  0.433200  1.0  0.0651
  H  H30  1  0.116800  0.713700  0.385200  1.0  0.0767
  H  H31  1  0.201300  0.738600  0.340700  1.0  0.089
  H  H32  1  0.222700  0.749400  0.711600  1.0  0.0598
  H  H33  1  0.825900  0.494600  0.665700  1.0  0.0703
  H  H34  1  0.838800  0.449100  0.017000  1.0  0.0971
  H  H35  1  0.814700  0.538800  0.066800  1.0  0.0676
  H  H36  1  0.786300  0.616800  0.114800  1.0  0.0778
  H  H37  1  0.761400  0.701300  0.159300  1.0  0.0895
  H  H38  1  0.750600  0.722700  0.788400  1.0  0.0603
  H  H39  1  0.325900  0.994600  0.165700  1.0  0.0703
  H  H40  1  0.338800  0.949100  0.517000  1.0  0.0971
  H  H41  1  0.314700  0.038800  0.566800  1.0  0.0676
  H  H42  1  0.286300  0.116800  0.614800  1.0  0.0772
  H  H43  1  0.261400  0.201300  0.659300  1.0  0.0895
  H  H44  1  0.250600  0.222700  0.288400  1.0  0.0603
  H  H45  1  0.174100  0.505400  0.665700  1.0  0.0708
  H  H46  1  0.161200  0.550900  0.017000  1.0  0.0977
  H  H47  1  0.185300  0.461200  0.066800  1.0  0.0675
  H  H48  1  0.213700  0.383200  0.114800  1.0  0.0781
  H  H49  1  0.238600  0.298700  0.159300  1.0  0.0891
  H  H50  1  0.249400  0.277300  0.788400  1.0  0.0609
  H  H51  1  0.674100  0.005400  0.165700  1.0  0.0708
  H  H52  1  0.661200  0.050900  0.517000  1.0  0.0977
  H  H53  1  0.685300  0.961200  0.566800  1.0  0.0675
  H  H54  1  0.713700  0.883200  0.614800  1.0  0.0777
  H  H55  1  0.738600  0.798700  0.659300  1.0  0.0891
  H  H56  1  0.749400  0.777300  0.288400  1.0  0.0609
  C  C57  1  0.497600  0.823500  0.250400  1.0  0.1663
  C  C58  1  0.537900  0.836600  0.167800  1.0  -0.2085
  C  C59  1  0.525400  0.832200  0.044400  1.0  -0.1209
  C  C60  1  0.471300  0.816900  0.015800  1.0  -0.126
  C  C61  1  0.435900  0.805900  0.098600  1.0  0.2076
  C  C62  1  0.379700  0.787000  0.063800  1.0  0.0845
  C  C63  1  0.359700  0.779800  0.950800  1.0  -0.0796
  C  C64  1  0.310400  0.764700  0.922100  1.0  -0.1464
  C  C65  1  0.276000  0.753800  0.024700  1.0  -0.1867
  C  C66  1  0.298500  0.759400  0.143400  1.0  0.1866
  C  C67  1  0.591600  0.853200  0.207800  1.0  0.707
  C  C68  1  0.218400  0.735200  0.016300  1.0  0.693
  C  C69  1  0.997600  0.323500  0.750400  1.0  0.1663
  C  C70  1  0.037900  0.336600  0.667800  1.0  -0.2085
  C  C71  1  0.025400  0.332200  0.544400  1.0  -0.1209
  C  C72  1  0.971300  0.316900  0.515800  1.0  -0.126
  C  C73  1  0.935900  0.305900  0.598600  1.0  0.2076
  C  C74  1  0.879700  0.287000  0.563800  1.0  0.0839
  C  C75  1  0.859700  0.279800  0.450800  1.0  -0.0796
  C  C76  1  0.810400  0.264700  0.422100  1.0  -0.1464
  C  C77  1  0.776000  0.253800  0.524700  1.0  -0.1867
  C  C78  1  0.798500  0.259400  0.643400  1.0  0.1866
  C  C79  1  0.091600  0.353200  0.707800  1.0  0.707
  C  C80  1  0.718400  0.235200  0.516300  1.0  0.693
  C  C81  1  0.502400  0.176500  0.250400  1.0  0.1658
  C  C82  1  0.462100  0.163400  0.167800  1.0  -0.209
  C  C83  1  0.474600  0.167800  0.044400  1.0  -0.121
  C  C84  1  0.528700  0.183100  0.015800  1.0  -0.1251
  C  C85  1  0.564100  0.194100  0.098600  1.0  0.2072
  C  C86  1  0.620300  0.213000  0.063800  1.0  0.0795
  C  C87  1  0.640300  0.220200  0.950800  1.0  -0.0799
  C  C88  1  0.689600  0.235300  0.922100  1.0  -0.1461
  C  C89  1  0.724000  0.246200  0.024700  1.0  -0.1865
  C  C90  1  0.701500  0.240600  0.143400  1.0  0.1861
  C  C91  1  0.408400  0.146800  0.207800  1.0  0.7057
  C  C92  1  0.781600  0.264800  0.016300  1.0  0.6923
  C  C93  1  0.002400  0.676500  0.750400  1.0  0.1658
  C  C94  1  0.962100  0.663400  0.667800  1.0  -0.209
  C  C95  1  0.974600  0.667800  0.544400  1.0  -0.121
  C  C96  1  0.028700  0.683100  0.515800  1.0  -0.1251
  C  C97  1  0.064100  0.694100  0.598600  1.0  0.2072
  C  C98  1  0.120300  0.713000  0.563800  1.0  0.0792
  C  C99  1  0.140300  0.720200  0.450800  1.0  -0.0799
  C  C100  1  0.189600  0.735300  0.422100  1.0  -0.1461
  C  C101  1  0.224000  0.746200  0.524700  1.0  -0.1865
  C  C102  1  0.201500  0.740600  0.643400  1.0  0.1861
  C  C103  1  0.908400  0.646800  0.707800  1.0  0.7057
  C  C104  1  0.281600  0.764800  0.516300  1.0  0.6923
  C  C105  1  0.823500  0.502400  0.749600  1.0  0.1664
  C  C106  1  0.836600  0.462100  0.832200  1.0  -0.2082
  C  C107  1  0.832200  0.474600  0.955600  1.0  -0.1189
  C  C108  1  0.816900  0.528700  0.984200  1.0  -0.1228
  C  C109  1  0.805900  0.564100  0.901400  1.0  0.2104
  C  C110  1  0.787000  0.620300  0.936200  1.0  0.0849
  C  C111  1  0.779800  0.640300  0.049200  1.0  -0.0781
  C  C112  1  0.764700  0.689600  0.077900  1.0  -0.1456
  C  C113  1  0.753800  0.724000  0.975300  1.0  -0.1847
  C  C114  1  0.759400  0.701500  0.856600  1.0  0.1857
  C  C115  1  0.853200  0.408400  0.792200  1.0  0.7046
  C  C116  1  0.735200  0.781600  0.983700  1.0  0.692
  C  C117  1  0.323500  0.002400  0.249600  1.0  0.1664
  C  C118  1  0.336600  0.962100  0.332200  1.0  -0.2082
  C  C119  1  0.332200  0.974600  0.455600  1.0  -0.1189
  C  C120  1  0.316900  0.028700  0.484200  1.0  -0.1228
  C  C121  1  0.305900  0.064100  0.401400  1.0  0.2104
  C  C122  1  0.287000  0.120300  0.436200  1.0  0.0844
  C  C123  1  0.279800  0.140300  0.549200  1.0  -0.0781
  C  C124  1  0.264700  0.189600  0.577900  1.0  -0.1456
  C  C125  1  0.253800  0.224000  0.475300  1.0  -0.1847
  C  C126  1  0.259400  0.201500  0.356600  1.0  0.1857
  C  C127  1  0.353200  0.908400  0.292200  1.0  0.7046
  C  C128  1  0.235200  0.281600  0.483700  1.0  0.692
  C  C129  1  0.176500  0.497600  0.749600  1.0  0.1657
  C  C130  1  0.163400  0.537900  0.832200  1.0  -0.2064
  C  C131  1  0.167800  0.525400  0.955600  1.0  -0.1209
  C  C132  1  0.183100  0.471300  0.984200  1.0  -0.1226
  C  C133  1  0.194100  0.435900  0.901400  1.0  0.211
  C  C134  1  0.213000  0.379700  0.936200  1.0  0.0848
  C  C135  1  0.220200  0.359700  0.049200  1.0  -0.0794
  C  C136  1  0.235300  0.310400  0.077900  1.0  -0.1443
  C  C137  1  0.246200  0.276000  0.975300  1.0  -0.1844
  C  C138  1  0.240600  0.298500  0.856600  1.0  0.1865
  C  C139  1  0.146800  0.591600  0.792200  1.0  0.7059
  C  C140  1  0.264800  0.218400  0.983700  1.0  0.693
  C  C141  1  0.676500  0.997600  0.249600  1.0  0.1657
  C  C142  1  0.663400  0.037900  0.332200  1.0  -0.2064
  C  C143  1  0.667800  0.025400  0.455600  1.0  -0.1209
  C  C144  1  0.683100  0.971300  0.484200  1.0  -0.1226
  C  C145  1  0.694100  0.935900  0.401400  1.0  0.211
  C  C146  1  0.713000  0.879700  0.436200  1.0  0.0846
  C  C147  1  0.720200  0.859700  0.549200  1.0  -0.0794
  C  C148  1  0.735300  0.810400  0.577900  1.0  -0.1443
  C  C149  1  0.746200  0.776000  0.475300  1.0  -0.1844
  C  C150  1  0.740600  0.798500  0.356600  1.0  0.1865
  C  C151  1  0.646800  0.091600  0.292200  1.0  0.7059
  C  C152  1  0.764800  0.718400  0.483700  1.0  0.693
  N  N153  1  0.448000  0.807700  0.217500  1.0  -0.3971
  N  N154  1  0.348400  0.776500  0.161900  1.0  -0.2792
  N  N155  1  0.948000  0.307700  0.717500  1.0  -0.3957
  N  N156  1  0.848400  0.276500  0.661900  1.0  -0.2792
  N  N157  1  0.552000  0.192300  0.217500  1.0  -0.3989
  N  N158  1  0.651600  0.223500  0.161900  1.0  -0.2805
  N  N159  1  0.052000  0.692300  0.717500  1.0  -0.3969
  N  N160  1  0.151600  0.723500  0.661900  1.0  -0.2805
  N  N161  1  0.807700  0.552000  0.782500  1.0  -0.3959
  N  N162  1  0.776500  0.651600  0.838100  1.0  -0.2827
  N  N163  1  0.307700  0.052000  0.282500  1.0  -0.3953
  N  N164  1  0.276500  0.151600  0.338100  1.0  -0.2827
  N  N165  1  0.192300  0.448000  0.782500  1.0  -0.3973
  N  N166  1  0.223500  0.348400  0.838100  1.0  -0.2825
  N  N167  1  0.692300  0.948000  0.282500  1.0  -0.3965
  N  N168  1  0.723500  0.848400  0.338100  1.0  -0.2825
  O  O169  1  0.599100  0.860400  0.321700  1.0  -0.5315
  O  O170  1  0.627400  0.863300  0.126700  1.0  -0.6479
  O  O171  1  0.191400  0.728200  0.111400  1.0  -0.498
  O  O172  1  0.200900  0.728900  0.908000  1.0  -0.621
  O  O173  1  0.099100  0.360400  0.821700  1.0  -0.5315
  O  O174  1  0.127400  0.363300  0.626700  1.0  -0.6479
  O  O175  1  0.691400  0.228200  0.611400  1.0  -0.498
  O  O176  1  0.700900  0.228900  0.408000  1.0  -0.621
  O  O177  1  0.400900  0.139600  0.321700  1.0  -0.5305
  O  O178  1  0.372600  0.136700  0.126700  1.0  -0.6475
  O  O179  1  0.808600  0.271800  0.111400  1.0  -0.4952
  O  O180  1  0.799100  0.271100  0.908000  1.0  -0.6206
  O  O181  1  0.900900  0.639600  0.821700  1.0  -0.5305
  O  O182  1  0.872600  0.636700  0.626700  1.0  -0.6475
  O  O183  1  0.308600  0.771800  0.611400  1.0  -0.4952
  O  O184  1  0.299100  0.771100  0.408000  1.0  -0.6206
  O  O185  1  0.860400  0.400900  0.678300  1.0  -0.5276
  O  O186  1  0.863300  0.372600  0.873300  1.0  -0.6484
  O  O187  1  0.728200  0.808600  0.888600  1.0  -0.4964
  O  O188  1  0.728900  0.799100  0.092000  1.0  -0.6215
  O  O189  1  0.360400  0.900900  0.178300  1.0  -0.5276
  O  O190  1  0.363300  0.872600  0.373300  1.0  -0.6484
  O  O191  1  0.228200  0.308600  0.388600  1.0  -0.4964
  O  O192  1  0.228900  0.299100  0.592000  1.0  -0.6215
  O  O193  1  0.139600  0.599100  0.678300  1.0  -0.5269
  O  O194  1  0.136700  0.627400  0.873300  1.0  -0.6494
  O  O195  1  0.271800  0.191400  0.888600  1.0  -0.4953
  O  O196  1  0.271100  0.200900  0.092000  1.0  -0.6226
  O  O197  1  0.639600  0.099100  0.178300  1.0  -0.5269
  O  O198  1  0.636700  0.127400  0.373300  1.0  -0.6494
  O  O199  1  0.771800  0.691400  0.388600  1.0  -0.4953
  O  O200  1  0.771100  0.700900  0.592000  1.0  -0.6226
