# generated using pymatgen
data_InH6C12(NO2)2
_symmetry_space_group_name_H-M   'P 1'
_cell_length_a   14.12270000
_cell_length_b   18.73910000
_cell_length_c   18.73910000
_cell_angle_alpha   66.08780000
_cell_angle_beta   75.45060000
_cell_angle_gamma   104.54900000
_symmetry_Int_Tables_number   1
_chemical_formula_structural   InH6C12(NO2)2
_chemical_formula_sum   'In6 H36 C72 N12 O24'
_cell_volume   4023.80318983
_cell_formula_units_Z   6
loop_
 _symmetry_equiv_pos_site_id
 _symmetry_equiv_pos_as_xyz
  1  'x, y, z'
loop_
 _atom_site_type_symbol
 _atom_site_label
 _atom_site_symmetry_multiplicity
 _atom_site_fract_x
 _atom_site_fract_y
 _atom_site_fract_z
 _atom_site_occupancy
 _atom_site_charge
  In  In1  1  0.167260  0.487780  0.433890  1.0  1.3599
  In  In2  1  0.179480  0.512220  0.921670  1.0  1.361
  In  In3  1  0.601150  0.433890  0.078330  1.0  1.3622
  In  In4  1  0.101150  0.921670  0.566110  1.0  1.3586
  In  In5  1  0.679480  0.078330  0.487780  1.0  1.3602
  In  In6  1  0.667260  0.566110  0.512220  1.0  1.3618
  H  H7  1  0.398800  0.587800  0.074700  1.0  0.0851
  H  H8  1  0.425400  0.008800  0.552500  1.0  0.0398
  H  H9  1  0.635400  0.247000  0.641900  1.0  0.0978
  H  H10  1  0.898800  0.925300  0.412200  1.0  0.085
  H  H11  1  0.656200  0.848400  0.317300  1.0  0.0988
  H  H12  1  0.135400  0.358100  0.753000  1.0  0.097
  H  H13  1  0.883800  0.235300  0.444500  1.0  0.053
  H  H14  1  0.710400  0.908900  0.791900  1.0  0.0826
  H  H15  1  0.328300  0.444500  0.320200  1.0  0.053
  H  H16  1  0.277300  0.641900  0.111100  1.0  0.0971
  H  H17  1  0.473500  0.074700  0.337500  1.0  0.0847
  H  H18  1  0.210400  0.208100  0.091100  1.0  0.0812
  H  H19  1  0.383800  0.555500  0.764700  1.0  0.0532
  H  H20  1  0.477900  0.561300  0.447500  1.0  0.0392
  H  H21  1  0.648500  0.320200  0.235300  1.0  0.053
  H  H22  1  0.307800  0.151600  0.165700  1.0  0.0978
  H  H23  1  0.777300  0.888900  0.358100  1.0  0.0964
  H  H24  1  0.311000  0.412200  0.662500  1.0  0.0848
  H  H25  1  0.156200  0.682700  0.151600  1.0  0.0992
  H  H26  1  0.973500  0.317300  0.834300  1.0  0.1005
  H  H27  1  0.916600  0.991200  0.561300  1.0  0.04
  H  H28  1  0.925400  0.447500  0.991200  1.0  0.0391
  H  H29  1  0.811000  0.337500  0.587800  1.0  0.0854
  H  H30  1  0.888400  0.753000  0.888900  1.0  0.0981
  H  H31  1  0.801500  0.299200  0.908900  1.0  0.0808
  H  H32  1  0.807800  0.834300  0.848400  1.0  0.0995
  H  H33  1  0.828300  0.679800  0.555500  1.0  0.053
  H  H34  1  0.502300  0.791900  0.299200  1.0  0.0812
  H  H35  1  0.002300  0.700800  0.208100  1.0  0.0818
  H  H36  1  0.416600  0.438700  0.008800  1.0  0.0387
  H  H37  1  0.973500  0.662500  0.925300  1.0  0.0854
  H  H38  1  0.473500  0.165700  0.682700  1.0  0.0985
  H  H39  1  0.977900  0.552500  0.438700  1.0  0.0392
  H  H40  1  0.148500  0.764700  0.679800  1.0  0.053
  H  H41  1  0.388400  0.111100  0.247000  1.0  0.0954
  H  H42  1  0.301500  0.091100  0.700800  1.0  0.0821
  C  C43  1  0.738100  0.369000  0.000000  1.0  0.7031
  C  C44  1  0.732800  0.763000  0.426000  1.0  0.1696
  C  C45  1  0.124000  0.644000  0.823100  1.0  0.6846
  C  C46  1  0.232800  0.574000  0.237000  1.0  0.1702
  C  C47  1  0.369100  0.631000  0.369000  1.0  0.7022
  C  C48  1  0.238100  0.000000  0.631000  1.0  0.7076
  C  C49  1  0.892680  0.958170  0.620130  1.0  0.1721
  C  C50  1  0.687300  0.245500  0.601100  1.0  -0.1608
  C  C51  1  0.069000  0.703000  0.805600  1.0  -0.2106
  C  C52  1  0.158800  0.426000  0.811000  1.0  0.171
  C  C53  1  0.860400  0.334100  0.909900  1.0  -0.0551
  C  C54  1  0.480000  0.532900  0.644000  1.0  0.6855
  C  C55  1  0.491700  0.131500  0.299500  1.0  -0.0482
  C  C56  1  0.469800  0.237000  0.189000  1.0  0.1693
  C  C57  1  0.846700  0.374200  0.955700  1.0  -0.2278
  C  C58  1  0.360200  0.569000  0.131500  1.0  -0.0523
  C  C59  1  0.187300  0.398900  0.754500  1.0  -0.1648
  C  C60  1  0.238100  0.369000  0.000000  1.0  0.7007
  C  C61  1  0.147650  0.600250  0.265800  1.0  0.1701
  C  C62  1  0.441800  0.153400  0.245500  1.0  -0.1631
  C  C63  1  0.095300  0.762000  0.723000  1.0  0.1351
  C  C64  1  0.913450  0.866050  0.734200  1.0  0.1725
  C  C65  1  0.413450  0.265800  0.133950  1.0  0.176
  C  C66  1  0.288400  0.601100  0.153400  1.0  -0.1653
  C  C67  1  0.526300  0.756000  0.334100  1.0  -0.0541
  C  C68  1  0.788400  0.846600  0.398900  1.0  -0.1643
  C  C69  1  0.802400  0.955700  0.670100  1.0  -0.2249
  C  C70  1  0.827400  0.864600  0.789900  1.0  -0.18
  C  C71  1  0.969800  0.811000  0.763000  1.0  0.1701
  C  C72  1  0.770300  0.909900  0.756000  1.0  -0.0548
  C  C73  1  0.366000  0.491400  0.703000  1.0  -0.2105
  C  C74  1  0.866000  0.297000  0.508600  1.0  -0.2115
  C  C75  1  0.012810  0.578300  0.379870  1.0  0.169
  C  C76  1  0.047400  0.399750  0.866050  1.0  0.1752
  C  C77  1  0.462800  0.135400  0.654500  1.0  -0.1806
  C  C78  1  0.738100  0.000000  0.631000  1.0  0.7037
  C  C79  1  0.791200  0.299500  0.569000  1.0  -0.0497
  C  C80  1  0.333333  0.515000  0.762000  1.0  0.1312
  C  C81  1  0.346700  0.044300  0.625800  1.0  -0.2244
  C  C82  1  0.818300  0.723000  0.515000  1.0  0.1344
  C  C83  1  0.026300  0.665900  0.244000  1.0  -0.055
  C  C84  1  0.447100  0.467100  0.176900  1.0  0.6854
  C  C85  1  0.980000  0.356000  0.467100  1.0  0.6846
  C  C86  1  0.569000  0.194400  0.297000  1.0  -0.2132
  C  C87  1  0.392680  0.379870  0.041830  1.0  0.1731
  C  C88  1  0.117300  0.654500  0.210100  1.0  -0.1852
  C  C89  1  0.869100  0.631000  0.369000  1.0  0.7043
  C  C90  1  0.472500  0.670100  0.374200  1.0  -0.226
  C  C91  1  0.547400  0.133950  0.600250  1.0  0.1716
  C  C92  1  0.374600  0.508600  0.194400  1.0  -0.2109
  C  C93  1  0.991700  0.700500  0.868500  1.0  -0.0492
  C  C94  1  0.617300  0.789900  0.345500  1.0  -0.1797
  C  C95  1  0.647650  0.734200  0.399750  1.0  0.1752
  C  C96  1  0.947100  0.823100  0.532900  1.0  0.6877
  C  C97  1  0.270300  0.244000  0.090100  1.0  -0.053
  C  C98  1  0.658800  0.189000  0.574000  1.0  0.1697
  C  C99  1  0.360400  0.090100  0.665900  1.0  -0.0549
  C  C100  1  0.972500  0.625800  0.329900  1.0  -0.2238
  C  C101  1  0.624000  0.176900  0.356000  1.0  0.6868
  C  C102  1  0.941800  0.754500  0.846600  1.0  -0.1607
  C  C103  1  0.874600  0.805600  0.491400  1.0  -0.2132
  C  C104  1  0.302400  0.329900  0.044300  1.0  -0.2286
  C  C105  1  0.860200  0.868500  0.431000  1.0  -0.0474
  C  C106  1  0.434510  0.041830  0.578300  1.0  0.1715
  C  C107  1  0.291200  0.431000  0.700500  1.0  -0.0526
  C  C108  1  0.934510  0.421700  0.958170  1.0  0.169
  C  C109  1  0.318300  0.485000  0.277000  1.0  0.1419
  C  C110  1  0.512810  0.620130  0.421700  1.0  0.1722
  C  C111  1  0.962800  0.345500  0.864600  1.0  -0.1846
  C  C112  1  0.833300  0.238000  0.485000  1.0  0.1389
  C  C113  1  0.327400  0.210100  0.135400  1.0  -0.181
  C  C114  1  0.595300  0.277000  0.238000  1.0  0.1341
  N  N115  1  0.032410  0.433170  0.915940  1.0  -0.3469
  N  N116  1  0.532410  0.084060  0.566830  1.0  -0.3467
  N  N117  1  0.547280  0.297890  0.184250  1.0  -0.3366
  N  N118  1  0.047280  0.815750  0.702110  1.0  -0.3367
  N  N119  1  0.749390  0.702110  0.482140  1.0  -0.3359
  N  N120  1  0.448350  0.349110  0.084060  1.0  -0.3497
  N  N121  1  0.099240  0.566830  0.349110  1.0  -0.3467
  N  N122  1  0.948350  0.915940  0.650890  1.0  -0.3458
  N  N123  1  0.731530  0.184250  0.517860  1.0  -0.3378
  N  N124  1  0.599240  0.650890  0.433170  1.0  -0.3485
  N  N125  1  0.249390  0.517860  0.297890  1.0  -0.3334
  N  N126  1  0.231530  0.482140  0.815750  1.0  -0.3363
  O  O127  1  0.039500  0.363900  0.403300  1.0  -0.4831
  O  O128  1  0.159200  0.997200  0.677700  1.0  -0.5059
  O  O129  1  0.010550  0.900450  0.497900  1.0  -0.624
  O  O130  1  0.770150  0.029810  0.552060  1.0  -0.6732
  O  O131  1  0.110100  0.601650  0.900450  1.0  -0.6205
  O  O132  1  0.008450  0.398350  0.502100  1.0  -0.6219
  O  O133  1  0.662000  0.002800  0.674900  1.0  -0.5036
  O  O134  1  0.162000  0.325100  0.997200  1.0  -0.5072
  O  O135  1  0.322210  0.552060  0.418130  1.0  -0.6704
  O  O136  1  0.539500  0.596700  0.636100  1.0  -0.4834
  O  O137  1  0.510550  0.502100  0.099550  1.0  -0.6279
  O  O138  1  0.610100  0.099550  0.398350  1.0  -0.6253
  O  O139  1  0.740340  0.418130  0.029810  1.0  -0.6732
  O  O140  1  0.836900  0.677700  0.325100  1.0  -0.5039
  O  O141  1  0.442800  0.403300  0.232800  1.0  -0.4832
  O  O142  1  0.270150  0.447940  0.970190  1.0  -0.6697
  O  O143  1  0.942800  0.767200  0.596700  1.0  -0.482
  O  O144  1  0.675600  0.232800  0.363900  1.0  -0.4829
  O  O145  1  0.175600  0.636100  0.767200  1.0  -0.484
  O  O146  1  0.240340  0.970190  0.581870  1.0  -0.6737
  O  O147  1  0.336900  0.674900  0.322300  1.0  -0.5078
  O  O148  1  0.822210  0.581870  0.447940  1.0  -0.6733
  O  O149  1  0.508450  0.497900  0.601650  1.0  -0.6246
  O  O150  1  0.659200  0.322300  0.002800  1.0  -0.5053
