# generated using pymatgen
data_BaH2(CO)6
_symmetry_space_group_name_H-M   'P 1'
_cell_length_a   20.81200000
_cell_length_b   6.64950000
_cell_length_c   20.86500000
_cell_angle_alpha   90.00000000
_cell_angle_beta   90.00000000
_cell_angle_gamma   90.00000000
_symmetry_Int_Tables_number   1
_chemical_formula_structural   BaH2(CO)6
_chemical_formula_sum   'Ba12 H24 C72 O72'
_cell_volume   2887.49470581
_cell_formula_units_Z   12
loop_
 _symmetry_equiv_pos_site_id
 _symmetry_equiv_pos_as_xyz
  1  'x, y, z'
loop_
 _atom_site_type_symbol
 _atom_site_label
 _atom_site_symmetry_multiplicity
 _atom_site_fract_x
 _atom_site_fract_y
 _atom_site_fract_z
 _atom_site_occupancy
 _atom_site_charge
  Ba  Ba1  1  0.139960  0.393940  0.114950  1.0  1.6608
  Ba  Ba2  1  0.360040  0.106060  0.614950  1.0  1.6617
  Ba  Ba3  1  0.860040  0.393940  0.385050  1.0  1.6609
  Ba  Ba4  1  0.639960  0.106060  0.885050  1.0  1.6596
  Ba  Ba5  1  0.860040  0.606060  0.885050  1.0  1.6606
  Ba  Ba6  1  0.639960  0.893940  0.385050  1.0  1.6599
  Ba  Ba7  1  0.139960  0.606060  0.614950  1.0  1.6603
  Ba  Ba8  1  0.360040  0.893940  0.114950  1.0  1.662
  Ba  Ba9  1  0.000000  0.137850  0.250000  1.0  1.6118
  Ba  Ba10  1  0.500000  0.362150  0.750000  1.0  1.6116
  Ba  Ba11  1  0.000000  0.862150  0.750000  1.0  1.6116
  Ba  Ba12  1  0.500000  0.637850  0.250000  1.0  1.6118
  H  H13  1  0.196000  0.233600  0.414000  1.0  0.1583
  H  H14  1  0.383000  0.251000  0.368700  1.0  0.1552
  H  H15  1  0.250200  0.256200  0.229400  1.0  0.1532
  H  H16  1  0.304000  0.266400  0.914000  1.0  0.1584
  H  H17  1  0.117000  0.249000  0.868700  1.0  0.1551
  H  H18  1  0.249800  0.243800  0.729400  1.0  0.1528
  H  H19  1  0.804000  0.233600  0.086000  1.0  0.1594
  H  H20  1  0.617000  0.251000  0.131300  1.0  0.1556
  H  H21  1  0.749800  0.256200  0.270600  1.0  0.1522
  H  H22  1  0.696000  0.266400  0.586000  1.0  0.1586
  H  H23  1  0.883000  0.249000  0.631300  1.0  0.1552
  H  H24  1  0.750200  0.243800  0.770600  1.0  0.152
  H  H25  1  0.804000  0.766400  0.586000  1.0  0.1594
  H  H26  1  0.617000  0.749000  0.631300  1.0  0.1556
  H  H27  1  0.749800  0.743800  0.770600  1.0  0.1522
  H  H28  1  0.696000  0.733600  0.086000  1.0  0.1586
  H  H29  1  0.883000  0.751000  0.131300  1.0  0.1553
  H  H30  1  0.750200  0.756200  0.270600  1.0  0.1519
  H  H31  1  0.196000  0.766400  0.914000  1.0  0.1582
  H  H32  1  0.383000  0.749000  0.868700  1.0  0.1551
  H  H33  1  0.250200  0.743800  0.729400  1.0  0.1531
  H  H34  1  0.304000  0.733600  0.414000  1.0  0.1584
  H  H35  1  0.117000  0.751000  0.368700  1.0  0.1551
  H  H36  1  0.249800  0.756200  0.229400  1.0  0.1528
  C  C37  1  0.143100  0.252200  0.297100  1.0  0.7252
  C  C38  1  0.211500  0.250000  0.318200  1.0  -0.1055
  C  C39  1  0.228200  0.239300  0.383100  1.0  0.0696
  C  C40  1  0.292400  0.237000  0.402200  1.0  -0.1216
  C  C41  1  0.340100  0.248000  0.356300  1.0  0.0524
  C  C42  1  0.324300  0.254600  0.290900  1.0  -0.1082
  C  C43  1  0.260600  0.254000  0.272700  1.0  0.0553
  C  C44  1  0.308700  0.220400  0.472000  1.0  0.7801
  C  C45  1  0.375900  0.265400  0.240500  1.0  0.7461
  C  C46  1  0.356900  0.247800  0.797100  1.0  0.7255
  C  C47  1  0.288500  0.250000  0.818200  1.0  -0.1058
  C  C48  1  0.271800  0.260700  0.883100  1.0  0.0712
  C  C49  1  0.207600  0.263000  0.902200  1.0  -0.1199
  C  C50  1  0.159900  0.252000  0.856300  1.0  0.0516
  C  C51  1  0.175700  0.245400  0.790900  1.0  -0.1082
  C  C52  1  0.239400  0.246000  0.772700  1.0  0.0554
  C  C53  1  0.191300  0.279600  0.972000  1.0  0.7777
  C  C54  1  0.124100  0.234600  0.740500  1.0  0.7483
  C  C55  1  0.856900  0.252200  0.202900  1.0  0.7253
  C  C56  1  0.788500  0.250000  0.181800  1.0  -0.1057
  C  C57  1  0.771800  0.239300  0.116900  1.0  0.0703
  C  C58  1  0.707600  0.237000  0.097800  1.0  -0.1212
  C  C59  1  0.659900  0.248000  0.143700  1.0  0.0521
  C  C60  1  0.675700  0.254600  0.209100  1.0  -0.1085
  C  C61  1  0.739400  0.254000  0.227300  1.0  0.0542
  C  C62  1  0.691300  0.220400  0.028000  1.0  0.7804
  C  C63  1  0.624100  0.265400  0.259500  1.0  0.7466
  C  C64  1  0.643100  0.247800  0.702900  1.0  0.7251
  C  C65  1  0.711500  0.250000  0.681800  1.0  -0.1056
  C  C66  1  0.728200  0.260700  0.616900  1.0  0.0704
  C  C67  1  0.792400  0.263000  0.597800  1.0  -0.1217
  C  C68  1  0.840100  0.252000  0.643700  1.0  0.0531
  C  C69  1  0.824300  0.245400  0.709100  1.0  -0.1099
  C  C70  1  0.760600  0.246000  0.727300  1.0  0.0535
  C  C71  1  0.808700  0.279600  0.528000  1.0  0.7781
  C  C72  1  0.875900  0.234600  0.759500  1.0  0.7465
  C  C73  1  0.856900  0.747800  0.702900  1.0  0.7252
  C  C74  1  0.788500  0.750000  0.681800  1.0  -0.1058
  C  C75  1  0.771800  0.760700  0.616900  1.0  0.0703
  C  C76  1  0.707600  0.763000  0.597800  1.0  -0.1213
  C  C77  1  0.659900  0.752000  0.643700  1.0  0.0522
  C  C78  1  0.675700  0.745400  0.709100  1.0  -0.1085
  C  C79  1  0.739400  0.746000  0.727300  1.0  0.0542
  C  C80  1  0.691300  0.779600  0.528000  1.0  0.7802
  C  C81  1  0.624100  0.734600  0.759500  1.0  0.7466
  C  C82  1  0.643100  0.752200  0.202900  1.0  0.7252
  C  C83  1  0.711500  0.750000  0.181800  1.0  -0.1055
  C  C84  1  0.728200  0.739300  0.116900  1.0  0.0703
  C  C85  1  0.792400  0.737000  0.097800  1.0  -0.1218
  C  C86  1  0.840100  0.748000  0.143700  1.0  0.0531
  C  C87  1  0.824300  0.754600  0.209100  1.0  -0.1099
  C  C88  1  0.760600  0.754000  0.227300  1.0  0.0535
  C  C89  1  0.808700  0.720400  0.028000  1.0  0.7779
  C  C90  1  0.875900  0.765400  0.259500  1.0  0.7466
  C  C91  1  0.143100  0.747800  0.797100  1.0  0.7251
  C  C92  1  0.211500  0.750000  0.818200  1.0  -0.1056
  C  C93  1  0.228200  0.760700  0.883100  1.0  0.0697
  C  C94  1  0.292400  0.763000  0.902200  1.0  -0.1216
  C  C95  1  0.340100  0.752000  0.856300  1.0  0.0525
  C  C96  1  0.324300  0.745400  0.790900  1.0  -0.1082
  C  C97  1  0.260600  0.746000  0.772700  1.0  0.0555
  C  C98  1  0.308700  0.779600  0.972000  1.0  0.7802
  C  C99  1  0.375900  0.734600  0.740500  1.0  0.7461
  C  C100  1  0.356900  0.752200  0.297100  1.0  0.7255
  C  C101  1  0.288500  0.750000  0.318200  1.0  -0.1057
  C  C102  1  0.271800  0.739300  0.383100  1.0  0.0711
  C  C103  1  0.207600  0.737000  0.402200  1.0  -0.1199
  C  C104  1  0.159900  0.748000  0.356300  1.0  0.0515
  C  C105  1  0.175700  0.754600  0.290900  1.0  -0.1082
  C  C106  1  0.239400  0.754000  0.272700  1.0  0.0552
  C  C107  1  0.191300  0.720400  0.472000  1.0  0.7776
  C  C108  1  0.124100  0.765400  0.240500  1.0  0.7484
  O  O109  1  0.098720  0.243500  0.338540  1.0  -0.5959
  O  O110  1  0.130740  0.262700  0.237890  1.0  -0.6728
  O  O111  1  0.366100  0.256600  0.489430  1.0  -0.6237
  O  O112  1  0.266500  0.168000  0.510950  1.0  -0.5567
  O  O113  1  0.359630  0.251800  0.182300  1.0  -0.5704
  O  O114  1  0.432900  0.287900  0.259000  1.0  -0.5607
  O  O115  1  0.055300  0.049200  0.125800  1.0  -0.4682
  O  O116  1  0.221570  0.034300  0.124140  1.0  -0.4057
  O  O117  1  0.016600  0.494800  0.167500  1.0  -0.5752
  O  O118  1  0.401280  0.256500  0.838540  1.0  -0.5936
  O  O119  1  0.369260  0.237300  0.737890  1.0  -0.6723
  O  O120  1  0.133900  0.243400  0.989430  1.0  -0.6267
  O  O121  1  0.233500  0.332000  0.010950  1.0  -0.5586
  O  O122  1  0.140370  0.248200  0.682300  1.0  -0.5708
  O  O123  1  0.067100  0.212100  0.759000  1.0  -0.5574
  O  O124  1  0.444700  0.450800  0.625800  1.0  -0.4681
  O  O125  1  0.278430  0.465700  0.624140  1.0  -0.4044
  O  O126  1  0.483400  0.005200  0.667500  1.0  -0.5746
  O  O127  1  0.901280  0.243500  0.161460  1.0  -0.5936
  O  O128  1  0.869260  0.262700  0.262110  1.0  -0.6727
  O  O129  1  0.633900  0.256600  0.010570  1.0  -0.6261
  O  O130  1  0.733500  0.168000  0.989050  1.0  -0.5556
  O  O131  1  0.640370  0.251800  0.317700  1.0  -0.5733
  O  O132  1  0.567100  0.287900  0.241000  1.0  -0.5579
  O  O133  1  0.944700  0.049200  0.374200  1.0  -0.4658
  O  O134  1  0.778430  0.034300  0.375860  1.0  -0.4048
  O  O135  1  0.983400  0.494800  0.332500  1.0  -0.5717
  O  O136  1  0.598720  0.256500  0.661460  1.0  -0.5953
  O  O137  1  0.630740  0.237300  0.762110  1.0  -0.6747
  O  O138  1  0.866100  0.243400  0.510570  1.0  -0.6249
  O  O139  1  0.766500  0.332000  0.489050  1.0  -0.5536
  O  O140  1  0.859630  0.248200  0.817700  1.0  -0.5723
  O  O141  1  0.932900  0.212100  0.741000  1.0  -0.5604
  O  O142  1  0.555300  0.450800  0.874200  1.0  -0.4668
  O  O143  1  0.721570  0.465700  0.875860  1.0  -0.4067
  O  O144  1  0.516600  0.005200  0.832500  1.0  -0.5723
  O  O145  1  0.901280  0.756500  0.661460  1.0  -0.5936
  O  O146  1  0.869260  0.737300  0.762110  1.0  -0.6729
  O  O147  1  0.633900  0.743400  0.510570  1.0  -0.6263
  O  O148  1  0.733500  0.832000  0.489050  1.0  -0.5549
  O  O149  1  0.640370  0.748200  0.817700  1.0  -0.5733
  O  O150  1  0.567100  0.712100  0.741000  1.0  -0.5575
  O  O151  1  0.944700  0.950800  0.874200  1.0  -0.4656
  O  O152  1  0.778430  0.965700  0.875860  1.0  -0.405
  O  O153  1  0.983400  0.505200  0.832500  1.0  -0.5719
  O  O154  1  0.598720  0.743500  0.161460  1.0  -0.5952
  O  O155  1  0.630740  0.762700  0.262110  1.0  -0.6746
  O  O156  1  0.866100  0.756600  0.010570  1.0  -0.6247
  O  O157  1  0.766500  0.668000  0.989050  1.0  -0.5542
  O  O158  1  0.859630  0.751800  0.317700  1.0  -0.5722
  O  O159  1  0.932900  0.787900  0.241000  1.0  -0.5607
  O  O160  1  0.555300  0.549200  0.374200  1.0  -0.4669
  O  O161  1  0.721570  0.534300  0.375860  1.0  -0.4065
  O  O162  1  0.516600  0.994800  0.332500  1.0  -0.572
  O  O163  1  0.098720  0.756500  0.838540  1.0  -0.5959
  O  O164  1  0.130740  0.737300  0.737890  1.0  -0.6731
  O  O165  1  0.366100  0.743400  0.989430  1.0  -0.6235
  O  O166  1  0.266500  0.832000  0.010950  1.0  -0.5568
  O  O167  1  0.359630  0.748200  0.682300  1.0  -0.5702
  O  O168  1  0.432900  0.712100  0.759000  1.0  -0.5606
  O  O169  1  0.055300  0.950800  0.625800  1.0  -0.468
  O  O170  1  0.221570  0.965700  0.624140  1.0  -0.4058
  O  O171  1  0.016600  0.505200  0.667500  1.0  -0.5754
  O  O172  1  0.401280  0.743500  0.338540  1.0  -0.5937
  O  O173  1  0.369260  0.762700  0.237890  1.0  -0.6718
  O  O174  1  0.133900  0.756600  0.489430  1.0  -0.6267
  O  O175  1  0.233500  0.668000  0.510950  1.0  -0.5585
  O  O176  1  0.140370  0.751800  0.182300  1.0  -0.5711
  O  O177  1  0.067100  0.787900  0.259000  1.0  -0.5578
  O  O178  1  0.444700  0.549200  0.125800  1.0  -0.4683
  O  O179  1  0.278430  0.534300  0.124140  1.0  -0.4043
  O  O180  1  0.483400  0.994800  0.167500  1.0  -0.5744
