# generated using pymatgen
data_Dy2H13C28O13
_symmetry_space_group_name_H-M   'P 1'
_cell_length_a   14.48210000
_cell_length_b   16.71370000
_cell_length_c   19.21300000
_cell_angle_alpha   90.00000000
_cell_angle_beta   108.03900000
_cell_angle_gamma   90.00000000
_symmetry_Int_Tables_number   1
_chemical_formula_structural   Dy2H13C28O13
_chemical_formula_sum   'Dy8 H52 C112 O52'
_cell_volume   4421.90584067
_cell_formula_units_Z   4
loop_
 _symmetry_equiv_pos_site_id
 _symmetry_equiv_pos_as_xyz
  1  'x, y, z'
loop_
 _atom_site_type_symbol
 _atom_site_label
 _atom_site_symmetry_multiplicity
 _atom_site_fract_x
 _atom_site_fract_y
 _atom_site_fract_z
 _atom_site_occupancy
 _atom_site_charge
  Dy  Dy1  1  0.676410  0.343700  0.668810  1.0  2.1514
  Dy  Dy2  1  0.077390  0.363800  0.771040  1.0  2.254
  Dy  Dy3  1  0.823590  0.843700  0.831190  1.0  2.1531
  Dy  Dy4  1  0.422610  0.863800  0.728960  1.0  2.2578
  Dy  Dy5  1  0.323590  0.656300  0.331190  1.0  2.1528
  Dy  Dy6  1  0.922610  0.636200  0.228960  1.0  2.2588
  Dy  Dy7  1  0.176410  0.156300  0.168810  1.0  2.1514
  Dy  Dy8  1  0.577390  0.136200  0.271040  1.0  2.2527
  H  H9  1  0.008700  0.305500  0.938000  1.0  0.0963
  H  H10  1  0.839200  0.221000  0.050300  1.0  0.1057
  H  H11  1  0.717500  0.330900  0.857500  1.0  0.0941
  H  H12  1  0.536700  0.194500  0.076700  1.0  0.1054
  H  H13  1  0.254500  0.254900  0.015200  1.0  0.1103
  H  H14  1  0.421400  0.308300  0.887000  1.0  0.091
  H  H15  1  0.557100  0.422700  0.877600  1.0  0.0939
  H  H16  1  0.441500  0.636100  0.894000  1.0  0.1034
  H  H17  1  0.513300  0.583200  0.714700  1.0  0.099
  H  H18  1  0.088600  0.537500  0.911300  1.0  0.1482
  H  H19  1  0.106700  0.605400  0.860600  1.0  0.1455
  H  H20  1  0.194600  0.557100  0.911500  1.0  0.1655
  H  H21  1  0.134900  0.503900  0.782700  1.0  0.4002
  H  H22  1  0.491300  0.805500  0.562000  1.0  0.0955
  H  H23  1  0.660800  0.721000  0.449700  1.0  0.1059
  H  H24  1  0.782500  0.830900  0.642500  1.0  0.0944
  H  H25  1  0.963300  0.694500  0.423300  1.0  0.1053
  H  H26  1  0.245500  0.754900  0.484800  1.0  0.1114
  H  H27  1  0.078600  0.808300  0.613000  1.0  0.0914
  H  H28  1  0.942900  0.922700  0.622400  1.0  0.0937
  H  H29  1  0.058500  0.136100  0.606000  1.0  0.1034
  H  H30  1  0.986700  0.083200  0.785300  1.0  0.0988
  H  H31  1  0.411400  0.037500  0.588700  1.0  0.1505
  H  H32  1  0.393300  0.105400  0.639400  1.0  0.1448
  H  H33  1  0.305400  0.057100  0.588500  1.0  0.1588
  H  H34  1  0.365100  0.003900  0.717300  1.0  0.402
  H  H35  1  0.991300  0.694500  0.062000  1.0  0.0955
  H  H36  1  0.160800  0.779000  0.949700  1.0  0.106
  H  H37  1  0.282500  0.669100  0.142500  1.0  0.0945
  H  H38  1  0.463300  0.805500  0.923300  1.0  0.105
  H  H39  1  0.745500  0.745100  0.984800  1.0  0.1114
  H  H40  1  0.578600  0.691700  0.113000  1.0  0.0914
  H  H41  1  0.442900  0.577300  0.122400  1.0  0.0941
  H  H42  1  0.558500  0.363900  0.106000  1.0  0.1041
  H  H43  1  0.486700  0.416800  0.285300  1.0  0.0993
  H  H44  1  0.911400  0.462500  0.088700  1.0  0.1505
  H  H45  1  0.893300  0.394600  0.139400  1.0  0.1388
  H  H46  1  0.805400  0.442900  0.088500  1.0  0.1586
  H  H47  1  0.865100  0.496100  0.217300  1.0  0.4016
  H  H48  1  0.508700  0.194500  0.438000  1.0  0.0964
  H  H49  1  0.339200  0.279000  0.550300  1.0  0.1058
  H  H50  1  0.217500  0.169100  0.357500  1.0  0.0942
  H  H51  1  0.036700  0.305500  0.576700  1.0  0.1047
  H  H52  1  0.754500  0.245100  0.515200  1.0  0.1104
  H  H53  1  0.921400  0.191700  0.387000  1.0  0.091
  H  H54  1  0.057100  0.077300  0.377600  1.0  0.0938
  H  H55  1  0.941500  0.863900  0.394000  1.0  0.104
  H  H56  1  0.013300  0.916800  0.214700  1.0  0.0991
  H  H57  1  0.588600  0.962500  0.411300  1.0  0.1482
  H  H58  1  0.606700  0.894600  0.360600  1.0  0.1388
  H  H59  1  0.694600  0.942900  0.411500  1.0  0.1654
  H  H60  1  0.634900  0.996100  0.282700  1.0  0.4007
  C  C61  1  0.865400  0.325800  0.886200  1.0  -0.1542
  C  C62  1  0.947200  0.298200  0.942600  1.0  -0.0283
  C  C63  1  0.938800  0.260300  0.004700  1.0  -0.1791
  C  C64  1  0.846400  0.248000  0.010000  1.0  -0.0995
  C  C65  1  0.764800  0.275300  0.956100  1.0  -0.0344
  C  C66  1  0.772800  0.313600  0.893800  1.0  -0.0995
  C  C67  1  0.872900  0.372500  0.823800  1.0  0.7206
  C  C68  1  0.021900  0.224300  0.059900  1.0  0.7156
  C  C69  1  0.668400  0.261400  0.963300  1.0  0.0217
  C  C70  1  0.591400  0.252200  0.969400  1.0  0.0429
  C  C71  1  0.495700  0.250700  0.977200  1.0  0.0043
  C  C72  1  0.483900  0.217600  0.041800  1.0  -0.1104
  C  C73  1  0.394300  0.219400  0.053200  1.0  -0.0908
  C  C74  1  0.313700  0.253900  0.005800  1.0  -0.0706
  C  C75  1  0.325100  0.288400  0.940800  1.0  -0.1687
  C  C76  1  0.415300  0.285400  0.929500  1.0  -0.1244
  C  C77  1  0.382100  0.187100  0.121300  1.0  0.6367
  C  C78  1  0.244100  0.323000  0.885600  1.0  0.6845
  C  C79  1  0.543800  0.492900  0.788800  1.0  -0.1466
  C  C80  1  0.536900  0.473000  0.858200  1.0  -0.094
  C  C81  1  0.500800  0.526500  0.898300  1.0  0.014
  C  C82  1  0.467900  0.600600  0.868100  1.0  -0.1162
  C  C83  1  0.473600  0.622700  0.799100  1.0  -0.1228
  C  C84  1  0.510400  0.568900  0.760700  1.0  -0.0379
  C  C85  1  0.582300  0.437800  0.742800  1.0  0.6923
  C  C86  1  0.447100  0.702600  0.766300  1.0  0.5553
  C  C87  1  0.500000  0.508500  0.970700  1.0  0.0497
  C  C88  1  0.127900  0.553900  0.881700  1.0  -0.1292
  C  C89  1  0.634600  0.825800  0.613800  1.0  -0.154
  C  C90  1  0.552800  0.798200  0.557400  1.0  -0.0284
  C  C91  1  0.561200  0.760300  0.495300  1.0  -0.1792
  C  C92  1  0.653600  0.748000  0.490000  1.0  -0.1013
  C  C93  1  0.735200  0.775300  0.543900  1.0  -0.0338
  C  C94  1  0.727200  0.813600  0.606200  1.0  -0.1
  C  C95  1  0.627100  0.872500  0.676200  1.0  0.7202
  C  C96  1  0.478100  0.724300  0.440100  1.0  0.7157
  C  C97  1  0.831600  0.761400  0.536700  1.0  0.0252
  C  C98  1  0.908600  0.752200  0.530600  1.0  0.0424
  C  C99  1  0.004300  0.750700  0.522800  1.0  0.005
  C  C100  1  0.016100  0.717600  0.458200  1.0  -0.1078
  C  C101  1  0.105700  0.719400  0.446800  1.0  -0.092
  C  C102  1  0.186300  0.753900  0.494200  1.0  -0.0699
  C  C103  1  0.174900  0.788400  0.559200  1.0  -0.1682
  C  C104  1  0.084700  0.785400  0.570500  1.0  -0.1244
  C  C105  1  0.117900  0.687100  0.378700  1.0  0.6361
  C  C106  1  0.255900  0.823000  0.614400  1.0  0.6852
  C  C107  1  0.956200  0.992900  0.711200  1.0  -0.1453
  C  C108  1  0.963100  0.973000  0.641800  1.0  -0.0946
  C  C109  1  0.999200  0.026500  0.601700  1.0  0.0129
  C  C110  1  0.032100  0.100600  0.631900  1.0  -0.1161
  C  C111  1  0.026400  0.122700  0.700900  1.0  -0.1243
  C  C112  1  0.989600  0.068900  0.739300  1.0  -0.0379
  C  C113  1  0.917700  0.937800  0.757200  1.0  0.6922
  C  C114  1  0.052900  0.202600  0.733700  1.0  0.5572
  C  C115  1  0.000000  0.008500  0.529300  1.0  0.0503
  C  C116  1  0.372100  0.053900  0.618300  1.0  -0.1287
  C  C117  1  0.134600  0.674200  0.113800  1.0  -0.154
  C  C118  1  0.052800  0.701800  0.057400  1.0  -0.0281
  C  C119  1  0.061200  0.739700  0.995300  1.0  -0.1783
  C  C120  1  0.153600  0.752000  0.990000  1.0  -0.1025
  C  C121  1  0.235200  0.724700  0.043900  1.0  -0.0336
  C  C122  1  0.227200  0.686400  0.106200  1.0  -0.1001
  C  C123  1  0.127100  0.627500  0.176200  1.0  0.7211
  C  C124  1  0.978100  0.775700  0.940100  1.0  0.7154
  C  C125  1  0.331600  0.738600  0.036700  1.0  0.0267
  C  C126  1  0.408600  0.747800  0.030600  1.0  0.0394
  C  C127  1  0.504300  0.749300  0.022800  1.0  0.0062
  C  C128  1  0.516100  0.782400  0.958200  1.0  -0.1093
  C  C129  1  0.605700  0.780600  0.946800  1.0  -0.0896
  C  C130  1  0.686300  0.746100  0.994200  1.0  -0.07
  C  C131  1  0.674900  0.711600  0.059200  1.0  -0.1679
  C  C132  1  0.584700  0.714600  0.070500  1.0  -0.1251
  C  C133  1  0.617900  0.812900  0.878700  1.0  0.6364
  C  C134  1  0.755900  0.677000  0.114400  1.0  0.6847
  C  C135  1  0.456200  0.507100  0.211200  1.0  -0.1459
  C  C136  1  0.463100  0.527000  0.141800  1.0  -0.0935
  C  C137  1  0.499200  0.473500  0.101700  1.0  0.014
  C  C138  1  0.532100  0.399400  0.131900  1.0  -0.1155
  C  C139  1  0.526400  0.377300  0.200900  1.0  -0.1237
  C  C140  1  0.489600  0.431100  0.239300  1.0  -0.0377
  C  C141  1  0.417700  0.562200  0.257200  1.0  0.692
  C  C142  1  0.552900  0.297400  0.233700  1.0  0.5568
  C  C143  1  0.500000  0.491500  0.029300  1.0  0.0504
  C  C144  1  0.872100  0.446100  0.118300  1.0  -0.1289
  C  C145  1  0.365400  0.174200  0.386200  1.0  -0.1544
  C  C146  1  0.447200  0.201800  0.442600  1.0  -0.0279
  C  C147  1  0.438800  0.239700  0.504700  1.0  -0.1788
  C  C148  1  0.346400  0.252000  0.510000  1.0  -0.1013
  C  C149  1  0.264800  0.224700  0.456100  1.0  -0.0337
  C  C150  1  0.272800  0.186400  0.393800  1.0  -0.0993
  C  C151  1  0.372900  0.127500  0.323800  1.0  0.7202
  C  C152  1  0.521900  0.275700  0.559900  1.0  0.7161
  C  C153  1  0.168400  0.238600  0.463300  1.0  0.0218
  C  C154  1  0.091400  0.247800  0.469400  1.0  0.0415
  C  C155  1  0.995700  0.249300  0.477200  1.0  0.0052
  C  C156  1  0.983900  0.282400  0.541800  1.0  -0.1117
  C  C157  1  0.894300  0.280600  0.553200  1.0  -0.0883
  C  C158  1  0.813700  0.246100  0.505800  1.0  -0.0706
  C  C159  1  0.825100  0.211600  0.440800  1.0  -0.1682
  C  C160  1  0.915300  0.214600  0.429500  1.0  -0.1251
  C  C161  1  0.882100  0.312900  0.621300  1.0  0.6366
  C  C162  1  0.744100  0.177000  0.385600  1.0  0.6843
  C  C163  1  0.043800  0.007100  0.288800  1.0  -0.1459
  C  C164  1  0.036900  0.027000  0.358200  1.0  -0.093
  C  C165  1  0.000800  0.973500  0.398300  1.0  0.0145
  C  C166  1  0.967900  0.899400  0.368100  1.0  -0.1157
  C  C167  1  0.973600  0.877300  0.299100  1.0  -0.1228
  C  C168  1  0.010400  0.931100  0.260700  1.0  -0.0377
  C  C169  1  0.082300  0.062200  0.242800  1.0  0.6923
  C  C170  1  0.947100  0.797400  0.266300  1.0  0.5548
  C  C171  1  0.000000  0.991500  0.470700  1.0  0.0496
  C  C172  1  0.627900  0.946100  0.381700  1.0  -0.129
  O  O173  1  0.799400  0.385500  0.773070  1.0  -0.7408
  O  O174  1  0.956500  0.388800  0.820800  1.0  -0.7328
  O  O175  1  0.106200  0.242300  0.061400  1.0  -0.6324
  O  O176  1  0.006400  0.180900  0.106100  1.0  -0.6698
  O  O177  1  0.449500  0.139000  0.162500  1.0  -0.7036
  O  O178  1  0.307500  0.205500  0.140800  1.0  -0.6978
  O  O179  1  0.167000  0.325600  0.897700  1.0  -0.6272
  O  O180  1  0.245200  0.348300  0.827000  1.0  -0.5933
  O  O181  1  0.591500  0.364800  0.761450  1.0  -0.6276
  O  O182  1  0.615400  0.466600  0.695800  1.0  -0.6208
  O  O183  1  0.476700  0.729500  0.720700  1.0  -0.5908
  O  O184  1  0.384600  0.745200  0.789900  1.0  -0.6525
  O  O185  1  0.118000  0.492500  0.820200  1.0  -0.6091
  O  O186  1  0.700600  0.885500  0.726930  1.0  -0.7399
  O  O187  1  0.543500  0.888800  0.679200  1.0  -0.7302
  O  O188  1  0.393800  0.742300  0.438600  1.0  -0.6319
  O  O189  1  0.493600  0.680900  0.393900  1.0  -0.6702
  O  O190  1  0.050500  0.639000  0.337500  1.0  -0.7026
  O  O191  1  0.192500  0.705500  0.359200  1.0  -0.6981
  O  O192  1  0.333000  0.825600  0.602300  1.0  -0.6265
  O  O193  1  0.254800  0.848300  0.673000  1.0  -0.5975
  O  O194  1  0.908500  0.864800  0.738550  1.0  -0.6257
  O  O195  1  0.884600  0.966600  0.804200  1.0  -0.6234
  O  O196  1  0.023300  0.229500  0.779300  1.0  -0.5914
  O  O197  1  0.115400  0.245200  0.710100  1.0  -0.6501
  O  O198  1  0.382000  0.992500  0.679800  1.0  -0.6103
  O  O199  1  0.200600  0.614500  0.226930  1.0  -0.7403
  O  O200  1  0.043500  0.611200  0.179200  1.0  -0.7316
  O  O201  1  0.893800  0.757700  0.938600  1.0  -0.6317
  O  O202  1  0.993600  0.819100  0.893900  1.0  -0.669
  O  O203  1  0.550500  0.861000  0.837500  1.0  -0.7039
  O  O204  1  0.692500  0.794500  0.859200  1.0  -0.6982
  O  O205  1  0.833000  0.674400  0.102300  1.0  -0.6265
  O  O206  1  0.754800  0.651700  0.173000  1.0  -0.597
  O  O207  1  0.408500  0.635200  0.238550  1.0  -0.6237
  O  O208  1  0.384600  0.533400  0.304200  1.0  -0.6216
  O  O209  1  0.523300  0.270500  0.279300  1.0  -0.5918
  O  O210  1  0.615400  0.254800  0.210100  1.0  -0.6505
  O  O211  1  0.882000  0.507500  0.179800  1.0  -0.6108
  O  O212  1  0.299400  0.114500  0.273070  1.0  -0.7418
  O  O213  1  0.456500  0.111200  0.320800  1.0  -0.7337
  O  O214  1  0.606200  0.257700  0.561400  1.0  -0.6324
  O  O215  1  0.506400  0.319100  0.606100  1.0  -0.6684
  O  O216  1  0.949500  0.361000  0.662500  1.0  -0.7045
  O  O217  1  0.807500  0.294500  0.640800  1.0  -0.6982
  O  O218  1  0.667000  0.174400  0.397700  1.0  -0.6271
  O  O219  1  0.745200  0.151700  0.327000  1.0  -0.5933
  O  O220  1  0.091500  0.135200  0.261450  1.0  -0.6264
  O  O221  1  0.115400  0.033400  0.195800  1.0  -0.6189
  O  O222  1  0.976700  0.770500  0.220700  1.0  -0.5906
  O  O223  1  0.884600  0.754800  0.289900  1.0  -0.6517
  O  O224  1  0.618000  0.007500  0.320200  1.0  -0.6097
