# generated using pymatgen
data_Sm2H13C28O13
_symmetry_space_group_name_H-M   'P 1'
_cell_length_a   14.43880000
_cell_length_b   16.41280000
_cell_length_c   19.33100000
_cell_angle_alpha   90.00000000
_cell_angle_beta   107.60600000
_cell_angle_gamma   90.00000000
_symmetry_Int_Tables_number   1
_chemical_formula_structural   Sm2H13C28O13
_chemical_formula_sum   'Sm8 H52 C112 O52'
_cell_volume   4366.49986689
_cell_formula_units_Z   4
loop_
 _symmetry_equiv_pos_site_id
 _symmetry_equiv_pos_as_xyz
  1  'x, y, z'
loop_
 _atom_site_type_symbol
 _atom_site_label
 _atom_site_symmetry_multiplicity
 _atom_site_fract_x
 _atom_site_fract_y
 _atom_site_fract_z
 _atom_site_occupancy
 _atom_site_charge
  Sm  Sm1  1  0.677090  0.343470  0.668930  1.0  2.1693
  Sm  Sm2  1  0.078340  0.364270  0.770970  1.0  2.2736
  Sm  Sm3  1  0.822910  0.843470  0.831070  1.0  2.175
  Sm  Sm4  1  0.421660  0.864270  0.729030  1.0  2.2763
  Sm  Sm5  1  0.322910  0.656530  0.331070  1.0  2.1733
  Sm  Sm6  1  0.921660  0.635730  0.229030  1.0  2.2773
  Sm  Sm7  1  0.177090  0.156530  0.168930  1.0  2.169
  Sm  Sm8  1  0.578340  0.135730  0.270970  1.0  2.2734
  H  H9  1  0.009300  0.303500  0.937500  1.0  0.0996
  H  H10  1  0.839700  0.220200  0.051100  1.0  0.1086
  H  H11  1  0.720000  0.332300  0.858700  1.0  0.0988
  H  H12  1  0.537700  0.194200  0.076600  1.0  0.1066
  H  H13  1  0.253900  0.256700  0.014500  1.0  0.1103
  H  H14  1  0.421800  0.307300  0.886700  1.0  0.0876
  H  H15  1  0.557100  0.421800  0.878500  1.0  0.0882
  H  H16  1  0.441700  0.637200  0.894400  1.0  0.1005
  H  H17  1  0.512800  0.584000  0.713600  1.0  0.1084
  H  H18  1  0.088300  0.537600  0.910500  1.0  0.1502
  H  H19  1  0.107500  0.607200  0.861000  1.0  0.1501
  H  H20  1  0.194700  0.557300  0.911200  1.0  0.1613
  H  H21  1  0.135600  0.503800  0.782200  1.0  0.3982
  H  H22  1  0.490700  0.803500  0.562500  1.0  0.0982
  H  H23  1  0.660300  0.720200  0.448900  1.0  0.1088
  H  H24  1  0.780000  0.832300  0.641300  1.0  0.0993
  H  H25  1  0.962300  0.694200  0.423400  1.0  0.1045
  H  H26  1  0.246100  0.756700  0.485500  1.0  0.1124
  H  H27  1  0.078200  0.807300  0.613300  1.0  0.0872
  H  H28  1  0.942900  0.921800  0.621500  1.0  0.0867
  H  H29  1  0.058300  0.137200  0.605600  1.0  0.1004
  H  H30  1  0.987200  0.084000  0.786400  1.0  0.1087
  H  H31  1  0.411700  0.037600  0.589500  1.0  0.152
  H  H32  1  0.392500  0.107200  0.639000  1.0  0.1472
  H  H33  1  0.305300  0.057300  0.588800  1.0  0.1554
  H  H34  1  0.364400  0.003800  0.717800  1.0  0.4001
  H  H35  1  0.990700  0.696500  0.062500  1.0  0.0984
  H  H36  1  0.160300  0.779800  0.948900  1.0  0.1084
  H  H37  1  0.280000  0.667700  0.141300  1.0  0.0991
  H  H38  1  0.462300  0.805800  0.923400  1.0  0.1052
  H  H39  1  0.746100  0.743300  0.985500  1.0  0.1121
  H  H40  1  0.578200  0.692700  0.113300  1.0  0.0871
  H  H41  1  0.442900  0.578200  0.121500  1.0  0.0888
  H  H42  1  0.558300  0.362800  0.105600  1.0  0.0998
  H  H43  1  0.487200  0.416000  0.286400  1.0  0.1089
  H  H44  1  0.911700  0.462400  0.089500  1.0  0.1522
  H  H45  1  0.892500  0.392800  0.139000  1.0  0.1452
  H  H46  1  0.805300  0.442700  0.088800  1.0  0.1554
  H  H47  1  0.864400  0.496200  0.217800  1.0  0.3967
  H  H48  1  0.509300  0.196500  0.437500  1.0  0.0995
  H  H49  1  0.339700  0.279800  0.551100  1.0  0.1083
  H  H50  1  0.220000  0.167700  0.358700  1.0  0.0988
  H  H51  1  0.037700  0.305800  0.576600  1.0  0.1067
  H  H52  1  0.753900  0.243300  0.514500  1.0  0.1102
  H  H53  1  0.921800  0.192700  0.386700  1.0  0.0875
  H  H54  1  0.057100  0.078200  0.378500  1.0  0.0883
  H  H55  1  0.941700  0.862800  0.394400  1.0  0.1003
  H  H56  1  0.012800  0.916000  0.213600  1.0  0.1085
  H  H57  1  0.588300  0.962400  0.410500  1.0  0.1503
  H  H58  1  0.607500  0.892800  0.361000  1.0  0.1479
  H  H59  1  0.694700  0.942700  0.411200  1.0  0.1614
  H  H60  1  0.635600  0.996200  0.282200  1.0  0.3954
  C  C61  1  0.867300  0.325200  0.887200  1.0  -0.1984
  C  C62  1  0.947700  0.296800  0.942500  1.0  -0.042
  C  C63  1  0.939400  0.259300  0.004100  1.0  -0.1939
  C  C64  1  0.847300  0.247000  0.010700  1.0  -0.0886
  C  C65  1  0.765900  0.275300  0.956200  1.0  -0.0506
  C  C66  1  0.774800  0.314100  0.894500  1.0  -0.0986
  C  C67  1  0.874200  0.372900  0.823800  1.0  0.7494
  C  C68  1  0.021900  0.222700  0.059700  1.0  0.6863
  C  C69  1  0.669300  0.262300  0.962800  1.0  0.0337
  C  C70  1  0.591500  0.251700  0.969700  1.0  0.0465
  C  C71  1  0.496700  0.251200  0.978200  1.0  -0.0105
  C  C72  1  0.484800  0.217300  0.042000  1.0  -0.1152
  C  C73  1  0.394800  0.218200  0.053200  1.0  -0.1182
  C  C74  1  0.313300  0.254400  0.005100  1.0  -0.0701
  C  C75  1  0.326800  0.288000  0.939900  1.0  -0.1442
  C  C76  1  0.415400  0.285200  0.929300  1.0  -0.1543
  C  C77  1  0.382800  0.187300  0.122100  1.0  0.6635
  C  C78  1  0.245700  0.322000  0.885200  1.0  0.6868
  C  C79  1  0.543400  0.492700  0.789000  1.0  -0.1425
  C  C80  1  0.536800  0.473000  0.859300  1.0  -0.0864
  C  C81  1  0.502100  0.525900  0.899000  1.0  0.0781
  C  C82  1  0.468200  0.600800  0.868700  1.0  -0.0942
  C  C83  1  0.473600  0.622400  0.798400  1.0  -0.1178
  C  C84  1  0.509900  0.569700  0.759400  1.0  -0.0442
  C  C85  1  0.583400  0.437200  0.743300  1.0  0.7023
  C  C86  1  0.445800  0.701700  0.765500  1.0  0.5698
  C  C87  1  0.500400  0.509000  0.970500  1.0  -0.0157
  C  C88  1  0.128200  0.554500  0.881400  1.0  -0.1241
  C  C89  1  0.632700  0.825200  0.612800  1.0  -0.1981
  C  C90  1  0.552300  0.796800  0.557500  1.0  -0.0422
  C  C91  1  0.560600  0.759300  0.495900  1.0  -0.1902
  C  C92  1  0.652700  0.747000  0.489300  1.0  -0.0864
  C  C93  1  0.734100  0.775300  0.543800  1.0  -0.0489
  C  C94  1  0.725200  0.814100  0.605500  1.0  -0.0981
  C  C95  1  0.625800  0.872900  0.676200  1.0  0.7496
  C  C96  1  0.478100  0.722700  0.440300  1.0  0.6841
  C  C97  1  0.830700  0.762300  0.537200  1.0  0.0415
  C  C98  1  0.908500  0.751700  0.530300  1.0  0.0488
  C  C99  1  0.003300  0.751200  0.521800  1.0  -0.0113
  C  C100  1  0.015200  0.717300  0.458000  1.0  -0.1122
  C  C101  1  0.105200  0.718200  0.446800  1.0  -0.1195
  C  C102  1  0.186700  0.754400  0.494900  1.0  -0.0678
  C  C103  1  0.173200  0.788000  0.560100  1.0  -0.1447
  C  C104  1  0.084600  0.785200  0.570700  1.0  -0.1548
  C  C105  1  0.117200  0.687300  0.377900  1.0  0.663
  C  C106  1  0.254300  0.822000  0.614800  1.0  0.6824
  C  C107  1  0.956600  0.992700  0.711000  1.0  -0.1421
  C  C108  1  0.963200  0.973000  0.640700  1.0  -0.0841
  C  C109  1  0.997900  0.025900  0.601000  1.0  0.0784
  C  C110  1  0.031800  0.100800  0.631300  1.0  -0.0949
  C  C111  1  0.026400  0.122400  0.701600  1.0  -0.1211
  C  C112  1  0.990100  0.069700  0.740600  1.0  -0.0502
  C  C113  1  0.916600  0.937200  0.756700  1.0  0.702
  C  C114  1  0.054200  0.201700  0.734500  1.0  0.5721
  C  C115  1  0.999600  0.009000  0.529500  1.0  -0.0161
  C  C116  1  0.371800  0.054500  0.618600  1.0  -0.1225
  C  C117  1  0.132700  0.674800  0.112800  1.0  -0.198
  C  C118  1  0.052300  0.703200  0.057500  1.0  -0.0414
  C  C119  1  0.060600  0.740700  0.995900  1.0  -0.1896
  C  C120  1  0.152700  0.753000  0.989300  1.0  -0.0932
  C  C121  1  0.234100  0.724700  0.043800  1.0  -0.0481
  C  C122  1  0.225200  0.685900  0.105500  1.0  -0.0993
  C  C123  1  0.125800  0.627100  0.176200  1.0  0.7509
  C  C124  1  0.978100  0.777300  0.940300  1.0  0.6834
  C  C125  1  0.330700  0.737700  0.037200  1.0  0.0396
  C  C126  1  0.408500  0.748300  0.030300  1.0  0.0467
  C  C127  1  0.503300  0.748800  0.021800  1.0  -0.0092
  C  C128  1  0.515200  0.782700  0.958000  1.0  -0.1139
  C  C129  1  0.605200  0.781800  0.946800  1.0  -0.1178
  C  C130  1  0.686700  0.745600  0.994900  1.0  -0.0679
  C  C131  1  0.673200  0.712000  0.060100  1.0  -0.145
  C  C132  1  0.584600  0.714800  0.070700  1.0  -0.1553
  C  C133  1  0.617200  0.812700  0.877900  1.0  0.6633
  C  C134  1  0.754300  0.678000  0.114800  1.0  0.6849
  C  C135  1  0.456600  0.507300  0.211000  1.0  -0.1425
  C  C136  1  0.463200  0.527000  0.140700  1.0  -0.0837
  C  C137  1  0.497900  0.474100  0.101000  1.0  0.0788
  C  C138  1  0.531800  0.399200  0.131300  1.0  -0.0931
  C  C139  1  0.526400  0.377600  0.201600  1.0  -0.1213
  C  C140  1  0.490100  0.430300  0.240600  1.0  -0.0494
  C  C141  1  0.416600  0.562800  0.256700  1.0  0.7019
  C  C142  1  0.554200  0.298300  0.234500  1.0  0.5722
  C  C143  1  0.499600  0.491000  0.029500  1.0  -0.0163
  C  C144  1  0.871800  0.445500  0.118600  1.0  -0.1226
  C  C145  1  0.367300  0.174800  0.387200  1.0  -0.1985
  C  C146  1  0.447700  0.203200  0.442500  1.0  -0.0422
  C  C147  1  0.439400  0.240700  0.504100  1.0  -0.1935
  C  C148  1  0.347300  0.253000  0.510700  1.0  -0.0933
  C  C149  1  0.265900  0.224700  0.456200  1.0  -0.049
  C  C150  1  0.274800  0.185900  0.394500  1.0  -0.0984
  C  C151  1  0.374200  0.127100  0.323800  1.0  0.7492
  C  C152  1  0.521900  0.277300  0.559700  1.0  0.6836
  C  C153  1  0.169300  0.237700  0.462800  1.0  0.0334
  C  C154  1  0.091500  0.248300  0.469700  1.0  0.046
  C  C155  1  0.996700  0.248800  0.478200  1.0  -0.0081
  C  C156  1  0.984800  0.282700  0.542000  1.0  -0.1157
  C  C157  1  0.894800  0.281800  0.553200  1.0  -0.1164
  C  C158  1  0.813300  0.245600  0.505100  1.0  -0.0707
  C  C159  1  0.826800  0.212000  0.439900  1.0  -0.1446
  C  C160  1  0.915400  0.214800  0.429300  1.0  -0.1533
  C  C161  1  0.882800  0.312700  0.622100  1.0  0.6632
  C  C162  1  0.745700  0.178000  0.385200  1.0  0.6811
  C  C163  1  0.043400  0.007300  0.289000  1.0  -0.1414
  C  C164  1  0.036800  0.027000  0.359300  1.0  -0.0864
  C  C165  1  0.002100  0.974100  0.399000  1.0  0.0784
  C  C166  1  0.968200  0.899200  0.368700  1.0  -0.0921
  C  C167  1  0.973600  0.877600  0.298400  1.0  -0.1177
  C  C168  1  0.009900  0.930300  0.259400  1.0  -0.043
  C  C169  1  0.083400  0.062800  0.243300  1.0  0.7014
  C  C170  1  0.945800  0.798300  0.265500  1.0  0.5701
  C  C171  1  0.000400  0.991000  0.470500  1.0  -0.0157
  C  C172  1  0.628200  0.945500  0.381400  1.0  -0.1239
  O  O173  1  0.799900  0.386100  0.772800  1.0  -0.7332
  O  O174  1  0.957200  0.388400  0.821700  1.0  -0.7202
  O  O175  1  0.106700  0.242800  0.061900  1.0  -0.6306
  O  O176  1  0.007400  0.180700  0.106500  1.0  -0.6583
  O  O177  1  0.448200  0.138100  0.161700  1.0  -0.7405
  O  O178  1  0.307900  0.205900  0.141000  1.0  -0.7245
  O  O179  1  0.166700  0.324800  0.898300  1.0  -0.657
  O  O180  1  0.245900  0.347600  0.826500  1.0  -0.5893
  O  O181  1  0.592000  0.364800  0.762100  1.0  -0.6235
  O  O182  1  0.615600  0.466300  0.695800  1.0  -0.6009
  O  O183  1  0.476800  0.729400  0.720500  1.0  -0.586
  O  O184  1  0.384700  0.744800  0.791100  1.0  -0.6512
  O  O185  1  0.118700  0.492400  0.819600  1.0  -0.604
  O  O186  1  0.700100  0.886100  0.727200  1.0  -0.732
  O  O187  1  0.542800  0.888400  0.678300  1.0  -0.7173
  O  O188  1  0.393300  0.742800  0.438100  1.0  -0.6306
  O  O189  1  0.492600  0.680700  0.393500  1.0  -0.6579
  O  O190  1  0.051800  0.638100  0.338300  1.0  -0.7416
  O  O191  1  0.192100  0.705900  0.359000  1.0  -0.7239
  O  O192  1  0.333333  0.824800  0.601700  1.0  -0.657
  O  O193  1  0.254100  0.847600  0.673500  1.0  -0.5921
  O  O194  1  0.908000  0.864800  0.737900  1.0  -0.6215
  O  O195  1  0.884400  0.966300  0.804200  1.0  -0.6036
  O  O196  1  0.023200  0.229400  0.779500  1.0  -0.5882
  O  O197  1  0.115300  0.244800  0.708900  1.0  -0.6493
  O  O198  1  0.381300  0.992400  0.680400  1.0  -0.6061
  O  O199  1  0.200100  0.613900  0.227200  1.0  -0.7327
  O  O200  1  0.042800  0.611600  0.178300  1.0  -0.7183
  O  O201  1  0.893300  0.757200  0.938100  1.0  -0.6291
  O  O202  1  0.992600  0.819300  0.893500  1.0  -0.6569
  O  O203  1  0.551800  0.861900  0.838300  1.0  -0.7435
  O  O204  1  0.692100  0.794100  0.859000  1.0  -0.7259
  O  O205  1  0.833300  0.675200  0.101700  1.0  -0.6573
  O  O206  1  0.754100  0.652400  0.173500  1.0  -0.5919
  O  O207  1  0.408000  0.635200  0.237900  1.0  -0.6192
  O  O208  1  0.384400  0.533700  0.304200  1.0  -0.6008
  O  O209  1  0.523200  0.270600  0.279500  1.0  -0.5888
  O  O210  1  0.615300  0.255200  0.208900  1.0  -0.6495
  O  O211  1  0.881300  0.507600  0.180400  1.0  -0.6067
  O  O212  1  0.299900  0.113900  0.272800  1.0  -0.7338
  O  O213  1  0.457200  0.111600  0.321700  1.0  -0.7196
  O  O214  1  0.606700  0.257200  0.561900  1.0  -0.629
  O  O215  1  0.507400  0.319300  0.606500  1.0  -0.657
  O  O216  1  0.948200  0.361900  0.661700  1.0  -0.7425
  O  O217  1  0.807900  0.294100  0.641000  1.0  -0.7263
  O  O218  1  0.666667  0.175200  0.398300  1.0  -0.6569
  O  O219  1  0.745900  0.152400  0.326500  1.0  -0.59
  O  O220  1  0.092000  0.135200  0.262100  1.0  -0.6227
  O  O221  1  0.115600  0.033700  0.195800  1.0  -0.5969
  O  O222  1  0.976800  0.770600  0.220500  1.0  -0.5862
  O  O223  1  0.884700  0.755200  0.291100  1.0  -0.6498
  O  O224  1  0.618700  0.007600  0.319600  1.0  -0.6054
