# generated using pymatgen
data_Nd2H17C29O14
_symmetry_space_group_name_H-M   'P 1'
_cell_length_a   14.59520000
_cell_length_b   16.73290000
_cell_length_c   19.57130000
_cell_angle_alpha   90.00000000
_cell_angle_beta   107.34400000
_cell_angle_gamma   90.00000000
_symmetry_Int_Tables_number   1
_chemical_formula_structural   Nd2H17C29O14
_chemical_formula_sum   'Nd8 H68 C116 O56'
_cell_volume   4562.38048694
_cell_formula_units_Z   4
loop_
 _symmetry_equiv_pos_site_id
 _symmetry_equiv_pos_as_xyz
  1  'x, y, z'
loop_
 _atom_site_type_symbol
 _atom_site_label
 _atom_site_symmetry_multiplicity
 _atom_site_fract_x
 _atom_site_fract_y
 _atom_site_fract_z
 _atom_site_occupancy
 _atom_site_charge
  Nd  Nd1  1  0.676180  0.343080  0.668850  1.0  2.1376
  Nd  Nd2  1  0.077710  0.364190  0.770860  1.0  2.2863
  Nd  Nd3  1  0.823820  0.843080  0.831150  1.0  2.1469
  Nd  Nd4  1  0.422290  0.864190  0.729140  1.0  2.2819
  Nd  Nd5  1  0.323820  0.656920  0.331150  1.0  2.1449
  Nd  Nd6  1  0.922290  0.635810  0.229140  1.0  2.281
  Nd  Nd7  1  0.176180  0.156920  0.168850  1.0  2.1381
  Nd  Nd8  1  0.577710  0.135810  0.270860  1.0  2.2851
  H  H9  1  0.007500  0.304600  0.937100  1.0  0.0939
  H  H10  1  0.837700  0.221400  0.048700  1.0  0.1031
  H  H11  1  0.717900  0.330500  0.858300  1.0  0.1063
  H  H12  1  0.536300  0.194800  0.076000  1.0  0.0925
  H  H13  1  0.255500  0.254600  0.014500  1.0  0.1095
  H  H14  1  0.421400  0.307700  0.888100  1.0  0.0984
  H  H15  1  0.556100  0.422600  0.877700  1.0  0.0981
  H  H16  1  0.442400  0.636000  0.893600  1.0  0.1011
  H  H17  1  0.514100  0.583800  0.715500  1.0  0.1016
  H  H18  1  0.086700  0.539100  0.909500  1.0  0.1525
  H  H19  1  0.110300  0.606200  0.861400  1.0  0.1492
  H  H20  1  0.193400  0.555300  0.911900  1.0  0.1655
  H  H21  1  0.068800  0.509700  0.607300  1.0  0.1373
  H  H22  1  0.166800  0.482800  0.597200  1.0  0.1322
  H  H23  1  0.165200  0.546400  0.655600  1.0  0.1553
  H  H24  1  0.135300  0.503900  0.783200  1.0  0.3553
  H  H25  1  0.094000  0.400700  0.673500  1.0  0.2989
  H  H26  1  0.492500  0.804600  0.562900  1.0  0.0926
  H  H27  1  0.662300  0.721400  0.451300  1.0  0.1035
  H  H28  1  0.782100  0.830500  0.641700  1.0  0.1057
  H  H29  1  0.963700  0.694800  0.424000  1.0  0.0929
  H  H30  1  0.244500  0.754600  0.485500  1.0  0.1103
  H  H31  1  0.078600  0.807700  0.611900  1.0  0.0987
  H  H32  1  0.943900  0.922600  0.622300  1.0  0.0967
  H  H33  1  0.057600  0.136000  0.606400  1.0  0.101
  H  H34  1  0.985900  0.083800  0.784500  1.0  0.1013
  H  H35  1  0.413300  0.039100  0.590500  1.0  0.153
  H  H36  1  0.389700  0.106200  0.638600  1.0  0.1469
  H  H37  1  0.306600  0.055300  0.588100  1.0  0.1594
  H  H38  1  0.431200  0.009700  0.892700  1.0  0.1403
  H  H39  1  0.333200  0.982800  0.902800  1.0  0.1326
  H  H40  1  0.334800  0.046400  0.844400  1.0  0.1551
  H  H41  1  0.364700  0.003900  0.716800  1.0  0.3577
  H  H42  1  0.406000  0.900700  0.826500  1.0  0.2996
  H  H43  1  0.992500  0.695400  0.062900  1.0  0.0931
  H  H44  1  0.162300  0.778600  0.951300  1.0  0.1036
  H  H45  1  0.282100  0.669500  0.141700  1.0  0.1054
  H  H46  1  0.463700  0.805200  0.924000  1.0  0.0929
  H  H47  1  0.744500  0.745400  0.985500  1.0  0.1102
  H  H48  1  0.578600  0.692300  0.111900  1.0  0.099
  H  H49  1  0.443900  0.577400  0.122300  1.0  0.0973
  H  H50  1  0.557600  0.364000  0.106400  1.0  0.1007
  H  H51  1  0.485900  0.416200  0.284500  1.0  0.1014
  H  H52  1  0.913300  0.460900  0.090500  1.0  0.1525
  H  H53  1  0.889700  0.393800  0.138600  1.0  0.1447
  H  H54  1  0.806600  0.444700  0.088100  1.0  0.1593
  H  H55  1  0.931200  0.490300  0.392700  1.0  0.1407
  H  H56  1  0.833200  0.517200  0.402800  1.0  0.1326
  H  H57  1  0.834800  0.453600  0.344400  1.0  0.1541
  H  H58  1  0.864700  0.496100  0.216800  1.0  0.3578
  H  H59  1  0.906000  0.599300  0.326500  1.0  0.298
  H  H60  1  0.507500  0.195400  0.437100  1.0  0.0941
  H  H61  1  0.337700  0.278600  0.548700  1.0  0.1033
  H  H62  1  0.217900  0.169500  0.358300  1.0  0.1061
  H  H63  1  0.036300  0.305200  0.576000  1.0  0.0927
  H  H64  1  0.755500  0.245400  0.514500  1.0  0.1095
  H  H65  1  0.921400  0.192300  0.388100  1.0  0.0988
  H  H66  1  0.056100  0.077400  0.377700  1.0  0.0979
  H  H67  1  0.942400  0.864000  0.393600  1.0  0.1012
  H  H68  1  0.014100  0.916200  0.215500  1.0  0.1016
  H  H69  1  0.586700  0.960900  0.409500  1.0  0.152
  H  H70  1  0.610300  0.893800  0.361400  1.0  0.1473
  H  H71  1  0.693400  0.944700  0.411900  1.0  0.1656
  H  H72  1  0.568800  0.990300  0.107300  1.0  0.1373
  H  H73  1  0.666800  0.017200  0.097200  1.0  0.1325
  H  H74  1  0.665200  0.953600  0.155600  1.0  0.1546
  H  H75  1  0.635300  0.996100  0.283200  1.0  0.3555
  H  H76  1  0.594000  0.099300  0.173500  1.0  0.2977
  C  C77  1  0.865600  0.325300  0.887100  1.0  -0.1666
  C  C78  1  0.946600  0.297800  0.942200  1.0  0.0039
  C  C79  1  0.937600  0.260300  0.004800  1.0  -0.1108
  C  C80  1  0.845700  0.248300  0.009300  1.0  -0.0372
  C  C81  1  0.764700  0.275600  0.956100  1.0  -0.0287
  C  C82  1  0.772300  0.313600  0.893900  1.0  -0.0764
  C  C83  1  0.872800  0.371500  0.823600  1.0  0.7118
  C  C84  1  0.020400  0.224700  0.059900  1.0  0.6677
  C  C85  1  0.668700  0.261900  0.963400  1.0  0.0353
  C  C86  1  0.591400  0.252100  0.970400  1.0  -0.001
  C  C87  1  0.496300  0.250600  0.977800  1.0  -0.0248
  C  C88  1  0.484200  0.217500  0.041800  1.0  -0.0795
  C  C89  1  0.393800  0.219000  0.053200  1.0  -0.0978
  C  C90  1  0.314400  0.253400  0.005300  1.0  -0.0591
  C  C91  1  0.325400  0.287100  0.940800  1.0  -0.1501
  C  C92  1  0.415000  0.285000  0.929800  1.0  -0.083
  C  C93  1  0.383400  0.186600  0.120900  1.0  0.6027
  C  C94  1  0.243600  0.322800  0.885800  1.0  0.6967
  C  C95  1  0.543600  0.492100  0.789600  1.0  -0.1609
  C  C96  1  0.536300  0.472900  0.858700  1.0  -0.0354
  C  C97  1  0.500600  0.526700  0.898500  1.0  -0.0392
  C  C98  1  0.468400  0.600200  0.868100  1.0  -0.0876
  C  C99  1  0.473900  0.622900  0.799200  1.0  -0.1365
  C  C100  1  0.510600  0.569600  0.760600  1.0  -0.0459
  C  C101  1  0.582300  0.437300  0.743300  1.0  0.6876
  C  C102  1  0.446700  0.702700  0.766600  1.0  0.6179
  C  C103  1  0.499900  0.508000  0.970900  1.0  -0.0006
  C  C104  1  0.128100  0.554100  0.881700  1.0  -0.1277
  C  C105  1  0.135200  0.499000  0.631500  1.0  -0.1461
  C  C106  1  0.634400  0.825300  0.612900  1.0  -0.1663
  C  C107  1  0.553400  0.797800  0.557800  1.0  0.0029
  C  C108  1  0.562400  0.760300  0.495200  1.0  -0.1105
  C  C109  1  0.654300  0.748300  0.490700  1.0  -0.0373
  C  C110  1  0.735300  0.775600  0.543900  1.0  -0.0176
  C  C111  1  0.727700  0.813600  0.606100  1.0  -0.0751
  C  C112  1  0.627200  0.871500  0.676400  1.0  0.7126
  C  C113  1  0.479600  0.724700  0.440100  1.0  0.6674
  C  C114  1  0.831300  0.761900  0.536600  1.0  0.0411
  C  C115  1  0.908600  0.752100  0.529600  1.0  -0.0061
  C  C116  1  0.003700  0.750600  0.522200  1.0  -0.0256
  C  C117  1  0.015800  0.717500  0.458200  1.0  -0.0799
  C  C118  1  0.106200  0.719000  0.446800  1.0  -0.0984
  C  C119  1  0.185600  0.753400  0.494700  1.0  -0.0578
  C  C120  1  0.174600  0.787100  0.559200  1.0  -0.1504
  C  C121  1  0.085000  0.785000  0.570200  1.0  -0.0795
  C  C122  1  0.116600  0.686600  0.379100  1.0  0.6021
  C  C123  1  0.256400  0.822800  0.614200  1.0  0.6969
  C  C124  1  0.956400  0.992100  0.710400  1.0  -0.1601
  C  C125  1  0.963700  0.972900  0.641300  1.0  -0.0351
  C  C126  1  0.999400  0.026700  0.601500  1.0  -0.0384
  C  C127  1  0.031600  0.100200  0.631900  1.0  -0.088
  C  C128  1  0.026100  0.122900  0.700800  1.0  -0.1383
  C  C129  1  0.989400  0.069600  0.739400  1.0  -0.0498
  C  C130  1  0.917700  0.937300  0.756700  1.0  0.6851
  C  C131  1  0.053300  0.202700  0.733400  1.0  0.6192
  C  C132  1  0.000100  0.008000  0.529100  1.0  -0.0005
  C  C133  1  0.371900  0.054100  0.618300  1.0  -0.126
  C  C134  1  0.364800  0.999000  0.868500  1.0  -0.143
  C  C135  1  0.134400  0.674700  0.112900  1.0  -0.1661
  C  C136  1  0.053400  0.702200  0.057800  1.0  0.0042
  C  C137  1  0.062400  0.739700  0.995200  1.0  -0.1097
  C  C138  1  0.154300  0.751700  0.990700  1.0  -0.0383
  C  C139  1  0.235300  0.724400  0.043900  1.0  -0.018
  C  C140  1  0.227700  0.686400  0.106100  1.0  -0.0731
  C  C141  1  0.127200  0.628500  0.176400  1.0  0.7138
  C  C142  1  0.979600  0.775300  0.940100  1.0  0.668
  C  C143  1  0.331300  0.738100  0.036600  1.0  0.0381
  C  C144  1  0.408600  0.747900  0.029600  1.0  -0.0053
  C  C145  1  0.503700  0.749400  0.022200  1.0  -0.0256
  C  C146  1  0.515800  0.782500  0.958200  1.0  -0.0802
  C  C147  1  0.606200  0.781000  0.946800  1.0  -0.0984
  C  C148  1  0.685600  0.746600  0.994700  1.0  -0.0578
  C  C149  1  0.674600  0.712900  0.059200  1.0  -0.15
  C  C150  1  0.585000  0.715000  0.070200  1.0  -0.0789
  C  C151  1  0.616600  0.813400  0.879100  1.0  0.6019
  C  C152  1  0.756400  0.677200  0.114200  1.0  0.6956
  C  C153  1  0.456400  0.507900  0.210400  1.0  -0.1601
  C  C154  1  0.463700  0.527100  0.141300  1.0  -0.0331
  C  C155  1  0.499400  0.473300  0.101500  1.0  -0.0375
  C  C156  1  0.531600  0.399800  0.131900  1.0  -0.0878
  C  C157  1  0.526100  0.377100  0.200800  1.0  -0.139
  C  C158  1  0.489400  0.430400  0.239400  1.0  -0.0495
  C  C159  1  0.417700  0.562700  0.256700  1.0  0.6855
  C  C160  1  0.553300  0.297300  0.233400  1.0  0.619
  C  C161  1  0.500100  0.492000  0.029100  1.0  -0.0004
  C  C162  1  0.871900  0.445900  0.118300  1.0  -0.1258
  C  C163  1  0.864800  0.501000  0.368500  1.0  -0.1457
  C  C164  1  0.365600  0.174700  0.387100  1.0  -0.1665
  C  C165  1  0.446600  0.202200  0.442200  1.0  0.0036
  C  C166  1  0.437600  0.239700  0.504800  1.0  -0.1101
  C  C167  1  0.345700  0.251700  0.509300  1.0  -0.0391
  C  C168  1  0.264700  0.224400  0.456100  1.0  -0.0189
  C  C169  1  0.272300  0.186400  0.393900  1.0  -0.075
  C  C170  1  0.372800  0.128500  0.323600  1.0  0.7125
  C  C171  1  0.520400  0.275300  0.559900  1.0  0.668
  C  C172  1  0.168700  0.238100  0.463400  1.0  0.0349
  C  C173  1  0.091400  0.247900  0.470400  1.0  0.0022
  C  C174  1  0.996300  0.249400  0.477800  1.0  -0.0239
  C  C175  1  0.984200  0.282500  0.541800  1.0  -0.0796
  C  C176  1  0.893800  0.281000  0.553200  1.0  -0.0974
  C  C177  1  0.814400  0.246600  0.505300  1.0  -0.0592
  C  C178  1  0.825400  0.212900  0.440800  1.0  -0.1496
  C  C179  1  0.915000  0.215000  0.429800  1.0  -0.082
  C  C180  1  0.883400  0.313400  0.620900  1.0  0.6023
  C  C181  1  0.743600  0.177200  0.385800  1.0  0.6962
  C  C182  1  0.043600  0.007900  0.289600  1.0  -0.16
  C  C183  1  0.036300  0.027100  0.358700  1.0  -0.0342
  C  C184  1  0.000600  0.973300  0.398500  1.0  -0.0389
  C  C185  1  0.968400  0.899800  0.368100  1.0  -0.0869
  C  C186  1  0.973900  0.877100  0.299200  1.0  -0.1371
  C  C187  1  0.010600  0.930400  0.260600  1.0  -0.0455
  C  C188  1  0.082300  0.062700  0.243300  1.0  0.6871
  C  C189  1  0.946700  0.797300  0.266600  1.0  0.6175
  C  C190  1  0.999900  0.992000  0.470900  1.0  -0.0005
  C  C191  1  0.628100  0.945900  0.381700  1.0  -0.1272
  C  C192  1  0.635200  0.001000  0.131500  1.0  -0.148
  O  O193  1  0.799300  0.384600  0.773300  1.0  -0.7663
  O  O194  1  0.957100  0.388500  0.821300  1.0  -0.7422
  O  O195  1  0.105600  0.242900  0.061400  1.0  -0.6357
  O  O196  1  0.006200  0.181400  0.106100  1.0  -0.6697
  O  O197  1  0.450000  0.138900  0.162400  1.0  -0.6488
  O  O198  1  0.307700  0.205800  0.140300  1.0  -0.7177
  O  O199  1  0.166100  0.325400  0.897400  1.0  -0.6477
  O  O200  1  0.245900  0.347500  0.827600  1.0  -0.5933
  O  O201  1  0.590600  0.364300  0.761100  1.0  -0.6394
  O  O202  1  0.614700  0.466000  0.696200  1.0  -0.6283
  O  O203  1  0.476900  0.729700  0.720800  1.0  -0.5982
  O  O204  1  0.384900  0.744800  0.790200  1.0  -0.6532
  O  O205  1  0.118500  0.492600  0.820700  1.0  -0.6316
  O  O206  1  0.142900  0.430800  0.687200  1.0  -0.6404
  O  O207  1  0.700700  0.884600  0.726700  1.0  -0.7652
  O  O208  1  0.542900  0.888500  0.678700  1.0  -0.7409
  O  O209  1  0.394400  0.742900  0.438600  1.0  -0.6353
  O  O210  1  0.493800  0.681400  0.393900  1.0  -0.6648
  O  O211  1  0.050000  0.638900  0.337600  1.0  -0.6497
  O  O212  1  0.192300  0.705800  0.359700  1.0  -0.7158
  O  O213  1  0.333900  0.825400  0.602600  1.0  -0.6486
  O  O214  1  0.254100  0.847500  0.672400  1.0  -0.5956
  O  O215  1  0.909400  0.864300  0.738900  1.0  -0.6369
  O  O216  1  0.885300  0.966000  0.803800  1.0  -0.6284
  O  O217  1  0.023100  0.229700  0.779200  1.0  -0.6017
  O  O218  1  0.115100  0.244800  0.709800  1.0  -0.6531
  O  O219  1  0.381500  0.992600  0.679300  1.0  -0.6344
  O  O220  1  0.357100  0.930800  0.812800  1.0  -0.6433
  O  O221  1  0.200700  0.615400  0.226700  1.0  -0.7655
  O  O222  1  0.042900  0.611500  0.178700  1.0  -0.7422
  O  O223  1  0.894400  0.757100  0.938600  1.0  -0.6336
  O  O224  1  0.993800  0.818600  0.893900  1.0  -0.6655
  O  O225  1  0.550000  0.861100  0.837600  1.0  -0.6523
  O  O226  1  0.692300  0.794200  0.859700  1.0  -0.719
  O  O227  1  0.833900  0.674600  0.102600  1.0  -0.6487
  O  O228  1  0.754100  0.652500  0.172400  1.0  -0.5951
  O  O229  1  0.409400  0.635700  0.238900  1.0  -0.6371
  O  O230  1  0.385300  0.534000  0.303800  1.0  -0.6243
  O  O231  1  0.523100  0.270300  0.279200  1.0  -0.6026
  O  O232  1  0.615100  0.255200  0.209800  1.0  -0.6533
  O  O233  1  0.881500  0.507400  0.179300  1.0  -0.6326
  O  O234  1  0.857100  0.569200  0.312800  1.0  -0.6427
  O  O235  1  0.299300  0.115400  0.273300  1.0  -0.767
  O  O236  1  0.457100  0.111500  0.321300  1.0  -0.7425
  O  O237  1  0.605600  0.257100  0.561400  1.0  -0.6337
  O  O238  1  0.506200  0.318600  0.606100  1.0  -0.6688
  O  O239  1  0.950000  0.361100  0.662400  1.0  -0.652
  O  O240  1  0.807700  0.294200  0.640300  1.0  -0.7194
  O  O241  1  0.666100  0.174600  0.397400  1.0  -0.6478
  O  O242  1  0.745900  0.152500  0.327600  1.0  -0.5934
  O  O243  1  0.090600  0.135700  0.261100  1.0  -0.6402
  O  O244  1  0.114700  0.034000  0.196200  1.0  -0.6248
  O  O245  1  0.976900  0.770300  0.220800  1.0  -0.5981
  O  O246  1  0.884900  0.755200  0.290200  1.0  -0.6534
  O  O247  1  0.618500  0.007400  0.320700  1.0  -0.6314
  O  O248  1  0.642900  0.069200  0.187200  1.0  -0.6407
