# generated using pymatgen
data_CdH36(C4N)12
_symmetry_space_group_name_H-M   'P 1'
_cell_length_a   15.89830000
_cell_length_b   15.89830000
_cell_length_c   21.66750000
_cell_angle_alpha   90.00000000
_cell_angle_beta   90.00000000
_cell_angle_gamma   90.00000000
_symmetry_Int_Tables_number   1
_chemical_formula_structural   CdH36(C4N)12
_chemical_formula_sum   'Cd4 H144 C192 N48'
_cell_volume   5476.58939257
_cell_formula_units_Z   4
loop_
 _symmetry_equiv_pos_site_id
 _symmetry_equiv_pos_as_xyz
  1  'x, y, z'
loop_
 _atom_site_type_symbol
 _atom_site_label
 _atom_site_symmetry_multiplicity
 _atom_site_fract_x
 _atom_site_fract_y
 _atom_site_fract_z
 _atom_site_occupancy
 _atom_site_charge
  Cd  Cd1  1  0.058770  0.058770  0.000000  1.0  0.7924
  Cd  Cd2  1  0.941230  0.941230  0.500000  1.0  0.7927
  Cd  Cd3  1  0.441230  0.558770  0.750000  1.0  0.7927
  Cd  Cd4  1  0.558770  0.441230  0.250000  1.0  0.7923
  H  H5  1  0.737200  0.508200  0.323500  1.0  0.0471
  H  H6  1  0.845100  0.603300  0.315000  1.0  0.1096
  H  H7  1  0.767300  0.651000  0.142300  1.0  0.1097
  H  H8  1  0.661200  0.556000  0.157200  1.0  0.0442
  H  H9  1  0.961300  0.668000  0.289600  1.0  0.0914
  H  H10  1  0.061300  0.773600  0.279900  1.0  0.0916
  H  H11  1  0.043300  0.878700  0.208100  1.0  0.0901
  H  H12  1  0.827600  0.772700  0.152900  1.0  0.0839
  H  H13  1  0.797300  0.995800  0.955700  1.0  0.098
  H  H14  1  0.701500  0.087900  0.913000  1.0  0.0881
  H  H15  1  0.650300  0.200000  0.968900  1.0  0.0804
  H  H16  1  0.800400  0.135800  0.109900  1.0  0.1047
  H  H17  1  0.585800  0.286300  0.032100  1.0  0.1122
  H  H18  1  0.537600  0.388300  0.098000  1.0  0.0606
  H  H19  1  0.728200  0.357500  0.208000  1.0  0.0668
  H  H20  1  0.782600  0.255200  0.146000  1.0  0.1141
  H  H21  1  0.743400  0.888400  0.095100  1.0  0.3086
  H  H22  1  0.759000  0.966200  0.141200  1.0  0.2616
  H  H23  1  0.262800  0.491800  0.823500  1.0  0.0478
  H  H24  1  0.154900  0.396700  0.815000  1.0  0.1098
  H  H25  1  0.232700  0.349000  0.642300  1.0  0.1097
  H  H26  1  0.338800  0.444000  0.657200  1.0  0.0448
  H  H27  1  0.038700  0.332000  0.789600  1.0  0.0921
  H  H28  1  0.938700  0.226400  0.779900  1.0  0.0909
  H  H29  1  0.956700  0.121300  0.708100  1.0  0.0902
  H  H30  1  0.172400  0.227300  0.652900  1.0  0.0836
  H  H31  1  0.202700  0.004200  0.455700  1.0  0.0989
  H  H32  1  0.298500  0.912100  0.413000  1.0  0.088
  H  H33  1  0.349700  0.800000  0.468900  1.0  0.0819
  H  H34  1  0.199600  0.864200  0.609900  1.0  0.1043
  H  H35  1  0.414200  0.713700  0.532100  1.0  0.1136
  H  H36  1  0.462400  0.611700  0.598000  1.0  0.0616
  H  H37  1  0.271800  0.642500  0.708000  1.0  0.066
  H  H38  1  0.217400  0.744800  0.646000  1.0  0.1139
  H  H39  1  0.256600  0.111600  0.595100  1.0  0.3092
  H  H40  1  0.241000  0.033800  0.641200  1.0  0.2601
  H  H41  1  0.991800  0.237200  0.073500  1.0  0.0477
  H  H42  1  0.896700  0.345100  0.065000  1.0  0.1094
  H  H43  1  0.849000  0.267300  0.892300  1.0  0.1097
  H  H44  1  0.944000  0.161200  0.907200  1.0  0.0455
  H  H45  1  0.832000  0.461300  0.039600  1.0  0.0912
  H  H46  1  0.726400  0.561300  0.029900  1.0  0.091
  H  H47  1  0.621300  0.543300  0.958100  1.0  0.09
  H  H48  1  0.727300  0.327600  0.902900  1.0  0.0843
  H  H49  1  0.504200  0.297300  0.705700  1.0  0.0972
  H  H50  1  0.412100  0.201500  0.663000  1.0  0.0887
  H  H51  1  0.300000  0.150300  0.718900  1.0  0.0815
  H  H52  1  0.364200  0.300400  0.859900  1.0  0.1038
  H  H53  1  0.213700  0.085800  0.782100  1.0  0.1139
  H  H54  1  0.111700  0.037600  0.848000  1.0  0.0602
  H  H55  1  0.142500  0.228200  0.958000  1.0  0.0662
  H  H56  1  0.244800  0.282600  0.896000  1.0  0.1143
  H  H57  1  0.611600  0.243400  0.845100  1.0  0.3097
  H  H58  1  0.533800  0.259000  0.891200  1.0  0.2626
  H  H59  1  0.008200  0.762800  0.573500  1.0  0.0476
  H  H60  1  0.103300  0.654900  0.565000  1.0  0.1099
  H  H61  1  0.151000  0.732700  0.392300  1.0  0.1097
  H  H62  1  0.056000  0.838800  0.407200  1.0  0.045
  H  H63  1  0.168000  0.538700  0.539600  1.0  0.0915
  H  H64  1  0.273600  0.438700  0.529900  1.0  0.0908
  H  H65  1  0.378700  0.456700  0.458100  1.0  0.0901
  H  H66  1  0.272700  0.672400  0.402900  1.0  0.0845
  H  H67  1  0.495800  0.702700  0.205700  1.0  0.0971
  H  H68  1  0.587900  0.798500  0.163000  1.0  0.0887
  H  H69  1  0.700000  0.849700  0.218900  1.0  0.0814
  H  H70  1  0.635800  0.699600  0.359900  1.0  0.1035
  H  H71  1  0.786300  0.914200  0.282100  1.0  0.1146
  H  H72  1  0.888300  0.962400  0.348000  1.0  0.0605
  H  H73  1  0.857500  0.771800  0.458000  1.0  0.0666
  H  H74  1  0.755200  0.717400  0.396000  1.0  0.1146
  H  H75  1  0.388400  0.756600  0.345100  1.0  0.3088
  H  H76  1  0.466200  0.741000  0.391200  1.0  0.2645
  H  H77  1  0.762800  0.008200  0.426500  1.0  0.0472
  H  H78  1  0.654900  0.103300  0.435000  1.0  0.1091
  H  H79  1  0.732700  0.151000  0.607700  1.0  0.1099
  H  H80  1  0.838800  0.056000  0.592800  1.0  0.0448
  H  H81  1  0.538700  0.168000  0.460400  1.0  0.092
  H  H82  1  0.438700  0.273600  0.470100  1.0  0.0906
  H  H83  1  0.456700  0.378700  0.541900  1.0  0.0903
  H  H84  1  0.672400  0.272700  0.597100  1.0  0.0835
  H  H85  1  0.702700  0.495800  0.794300  1.0  0.0989
  H  H86  1  0.798500  0.587900  0.837000  1.0  0.0883
  H  H87  1  0.849700  0.700000  0.781100  1.0  0.0817
  H  H88  1  0.699600  0.635800  0.640100  1.0  0.1042
  H  H89  1  0.914200  0.786300  0.717900  1.0  0.1133
  H  H90  1  0.962400  0.888300  0.652000  1.0  0.0616
  H  H91  1  0.771800  0.857500  0.542000  1.0  0.0653
  H  H92  1  0.717400  0.755200  0.604000  1.0  0.1138
  H  H93  1  0.756600  0.388400  0.654900  1.0  0.308
  H  H94  1  0.741000  0.466200  0.608800  1.0  0.2617
  H  H95  1  0.237200  0.991800  0.926500  1.0  0.0471
  H  H96  1  0.345100  0.896700  0.935000  1.0  0.1098
  H  H97  1  0.267300  0.849000  0.107700  1.0  0.11
  H  H98  1  0.161200  0.944000  0.092800  1.0  0.0441
  H  H99  1  0.461300  0.832000  0.960400  1.0  0.0921
  H  H100  1  0.561300  0.726400  0.970100  1.0  0.0915
  H  H101  1  0.543300  0.621300  0.041900  1.0  0.0902
  H  H102  1  0.327600  0.727300  0.097100  1.0  0.0837
  H  H103  1  0.297300  0.504200  0.294300  1.0  0.0982
  H  H104  1  0.201500  0.412100  0.337000  1.0  0.0886
  H  H105  1  0.150300  0.300000  0.281100  1.0  0.0813
  H  H106  1  0.300400  0.364200  0.140100  1.0  0.1039
  H  H107  1  0.085800  0.213700  0.217900  1.0  0.1132
  H  H108  1  0.037600  0.111700  0.152000  1.0  0.0603
  H  H109  1  0.228200  0.142500  0.042000  1.0  0.0675
  H  H110  1  0.282600  0.244800  0.104000  1.0  0.1141
  H  H111  1  0.243400  0.611600  0.154900  1.0  0.3079
  H  H112  1  0.259000  0.533800  0.108800  1.0  0.2618
  H  H113  1  0.508200  0.737200  0.676500  1.0  0.0467
  H  H114  1  0.603300  0.845100  0.685000  1.0  0.1099
  H  H115  1  0.651000  0.767300  0.857700  1.0  0.1096
  H  H116  1  0.556000  0.661200  0.842800  1.0  0.0453
  H  H117  1  0.668000  0.961300  0.710400  1.0  0.0917
  H  H118  1  0.773600  0.061300  0.720100  1.0  0.0908
  H  H119  1  0.878700  0.043300  0.791900  1.0  0.0897
  H  H120  1  0.772700  0.827600  0.847100  1.0  0.0845
  H  H121  1  0.995800  0.797300  0.044300  1.0  0.0978
  H  H122  1  0.087900  0.701500  0.087000  1.0  0.0895
  H  H123  1  0.200000  0.650300  0.031100  1.0  0.0814
  H  H124  1  0.135800  0.800400  0.890100  1.0  0.1028
  H  H125  1  0.286300  0.585800  0.967900  1.0  0.1144
  H  H126  1  0.388300  0.537600  0.902000  1.0  0.0609
  H  H127  1  0.357500  0.728200  0.792000  1.0  0.0662
  H  H128  1  0.255200  0.782600  0.854000  1.0  0.1142
  H  H129  1  0.888400  0.743400  0.904900  1.0  0.3088
  H  H130  1  0.966200  0.759000  0.858800  1.0  0.2647
  H  H131  1  0.491800  0.262800  0.176500  1.0  0.0474
  H  H132  1  0.396700  0.154900  0.185000  1.0  0.109
  H  H133  1  0.349000  0.232700  0.357700  1.0  0.1098
  H  H134  1  0.444000  0.338800  0.342800  1.0  0.0447
  H  H135  1  0.332000  0.038700  0.210400  1.0  0.0912
  H  H136  1  0.226400  0.938700  0.220100  1.0  0.0907
  H  H137  1  0.121300  0.956700  0.291900  1.0  0.0896
  H  H138  1  0.227300  0.172400  0.347100  1.0  0.0837
  H  H139  1  0.004200  0.202700  0.544300  1.0  0.0972
  H  H140  1  0.912100  0.298500  0.587000  1.0  0.0891
  H  H141  1  0.800000  0.349700  0.531100  1.0  0.0817
  H  H142  1  0.864200  0.199600  0.390100  1.0  0.1034
  H  H143  1  0.713700  0.414200  0.467900  1.0  0.1147
  H  H144  1  0.611700  0.462400  0.402000  1.0  0.0604
  H  H145  1  0.642500  0.271800  0.292000  1.0  0.0666
  H  H146  1  0.744800  0.217400  0.354000  1.0  0.1141
  H  H147  1  0.111600  0.256600  0.404900  1.0  0.3082
  H  H148  1  0.033800  0.241000  0.358800  1.0  0.2637
  C  C149  1  0.742500  0.538300  0.287000  1.0  0.1675
  C  C150  1  0.808200  0.595800  0.282100  1.0  -0.2135
  C  C151  1  0.818600  0.641800  0.228200  1.0  0.0856
  C  C152  1  0.761900  0.624000  0.180200  1.0  -0.2289
  C  C153  1  0.698300  0.566200  0.189500  1.0  0.1656
  C  C154  1  0.883600  0.708500  0.222200  1.0  -0.018
  C  C155  1  0.954000  0.710000  0.260100  1.0  -0.11
  C  C156  1  0.013900  0.773700  0.254600  1.0  -0.0956
  C  C157  1  0.003000  0.836700  0.211900  1.0  -0.1311
  C  C158  1  0.932700  0.838100  0.174730  1.0  -0.065
  C  C159  1  0.873900  0.773000  0.179100  1.0  -0.1282
  C  C160  1  0.923500  0.907300  0.130030  1.0  0.2545
  C  C161  1  0.871900  0.002600  0.067730  1.0  0.2401
  C  C162  1  0.809600  0.057700  0.037610  1.0  -0.0208
  C  C163  1  0.778800  0.042200  0.978000  1.0  -0.1225
  C  C164  1  0.720700  0.096800  0.953000  1.0  -0.0918
  C  C165  1  0.690400  0.164800  0.986400  1.0  -0.1095
  C  C166  1  0.719200  0.180700  0.045790  1.0  -0.0397
  C  C167  1  0.779800  0.125900  0.070400  1.0  -0.1434
  C  C168  1  0.688500  0.253100  0.082800  1.0  0.0741
  C  C169  1  0.615000  0.297900  0.068300  1.0  -0.2058
  C  C170  1  0.586400  0.359500  0.108500  1.0  0.1642
  C  C171  1  0.698300  0.341500  0.173100  1.0  0.1599
  C  C172  1  0.731300  0.279700  0.135900  1.0  -0.1968
  C  C173  1  0.257500  0.461700  0.787000  1.0  0.1669
  C  C174  1  0.191800  0.404200  0.782100  1.0  -0.2135
  C  C175  1  0.181400  0.358200  0.728200  1.0  0.086
  C  C176  1  0.238100  0.376000  0.680200  1.0  -0.2288
  C  C177  1  0.301700  0.433800  0.689500  1.0  0.1663
  C  C178  1  0.116400  0.291500  0.722200  1.0  -0.0172
  C  C179  1  0.046000  0.290000  0.760100  1.0  -0.1111
  C  C180  1  0.986100  0.226300  0.754600  1.0  -0.0988
  C  C181  1  0.997000  0.163300  0.711900  1.0  -0.1296
  C  C182  1  0.067300  0.161900  0.674730  1.0  -0.0655
  C  C183  1  0.126100  0.227000  0.679100  1.0  -0.1285
  C  C184  1  0.076500  0.092700  0.630030  1.0  0.2544
  C  C185  1  0.128100  0.997400  0.567730  1.0  0.241
  C  C186  1  0.190400  0.942300  0.537610  1.0  -0.0183
  C  C187  1  0.221200  0.957800  0.478000  1.0  -0.1203
  C  C188  1  0.279300  0.903200  0.453000  1.0  -0.0915
  C  C189  1  0.309600  0.835200  0.486400  1.0  -0.1103
  C  C190  1  0.280800  0.819300  0.545790  1.0  -0.0402
  C  C191  1  0.220200  0.874100  0.570400  1.0  -0.1427
  C  C192  1  0.311500  0.746900  0.582800  1.0  0.0742
  C  C193  1  0.385000  0.702100  0.568300  1.0  -0.2054
  C  C194  1  0.413600  0.640500  0.608500  1.0  0.1635
  C  C195  1  0.301700  0.658500  0.673100  1.0  0.1605
  C  C196  1  0.268700  0.720300  0.635900  1.0  -0.1958
  C  C197  1  0.961700  0.242500  0.037000  1.0  0.1653
  C  C198  1  0.904200  0.308200  0.032100  1.0  -0.214
  C  C199  1  0.858200  0.318600  0.978200  1.0  0.0856
  C  C200  1  0.876000  0.261900  0.930200  1.0  -0.2305
  C  C201  1  0.933800  0.198300  0.939500  1.0  0.1651
  C  C202  1  0.791500  0.383600  0.972200  1.0  -0.0169
  C  C203  1  0.790000  0.454000  0.010100  1.0  -0.111
  C  C204  1  0.726300  0.513900  0.004600  1.0  -0.0942
  C  C205  1  0.663300  0.503000  0.961900  1.0  -0.1326
  C  C206  1  0.661900  0.432700  0.924730  1.0  -0.0646
  C  C207  1  0.727000  0.373900  0.929100  1.0  -0.126
  C  C208  1  0.592700  0.423500  0.880030  1.0  0.2549
  C  C209  1  0.497400  0.371900  0.817730  1.0  0.2414
  C  C210  1  0.442300  0.309600  0.787610  1.0  -0.0184
  C  C211  1  0.457800  0.278800  0.728000  1.0  -0.1251
  C  C212  1  0.403200  0.220700  0.703000  1.0  -0.0923
  C  C213  1  0.335200  0.190400  0.736400  1.0  -0.1114
  C  C214  1  0.319300  0.219200  0.795790  1.0  -0.0397
  C  C215  1  0.374100  0.279800  0.820400  1.0  -0.1432
  C  C216  1  0.246900  0.188500  0.832800  1.0  0.0735
  C  C217  1  0.202100  0.115000  0.818300  1.0  -0.2073
  C  C218  1  0.140500  0.086400  0.858500  1.0  0.162
  C  C219  1  0.158500  0.198300  0.923100  1.0  0.1575
  C  C220  1  0.220300  0.231300  0.885900  1.0  -0.1971
  C  C221  1  0.038300  0.757500  0.537000  1.0  0.1653
  C  C222  1  0.095800  0.691800  0.532100  1.0  -0.2137
  C  C223  1  0.141800  0.681400  0.478200  1.0  0.0855
  C  C224  1  0.124000  0.738100  0.430200  1.0  -0.23
  C  C225  1  0.066200  0.801700  0.439500  1.0  0.1644
  C  C226  1  0.208500  0.616400  0.472200  1.0  -0.017
  C  C227  1  0.210000  0.546000  0.510100  1.0  -0.1105
  C  C228  1  0.273700  0.486100  0.504600  1.0  -0.095
  C  C229  1  0.336700  0.497000  0.461900  1.0  -0.1335
  C  C230  1  0.338100  0.567300  0.424730  1.0  -0.0657
  C  C231  1  0.273000  0.626100  0.429100  1.0  -0.1273
  C  C232  1  0.407300  0.576500  0.380030  1.0  0.2553
  C  C233  1  0.502600  0.628100  0.317730  1.0  0.2414
  C  C234  1  0.557700  0.690400  0.287610  1.0  -0.019
  C  C235  1  0.542200  0.721200  0.228000  1.0  -0.123
  C  C236  1  0.596800  0.779300  0.203000  1.0  -0.0905
  C  C237  1  0.664800  0.809600  0.236400  1.0  -0.11
  C  C238  1  0.680700  0.780800  0.295790  1.0  -0.0396
  C  C239  1  0.625900  0.720200  0.320400  1.0  -0.1436
  C  C240  1  0.753100  0.811500  0.332800  1.0  0.0737
  C  C241  1  0.797900  0.885000  0.318300  1.0  -0.2083
  C  C242  1  0.859500  0.913600  0.358500  1.0  0.1621
  C  C243  1  0.841500  0.801700  0.423100  1.0  0.1578
  C  C244  1  0.779700  0.768700  0.385900  1.0  -0.1964
  C  C245  1  0.757500  0.038300  0.463000  1.0  0.1667
  C  C246  1  0.691800  0.095800  0.467900  1.0  -0.2137
  C  C247  1  0.681400  0.141800  0.521800  1.0  0.0856
  C  C248  1  0.738100  0.124000  0.569800  1.0  -0.2287
  C  C249  1  0.801700  0.066200  0.560500  1.0  0.1664
  C  C250  1  0.616400  0.208500  0.527800  1.0  -0.018
  C  C251  1  0.546000  0.210000  0.489900  1.0  -0.1108
  C  C252  1  0.486100  0.273700  0.495400  1.0  -0.0981
  C  C253  1  0.497000  0.336700  0.538100  1.0  -0.1289
  C  C254  1  0.567300  0.338100  0.575270  1.0  -0.0658
  C  C255  1  0.626100  0.273000  0.570900  1.0  -0.1289
  C  C256  1  0.576500  0.407300  0.619970  1.0  0.2548
  C  C257  1  0.628100  0.502600  0.682270  1.0  0.2411
  C  C258  1  0.690400  0.557700  0.712390  1.0  -0.0201
  C  C259  1  0.721200  0.542200  0.772000  1.0  -0.1218
  C  C260  1  0.779300  0.596800  0.797000  1.0  -0.091
  C  C261  1  0.809600  0.664800  0.763600  1.0  -0.1096
  C  C262  1  0.780800  0.680700  0.704210  1.0  -0.0397
  C  C263  1  0.720200  0.625900  0.679600  1.0  -0.144
  C  C264  1  0.811500  0.753100  0.667200  1.0  0.0746
  C  C265  1  0.885000  0.797900  0.681700  1.0  -0.2052
  C  C266  1  0.913600  0.859500  0.641500  1.0  0.1637
  C  C267  1  0.801700  0.841500  0.576900  1.0  0.16
  C  C268  1  0.768700  0.779700  0.614100  1.0  -0.1955
  C  C269  1  0.242500  0.961700  0.963000  1.0  0.1679
  C  C270  1  0.308200  0.904200  0.967900  1.0  -0.2138
  C  C271  1  0.318600  0.858200  0.021800  1.0  0.0844
  C  C272  1  0.261900  0.876000  0.069800  1.0  -0.2291
  C  C273  1  0.198300  0.933800  0.060500  1.0  0.1652
  C  C274  1  0.383600  0.791500  0.027800  1.0  -0.0182
  C  C275  1  0.454000  0.790000  0.989900  1.0  -0.1103
  C  C276  1  0.513900  0.726300  0.995400  1.0  -0.096
  C  C277  1  0.503000  0.663300  0.038100  1.0  -0.1308
  C  C278  1  0.432700  0.661900  0.075270  1.0  -0.0644
  C  C279  1  0.373900  0.727000  0.070900  1.0  -0.1285
  C  C280  1  0.423500  0.592700  0.119970  1.0  0.2542
  C  C281  1  0.371900  0.497400  0.182270  1.0  0.2399
  C  C282  1  0.309600  0.442300  0.212390  1.0  -0.0198
  C  C283  1  0.278800  0.457800  0.272000  1.0  -0.121
  C  C284  1  0.220700  0.403200  0.297000  1.0  -0.0906
  C  C285  1  0.190400  0.335200  0.263600  1.0  -0.11
  C  C286  1  0.219200  0.319300  0.204210  1.0  -0.04
  C  C287  1  0.279800  0.374100  0.179600  1.0  -0.1441
  C  C288  1  0.188500  0.246900  0.167200  1.0  0.0745
  C  C289  1  0.115000  0.202100  0.181700  1.0  -0.206
  C  C290  1  0.086400  0.140500  0.141500  1.0  0.1643
  C  C291  1  0.198300  0.158500  0.076900  1.0  0.1604
  C  C292  1  0.231300  0.220300  0.114100  1.0  -0.1977
  C  C293  1  0.538300  0.742500  0.713000  1.0  0.1654
  C  C294  1  0.595800  0.808200  0.717900  1.0  -0.2145
  C  C295  1  0.641800  0.818600  0.771800  1.0  0.0849
  C  C296  1  0.624000  0.761900  0.819800  1.0  -0.23
  C  C297  1  0.566200  0.698300  0.810500  1.0  0.1644
  C  C298  1  0.708500  0.883600  0.777800  1.0  -0.0168
  C  C299  1  0.710000  0.954000  0.739900  1.0  -0.1114
  C  C300  1  0.773700  0.013900  0.745400  1.0  -0.0939
  C  C301  1  0.836700  0.003000  0.788100  1.0  -0.1329
  C  C302  1  0.838100  0.932700  0.825270  1.0  -0.0651
  C  C303  1  0.773000  0.873900  0.820900  1.0  -0.127
  C  C304  1  0.907300  0.923500  0.869970  1.0  0.255
  C  C305  1  0.002600  0.871900  0.932270  1.0  0.2416
  C  C306  1  0.057700  0.809600  0.962390  1.0  -0.0199
  C  C307  1  0.042200  0.778800  0.022000  1.0  -0.1235
  C  C308  1  0.096800  0.720700  0.047000  1.0  -0.0908
  C  C309  1  0.164800  0.690400  0.013600  1.0  -0.1105
  C  C310  1  0.180700  0.719200  0.954210  1.0  -0.04
  C  C311  1  0.125900  0.779800  0.929600  1.0  -0.1446
  C  C312  1  0.253100  0.688500  0.917200  1.0  0.0743
  C  C313  1  0.297900  0.615000  0.931700  1.0  -0.2077
  C  C314  1  0.359500  0.586400  0.891500  1.0  0.1625
  C  C315  1  0.341500  0.698300  0.826900  1.0  0.1591
  C  C316  1  0.279700  0.731300  0.864100  1.0  -0.1973
  C  C317  1  0.461700  0.257500  0.213000  1.0  0.165
  C  C318  1  0.404200  0.191800  0.217900  1.0  -0.2147
  C  C319  1  0.358200  0.181400  0.271800  1.0  0.0852
  C  C320  1  0.376000  0.238100  0.319800  1.0  -0.2308
  C  C321  1  0.433800  0.301700  0.310500  1.0  0.1654
  C  C322  1  0.291500  0.116400  0.277800  1.0  -0.0177
  C  C323  1  0.290000  0.046000  0.239900  1.0  -0.111
  C  C324  1  0.226300  0.986100  0.245400  1.0  -0.0939
  C  C325  1  0.163300  0.997000  0.288100  1.0  -0.1327
  C  C326  1  0.161900  0.067300  0.325270  1.0  -0.0651
  C  C327  1  0.227000  0.126100  0.320900  1.0  -0.1263
  C  C328  1  0.092700  0.076500  0.369970  1.0  0.2549
  C  C329  1  0.997400  0.128100  0.432270  1.0  0.2413
  C  C330  1  0.942300  0.190400  0.462390  1.0  -0.0184
  C  C331  1  0.957800  0.221200  0.522000  1.0  -0.1242
  C  C332  1  0.903200  0.279300  0.547000  1.0  -0.0905
  C  C333  1  0.835200  0.309600  0.513600  1.0  -0.1106
  C  C334  1  0.819300  0.280800  0.454210  1.0  -0.0392
  C  C335  1  0.874100  0.220200  0.429600  1.0  -0.1441
  C  C336  1  0.746900  0.311500  0.417200  1.0  0.0743
  C  C337  1  0.702100  0.385000  0.431700  1.0  -0.2082
  C  C338  1  0.640500  0.413600  0.391500  1.0  0.1617
  C  C339  1  0.658500  0.301700  0.326900  1.0  0.1566
  C  C340  1  0.720300  0.268700  0.364100  1.0  -0.1963
  N  N341  1  0.686800  0.524100  0.242300  1.0  -0.3685
  N  N342  1  0.987600  0.946700  0.104890  1.0  -0.3148
  N  N343  1  0.954800  0.007600  0.065950  1.0  -0.2388
  N  N344  1  0.850360  0.940100  0.107740  1.0  0.0763
  N  N345  1  0.768500  0.917000  0.125700  1.0  -0.5391
  N  N346  1  0.624200  0.380100  0.161080  1.0  -0.3655
  N  N347  1  0.313200  0.475900  0.742300  1.0  -0.3699
  N  N348  1  0.012400  0.053300  0.604890  1.0  -0.3151
  N  N349  1  0.045200  0.992400  0.565950  1.0  -0.2386
  N  N350  1  0.149640  0.059900  0.607740  1.0  0.0764
  N  N351  1  0.231500  0.083000  0.625700  1.0  -0.5354
  N  N352  1  0.375800  0.619900  0.661080  1.0  -0.3644
  N  N353  1  0.975900  0.186800  0.992300  1.0  -0.3695
  N  N354  1  0.553300  0.487600  0.854890  1.0  -0.3148
  N  N355  1  0.492400  0.454800  0.815950  1.0  -0.2394
  N  N356  1  0.559900  0.350360  0.857740  1.0  0.0772
  N  N357  1  0.583000  0.268500  0.875700  1.0  -0.5384
  N  N358  1  0.119900  0.124200  0.911080  1.0  -0.3657
  N  N359  1  0.024100  0.813200  0.492300  1.0  -0.3691
  N  N360  1  0.446700  0.512400  0.354890  1.0  -0.3143
  N  N361  1  0.507600  0.545200  0.315950  1.0  -0.2391
  N  N362  1  0.440100  0.649640  0.357740  1.0  0.0773
  N  N363  1  0.417000  0.731500  0.375700  1.0  -0.5374
  N  N364  1  0.880100  0.875800  0.411080  1.0  -0.3662
  N  N365  1  0.813200  0.024100  0.507700  1.0  -0.3689
  N  N366  1  0.512400  0.446700  0.645110  1.0  -0.3155
  N  N367  1  0.545200  0.507600  0.684050  1.0  -0.2393
  N  N368  1  0.649640  0.440100  0.642260  1.0  0.0767
  N  N369  1  0.731500  0.417000  0.624300  1.0  -0.5353
  N  N370  1  0.875800  0.880100  0.588920  1.0  -0.3651
  N  N371  1  0.186800  0.975900  0.007700  1.0  -0.3691
  N  N372  1  0.487600  0.553300  0.145110  1.0  -0.3159
  N  N373  1  0.454800  0.492400  0.184050  1.0  -0.2389
  N  N374  1  0.350360  0.559900  0.142260  1.0  0.0763
  N  N375  1  0.268500  0.583000  0.124300  1.0  -0.5381
  N  N376  1  0.124200  0.119900  0.088920  1.0  -0.3652
  N  N377  1  0.524100  0.686800  0.757700  1.0  -0.3695
  N  N378  1  0.946700  0.987600  0.895110  1.0  -0.3154
  N  N379  1  0.007600  0.954800  0.934050  1.0  -0.2403
  N  N380  1  0.940100  0.850360  0.892260  1.0  0.0771
  N  N381  1  0.917000  0.768500  0.874300  1.0  -0.5386
  N  N382  1  0.380100  0.624200  0.838920  1.0  -0.366
  N  N383  1  0.475900  0.313200  0.257700  1.0  -0.3688
  N  N384  1  0.053300  0.012400  0.395110  1.0  -0.315
  N  N385  1  0.992400  0.045200  0.434050  1.0  -0.2388
  N  N386  1  0.059900  0.149640  0.392260  1.0  0.0776
  N  N387  1  0.083000  0.231500  0.374300  1.0  -0.536
  N  N388  1  0.619900  0.375800  0.338920  1.0  -0.3657
