# generated using pymatgen
data_CdH36(C4N)12
_symmetry_space_group_name_H-M   'P 1'
_cell_length_a   15.86640000
_cell_length_b   15.86640000
_cell_length_c   21.79860000
_cell_angle_alpha   90.00000000
_cell_angle_beta   90.00000000
_cell_angle_gamma   90.00000000
_symmetry_Int_Tables_number   1
_chemical_formula_structural   CdH36(C4N)12
_chemical_formula_sum   'Cd4 H144 C192 N48'
_cell_volume   5487.63730762
_cell_formula_units_Z   4
loop_
 _symmetry_equiv_pos_site_id
 _symmetry_equiv_pos_as_xyz
  1  'x, y, z'
loop_
 _atom_site_type_symbol
 _atom_site_label
 _atom_site_symmetry_multiplicity
 _atom_site_fract_x
 _atom_site_fract_y
 _atom_site_fract_z
 _atom_site_occupancy
 _atom_site_charge
  Cd  Cd1  1  0.440920  0.440920  0.500000  1.0  0.7933
  Cd  Cd2  1  0.559080  0.559080  0.000000  1.0  0.7931
  Cd  Cd3  1  0.059080  0.940920  0.250000  1.0  0.7932
  Cd  Cd4  1  0.940920  0.059080  0.750000  1.0  0.7933
  H  H5  1  0.760300  0.994100  0.822200  1.0  0.0534
  H  H6  1  0.654300  0.896900  0.814200  1.0  0.1087
  H  H7  1  0.733400  0.848000  0.642700  1.0  0.1059
  H  H8  1  0.838300  0.944700  0.657100  1.0  0.057
  H  H9  1  0.540400  0.825900  0.792500  1.0  0.0934
  H  H10  1  0.442700  0.720300  0.782800  1.0  0.0868
  H  H11  1  0.458000  0.617100  0.709000  1.0  0.1014
  H  H12  1  0.673300  0.727000  0.652800  1.0  0.0877
  H  H13  1  0.703100  0.503900  0.455900  1.0  0.0996
  H  H14  1  0.800300  0.410900  0.413000  1.0  0.0889
  H  H15  1  0.849400  0.297400  0.468600  1.0  0.0812
  H  H16  1  0.699900  0.364400  0.609000  1.0  0.1036
  H  H17  1  0.718000  0.245800  0.645500  1.0  0.1128
  H  H18  1  0.772400  0.143400  0.707000  1.0  0.0523
  H  H19  1  0.963600  0.110300  0.598400  1.0  0.065
  H  H20  1  0.915200  0.213800  0.532900  1.0  0.1087
  H  H21  1  0.761200  0.533400  0.620800  1.0  0.31
  H  H22  1  0.741900  0.615000  0.591000  1.0  0.2786
  H  H23  1  0.239700  0.005900  0.322200  1.0  0.0527
  H  H24  1  0.345700  0.103100  0.314200  1.0  0.1084
  H  H25  1  0.266600  0.152000  0.142700  1.0  0.1058
  H  H26  1  0.161700  0.055300  0.157100  1.0  0.0561
  H  H27  1  0.459600  0.174100  0.292500  1.0  0.0926
  H  H28  1  0.557300  0.279700  0.282800  1.0  0.0875
  H  H29  1  0.542000  0.382900  0.209000  1.0  0.1013
  H  H30  1  0.326700  0.273000  0.152800  1.0  0.0879
  H  H31  1  0.296900  0.496100  0.955900  1.0  0.0983
  H  H32  1  0.199700  0.589100  0.913000  1.0  0.0889
  H  H33  1  0.150600  0.702600  0.968600  1.0  0.0796
  H  H34  1  0.300100  0.635600  0.109000  1.0  0.1039
  H  H35  1  0.282000  0.754200  0.145500  1.0  0.1129
  H  H36  1  0.227600  0.856600  0.207000  1.0  0.0531
  H  H37  1  0.036400  0.889700  0.098400  1.0  0.0648
  H  H38  1  0.084800  0.786200  0.032900  1.0  0.1064
  H  H39  1  0.238800  0.466600  0.120800  1.0  0.3119
  H  H40  1  0.258100  0.385000  0.091000  1.0  0.2769
  H  H41  1  0.505900  0.260300  0.572200  1.0  0.0535
  H  H42  1  0.603100  0.154300  0.564200  1.0  0.1089
  H  H43  1  0.652000  0.233400  0.392700  1.0  0.1054
  H  H44  1  0.555300  0.338300  0.407100  1.0  0.0569
  H  H45  1  0.674100  0.040400  0.542500  1.0  0.0926
  H  H46  1  0.779700  0.942700  0.532800  1.0  0.086
  H  H47  1  0.882900  0.958000  0.459000  1.0  0.1012
  H  H48  1  0.773000  0.173300  0.402800  1.0  0.0889
  H  H49  1  0.996100  0.203100  0.205900  1.0  0.0979
  H  H50  1  0.089100  0.300300  0.163000  1.0  0.0897
  H  H51  1  0.202600  0.349400  0.218600  1.0  0.0808
  H  H52  1  0.135600  0.199900  0.359000  1.0  0.1034
  H  H53  1  0.254200  0.218000  0.395500  1.0  0.1131
  H  H54  1  0.356600  0.272400  0.457000  1.0  0.0531
  H  H55  1  0.389700  0.463600  0.348400  1.0  0.0644
  H  H56  1  0.286200  0.415200  0.282900  1.0  0.1094
  H  H57  1  0.966600  0.261200  0.370800  1.0  0.312
  H  H58  1  0.885000  0.241900  0.341000  1.0  0.2767
  H  H59  1  0.494100  0.739700  0.072200  1.0  0.0537
  H  H60  1  0.396900  0.845700  0.064200  1.0  0.1079
  H  H61  1  0.348000  0.766600  0.892700  1.0  0.1057
  H  H62  1  0.444700  0.661700  0.907100  1.0  0.0572
  H  H63  1  0.325900  0.959600  0.042500  1.0  0.0926
  H  H64  1  0.220300  0.057300  0.032800  1.0  0.0867
  H  H65  1  0.117100  0.042000  0.959000  1.0  0.1012
  H  H66  1  0.227000  0.826700  0.902800  1.0  0.0885
  H  H67  1  0.003900  0.796900  0.705900  1.0  0.0978
  H  H68  1  0.910900  0.699700  0.663000  1.0  0.0898
  H  H69  1  0.797400  0.650600  0.718600  1.0  0.0795
  H  H70  1  0.864400  0.800100  0.859000  1.0  0.1033
  H  H71  1  0.745800  0.782000  0.895500  1.0  0.113
  H  H72  1  0.643400  0.727600  0.957000  1.0  0.0522
  H  H73  1  0.610300  0.536400  0.848400  1.0  0.0645
  H  H74  1  0.713800  0.584800  0.782900  1.0  0.1089
  H  H75  1  0.033400  0.738800  0.870800  1.0  0.3134
  H  H76  1  0.115000  0.758100  0.841000  1.0  0.2775
  H  H77  1  0.739700  0.494100  0.927800  1.0  0.0531
  H  H78  1  0.845700  0.396900  0.935800  1.0  0.1084
  H  H79  1  0.766600  0.348000  0.107300  1.0  0.1051
  H  H80  1  0.661700  0.444700  0.092900  1.0  0.0561
  H  H81  1  0.959600  0.325900  0.957500  1.0  0.093
  H  H82  1  0.057300  0.220300  0.967200  1.0  0.0876
  H  H83  1  0.042000  0.117100  0.041000  1.0  0.1014
  H  H84  1  0.826700  0.227000  0.097200  1.0  0.0886
  H  H85  1  0.796900  0.003900  0.294100  1.0  0.0984
  H  H86  1  0.699700  0.910900  0.337000  1.0  0.0891
  H  H87  1  0.650600  0.797400  0.281400  1.0  0.0801
  H  H88  1  0.800100  0.864400  0.141000  1.0  0.1037
  H  H89  1  0.782000  0.745800  0.104500  1.0  0.1124
  H  H90  1  0.727600  0.643400  0.043000  1.0  0.0545
  H  H91  1  0.536400  0.610300  0.151600  1.0  0.0646
  H  H92  1  0.584800  0.713800  0.217100  1.0  0.1077
  H  H93  1  0.738800  0.033400  0.129200  1.0  0.3122
  H  H94  1  0.758100  0.115000  0.159000  1.0  0.2769
  H  H95  1  0.260300  0.505900  0.427800  1.0  0.0533
  H  H96  1  0.154300  0.603100  0.435800  1.0  0.1081
  H  H97  1  0.233400  0.652000  0.607300  1.0  0.1049
  H  H98  1  0.338300  0.555300  0.592900  1.0  0.0568
  H  H99  1  0.040400  0.674100  0.457500  1.0  0.093
  H  H100  1  0.942700  0.779700  0.467200  1.0  0.0864
  H  H101  1  0.958000  0.882900  0.541000  1.0  0.1015
  H  H102  1  0.173300  0.773000  0.597200  1.0  0.0882
  H  H103  1  0.203100  0.996100  0.794100  1.0  0.0992
  H  H104  1  0.300300  0.089100  0.837000  1.0  0.0889
  H  H105  1  0.349400  0.202600  0.781400  1.0  0.081
  H  H106  1  0.199900  0.135600  0.641000  1.0  0.104
  H  H107  1  0.218000  0.254200  0.604500  1.0  0.1123
  H  H108  1  0.272400  0.356600  0.543000  1.0  0.0526
  H  H109  1  0.463600  0.389700  0.651600  1.0  0.0654
  H  H110  1  0.415200  0.286200  0.717100  1.0  0.1082
  H  H111  1  0.261200  0.966600  0.629200  1.0  0.3133
  H  H112  1  0.241900  0.885000  0.659000  1.0  0.2782
  H  H113  1  0.994100  0.760300  0.177800  1.0  0.0533
  H  H114  1  0.896900  0.654300  0.185800  1.0  0.1079
  H  H115  1  0.848000  0.733400  0.357300  1.0  0.1047
  H  H116  1  0.944700  0.838300  0.342900  1.0  0.0561
  H  H117  1  0.825900  0.540400  0.207500  1.0  0.0925
  H  H118  1  0.720300  0.442700  0.217200  1.0  0.0859
  H  H119  1  0.617100  0.458000  0.291000  1.0  0.1009
  H  H120  1  0.727000  0.673300  0.347200  1.0  0.0889
  H  H121  1  0.503900  0.703100  0.544100  1.0  0.0979
  H  H122  1  0.410900  0.800300  0.587000  1.0  0.0901
  H  H123  1  0.297400  0.849400  0.531400  1.0  0.08
  H  H124  1  0.364400  0.699900  0.391000  1.0  0.1038
  H  H125  1  0.245800  0.718000  0.354500  1.0  0.1125
  H  H126  1  0.143400  0.772400  0.293000  1.0  0.0541
  H  H127  1  0.110300  0.963600  0.401600  1.0  0.0643
  H  H128  1  0.213800  0.915200  0.467100  1.0  0.1097
  H  H129  1  0.533400  0.761200  0.379200  1.0  0.3132
  H  H130  1  0.615000  0.741900  0.409000  1.0  0.2781
  H  H131  1  0.005900  0.239700  0.677800  1.0  0.0532
  H  H132  1  0.103100  0.345700  0.685800  1.0  0.1087
  H  H133  1  0.152000  0.266600  0.857300  1.0  0.1047
  H  H134  1  0.055300  0.161700  0.842900  1.0  0.0571
  H  H135  1  0.174100  0.459600  0.707500  1.0  0.0928
  H  H136  1  0.279700  0.557300  0.717200  1.0  0.0863
  H  H137  1  0.382900  0.542000  0.791000  1.0  0.1008
  H  H138  1  0.273000  0.326700  0.847200  1.0  0.0893
  H  H139  1  0.496100  0.296900  0.044100  1.0  0.0982
  H  H140  1  0.589100  0.199700  0.087000  1.0  0.0904
  H  H141  1  0.702600  0.150600  0.031400  1.0  0.0808
  H  H142  1  0.635600  0.300100  0.891000  1.0  0.1031
  H  H143  1  0.754200  0.282000  0.854500  1.0  0.1126
  H  H144  1  0.856600  0.227600  0.793000  1.0  0.0532
  H  H145  1  0.889700  0.036400  0.901600  1.0  0.0653
  H  H146  1  0.786200  0.084800  0.967100  1.0  0.1094
  H  H147  1  0.466600  0.238800  0.879200  1.0  0.3136
  H  H148  1  0.385000  0.258100  0.909000  1.0  0.276
  C  C149  1  0.756000  0.962900  0.786200  1.0  0.1644
  C  C150  1  0.691300  0.904500  0.781600  1.0  -0.1983
  C  C151  1  0.681500  0.856800  0.728100  1.0  0.0767
  C  C152  1  0.738300  0.875300  0.680200  1.0  -0.2083
  C  C153  1  0.801400  0.934100  0.689300  1.0  0.1636
  C  C154  1  0.616400  0.790400  0.722600  1.0  -0.0052
  C  C155  1  0.547200  0.785400  0.762000  1.0  -0.1243
  C  C156  1  0.489000  0.721500  0.756600  1.0  -0.098
  C  C157  1  0.498300  0.659300  0.712800  1.0  -0.1336
  C  C158  1  0.568800  0.660000  0.674200  1.0  -0.0263
  C  C159  1  0.626900  0.725800  0.678900  1.0  -0.1261
  C  C160  1  0.576800  0.591700  0.629340  1.0  0.2565
  C  C161  1  0.628500  0.497200  0.566970  1.0  0.2364
  C  C162  1  0.691100  0.441200  0.537050  1.0  -0.0443
  C  C163  1  0.721700  0.457300  0.477900  1.0  -0.1086
  C  C164  1  0.780700  0.401900  0.452600  1.0  -0.1157
  C  C165  1  0.810300  0.333700  0.486100  1.0  -0.1123
  C  C166  1  0.782000  0.319000  0.545700  1.0  0.0194
  C  C167  1  0.720700  0.374100  0.569700  1.0  -0.1446
  C  C168  1  0.812300  0.246800  0.582800  1.0  0.0846
  C  C169  1  0.769300  0.221100  0.635400  1.0  -0.2249
  C  C170  1  0.802700  0.159400  0.672400  1.0  0.1429
  C  C171  1  0.915000  0.139800  0.608900  1.0  0.1611
  C  C172  1  0.885800  0.202100  0.568800  1.0  -0.1952
  C  C173  1  0.244000  0.037100  0.286200  1.0  0.1651
  C  C174  1  0.308700  0.095500  0.281600  1.0  -0.1982
  C  C175  1  0.318500  0.143200  0.228100  1.0  0.0768
  C  C176  1  0.261700  0.124700  0.180200  1.0  -0.2078
  C  C177  1  0.198600  0.065900  0.189300  1.0  0.1627
  C  C178  1  0.383600  0.209600  0.222600  1.0  -0.0061
  C  C179  1  0.452800  0.214600  0.262000  1.0  -0.1232
  C  C180  1  0.511000  0.278500  0.256600  1.0  -0.0968
  C  C181  1  0.501700  0.340700  0.212800  1.0  -0.135
  C  C182  1  0.431200  0.340000  0.174200  1.0  -0.0266
  C  C183  1  0.373100  0.274200  0.178900  1.0  -0.1255
  C  C184  1  0.423200  0.408300  0.129340  1.0  0.2567
  C  C185  1  0.371500  0.502800  0.066970  1.0  0.2366
  C  C186  1  0.308900  0.558800  0.037050  1.0  -0.0444
  C  C187  1  0.278300  0.542700  0.977900  1.0  -0.1107
  C  C188  1  0.219300  0.598100  0.952600  1.0  -0.1153
  C  C189  1  0.189700  0.666300  0.986100  1.0  -0.1129
  C  C190  1  0.218000  0.681000  0.045700  1.0  0.0211
  C  C191  1  0.279300  0.625900  0.069700  1.0  -0.1455
  C  C192  1  0.187700  0.753200  0.082800  1.0  0.0845
  C  C193  1  0.230700  0.778900  0.135400  1.0  -0.2264
  C  C194  1  0.197300  0.840600  0.172400  1.0  0.1421
  C  C195  1  0.085000  0.860200  0.108900  1.0  0.1622
  C  C196  1  0.114200  0.797900  0.068800  1.0  -0.1959
  C  C197  1  0.537100  0.256000  0.536200  1.0  0.1626
  C  C198  1  0.595500  0.191300  0.531600  1.0  -0.1979
  C  C199  1  0.643200  0.181500  0.478100  1.0  0.0762
  C  C200  1  0.624700  0.238300  0.430200  1.0  -0.209
  C  C201  1  0.565900  0.301400  0.439300  1.0  0.1615
  C  C202  1  0.709600  0.116400  0.472600  1.0  -0.0047
  C  C203  1  0.714600  0.047200  0.512000  1.0  -0.1237
  C  C204  1  0.778500  0.989000  0.506600  1.0  -0.0958
  C  C205  1  0.840700  0.998300  0.462800  1.0  -0.1374
  C  C206  1  0.840000  0.068800  0.424200  1.0  -0.0261
  C  C207  1  0.774200  0.126900  0.428900  1.0  -0.1257
  C  C208  1  0.908300  0.076800  0.379340  1.0  0.2582
  C  C209  1  0.002800  0.128500  0.316970  1.0  0.2381
  C  C210  1  0.058800  0.191100  0.287050  1.0  -0.0444
  C  C211  1  0.042700  0.221700  0.227900  1.0  -0.1098
  C  C212  1  0.098100  0.280700  0.202600  1.0  -0.1143
  C  C213  1  0.166300  0.310300  0.236100  1.0  -0.1135
  C  C214  1  0.181000  0.282000  0.295700  1.0  0.0197
  C  C215  1  0.125900  0.220700  0.319700  1.0  -0.1453
  C  C216  1  0.253200  0.312300  0.332800  1.0  0.0841
  C  C217  1  0.278900  0.269300  0.385400  1.0  -0.226
  C  C218  1  0.340600  0.302700  0.422400  1.0  0.1411
  C  C219  1  0.360200  0.415000  0.358900  1.0  0.1596
  C  C220  1  0.297900  0.385800  0.318800  1.0  -0.1983
  C  C221  1  0.462900  0.744000  0.036200  1.0  0.1634
  C  C222  1  0.404500  0.808700  0.031600  1.0  -0.1981
  C  C223  1  0.356800  0.818500  0.978100  1.0  0.0763
  C  C224  1  0.375300  0.761700  0.930200  1.0  -0.2092
  C  C225  1  0.434100  0.698600  0.939300  1.0  0.162
  C  C226  1  0.290400  0.883600  0.972600  1.0  -0.0049
  C  C227  1  0.285400  0.952800  0.012000  1.0  -0.124
  C  C228  1  0.221500  0.011000  0.006600  1.0  -0.0951
  C  C229  1  0.159300  0.001700  0.962800  1.0  -0.1379
  C  C230  1  0.160000  0.931200  0.924200  1.0  -0.0256
  C  C231  1  0.225800  0.873100  0.928900  1.0  -0.1246
  C  C232  1  0.091700  0.923200  0.879340  1.0  0.258
  C  C233  1  0.997200  0.871500  0.816970  1.0  0.238
  C  C234  1  0.941200  0.808900  0.787050  1.0  -0.0438
  C  C235  1  0.957300  0.778300  0.727900  1.0  -0.111
  C  C236  1  0.901900  0.719300  0.702600  1.0  -0.1154
  C  C237  1  0.833700  0.689700  0.736100  1.0  -0.1126
  C  C238  1  0.819000  0.718000  0.795700  1.0  0.0197
  C  C239  1  0.874100  0.779300  0.819700  1.0  -0.1447
  C  C240  1  0.746800  0.687700  0.832800  1.0  0.0838
  C  C241  1  0.721100  0.730700  0.885400  1.0  -0.2259
  C  C242  1  0.659400  0.697300  0.922400  1.0  0.14
  C  C243  1  0.639800  0.585000  0.858900  1.0  0.1589
  C  C244  1  0.702100  0.614200  0.818800  1.0  -0.1977
  C  C245  1  0.744000  0.462900  0.963800  1.0  0.1646
  C  C246  1  0.808700  0.404500  0.968400  1.0  -0.1977
  C  C247  1  0.818500  0.356800  0.021900  1.0  0.076
  C  C248  1  0.761700  0.375300  0.069800  1.0  -0.2077
  C  C249  1  0.698600  0.434100  0.060700  1.0  0.1629
  C  C250  1  0.883600  0.290400  0.027400  1.0  -0.0058
  C  C251  1  0.952800  0.285400  0.988000  1.0  -0.124
  C  C252  1  0.011000  0.221500  0.993400  1.0  -0.0973
  C  C253  1  0.001700  0.159300  0.037200  1.0  -0.1351
  C  C254  1  0.931200  0.160000  0.075800  1.0  -0.0265
  C  C255  1  0.873100  0.225800  0.071100  1.0  -0.1255
  C  C256  1  0.923200  0.091700  0.120660  1.0  0.2566
  C  C257  1  0.871500  0.997200  0.183030  1.0  0.2358
  C  C258  1  0.808900  0.941200  0.212950  1.0  -0.0446
  C  C259  1  0.778300  0.957300  0.272100  1.0  -0.1089
  C  C260  1  0.719300  0.901900  0.297400  1.0  -0.1142
  C  C261  1  0.689700  0.833700  0.263900  1.0  -0.1127
  C  C262  1  0.718000  0.819000  0.204300  1.0  0.0207
  C  C263  1  0.779300  0.874100  0.180300  1.0  -0.1467
  C  C264  1  0.687700  0.746800  0.167200  1.0  0.0849
  C  C265  1  0.730700  0.721100  0.114600  1.0  -0.2276
  C  C266  1  0.697300  0.659400  0.077600  1.0  0.1423
  C  C267  1  0.585000  0.639800  0.141100  1.0  0.1613
  C  C268  1  0.614200  0.702100  0.181200  1.0  -0.1957
  C  C269  1  0.256000  0.537100  0.463800  1.0  0.1641
  C  C270  1  0.191300  0.595500  0.468400  1.0  -0.1975
  C  C271  1  0.181500  0.643200  0.521900  1.0  0.0764
  C  C272  1  0.238300  0.624700  0.569800  1.0  -0.2069
  C  C273  1  0.301400  0.565900  0.560700  1.0  0.164
  C  C274  1  0.116400  0.709600  0.527400  1.0  -0.0059
  C  C275  1  0.047200  0.714600  0.488000  1.0  -0.1242
  C  C276  1  0.989000  0.778500  0.493400  1.0  -0.0974
  C  C277  1  0.998300  0.840700  0.537200  1.0  -0.1337
  C  C278  1  0.068800  0.840000  0.575800  1.0  -0.0266
  C  C279  1  0.126900  0.774200  0.571100  1.0  -0.1257
  C  C280  1  0.076800  0.908300  0.620660  1.0  0.2565
  C  C281  1  0.128500  0.002800  0.683030  1.0  0.2359
  C  C282  1  0.191100  0.058800  0.712950  1.0  -0.045
  C  C283  1  0.221700  0.042700  0.772100  1.0  -0.1093
  C  C284  1  0.280700  0.098100  0.797400  1.0  -0.1152
  C  C285  1  0.310300  0.166300  0.763900  1.0  -0.1121
  C  C286  1  0.282000  0.181000  0.704300  1.0  0.02
  C  C287  1  0.220700  0.125900  0.680300  1.0  -0.1467
  C  C288  1  0.312300  0.253200  0.667200  1.0  0.0848
  C  C289  1  0.269300  0.278900  0.614600  1.0  -0.2253
  C  C290  1  0.302700  0.340600  0.577600  1.0  0.1424
  C  C291  1  0.415000  0.360200  0.641100  1.0  0.1613
  C  C292  1  0.385800  0.297900  0.681200  1.0  -0.1948
  C  C293  1  0.962900  0.756000  0.213800  1.0  0.1625
  C  C294  1  0.904500  0.691300  0.218400  1.0  -0.1978
  C  C295  1  0.856800  0.681500  0.271900  1.0  0.0757
  C  C296  1  0.875300  0.738300  0.319800  1.0  -0.2082
  C  C297  1  0.934100  0.801400  0.310700  1.0  0.1626
  C  C298  1  0.790400  0.616400  0.277400  1.0  -0.0057
  C  C299  1  0.785400  0.547200  0.238000  1.0  -0.1248
  C  C300  1  0.721500  0.489000  0.243400  1.0  -0.095
  C  C301  1  0.659300  0.498300  0.287200  1.0  -0.1381
  C  C302  1  0.660000  0.568800  0.325800  1.0  -0.0257
  C  C303  1  0.725800  0.626900  0.321100  1.0  -0.1243
  C  C304  1  0.591700  0.576800  0.370660  1.0  0.2578
  C  C305  1  0.497200  0.628500  0.433030  1.0  0.2375
  C  C306  1  0.441200  0.691100  0.462950  1.0  -0.0445
  C  C307  1  0.457300  0.721700  0.522100  1.0  -0.111
  C  C308  1  0.401900  0.780700  0.547400  1.0  -0.1142
  C  C309  1  0.333700  0.810300  0.513900  1.0  -0.1126
  C  C310  1  0.319000  0.782000  0.454300  1.0  0.0199
  C  C311  1  0.374100  0.720700  0.430300  1.0  -0.1467
  C  C312  1  0.246800  0.812300  0.417200  1.0  0.0845
  C  C313  1  0.221100  0.769300  0.364600  1.0  -0.2267
  C  C314  1  0.159400  0.802700  0.327600  1.0  0.1395
  C  C315  1  0.139800  0.915000  0.391100  1.0  0.1588
  C  C316  1  0.202100  0.885800  0.431200  1.0  -0.1971
  C  C317  1  0.037100  0.244000  0.713800  1.0  0.1629
  C  C318  1  0.095500  0.308700  0.718400  1.0  -0.1988
  C  C319  1  0.143200  0.318500  0.771900  1.0  0.0759
  C  C320  1  0.124700  0.261700  0.819800  1.0  -0.208
  C  C321  1  0.065900  0.198600  0.810700  1.0  0.1621
  C  C322  1  0.209600  0.383600  0.777400  1.0  -0.0042
  C  C323  1  0.214600  0.452800  0.738000  1.0  -0.125
  C  C324  1  0.278500  0.511000  0.743400  1.0  -0.095
  C  C325  1  0.340700  0.501700  0.787200  1.0  -0.1375
  C  C326  1  0.340000  0.431200  0.825800  1.0  -0.0266
  C  C327  1  0.274200  0.373100  0.821100  1.0  -0.1248
  C  C328  1  0.408300  0.423200  0.870660  1.0  0.2579
  C  C329  1  0.502800  0.371500  0.933030  1.0  0.2377
  C  C330  1  0.558800  0.308900  0.962950  1.0  -0.0449
  C  C331  1  0.542700  0.278300  0.022100  1.0  -0.109
  C  C332  1  0.598100  0.219300  0.047400  1.0  -0.1138
  C  C333  1  0.666300  0.189700  0.013900  1.0  -0.1139
  C  C334  1  0.681000  0.218000  0.954300  1.0  0.02
  C  C335  1  0.625900  0.279300  0.930300  1.0  -0.1466
  C  C336  1  0.753200  0.187700  0.917200  1.0  0.0846
  C  C337  1  0.778900  0.230700  0.864600  1.0  -0.2266
  C  C338  1  0.840600  0.197300  0.827600  1.0  0.1414
  C  C339  1  0.860200  0.085000  0.891100  1.0  0.1591
  C  C340  1  0.797900  0.114200  0.931200  1.0  -0.1973
  N  N341  1  0.812600  0.976800  0.741930  1.0  -0.3805
  N  N342  1  0.512900  0.552300  0.604430  1.0  -0.315
  N  N343  1  0.545800  0.492200  0.565050  1.0  -0.2526
  N  N344  1  0.650100  0.558800  0.606940  1.0  0.0907
  N  N345  1  0.732700  0.581600  0.624800  1.0  -0.6003
  N  N346  1  0.876800  0.120500  0.661500  1.0  -0.364
  N  N347  1  0.187400  0.023200  0.241930  1.0  -0.3792
  N  N348  1  0.487100  0.447700  0.104430  1.0  -0.3153
  N  N349  1  0.454200  0.507800  0.065050  1.0  -0.2527
  N  N350  1  0.349900  0.441200  0.106940  1.0  0.0908
  N  N351  1  0.267300  0.418400  0.124800  1.0  -0.6034
  N  N352  1  0.123200  0.879500  0.161500  1.0  -0.3649
  N  N353  1  0.523200  0.312600  0.491930  1.0  -0.3793
  N  N354  1  0.947700  0.012900  0.354430  1.0  -0.3146
  N  N355  1  0.007800  0.045800  0.315050  1.0  -0.2527
  N  N356  1  0.941200  0.150100  0.356940  1.0  0.0904
  N  N357  1  0.918400  0.232700  0.374800  1.0  -0.6011
  N  N358  1  0.379500  0.376800  0.411500  1.0  -0.365
  N  N359  1  0.476800  0.687400  0.991930  1.0  -0.38
  N  N360  1  0.052300  0.987100  0.854430  1.0  -0.3149
  N  N361  1  0.992200  0.954200  0.815050  1.0  -0.2536
  N  N362  1  0.058800  0.849900  0.856940  1.0  0.0905
  N  N363  1  0.081600  0.767300  0.874800  1.0  -0.6014
  N  N364  1  0.620500  0.623200  0.911500  1.0  -0.3647
  N  N365  1  0.687400  0.476800  0.008070  1.0  -0.3796
  N  N366  1  0.987100  0.052300  0.145570  1.0  -0.3146
  N  N367  1  0.954200  0.992200  0.184950  1.0  -0.2528
  N  N368  1  0.849900  0.058800  0.143060  1.0  0.0907
  N  N369  1  0.767300  0.081600  0.125200  1.0  -0.6022
  N  N370  1  0.623200  0.620500  0.088500  1.0  -0.3648
  N  N371  1  0.312600  0.523200  0.508070  1.0  -0.3798
  N  N372  1  0.012900  0.947700  0.645570  1.0  -0.3141
  N  N373  1  0.045800  0.007800  0.684950  1.0  -0.2534
  N  N374  1  0.150100  0.941200  0.643060  1.0  0.0906
  N  N375  1  0.232700  0.918400  0.625200  1.0  -0.6031
  N  N376  1  0.376800  0.379500  0.588500  1.0  -0.3645
  N  N377  1  0.976800  0.812600  0.258070  1.0  -0.3793
  N  N378  1  0.552300  0.512900  0.395570  1.0  -0.3139
  N  N379  1  0.492200  0.545800  0.434950  1.0  -0.253
  N  N380  1  0.558800  0.650100  0.393060  1.0  0.0905
  N  N381  1  0.581600  0.732700  0.375200  1.0  -0.6021
  N  N382  1  0.120500  0.876800  0.338500  1.0  -0.3645
  N  N383  1  0.023200  0.187400  0.758070  1.0  -0.3798
  N  N384  1  0.447700  0.487100  0.895570  1.0  -0.314
  N  N385  1  0.507800  0.454200  0.934950  1.0  -0.2542
  N  N386  1  0.441200  0.349900  0.893060  1.0  0.0902
  N  N387  1  0.418400  0.267300  0.875200  1.0  -0.6012
  N  N388  1  0.879500  0.123200  0.838500  1.0  -0.3652
