# generated using pymatgen
data_CdH36(C4N)12
_symmetry_space_group_name_H-M   'P 1'
_cell_length_a   15.90820000
_cell_length_b   15.90820000
_cell_length_c   21.61840000
_cell_angle_alpha   90.00000000
_cell_angle_beta   90.00000000
_cell_angle_gamma   90.00000000
_symmetry_Int_Tables_number   1
_chemical_formula_structural   CdH36(C4N)12
_chemical_formula_sum   'Cd4 H144 C192 N48'
_cell_volume   5470.98637161
_cell_formula_units_Z   4
loop_
 _symmetry_equiv_pos_site_id
 _symmetry_equiv_pos_as_xyz
  1  'x, y, z'
loop_
 _atom_site_type_symbol
 _atom_site_label
 _atom_site_symmetry_multiplicity
 _atom_site_fract_x
 _atom_site_fract_y
 _atom_site_fract_z
 _atom_site_occupancy
 _atom_site_charge
  Cd  Cd1  1  0.441150  0.558850  0.250000  1.0  0.7929
  Cd  Cd2  1  0.558850  0.441150  0.750000  1.0  0.7923
  Cd  Cd3  1  0.941150  0.941150  0.500000  1.0  0.7928
  Cd  Cd4  1  0.058850  0.058850  0.000000  1.0  0.7924
  H  H5  1  0.962300  0.888000  0.348100  1.0  0.061
  H  H6  1  0.914000  0.785700  0.282800  1.0  0.1058
  H  H7  1  0.716500  0.757200  0.395600  1.0  0.1127
  H  H8  1  0.771200  0.858100  0.457700  1.0  0.0603
  H  H9  1  0.849700  0.700400  0.219000  1.0  0.0699
  H  H10  1  0.799700  0.588000  0.163300  1.0  0.0899
  H  H11  1  0.702200  0.496400  0.206300  1.0  0.0951
  H  H12  1  0.699300  0.636800  0.360100  1.0  0.1047
  H  H13  1  0.456700  0.379000  0.459500  1.0  0.0986
  H  H14  1  0.438800  0.272900  0.530400  1.0  0.0812
  H  H15  1  0.537300  0.166500  0.539600  1.0  0.0951
  H  H16  1  0.673600  0.273200  0.403600  1.0  0.0849
  H  H17  1  0.653500  0.101700  0.564400  1.0  0.1081
  H  H18  1  0.761100  0.006600  0.572700  1.0  0.0481
  H  H19  1  0.840400  0.057500  0.407200  1.0  0.043
  H  H20  1  0.734100  0.152200  0.392500  1.0  0.1023
  H  H21  1  0.776000  0.453300  0.377000  1.0  0.3363
  H  H22  1  0.758100  0.391300  0.349900  1.0  0.2611
  H  H23  1  0.037700  0.112000  0.848100  1.0  0.0601
  H  H24  1  0.086000  0.214300  0.782800  1.0  0.1053
  H  H25  1  0.283500  0.242800  0.895600  1.0  0.1124
  H  H26  1  0.228800  0.141900  0.957700  1.0  0.0617
  H  H27  1  0.150300  0.299600  0.719000  1.0  0.0694
  H  H28  1  0.200300  0.412000  0.663300  1.0  0.0896
  H  H29  1  0.297800  0.503600  0.706300  1.0  0.0949
  H  H30  1  0.300700  0.363200  0.860100  1.0  0.1044
  H  H31  1  0.543300  0.621000  0.959500  1.0  0.0983
  H  H32  1  0.561200  0.727100  0.030400  1.0  0.0817
  H  H33  1  0.462700  0.833500  0.039600  1.0  0.0944
  H  H34  1  0.326400  0.726800  0.903600  1.0  0.0853
  H  H35  1  0.346500  0.898300  0.064400  1.0  0.1072
  H  H36  1  0.238900  0.993400  0.072700  1.0  0.047
  H  H37  1  0.159600  0.942500  0.907200  1.0  0.0432
  H  H38  1  0.265900  0.847800  0.892500  1.0  0.1026
  H  H39  1  0.224000  0.546700  0.877000  1.0  0.3322
  H  H40  1  0.241900  0.608700  0.849900  1.0  0.2608
  H  H41  1  0.612000  0.462300  0.598100  1.0  0.0605
  H  H42  1  0.714300  0.414000  0.532800  1.0  0.1073
  H  H43  1  0.742800  0.216500  0.645600  1.0  0.1139
  H  H44  1  0.641900  0.271200  0.707700  1.0  0.0614
  H  H45  1  0.799600  0.349700  0.469000  1.0  0.0706
  H  H46  1  0.912000  0.299700  0.413300  1.0  0.0899
  H  H47  1  0.003600  0.202200  0.456300  1.0  0.0943
  H  H48  1  0.863200  0.199300  0.610100  1.0  0.1039
  H  H49  1  0.121000  0.956700  0.709500  1.0  0.0979
  H  H50  1  0.227100  0.938800  0.780400  1.0  0.0816
  H  H51  1  0.333500  0.037300  0.789600  1.0  0.0944
  H  H52  1  0.226800  0.173600  0.653600  1.0  0.0858
  H  H53  1  0.398300  0.153500  0.814400  1.0  0.1069
  H  H54  1  0.493400  0.261100  0.822700  1.0  0.0477
  H  H55  1  0.442500  0.340400  0.657200  1.0  0.0432
  H  H56  1  0.347800  0.234100  0.642500  1.0  0.1027
  H  H57  1  0.046700  0.276000  0.627000  1.0  0.3358
  H  H58  1  0.108700  0.258100  0.599900  1.0  0.2587
  H  H59  1  0.388000  0.537700  0.098100  1.0  0.0607
  H  H60  1  0.285700  0.586000  0.032800  1.0  0.1071
  H  H61  1  0.257200  0.783500  0.145600  1.0  0.1136
  H  H62  1  0.358100  0.728800  0.207700  1.0  0.0611
  H  H63  1  0.200400  0.650300  0.969000  1.0  0.0698
  H  H64  1  0.088000  0.700300  0.913300  1.0  0.0899
  H  H65  1  0.996400  0.797800  0.956300  1.0  0.0945
  H  H66  1  0.136800  0.800700  0.110100  1.0  0.1044
  H  H67  1  0.879000  0.043300  0.209500  1.0  0.0977
  H  H68  1  0.772900  0.061200  0.280400  1.0  0.0816
  H  H69  1  0.666500  0.962700  0.289600  1.0  0.0944
  H  H70  1  0.773200  0.826400  0.153600  1.0  0.0857
  H  H71  1  0.601700  0.846500  0.314400  1.0  0.1075
  H  H72  1  0.506600  0.738900  0.322700  1.0  0.0477
  H  H73  1  0.557500  0.659600  0.157200  1.0  0.0435
  H  H74  1  0.652200  0.765900  0.142500  1.0  0.1028
  H  H75  1  0.953300  0.724000  0.127000  1.0  0.3354
  H  H76  1  0.891300  0.741900  0.099900  1.0  0.2572
  H  H77  1  0.537700  0.388000  0.901900  1.0  0.0602
  H  H78  1  0.586000  0.285700  0.967200  1.0  0.1059
  H  H79  1  0.783500  0.257200  0.854400  1.0  0.1122
  H  H80  1  0.728800  0.358100  0.792300  1.0  0.0624
  H  H81  1  0.650300  0.200400  0.031000  1.0  0.0688
  H  H82  1  0.700300  0.088000  0.086700  1.0  0.09
  H  H83  1  0.797800  0.996400  0.043700  1.0  0.0951
  H  H84  1  0.800700  0.136800  0.889900  1.0  0.1047
  H  H85  1  0.043300  0.879000  0.790500  1.0  0.0981
  H  H86  1  0.061200  0.772900  0.719600  1.0  0.0817
  H  H87  1  0.962700  0.666500  0.710400  1.0  0.0947
  H  H88  1  0.826400  0.773200  0.846400  1.0  0.0851
  H  H89  1  0.846500  0.601700  0.685600  1.0  0.1072
  H  H90  1  0.738900  0.506600  0.677300  1.0  0.0469
  H  H91  1  0.659600  0.557500  0.842800  1.0  0.0432
  H  H92  1  0.765900  0.652200  0.857500  1.0  0.1024
  H  H93  1  0.724000  0.953300  0.873000  1.0  0.3344
  H  H94  1  0.741900  0.891300  0.900100  1.0  0.2613
  H  H95  1  0.462300  0.612000  0.401900  1.0  0.0608
  H  H96  1  0.414000  0.714300  0.467200  1.0  0.1057
  H  H97  1  0.216500  0.742800  0.354400  1.0  0.1115
  H  H98  1  0.271200  0.641900  0.292300  1.0  0.0613
  H  H99  1  0.349700  0.799600  0.531000  1.0  0.0697
  H  H100  1  0.299700  0.912000  0.586700  1.0  0.0898
  H  H101  1  0.202200  0.003600  0.543700  1.0  0.0952
  H  H102  1  0.199300  0.863200  0.389900  1.0  0.1049
  H  H103  1  0.956700  0.121000  0.290500  1.0  0.0982
  H  H104  1  0.938800  0.227100  0.219600  1.0  0.0812
  H  H105  1  0.037300  0.333500  0.210400  1.0  0.0953
  H  H106  1  0.173600  0.226800  0.346400  1.0  0.0854
  H  H107  1  0.153500  0.398300  0.185600  1.0  0.1069
  H  H108  1  0.261100  0.493400  0.177300  1.0  0.0473
  H  H109  1  0.340400  0.442500  0.342800  1.0  0.0432
  H  H110  1  0.234100  0.347800  0.357500  1.0  0.1024
  H  H111  1  0.276000  0.046700  0.373000  1.0  0.3334
  H  H112  1  0.258100  0.108700  0.400100  1.0  0.2604
  H  H113  1  0.888000  0.962300  0.651900  1.0  0.06
  H  H114  1  0.785700  0.914000  0.717200  1.0  0.1076
  H  H115  1  0.757200  0.716500  0.604400  1.0  0.1131
  H  H116  1  0.858100  0.771200  0.542300  1.0  0.0621
  H  H117  1  0.700400  0.849700  0.781000  1.0  0.0699
  H  H118  1  0.588000  0.799700  0.836700  1.0  0.0901
  H  H119  1  0.496400  0.702200  0.793700  1.0  0.0942
  H  H120  1  0.636800  0.699300  0.639900  1.0  0.1047
  H  H121  1  0.379000  0.456700  0.540500  1.0  0.098
  H  H122  1  0.272900  0.438800  0.469600  1.0  0.081
  H  H123  1  0.166500  0.537300  0.460400  1.0  0.0944
  H  H124  1  0.273200  0.673600  0.596400  1.0  0.0855
  H  H125  1  0.101700  0.653500  0.435600  1.0  0.1071
  H  H126  1  0.006600  0.761100  0.427300  1.0  0.0472
  H  H127  1  0.057500  0.840400  0.592800  1.0  0.0431
  H  H128  1  0.152200  0.734100  0.607500  1.0  0.1028
  H  H129  1  0.453300  0.776000  0.623000  1.0  0.3371
  H  H130  1  0.391300  0.758100  0.650100  1.0  0.2607
  H  H131  1  0.112000  0.037700  0.151900  1.0  0.0607
  H  H132  1  0.214300  0.086000  0.217200  1.0  0.1072
  H  H133  1  0.242800  0.283500  0.104400  1.0  0.1135
  H  H134  1  0.141900  0.228800  0.042300  1.0  0.0621
  H  H135  1  0.299600  0.150300  0.281000  1.0  0.0699
  H  H136  1  0.412000  0.200300  0.336700  1.0  0.0897
  H  H137  1  0.503600  0.297800  0.293700  1.0  0.0945
  H  H138  1  0.363200  0.300700  0.139900  1.0  0.1044
  H  H139  1  0.621000  0.543300  0.040500  1.0  0.0979
  H  H140  1  0.727100  0.561200  0.969600  1.0  0.0817
  H  H141  1  0.833500  0.462700  0.960400  1.0  0.0947
  H  H142  1  0.726800  0.326400  0.096400  1.0  0.0862
  H  H143  1  0.898300  0.346500  0.935600  1.0  0.1069
  H  H144  1  0.993400  0.238900  0.927300  1.0  0.0471
  H  H145  1  0.942500  0.159600  0.092800  1.0  0.0437
  H  H146  1  0.847800  0.265900  0.107500  1.0  0.1026
  H  H147  1  0.546700  0.224000  0.123000  1.0  0.3337
  H  H148  1  0.608700  0.241900  0.150100  1.0  0.2599
  C  C149  1  0.913400  0.859400  0.358800  1.0  0.1537
  C  C150  1  0.884500  0.797800  0.318900  1.0  -0.21
  C  C151  1  0.810800  0.753700  0.332800  1.0  0.0819
  C  C152  1  0.768100  0.780900  0.385600  1.0  -0.2235
  C  C153  1  0.801300  0.842000  0.422800  1.0  0.1366
  C  C154  1  0.780000  0.681500  0.295900  1.0  -0.0002
  C  C155  1  0.809500  0.665100  0.236500  1.0  -0.1012
  C  C156  1  0.779900  0.597300  0.203200  1.0  -0.1005
  C  C157  1  0.720900  0.542800  0.228500  1.0  -0.1078
  C  C158  1  0.690200  0.558800  0.287790  1.0  -0.0721
  C  C159  1  0.719800  0.626900  0.320520  1.0  -0.1278
  C  C160  1  0.627200  0.503300  0.318570  1.0  0.2566
  C  C161  1  0.576700  0.408300  0.381050  1.0  0.2405
  C  C162  1  0.568700  0.338900  0.425550  1.0  -0.0335
  C  C163  1  0.497000  0.337000  0.463000  1.0  -0.1225
  C  C164  1  0.486200  0.273200  0.505100  1.0  -0.0913
  C  C165  1  0.545000  0.208900  0.510600  1.0  -0.1357
  C  C166  1  0.616700  0.208400  0.471700  1.0  -0.0047
  C  C167  1  0.627100  0.273200  0.429600  1.0  -0.1211
  C  C168  1  0.681300  0.142700  0.477900  1.0  0.0791
  C  C169  1  0.690900  0.095000  0.531800  1.0  -0.205
  C  C170  1  0.756400  0.037600  0.536400  1.0  0.1655
  C  C171  1  0.802700  0.067000  0.439400  1.0  0.1657
  C  C172  1  0.738900  0.124800  0.430300  1.0  -0.2218
  C  C173  1  0.086600  0.140600  0.858800  1.0  0.1542
  C  C174  1  0.115500  0.202200  0.818900  1.0  -0.211
  C  C175  1  0.189200  0.246300  0.832800  1.0  0.0818
  C  C176  1  0.231900  0.219100  0.885600  1.0  -0.2261
  C  C177  1  0.198700  0.158000  0.922800  1.0  0.1369
  C  C178  1  0.220000  0.318500  0.795900  1.0  0.0006
  C  C179  1  0.190500  0.334900  0.736500  1.0  -0.1008
  C  C180  1  0.220100  0.402700  0.703200  1.0  -0.1009
  C  C181  1  0.279100  0.457200  0.728500  1.0  -0.107
  C  C182  1  0.309800  0.441200  0.787790  1.0  -0.072
  C  C183  1  0.280200  0.373100  0.820520  1.0  -0.1273
  C  C184  1  0.372800  0.496700  0.818570  1.0  0.2567
  C  C185  1  0.423300  0.591700  0.881050  1.0  0.2395
  C  C186  1  0.431300  0.661100  0.925550  1.0  -0.0335
  C  C187  1  0.503000  0.663000  0.963000  1.0  -0.1235
  C  C188  1  0.513800  0.726800  0.005100  1.0  -0.0911
  C  C189  1  0.455000  0.791100  0.010600  1.0  -0.1341
  C  C190  1  0.383300  0.791600  0.971700  1.0  -0.0052
  C  C191  1  0.372900  0.726800  0.929600  1.0  -0.121
  C  C192  1  0.318700  0.857300  0.977900  1.0  0.0792
  C  C193  1  0.309100  0.905000  0.031800  1.0  -0.2039
  C  C194  1  0.243600  0.962400  0.036400  1.0  0.165
  C  C195  1  0.197300  0.933000  0.939400  1.0  0.1655
  C  C196  1  0.261100  0.875200  0.930300  1.0  -0.2221
  C  C197  1  0.640600  0.413400  0.608800  1.0  0.1518
  C  C198  1  0.702200  0.384500  0.568900  1.0  -0.2135
  C  C199  1  0.746300  0.310800  0.582800  1.0  0.0812
  C  C200  1  0.719100  0.268100  0.635600  1.0  -0.2258
  C  C201  1  0.658000  0.301300  0.672800  1.0  0.1345
  C  C202  1  0.818500  0.280000  0.545900  1.0  -1e-04
  C  C203  1  0.834900  0.309500  0.486500  1.0  -0.1023
  C  C204  1  0.902700  0.279900  0.453200  1.0  -0.1001
  C  C205  1  0.957200  0.220900  0.478500  1.0  -0.1081
  C  C206  1  0.941200  0.190200  0.537790  1.0  -0.0708
  C  C207  1  0.873100  0.219800  0.570520  1.0  -0.1273
  C  C208  1  0.996700  0.127200  0.568570  1.0  0.2578
  C  C209  1  0.091700  0.076700  0.631050  1.0  0.2395
  C  C210  1  0.161100  0.068700  0.675550  1.0  -0.033
  C  C211  1  0.163000  0.997000  0.713000  1.0  -0.1254
  C  C212  1  0.226800  0.986200  0.755100  1.0  -0.0886
  C  C213  1  0.291100  0.045000  0.760600  1.0  -0.1344
  C  C214  1  0.291600  0.116700  0.721700  1.0  -0.0046
  C  C215  1  0.226800  0.127100  0.679600  1.0  -0.1198
  C  C216  1  0.357300  0.181300  0.727900  1.0  0.0786
  C  C217  1  0.405000  0.190900  0.781800  1.0  -0.2043
  C  C218  1  0.462400  0.256400  0.786400  1.0  0.1637
  C  C219  1  0.433000  0.302700  0.689400  1.0  0.1656
  C  C220  1  0.375200  0.238900  0.680300  1.0  -0.2232
  C  C221  1  0.359400  0.586600  0.108800  1.0  0.1513
  C  C222  1  0.297800  0.615500  0.068900  1.0  -0.2132
  C  C223  1  0.253700  0.689200  0.082800  1.0  0.0823
  C  C224  1  0.280900  0.731900  0.135600  1.0  -0.2272
  C  C225  1  0.342000  0.698700  0.172800  1.0  0.1355
  C  C226  1  0.181500  0.720000  0.045900  1.0  0.0004
  C  C227  1  0.165100  0.690500  0.986500  1.0  -0.1025
  C  C228  1  0.097300  0.720100  0.953200  1.0  -0.0987
  C  C229  1  0.042800  0.779100  0.978500  1.0  -0.1064
  C  C230  1  0.058800  0.809800  0.037790  1.0  -0.0719
  C  C231  1  0.126900  0.780200  0.070520  1.0  -0.1274
  C  C232  1  0.003300  0.872800  0.068570  1.0  0.2579
  C  C233  1  0.908300  0.923300  0.131050  1.0  0.2403
  C  C234  1  0.838900  0.931300  0.175550  1.0  -0.0335
  C  C235  1  0.837000  0.003000  0.213000  1.0  -0.1246
  C  C236  1  0.773200  0.013800  0.255100  1.0  -0.0887
  C  C237  1  0.708900  0.955000  0.260600  1.0  -0.136
  C  C238  1  0.708400  0.883300  0.221700  1.0  -0.0031
  C  C239  1  0.773200  0.872900  0.179600  1.0  -0.1197
  C  C240  1  0.642700  0.818700  0.227900  1.0  0.0801
  C  C241  1  0.595000  0.809100  0.281800  1.0  -0.2048
  C  C242  1  0.537600  0.743600  0.286400  1.0  0.1639
  C  C243  1  0.567000  0.697300  0.189400  1.0  0.1647
  C  C244  1  0.624800  0.761100  0.180300  1.0  -0.2237
  C  C245  1  0.586600  0.359400  0.891200  1.0  0.154
  C  C246  1  0.615500  0.297800  0.931100  1.0  -0.2102
  C  C247  1  0.689200  0.253700  0.917200  1.0  0.0823
  C  C248  1  0.731900  0.280900  0.864400  1.0  -0.229
  C  C249  1  0.698700  0.342000  0.827200  1.0  0.1364
  C  C250  1  0.720000  0.181500  0.954100  1.0  0.0005
  C  C251  1  0.690500  0.165100  0.013500  1.0  -0.1002
  C  C252  1  0.720100  0.097300  0.046800  1.0  -0.1005
  C  C253  1  0.779100  0.042800  0.021500  1.0  -0.1077
  C  C254  1  0.809800  0.058800  0.962210  1.0  -0.073
  C  C255  1  0.780200  0.126900  0.929480  1.0  -0.1286
  C  C256  1  0.872800  0.003300  0.931430  1.0  0.2558
  C  C257  1  0.923300  0.908300  0.868950  1.0  0.2399
  C  C258  1  0.931300  0.838900  0.824450  1.0  -0.0336
  C  C259  1  0.003000  0.837000  0.787000  1.0  -0.1235
  C  C260  1  0.013800  0.773200  0.744900  1.0  -0.091
  C  C261  1  0.955000  0.708900  0.739400  1.0  -0.1349
  C  C262  1  0.883300  0.708400  0.778300  1.0  -0.0042
  C  C263  1  0.872900  0.773200  0.820400  1.0  -0.1213
  C  C264  1  0.818700  0.642700  0.772100  1.0  0.0792
  C  C265  1  0.809100  0.595000  0.718200  1.0  -0.2046
  C  C266  1  0.743600  0.537600  0.713600  1.0  0.1649
  C  C267  1  0.697300  0.567000  0.810600  1.0  0.1662
  C  C268  1  0.761100  0.624800  0.819700  1.0  -0.221
  C  C269  1  0.413400  0.640600  0.391200  1.0  0.1536
  C  C270  1  0.384500  0.702200  0.431100  1.0  -0.2105
  C  C271  1  0.310800  0.746300  0.417200  1.0  0.0824
  C  C272  1  0.268100  0.719100  0.364400  1.0  -0.2272
  C  C273  1  0.301300  0.658000  0.327200  1.0  0.1367
  C  C274  1  0.280000  0.818500  0.454100  1.0  0.0004
  C  C275  1  0.309500  0.834900  0.513500  1.0  -0.1017
  C  C276  1  0.279900  0.902700  0.546800  1.0  -0.1009
  C  C277  1  0.220900  0.957200  0.521500  1.0  -0.1065
  C  C278  1  0.190200  0.941200  0.462210  1.0  -0.0717
  C  C279  1  0.219800  0.873100  0.429480  1.0  -0.1285
  C  C280  1  0.127200  0.996700  0.431430  1.0  0.2564
  C  C281  1  0.076700  0.091700  0.368950  1.0  0.2397
  C  C282  1  0.068700  0.161100  0.324450  1.0  -0.0341
  C  C283  1  0.997000  0.163000  0.287000  1.0  -0.1225
  C  C284  1  0.986200  0.226800  0.244900  1.0  -0.0923
  C  C285  1  0.045000  0.291100  0.239400  1.0  -0.1349
  C  C286  1  0.116700  0.291600  0.278300  1.0  -0.0045
  C  C287  1  0.127100  0.226800  0.320400  1.0  -0.1214
  C  C288  1  0.181300  0.357300  0.272100  1.0  0.0795
  C  C289  1  0.190900  0.405000  0.218200  1.0  -0.2054
  C  C290  1  0.256400  0.462400  0.213600  1.0  0.1648
  C  C291  1  0.302700  0.433000  0.310600  1.0  0.1663
  C  C292  1  0.238900  0.375200  0.319700  1.0  -0.2219
  C  C293  1  0.859400  0.913400  0.641200  1.0  0.1515
  C  C294  1  0.797800  0.884500  0.681100  1.0  -0.2143
  C  C295  1  0.753700  0.810800  0.667200  1.0  0.083
  C  C296  1  0.780900  0.768100  0.614400  1.0  -0.2287
  C  C297  1  0.842000  0.801300  0.577200  1.0  0.1351
  C  C298  1  0.681500  0.780000  0.704100  1.0  0.0007
  C  C299  1  0.665100  0.809500  0.763500  1.0  -0.1027
  C  C300  1  0.597300  0.779900  0.796800  1.0  -0.0997
  C  C301  1  0.542800  0.720900  0.771500  1.0  -0.1063
  C  C302  1  0.558800  0.690200  0.712210  1.0  -0.0721
  C  C303  1  0.626900  0.719800  0.679480  1.0  -0.1285
  C  C304  1  0.503300  0.627200  0.681430  1.0  0.2569
  C  C305  1  0.408300  0.576700  0.618950  1.0  0.24
  C  C306  1  0.338900  0.568700  0.574450  1.0  -0.0336
  C  C307  1  0.337000  0.497000  0.537000  1.0  -0.125
  C  C308  1  0.273200  0.486200  0.494900  1.0  -0.0888
  C  C309  1  0.208900  0.545000  0.489400  1.0  -0.136
  C  C310  1  0.208400  0.616700  0.528300  1.0  -0.0029
  C  C311  1  0.273200  0.627100  0.570400  1.0  -0.1198
  C  C312  1  0.142700  0.681300  0.522100  1.0  0.0793
  C  C313  1  0.095000  0.690900  0.468200  1.0  -0.2052
  C  C314  1  0.037600  0.756400  0.463600  1.0  0.1633
  C  C315  1  0.067000  0.802700  0.560600  1.0  0.1648
  C  C316  1  0.124800  0.738900  0.569700  1.0  -0.2235
  C  C317  1  0.140600  0.086600  0.141200  1.0  0.1523
  C  C318  1  0.202200  0.115500  0.181100  1.0  -0.2124
  C  C319  1  0.246300  0.189200  0.167200  1.0  0.0821
  C  C320  1  0.219100  0.231900  0.114400  1.0  -0.2301
  C  C321  1  0.158000  0.198700  0.077200  1.0  0.1344
  C  C322  1  0.318500  0.220000  0.204100  1.0  -0.0006
  C  C323  1  0.334900  0.190500  0.263500  1.0  -0.1022
  C  C324  1  0.402700  0.220100  0.296800  1.0  -0.0994
  C  C325  1  0.457200  0.279100  0.271500  1.0  -0.1076
  C  C326  1  0.441200  0.309800  0.212210  1.0  -0.0714
  C  C327  1  0.373100  0.280200  0.179480  1.0  -0.1289
  C  C328  1  0.496700  0.372800  0.181430  1.0  0.2576
  C  C329  1  0.591700  0.423300  0.118950  1.0  0.2394
  C  C330  1  0.661100  0.431300  0.074450  1.0  -0.0334
  C  C331  1  0.663000  0.503000  0.037000  1.0  -0.125
  C  C332  1  0.726800  0.513800  0.994900  1.0  -0.0884
  C  C333  1  0.791100  0.455000  0.989400  1.0  -0.1339
  C  C334  1  0.791600  0.383300  0.028300  1.0  -0.0038
  C  C335  1  0.726800  0.372900  0.070400  1.0  -0.1199
  C  C336  1  0.857300  0.318700  0.022100  1.0  0.0788
  C  C337  1  0.905000  0.309100  0.968200  1.0  -0.2046
  C  C338  1  0.962400  0.243600  0.963600  1.0  0.1641
  C  C339  1  0.933000  0.197300  0.060600  1.0  0.1658
  C  C340  1  0.875200  0.261100  0.069700  1.0  -0.2219
  N  N341  1  0.875600  0.880200  0.411470  1.0  -0.3669
  N  N342  1  0.545600  0.507700  0.316120  1.0  -0.2576
  N  N343  1  0.512700  0.446800  0.355550  1.0  -0.3202
  N  N344  1  0.649300  0.442200  0.358650  1.0  0.0992
  N  N345  1  0.731600  0.421400  0.378300  1.0  -0.5203
  N  N346  1  0.813000  0.024100  0.492020  1.0  -0.3789
  N  N347  1  0.124400  0.119800  0.911470  1.0  -0.3669
  N  N348  1  0.454400  0.492300  0.816120  1.0  -0.2574
  N  N349  1  0.487300  0.553200  0.855550  1.0  -0.3205
  N  N350  1  0.350700  0.557800  0.858650  1.0  0.0982
  N  N351  1  0.268400  0.578600  0.878300  1.0  -0.5201
  N  N352  1  0.187000  0.975900  0.992020  1.0  -0.3786
  N  N353  1  0.619800  0.375600  0.661470  1.0  -0.3677
  N  N354  1  0.992300  0.045600  0.566120  1.0  -0.2579
  N  N355  1  0.053200  0.012700  0.605550  1.0  -0.3192
  N  N356  1  0.057800  0.149300  0.608650  1.0  0.0992
  N  N357  1  0.078600  0.231600  0.628300  1.0  -0.5223
  N  N358  1  0.475900  0.313000  0.742020  1.0  -0.3786
  N  N359  1  0.380200  0.624400  0.161470  1.0  -0.3675
  N  N360  1  0.007700  0.954400  0.066120  1.0  -0.2586
  N  N361  1  0.946800  0.987300  0.105550  1.0  -0.3194
  N  N362  1  0.942200  0.850700  0.108650  1.0  0.0997
  N  N363  1  0.921400  0.768400  0.128300  1.0  -0.5229
  N  N364  1  0.524100  0.687000  0.242020  1.0  -0.3788
  N  N365  1  0.624400  0.380200  0.838530  1.0  -0.3674
  N  N366  1  0.954400  0.007700  0.933880  1.0  -0.2571
  N  N367  1  0.987300  0.946800  0.894450  1.0  -0.3216
  N  N368  1  0.850700  0.942200  0.891350  1.0  0.0982
  N  N369  1  0.768400  0.921400  0.871700  1.0  -0.5189
  N  N370  1  0.687000  0.524100  0.757980  1.0  -0.3782
  N  N371  1  0.375600  0.619800  0.338530  1.0  -0.3673
  N  N372  1  0.045600  0.992300  0.433880  1.0  -0.258
  N  N373  1  0.012700  0.053200  0.394450  1.0  -0.3217
  N  N374  1  0.149300  0.057800  0.391350  1.0  0.0991
  N  N375  1  0.231600  0.078600  0.371700  1.0  -0.5189
  N  N376  1  0.313000  0.475900  0.257980  1.0  -0.3794
  N  N377  1  0.880200  0.875600  0.588530  1.0  -0.3683
  N  N378  1  0.507700  0.545600  0.683880  1.0  -0.2578
  N  N379  1  0.446800  0.512700  0.644450  1.0  -0.3206
  N  N380  1  0.442200  0.649300  0.641350  1.0  0.0995
  N  N381  1  0.421400  0.731600  0.621700  1.0  -0.5219
  N  N382  1  0.024100  0.813000  0.507980  1.0  -0.3785
  N  N383  1  0.119800  0.124400  0.088530  1.0  -0.368
  N  N384  1  0.492300  0.454400  0.183880  1.0  -0.2584
  N  N385  1  0.553200  0.487300  0.144450  1.0  -0.3206
  N  N386  1  0.557800  0.350700  0.141350  1.0  0.0993
  N  N387  1  0.578600  0.268400  0.121700  1.0  -0.5205
  N  N388  1  0.975900  0.187000  0.007980  1.0  -0.379
