# generated using pymatgen
data_NiH8C8N5O2
_symmetry_space_group_name_H-M   'P 1'
_cell_length_a   15.19730000
_cell_length_b   15.19730000
_cell_length_c   22.15290000
_cell_angle_alpha   90.00000000
_cell_angle_beta   90.00000000
_cell_angle_gamma   90.00000000
_symmetry_Int_Tables_number   1
_chemical_formula_structural   NiH8C8N5O2
_chemical_formula_sum   'Ni16 H128 C128 N80 O32'
_cell_volume   5116.38786746
_cell_formula_units_Z   16
loop_
 _symmetry_equiv_pos_site_id
 _symmetry_equiv_pos_as_xyz
  1  'x, y, z'
loop_
 _atom_site_type_symbol
 _atom_site_label
 _atom_site_symmetry_multiplicity
 _atom_site_fract_x
 _atom_site_fract_y
 _atom_site_fract_z
 _atom_site_occupancy
 _atom_site_charge
  Ni  Ni1  1  0.960960  0.013410  0.057850  1.0  0.8003
  Ni  Ni2  1  0.460960  0.513410  0.557850  1.0  0.8003
  Ni  Ni3  1  0.539040  0.986590  0.557850  1.0  0.7995
  Ni  Ni4  1  0.039040  0.486590  0.057850  1.0  0.7995
  Ni  Ni5  1  0.736590  0.210960  0.307850  1.0  0.8007
  Ni  Ni6  1  0.236590  0.710960  0.807850  1.0  0.8007
  Ni  Ni7  1  0.763410  0.789040  0.807850  1.0  0.8
  Ni  Ni8  1  0.263410  0.289040  0.307850  1.0  0.8
  Ni  Ni9  1  0.039040  0.986590  0.942150  1.0  0.7993
  Ni  Ni10  1  0.539040  0.486590  0.442150  1.0  0.7993
  Ni  Ni11  1  0.460960  0.013410  0.442150  1.0  0.8002
  Ni  Ni12  1  0.960960  0.513410  0.942150  1.0  0.8002
  Ni  Ni13  1  0.263410  0.789040  0.692150  1.0  0.7998
  Ni  Ni14  1  0.763410  0.289040  0.192150  1.0  0.7998
  Ni  Ni15  1  0.236590  0.210960  0.192150  1.0  0.8005
  Ni  Ni16  1  0.736590  0.710960  0.692150  1.0  0.8005
  H  H17  1  0.818300  0.028800  0.346800  1.0  0.0338
  H  H18  1  0.962800  0.853400  0.228300  1.0  0.3371
  H  H19  1  0.966400  0.894800  0.167400  1.0  0.35
  H  H20  1  0.869200  0.176400  0.093700  1.0  0.0476
  H  H21  1  0.913300  0.250500  0.903200  1.0  0.0891
  H  H22  1  0.847000  0.236100  0.956700  1.0  0.1039
  H  H23  1  0.828700  0.125200  0.849000  1.0  0.1175
  H  H24  1  0.776000  0.215200  0.852800  1.0  0.1591
  H  H25  1  0.318300  0.528800  0.846800  1.0  0.0338
  H  H26  1  0.462800  0.353400  0.728300  1.0  0.3371
  H  H27  1  0.466400  0.394800  0.667400  1.0  0.35
  H  H28  1  0.369200  0.676400  0.593700  1.0  0.0476
  H  H29  1  0.413300  0.750500  0.403200  1.0  0.0891
  H  H30  1  0.347000  0.736100  0.456700  1.0  0.1039
  H  H31  1  0.328700  0.625200  0.349000  1.0  0.1175
  H  H32  1  0.276000  0.715200  0.352800  1.0  0.1591
  H  H33  1  0.681700  0.971200  0.846800  1.0  0.0336
  H  H34  1  0.537200  0.146600  0.728300  1.0  0.3367
  H  H35  1  0.533600  0.105200  0.667400  1.0  0.3501
  H  H36  1  0.630800  0.823600  0.593700  1.0  0.0482
  H  H37  1  0.586700  0.749500  0.403200  1.0  0.0896
  H  H38  1  0.653000  0.763900  0.456700  1.0  0.1038
  H  H39  1  0.671300  0.874800  0.349000  1.0  0.1161
  H  H40  1  0.724000  0.784800  0.352800  1.0  0.1595
  H  H41  1  0.181700  0.471200  0.346800  1.0  0.0336
  H  H42  1  0.037200  0.646600  0.228300  1.0  0.3367
  H  H43  1  0.033600  0.605200  0.167400  1.0  0.3501
  H  H44  1  0.130800  0.323600  0.093700  1.0  0.0482
  H  H45  1  0.086700  0.249500  0.903200  1.0  0.0896
  H  H46  1  0.153000  0.263900  0.956700  1.0  0.1038
  H  H47  1  0.171300  0.374800  0.849000  1.0  0.1161
  H  H48  1  0.224000  0.284800  0.852800  1.0  0.1595
  H  H49  1  0.721200  0.068300  0.596800  1.0  0.0352
  H  H50  1  0.896600  0.212800  0.478300  1.0  0.3346
  H  H51  1  0.855200  0.216400  0.417400  1.0  0.3503
  H  H52  1  0.573600  0.119200  0.343700  1.0  0.0475
  H  H53  1  0.499500  0.163300  0.153200  1.0  0.0885
  H  H54  1  0.513900  0.097000  0.206700  1.0  0.1031
  H  H55  1  0.624800  0.078700  0.099000  1.0  0.1159
  H  H56  1  0.534800  0.026000  0.102800  1.0  0.1601
  H  H57  1  0.221200  0.568300  0.096800  1.0  0.0352
  H  H58  1  0.396600  0.712800  0.978300  1.0  0.3346
  H  H59  1  0.355200  0.716400  0.917400  1.0  0.3503
  H  H60  1  0.073600  0.619200  0.843700  1.0  0.0475
  H  H61  1  0.999500  0.663300  0.653200  1.0  0.0885
  H  H62  1  0.013900  0.597000  0.706700  1.0  0.1031
  H  H63  1  0.124800  0.578700  0.599000  1.0  0.1159
  H  H64  1  0.034800  0.526000  0.602800  1.0  0.1601
  H  H65  1  0.778800  0.931700  0.096800  1.0  0.0354
  H  H66  1  0.603400  0.787200  0.978300  1.0  0.336
  H  H67  1  0.644800  0.783600  0.917400  1.0  0.3507
  H  H68  1  0.926400  0.880800  0.843700  1.0  0.0478
  H  H69  1  0.000500  0.836700  0.653200  1.0  0.0886
  H  H70  1  0.986100  0.903000  0.706700  1.0  0.1035
  H  H71  1  0.875200  0.921300  0.599000  1.0  0.116
  H  H72  1  0.965200  0.974000  0.602800  1.0  0.1605
  H  H73  1  0.278800  0.431700  0.596800  1.0  0.0354
  H  H74  1  0.103400  0.287200  0.478300  1.0  0.336
  H  H75  1  0.144800  0.283600  0.417400  1.0  0.3507
  H  H76  1  0.426400  0.380800  0.343700  1.0  0.0478
  H  H77  1  0.500500  0.336700  0.153200  1.0  0.0886
  H  H78  1  0.486100  0.403000  0.206700  1.0  0.1035
  H  H79  1  0.375200  0.421300  0.099000  1.0  0.116
  H  H80  1  0.465200  0.474000  0.102800  1.0  0.1605
  H  H81  1  0.181700  0.971200  0.653200  1.0  0.0344
  H  H82  1  0.037200  0.146600  0.771700  1.0  0.3357
  H  H83  1  0.033600  0.105200  0.832600  1.0  0.3504
  H  H84  1  0.130800  0.823600  0.906300  1.0  0.0486
  H  H85  1  0.086700  0.749500  0.096800  1.0  0.0895
  H  H86  1  0.153000  0.763900  0.043300  1.0  0.1026
  H  H87  1  0.171300  0.874800  0.151000  1.0  0.1164
  H  H88  1  0.224000  0.784800  0.147200  1.0  0.1598
  H  H89  1  0.681700  0.471200  0.153200  1.0  0.0344
  H  H90  1  0.537200  0.646600  0.271700  1.0  0.3357
  H  H91  1  0.533600  0.605200  0.332600  1.0  0.3504
  H  H92  1  0.630800  0.323600  0.406300  1.0  0.0486
  H  H93  1  0.586700  0.249500  0.596800  1.0  0.0895
  H  H94  1  0.653000  0.263900  0.543300  1.0  0.1026
  H  H95  1  0.671300  0.374800  0.651000  1.0  0.1164
  H  H96  1  0.724000  0.284800  0.647200  1.0  0.1598
  H  H97  1  0.318300  0.028800  0.153200  1.0  0.0346
  H  H98  1  0.462800  0.853400  0.271700  1.0  0.3365
  H  H99  1  0.466400  0.894800  0.332600  1.0  0.3504
  H  H100  1  0.369200  0.176400  0.406300  1.0  0.0478
  H  H101  1  0.413300  0.250500  0.596800  1.0  0.089
  H  H102  1  0.347000  0.236100  0.543300  1.0  0.1026
  H  H103  1  0.328700  0.125200  0.651000  1.0  0.1182
  H  H104  1  0.276000  0.215200  0.647200  1.0  0.1596
  H  H105  1  0.818300  0.528800  0.653200  1.0  0.0346
  H  H106  1  0.962800  0.353400  0.771700  1.0  0.3365
  H  H107  1  0.966400  0.394800  0.832600  1.0  0.3504
  H  H108  1  0.869200  0.676400  0.906300  1.0  0.0478
  H  H109  1  0.913300  0.750500  0.096800  1.0  0.089
  H  H110  1  0.847000  0.736100  0.043300  1.0  0.1026
  H  H111  1  0.828700  0.625200  0.151000  1.0  0.1182
  H  H112  1  0.776000  0.715200  0.147200  1.0  0.1596
  H  H113  1  0.278800  0.931700  0.403200  1.0  0.0363
  H  H114  1  0.103400  0.787200  0.521700  1.0  0.3321
  H  H115  1  0.144800  0.783600  0.582600  1.0  0.3503
  H  H116  1  0.426400  0.880800  0.656300  1.0  0.0479
  H  H117  1  0.500500  0.836700  0.846800  1.0  0.0882
  H  H118  1  0.486100  0.903000  0.793300  1.0  0.1019
  H  H119  1  0.375200  0.921300  0.901000  1.0  0.117
  H  H120  1  0.465200  0.974000  0.897200  1.0  0.1608
  H  H121  1  0.778800  0.431700  0.903200  1.0  0.0363
  H  H122  1  0.603400  0.287200  0.021700  1.0  0.3321
  H  H123  1  0.644800  0.283600  0.082600  1.0  0.3503
  H  H124  1  0.926400  0.380800  0.156300  1.0  0.0479
  H  H125  1  0.000500  0.336700  0.346800  1.0  0.0882
  H  H126  1  0.986100  0.403000  0.293300  1.0  0.1019
  H  H127  1  0.875200  0.421300  0.401000  1.0  0.117
  H  H128  1  0.965200  0.474000  0.397200  1.0  0.1608
  H  H129  1  0.221200  0.068300  0.903200  1.0  0.0361
  H  H130  1  0.396600  0.212800  0.021700  1.0  0.3351
  H  H131  1  0.355200  0.216400  0.082600  1.0  0.3512
  H  H132  1  0.073600  0.119200  0.156300  1.0  0.0478
  H  H133  1  0.999500  0.163300  0.346800  1.0  0.0884
  H  H134  1  0.013900  0.097000  0.293300  1.0  0.102
  H  H135  1  0.124800  0.078700  0.401000  1.0  0.1168
  H  H136  1  0.034800  0.026000  0.397200  1.0  0.1609
  H  H137  1  0.721200  0.568300  0.403200  1.0  0.0361
  H  H138  1  0.896600  0.712800  0.521700  1.0  0.3351
  H  H139  1  0.855200  0.716400  0.582600  1.0  0.3512
  H  H140  1  0.573600  0.619200  0.656300  1.0  0.0478
  H  H141  1  0.499500  0.663300  0.846800  1.0  0.0884
  H  H142  1  0.513900  0.597000  0.793300  1.0  0.102
  H  H143  1  0.624800  0.578700  0.901000  1.0  0.1168
  H  H144  1  0.534800  0.526000  0.897200  1.0  0.1609
  C  C145  1  0.834300  0.032500  0.306400  1.0  0.3418
  C  C146  1  0.836800  0.107000  0.217900  1.0  0.3829
  C  C147  1  0.883400  0.037300  0.190000  1.0  -0.0377
  C  C148  1  0.904800  0.965600  0.225500  1.0  0.4507
  C  C149  1  0.866800  0.143000  0.128800  1.0  0.3101
  C  C150  1  0.933000  0.133400  0.946900  1.0  0.7075
  C  C151  1  0.876600  0.207300  0.923400  1.0  -0.3789
  C  C152  1  0.803900  0.168900  0.876000  1.0  -0.0942
  C  C153  1  0.334300  0.532500  0.806400  1.0  0.3418
  C  C154  1  0.336800  0.607000  0.717900  1.0  0.3829
  C  C155  1  0.383400  0.537300  0.690000  1.0  -0.0377
  C  C156  1  0.404800  0.465600  0.725500  1.0  0.4507
  C  C157  1  0.366800  0.643000  0.628800  1.0  0.3101
  C  C158  1  0.433000  0.633400  0.446900  1.0  0.7075
  C  C159  1  0.376600  0.707300  0.423400  1.0  -0.3789
  C  C160  1  0.303900  0.668900  0.376000  1.0  -0.0942
  C  C161  1  0.665700  0.967500  0.806400  1.0  0.3405
  C  C162  1  0.663200  0.893000  0.717900  1.0  0.383
  C  C163  1  0.616600  0.962700  0.690000  1.0  -0.0369
  C  C164  1  0.595200  0.034400  0.725500  1.0  0.4503
  C  C165  1  0.633200  0.857000  0.628800  1.0  0.3098
  C  C166  1  0.567000  0.866600  0.446900  1.0  0.7093
  C  C167  1  0.623400  0.792700  0.423400  1.0  -0.3801
  C  C168  1  0.696100  0.831100  0.376000  1.0  -0.0927
  C  C169  1  0.165700  0.467500  0.306400  1.0  0.3405
  C  C170  1  0.163200  0.393000  0.217900  1.0  0.383
  C  C171  1  0.116600  0.462700  0.190000  1.0  -0.0369
  C  C172  1  0.095200  0.534400  0.225500  1.0  0.4503
  C  C173  1  0.133200  0.357000  0.128800  1.0  0.3098
  C  C174  1  0.067000  0.366600  0.946900  1.0  0.7093
  C  C175  1  0.123400  0.292700  0.923400  1.0  -0.3801
  C  C176  1  0.196100  0.331100  0.876000  1.0  -0.0927
  C  C177  1  0.717500  0.084300  0.556400  1.0  0.3411
  C  C178  1  0.643000  0.086800  0.467900  1.0  0.3844
  C  C179  1  0.712700  0.133400  0.440000  1.0  -0.0361
  C  C180  1  0.784400  0.154800  0.475500  1.0  0.4504
  C  C181  1  0.607000  0.116800  0.378800  1.0  0.3114
  C  C182  1  0.616600  0.183000  0.196900  1.0  0.7086
  C  C183  1  0.542700  0.126600  0.173400  1.0  -0.3787
  C  C184  1  0.581100  0.053900  0.126000  1.0  -0.093
  C  C185  1  0.217500  0.584300  0.056400  1.0  0.3411
  C  C186  1  0.143000  0.586800  0.967900  1.0  0.3844
  C  C187  1  0.212700  0.633400  0.940000  1.0  -0.0361
  C  C188  1  0.284400  0.654800  0.975500  1.0  0.4504
  C  C189  1  0.107000  0.616800  0.878800  1.0  0.3114
  C  C190  1  0.116600  0.683000  0.696900  1.0  0.7086
  C  C191  1  0.042700  0.626600  0.673400  1.0  -0.3787
  C  C192  1  0.081100  0.553900  0.626000  1.0  -0.093
  C  C193  1  0.782500  0.915700  0.056400  1.0  0.3396
  C  C194  1  0.857000  0.913200  0.967900  1.0  0.3834
  C  C195  1  0.787300  0.866600  0.940000  1.0  -0.0362
  C  C196  1  0.715600  0.845200  0.975500  1.0  0.4504
  C  C197  1  0.893000  0.883200  0.878800  1.0  0.31
  C  C198  1  0.883400  0.817000  0.696900  1.0  0.7064
  C  C199  1  0.957300  0.873400  0.673400  1.0  -0.3782
  C  C200  1  0.918900  0.946100  0.626000  1.0  -0.0936
  C  C201  1  0.282500  0.415700  0.556400  1.0  0.3396
  C  C202  1  0.357000  0.413200  0.467900  1.0  0.3834
  C  C203  1  0.287300  0.366600  0.440000  1.0  -0.0362
  C  C204  1  0.215600  0.345200  0.475500  1.0  0.4504
  C  C205  1  0.393000  0.383200  0.378800  1.0  0.31
  C  C206  1  0.383400  0.317000  0.196900  1.0  0.7064
  C  C207  1  0.457300  0.373400  0.173400  1.0  -0.3782
  C  C208  1  0.418900  0.446100  0.126000  1.0  -0.0936
  C  C209  1  0.165700  0.967500  0.693600  1.0  0.34
  C  C210  1  0.163200  0.893000  0.782100  1.0  0.3828
  C  C211  1  0.116600  0.962700  0.810000  1.0  -0.0368
  C  C212  1  0.095200  0.034400  0.774500  1.0  0.4508
  C  C213  1  0.133200  0.857000  0.871200  1.0  0.3116
  C  C214  1  0.067000  0.866600  0.053100  1.0  0.7109
  C  C215  1  0.123400  0.792700  0.076600  1.0  -0.3795
  C  C216  1  0.196100  0.831100  0.124000  1.0  -0.0979
  C  C217  1  0.665700  0.467500  0.193600  1.0  0.34
  C  C218  1  0.663200  0.393000  0.282100  1.0  0.3828
  C  C219  1  0.616600  0.462700  0.310000  1.0  -0.0368
  C  C220  1  0.595200  0.534400  0.274500  1.0  0.4508
  C  C221  1  0.633200  0.357000  0.371200  1.0  0.3116
  C  C222  1  0.567000  0.366600  0.553100  1.0  0.7109
  C  C223  1  0.623400  0.292700  0.576600  1.0  -0.3795
  C  C224  1  0.696100  0.331100  0.624000  1.0  -0.0979
  C  C225  1  0.334300  0.032500  0.193600  1.0  0.3411
  C  C226  1  0.336800  0.107000  0.282100  1.0  0.3825
  C  C227  1  0.383400  0.037300  0.310000  1.0  -0.0376
  C  C228  1  0.404800  0.965600  0.274500  1.0  0.4503
  C  C229  1  0.366800  0.143000  0.371200  1.0  0.3112
  C  C230  1  0.433000  0.133400  0.553100  1.0  0.7085
  C  C231  1  0.376600  0.207300  0.576600  1.0  -0.3791
  C  C232  1  0.303900  0.168900  0.624000  1.0  -0.0959
  C  C233  1  0.834300  0.532500  0.693600  1.0  0.3411
  C  C234  1  0.836800  0.607000  0.782100  1.0  0.3825
  C  C235  1  0.883400  0.537300  0.810000  1.0  -0.0376
  C  C236  1  0.904800  0.465600  0.774500  1.0  0.4503
  C  C237  1  0.866800  0.643000  0.871200  1.0  0.3112
  C  C238  1  0.933000  0.633400  0.053100  1.0  0.7085
  C  C239  1  0.876600  0.707300  0.076600  1.0  -0.3791
  C  C240  1  0.803900  0.668900  0.124000  1.0  -0.0959
  C  C241  1  0.282500  0.915700  0.443600  1.0  0.3387
  C  C242  1  0.357000  0.913200  0.532100  1.0  0.3833
  C  C243  1  0.287300  0.866600  0.560000  1.0  -0.0363
  C  C244  1  0.215600  0.845200  0.524500  1.0  0.451
  C  C245  1  0.393000  0.883200  0.621200  1.0  0.3113
  C  C246  1  0.383400  0.817000  0.803100  1.0  0.7077
  C  C247  1  0.457300  0.873400  0.826600  1.0  -0.3787
  C  C248  1  0.418900  0.946100  0.874000  1.0  -0.0977
  C  C249  1  0.782500  0.415700  0.943600  1.0  0.3387
  C  C250  1  0.857000  0.413200  0.032100  1.0  0.3833
  C  C251  1  0.787300  0.366600  0.060000  1.0  -0.0363
  C  C252  1  0.715600  0.345200  0.024500  1.0  0.451
  C  C253  1  0.893000  0.383200  0.121200  1.0  0.3113
  C  C254  1  0.883400  0.317000  0.303100  1.0  0.7077
  C  C255  1  0.957300  0.373400  0.326600  1.0  -0.3787
  C  C256  1  0.918900  0.446100  0.374000  1.0  -0.0977
  C  C257  1  0.217500  0.084300  0.943600  1.0  0.3407
  C  C258  1  0.143000  0.086800  0.032100  1.0  0.3842
  C  C259  1  0.212700  0.133400  0.060000  1.0  -0.036
  C  C260  1  0.284400  0.154800  0.024500  1.0  0.4489
  C  C261  1  0.107000  0.116800  0.121200  1.0  0.3125
  C  C262  1  0.116600  0.183000  0.303100  1.0  0.7097
  C  C263  1  0.042700  0.126600  0.326600  1.0  -0.378
  C  C264  1  0.081100  0.053900  0.374000  1.0  -0.0954
  C  C265  1  0.717500  0.584300  0.443600  1.0  0.3407
  C  C266  1  0.643000  0.586800  0.532100  1.0  0.3842
  C  C267  1  0.712700  0.633400  0.560000  1.0  -0.036
  C  C268  1  0.784400  0.654800  0.524500  1.0  0.4489
  C  C269  1  0.607000  0.616800  0.621200  1.0  0.3125
  C  C270  1  0.616600  0.683000  0.803100  1.0  0.7097
  C  C271  1  0.542700  0.626600  0.826600  1.0  -0.378
  C  C272  1  0.581100  0.553900  0.874000  1.0  -0.0954
  N  N273  1  0.880000  0.965800  0.284600  1.0  -0.5008
  N  N274  1  0.807900  0.106000  0.276300  1.0  -0.4383
  N  N275  1  0.950100  0.896300  0.204600  1.0  -0.6898
  N  N276  1  0.901100  0.063900  0.132000  1.0  -0.3946
  N  N277  1  0.828300  0.172900  0.179100  1.0  -0.4405
  N  N278  1  0.380000  0.465800  0.784600  1.0  -0.5008
  N  N279  1  0.307900  0.606000  0.776300  1.0  -0.4383
  N  N280  1  0.450100  0.396300  0.704600  1.0  -0.6898
  N  N281  1  0.401100  0.563900  0.632000  1.0  -0.3946
  N  N282  1  0.328300  0.672900  0.679100  1.0  -0.4405
  N  N283  1  0.620000  0.034200  0.784600  1.0  -0.5027
  N  N284  1  0.692100  0.894000  0.776300  1.0  -0.438
  N  N285  1  0.549900  0.103700  0.704600  1.0  -0.6896
  N  N286  1  0.598900  0.936100  0.632000  1.0  -0.3952
  N  N287  1  0.671700  0.827100  0.679100  1.0  -0.4392
  N  N288  1  0.120000  0.534200  0.284600  1.0  -0.5027
  N  N289  1  0.192100  0.394000  0.276300  1.0  -0.438
  N  N290  1  0.049900  0.603700  0.204600  1.0  -0.6896
  N  N291  1  0.098900  0.436100  0.132000  1.0  -0.3952
  N  N292  1  0.171700  0.327100  0.179100  1.0  -0.4392
  N  N293  1  0.784200  0.130000  0.534600  1.0  -0.5035
  N  N294  1  0.644000  0.057900  0.526300  1.0  -0.4406
  N  N295  1  0.853700  0.200100  0.454600  1.0  -0.6891
  N  N296  1  0.686100  0.151100  0.382000  1.0  -0.3939
  N  N297  1  0.577100  0.078300  0.429100  1.0  -0.4391
  N  N298  1  0.284200  0.630000  0.034600  1.0  -0.5035
  N  N299  1  0.144000  0.557900  0.026300  1.0  -0.4406
  N  N300  1  0.353700  0.700100  0.954600  1.0  -0.6891
  N  N301  1  0.186100  0.651100  0.882000  1.0  -0.3939
  N  N302  1  0.077100  0.578300  0.929100  1.0  -0.4391
  N  N303  1  0.715800  0.870000  0.034600  1.0  -0.5035
  N  N304  1  0.856000  0.942100  0.026300  1.0  -0.444
  N  N305  1  0.646300  0.799900  0.954600  1.0  -0.6893
  N  N306  1  0.813900  0.848900  0.882000  1.0  -0.3959
  N  N307  1  0.922900  0.921700  0.929100  1.0  -0.4396
  N  N308  1  0.215800  0.370000  0.534600  1.0  -0.5035
  N  N309  1  0.356000  0.442100  0.526300  1.0  -0.444
  N  N310  1  0.146300  0.299900  0.454600  1.0  -0.6893
  N  N311  1  0.313900  0.348900  0.382000  1.0  -0.3959
  N  N312  1  0.422900  0.421700  0.429100  1.0  -0.4396
  N  N313  1  0.120000  0.034200  0.715400  1.0  -0.5047
  N  N314  1  0.192100  0.894000  0.723700  1.0  -0.4381
  N  N315  1  0.049900  0.103700  0.795400  1.0  -0.6887
  N  N316  1  0.098900  0.936100  0.868000  1.0  -0.3959
  N  N317  1  0.171700  0.827100  0.820900  1.0  -0.4398
  N  N318  1  0.620000  0.534200  0.215400  1.0  -0.5047
  N  N319  1  0.692100  0.394000  0.223700  1.0  -0.4381
  N  N320  1  0.549900  0.603700  0.295400  1.0  -0.6887
  N  N321  1  0.598900  0.436100  0.368000  1.0  -0.3959
  N  N322  1  0.671700  0.327100  0.320900  1.0  -0.4398
  N  N323  1  0.380000  0.965800  0.215400  1.0  -0.499
  N  N324  1  0.307900  0.106000  0.223700  1.0  -0.4383
  N  N325  1  0.450100  0.896300  0.295400  1.0  -0.6899
  N  N326  1  0.401100  0.063900  0.368000  1.0  -0.3948
  N  N327  1  0.328300  0.172900  0.320900  1.0  -0.4408
  N  N328  1  0.880000  0.465800  0.715400  1.0  -0.499
  N  N329  1  0.807900  0.606000  0.723700  1.0  -0.4383
  N  N330  1  0.950100  0.396300  0.795400  1.0  -0.6899
  N  N331  1  0.901100  0.563900  0.868000  1.0  -0.3948
  N  N332  1  0.828300  0.672900  0.820900  1.0  -0.4408
  N  N333  1  0.215800  0.870000  0.465400  1.0  -0.5042
  N  N334  1  0.356000  0.942100  0.473700  1.0  -0.4441
  N  N335  1  0.146300  0.799900  0.545400  1.0  -0.6885
  N  N336  1  0.313900  0.848900  0.618000  1.0  -0.396
  N  N337  1  0.422900  0.921700  0.570900  1.0  -0.4398
  N  N338  1  0.715800  0.370000  0.965400  1.0  -0.5042
  N  N339  1  0.856000  0.442100  0.973700  1.0  -0.4441
  N  N340  1  0.646300  0.299900  0.045400  1.0  -0.6885
  N  N341  1  0.813900  0.348900  0.118000  1.0  -0.396
  N  N342  1  0.922900  0.421700  0.070900  1.0  -0.4398
  N  N343  1  0.284200  0.130000  0.965400  1.0  -0.5049
  N  N344  1  0.144000  0.057900  0.973700  1.0  -0.4406
  N  N345  1  0.353700  0.200100  0.045400  1.0  -0.6894
  N  N346  1  0.186100  0.151100  0.118000  1.0  -0.3943
  N  N347  1  0.077100  0.078300  0.070900  1.0  -0.4395
  N  N348  1  0.784200  0.630000  0.465400  1.0  -0.5049
  N  N349  1  0.644000  0.557900  0.473700  1.0  -0.4406
  N  N350  1  0.853700  0.700100  0.545400  1.0  -0.6894
  N  N351  1  0.686100  0.651100  0.618000  1.0  -0.3943
  N  N352  1  0.577100  0.578300  0.570900  1.0  -0.4395
  O  O353  1  0.923500  0.109800  0.999900  1.0  -0.6182
  O  O354  1  0.983200  0.098200  0.910800  1.0  -0.6337
  O  O355  1  0.423500  0.609800  0.499900  1.0  -0.6182
  O  O356  1  0.483200  0.598200  0.410800  1.0  -0.6337
  O  O357  1  0.576500  0.890200  0.499900  1.0  -0.6182
  O  O358  1  0.516800  0.901800  0.410800  1.0  -0.6351
  O  O359  1  0.076500  0.390200  0.999900  1.0  -0.6182
  O  O360  1  0.016800  0.401800  0.910800  1.0  -0.6351
  O  O361  1  0.640200  0.173500  0.249900  1.0  -0.6183
  O  O362  1  0.651800  0.233200  0.160800  1.0  -0.6326
  O  O363  1  0.140200  0.673500  0.749900  1.0  -0.6183
  O  O364  1  0.151800  0.733200  0.660800  1.0  -0.6326
  O  O365  1  0.859800  0.826500  0.749900  1.0  -0.618
  O  O366  1  0.848200  0.766800  0.660800  1.0  -0.6323
  O  O367  1  0.359800  0.326500  0.249900  1.0  -0.618
  O  O368  1  0.348200  0.266800  0.160800  1.0  -0.6323
  O  O369  1  0.076500  0.890200  0.000100  1.0  -0.6189
  O  O370  1  0.016800  0.901800  0.089200  1.0  -0.6373
  O  O371  1  0.576500  0.390200  0.500100  1.0  -0.6189
  O  O372  1  0.516800  0.401800  0.589200  1.0  -0.6373
  O  O373  1  0.423500  0.109800  0.500100  1.0  -0.6191
  O  O374  1  0.483200  0.098200  0.589200  1.0  -0.6356
  O  O375  1  0.923500  0.609800  0.000100  1.0  -0.6191
  O  O376  1  0.983200  0.598200  0.089200  1.0  -0.6356
  O  O377  1  0.359800  0.826500  0.750100  1.0  -0.6188
  O  O378  1  0.348200  0.766800  0.839200  1.0  -0.6341
  O  O379  1  0.859800  0.326500  0.250100  1.0  -0.6188
  O  O380  1  0.848200  0.266800  0.339200  1.0  -0.6341
  O  O381  1  0.140200  0.173500  0.250100  1.0  -0.6195
  O  O382  1  0.151800  0.233200  0.339200  1.0  -0.6341
  O  O383  1  0.640200  0.673500  0.750100  1.0  -0.6195
  O  O384  1  0.651800  0.733200  0.839200  1.0  -0.6341
