# generated using pymatgen
data_K4Zn2H16C32O17
_symmetry_space_group_name_H-M   'P 1'
_cell_length_a   19.76400000
_cell_length_b   19.94800000
_cell_length_c   12.03900000
_cell_angle_alpha   90.00000000
_cell_angle_beta   90.00000000
_cell_angle_gamma   90.00000000
_symmetry_Int_Tables_number   1
_chemical_formula_structural   K4Zn2H16C32O17
_chemical_formula_sum   'K16 Zn8 H64 C128 O68'
_cell_volume   4746.40310261
_cell_formula_units_Z   4
loop_
 _symmetry_equiv_pos_site_id
 _symmetry_equiv_pos_as_xyz
  1  'x, y, z'
loop_
 _atom_site_type_symbol
 _atom_site_label
 _atom_site_symmetry_multiplicity
 _atom_site_fract_x
 _atom_site_fract_y
 _atom_site_fract_z
 _atom_site_occupancy
 _atom_site_charge
  K  K1  1  0.196220  0.944070  0.285400  1.0  0.9487
  K  K2  1  0.358000  0.900660  0.772800  1.0  0.9478
  K  K3  1  0.696220  0.444070  0.285400  1.0  0.9487
  K  K4  1  0.858000  0.400660  0.772800  1.0  0.9478
  K  K5  1  0.803780  0.055930  0.785400  1.0  0.9482
  K  K6  1  0.642000  0.099340  0.272800  1.0  0.9451
  K  K7  1  0.303780  0.555930  0.785400  1.0  0.9482
  K  K8  1  0.142000  0.599340  0.272800  1.0  0.9451
  K  K9  1  0.196220  0.055930  0.785400  1.0  0.9485
  K  K10  1  0.358000  0.099340  0.272800  1.0  0.9461
  K  K11  1  0.696220  0.555930  0.785400  1.0  0.9485
  K  K12  1  0.858000  0.599340  0.272800  1.0  0.9461
  K  K13  1  0.803780  0.944070  0.285400  1.0  0.9484
  K  K14  1  0.642000  0.900660  0.772800  1.0  0.9476
  K  K15  1  0.303780  0.444070  0.285400  1.0  0.9484
  K  K16  1  0.142000  0.400660  0.772800  1.0  0.9476
  Zn  Zn17  1  0.258210  0.992030  0.030760  1.0  0.9937
  Zn  Zn18  1  0.758210  0.492030  0.030760  1.0  0.9937
  Zn  Zn19  1  0.741790  0.007970  0.530760  1.0  0.994
  Zn  Zn20  1  0.241790  0.507970  0.530760  1.0  0.994
  Zn  Zn21  1  0.258210  0.007970  0.530760  1.0  0.9937
  Zn  Zn22  1  0.758210  0.507970  0.530760  1.0  0.9937
  Zn  Zn23  1  0.741790  0.992030  0.030760  1.0  0.9941
  Zn  Zn24  1  0.241790  0.492030  0.030760  1.0  0.9941
  H  H25  1  0.309300  0.742800  0.400600  1.0  0.12
  H  H26  1  0.301700  0.736700  0.015300  1.0  0.1115
  H  H27  1  0.304400  0.843100  0.298100  1.0  0.131
  H  H28  1  0.101400  0.937800  0.775900  1.0  0.1037
  H  H29  1  0.295900  0.640000  0.308300  1.0  0.1053
  H  H30  1  0.398900  0.053600  0.737700  1.0  0.0885
  H  H31  1  0.809300  0.242800  0.400600  1.0  0.12
  H  H32  1  0.801700  0.236700  0.015300  1.0  0.1115
  H  H33  1  0.804400  0.343100  0.298100  1.0  0.131
  H  H34  1  0.601400  0.437800  0.775900  1.0  0.1037
  H  H35  1  0.795900  0.140000  0.308300  1.0  0.1053
  H  H36  1  0.898900  0.553600  0.737700  1.0  0.0885
  H  H37  1  0.690700  0.257200  0.900600  1.0  0.1196
  H  H38  1  0.698300  0.263300  0.515300  1.0  0.1119
  H  H39  1  0.695600  0.156900  0.798100  1.0  0.1314
  H  H40  1  0.898600  0.062200  0.275900  1.0  0.1037
  H  H41  1  0.704100  0.360000  0.808300  1.0  0.1042
  H  H42  1  0.601100  0.946400  0.237700  1.0  0.0884
  H  H43  1  0.190700  0.757200  0.900600  1.0  0.1196
  H  H44  1  0.198300  0.763300  0.515300  1.0  0.1119
  H  H45  1  0.195600  0.656900  0.798100  1.0  0.1314
  H  H46  1  0.398600  0.562200  0.275900  1.0  0.1037
  H  H47  1  0.204100  0.860000  0.808300  1.0  0.1042
  H  H48  1  0.101100  0.446400  0.237700  1.0  0.0884
  H  H49  1  0.309300  0.257200  0.900600  1.0  0.12
  H  H50  1  0.301700  0.263300  0.515300  1.0  0.1114
  H  H51  1  0.304400  0.156900  0.798100  1.0  0.1313
  H  H52  1  0.101400  0.062200  0.275900  1.0  0.1037
  H  H53  1  0.295900  0.360000  0.808300  1.0  0.1043
  H  H54  1  0.398900  0.946400  0.237700  1.0  0.0883
  H  H55  1  0.809300  0.757200  0.900600  1.0  0.12
  H  H56  1  0.801700  0.763300  0.515300  1.0  0.1114
  H  H57  1  0.804400  0.656900  0.798100  1.0  0.1313
  H  H58  1  0.601400  0.562200  0.275900  1.0  0.1037
  H  H59  1  0.795900  0.860000  0.808300  1.0  0.1043
  H  H60  1  0.898900  0.446400  0.237700  1.0  0.0883
  H  H61  1  0.690700  0.742800  0.400600  1.0  0.1195
  H  H62  1  0.698300  0.736700  0.015300  1.0  0.1121
  H  H63  1  0.695600  0.843100  0.298100  1.0  0.131
  H  H64  1  0.898600  0.937800  0.775900  1.0  0.1038
  H  H65  1  0.704100  0.640000  0.308300  1.0  0.105
  H  H66  1  0.601100  0.053600  0.737700  1.0  0.0886
  H  H67  1  0.190700  0.242800  0.400600  1.0  0.1195
  H  H68  1  0.198300  0.236700  0.015300  1.0  0.1121
  H  H69  1  0.195600  0.343100  0.298100  1.0  0.131
  H  H70  1  0.398600  0.437800  0.775900  1.0  0.1038
  H  H71  1  0.204100  0.140000  0.308300  1.0  0.105
  H  H72  1  0.101100  0.553600  0.737700  1.0  0.0886
  H  H73  1  0.000000  0.942500  0.063200  1.0  0.1232
  H  H74  1  0.000000  0.930800  0.680500  1.0  0.1233
  H  H75  1  0.500000  0.442500  0.063200  1.0  0.1232
  H  H76  1  0.500000  0.430800  0.680500  1.0  0.1233
  H  H77  1  0.000000  0.057500  0.563200  1.0  0.123
  H  H78  1  0.000000  0.069200  0.180500  1.0  0.1234
  H  H79  1  0.500000  0.557500  0.563200  1.0  0.123
  H  H80  1  0.500000  0.569200  0.180500  1.0  0.1234
  H  H81  1  0.500000  0.043500  0.028300  1.0  0.1205
  H  H82  1  0.500000  0.060600  0.641500  1.0  0.1207
  H  H83  1  0.000000  0.543500  0.028300  1.0  0.1205
  H  H84  1  0.000000  0.560600  0.641500  1.0  0.1207
  H  H85  1  0.500000  0.956500  0.528300  1.0  0.1206
  H  H86  1  0.500000  0.939400  0.141500  1.0  0.1203
  H  H87  1  0.000000  0.456500  0.528300  1.0  0.1206
  H  H88  1  0.000000  0.439400  0.141500  1.0  0.1203
  C  C89  1  0.305000  0.741600  0.323700  1.0  -0.0997
  C  C90  1  0.301300  0.738100  0.092500  1.0  0.0046
  C  C91  1  0.298100  0.678500  0.152200  1.0  -0.1406
  C  C92  1  0.303900  0.798900  0.146200  1.0  -0.1041
  C  C93  1  0.304400  0.801900  0.262000  1.0  -0.0455
  C  C94  1  0.060600  0.938400  0.814500  1.0  -0.0335
  C  C95  1  0.060400  0.942500  0.928800  1.0  -0.1776
  C  C96  1  0.286400  0.613800  0.090300  1.0  0.6802
  C  C97  1  0.301500  0.864000  0.077400  1.0  0.6905
  C  C98  1  0.124800  0.946300  0.995800  1.0  0.7117
  C  C99  1  0.299100  0.679700  0.268100  1.0  -0.0773
  C  C100  1  0.375300  0.037400  0.962400  1.0  0.7058
  C  C101  1  0.438000  0.047400  0.891600  1.0  -0.1388
  C  C102  1  0.439500  0.052500  0.776700  1.0  -0.0746
  C  C103  1  0.805000  0.241600  0.323700  1.0  -0.0997
  C  C104  1  0.801300  0.238100  0.092500  1.0  0.0046
  C  C105  1  0.798100  0.178500  0.152200  1.0  -0.1406
  C  C106  1  0.803900  0.298900  0.146200  1.0  -0.1041
  C  C107  1  0.804400  0.301900  0.262000  1.0  -0.0455
  C  C108  1  0.560600  0.438400  0.814500  1.0  -0.0335
  C  C109  1  0.560400  0.442500  0.928800  1.0  -0.1776
  C  C110  1  0.786400  0.113800  0.090300  1.0  0.6802
  C  C111  1  0.801500  0.364000  0.077400  1.0  0.6905
  C  C112  1  0.624800  0.446300  0.995800  1.0  0.7117
  C  C113  1  0.799100  0.179700  0.268100  1.0  -0.0773
  C  C114  1  0.875300  0.537400  0.962400  1.0  0.7058
  C  C115  1  0.938000  0.547400  0.891600  1.0  -0.1388
  C  C116  1  0.939500  0.552500  0.776700  1.0  -0.0746
  C  C117  1  0.695000  0.258400  0.823700  1.0  -0.1004
  C  C118  1  0.698700  0.261900  0.592500  1.0  0.0052
  C  C119  1  0.701900  0.321500  0.652200  1.0  -0.1391
  C  C120  1  0.696100  0.201100  0.646200  1.0  -0.1044
  C  C121  1  0.695600  0.198100  0.762000  1.0  -0.0455
  C  C122  1  0.939400  0.061600  0.314500  1.0  -0.0331
  C  C123  1  0.939600  0.057500  0.428800  1.0  -0.1775
  C  C124  1  0.713600  0.386200  0.590300  1.0  0.6792
  C  C125  1  0.698500  0.136000  0.577400  1.0  0.6907
  C  C126  1  0.875200  0.053700  0.495800  1.0  0.7097
  C  C127  1  0.700900  0.320300  0.768100  1.0  -0.0778
  C  C128  1  0.624700  0.962600  0.462400  1.0  0.7061
  C  C129  1  0.562000  0.952600  0.391600  1.0  -0.1385
  C  C130  1  0.560500  0.947500  0.276700  1.0  -0.076
  C  C131  1  0.195000  0.758400  0.823700  1.0  -0.1004
  C  C132  1  0.198700  0.761900  0.592500  1.0  0.0052
  C  C133  1  0.201900  0.821500  0.652200  1.0  -0.1391
  C  C134  1  0.196100  0.701100  0.646200  1.0  -0.1044
  C  C135  1  0.195600  0.698100  0.762000  1.0  -0.0455
  C  C136  1  0.439400  0.561600  0.314500  1.0  -0.0331
  C  C137  1  0.439600  0.557500  0.428800  1.0  -0.1775
  C  C138  1  0.213600  0.886200  0.590300  1.0  0.6792
  C  C139  1  0.198500  0.636000  0.577400  1.0  0.6907
  C  C140  1  0.375200  0.553700  0.495800  1.0  0.7097
  C  C141  1  0.200900  0.820300  0.768100  1.0  -0.0778
  C  C142  1  0.124700  0.462600  0.462400  1.0  0.7061
  C  C143  1  0.062000  0.452600  0.391600  1.0  -0.1385
  C  C144  1  0.060500  0.447500  0.276700  1.0  -0.076
  C  C145  1  0.305000  0.258400  0.823700  1.0  -0.0998
  C  C146  1  0.301300  0.261900  0.592500  1.0  0.0044
  C  C147  1  0.298100  0.321500  0.652200  1.0  -0.1403
  C  C148  1  0.303900  0.201100  0.646200  1.0  -0.1047
  C  C149  1  0.304400  0.198100  0.762000  1.0  -0.0453
  C  C150  1  0.060600  0.061600  0.314500  1.0  -0.0335
  C  C151  1  0.060400  0.057500  0.428800  1.0  -0.1777
  C  C152  1  0.286400  0.386200  0.590300  1.0  0.6802
  C  C153  1  0.301500  0.136000  0.577400  1.0  0.6906
  C  C154  1  0.124800  0.053700  0.495800  1.0  0.711
  C  C155  1  0.299100  0.320300  0.768100  1.0  -0.0776
  C  C156  1  0.375300  0.962600  0.462400  1.0  0.7061
  C  C157  1  0.438000  0.952600  0.391600  1.0  -0.1399
  C  C158  1  0.439500  0.947500  0.276700  1.0  -0.0747
  C  C159  1  0.805000  0.758400  0.823700  1.0  -0.0998
  C  C160  1  0.801300  0.761900  0.592500  1.0  0.0044
  C  C161  1  0.798100  0.821500  0.652200  1.0  -0.1403
  C  C162  1  0.803900  0.701100  0.646200  1.0  -0.1047
  C  C163  1  0.804400  0.698100  0.762000  1.0  -0.0453
  C  C164  1  0.560600  0.561600  0.314500  1.0  -0.0335
  C  C165  1  0.560400  0.557500  0.428800  1.0  -0.1777
  C  C166  1  0.786400  0.886200  0.590300  1.0  0.6802
  C  C167  1  0.801500  0.636000  0.577400  1.0  0.6906
  C  C168  1  0.624800  0.553700  0.495800  1.0  0.711
  C  C169  1  0.799100  0.820300  0.768100  1.0  -0.0776
  C  C170  1  0.875300  0.462600  0.462400  1.0  0.7061
  C  C171  1  0.938000  0.452600  0.391600  1.0  -0.1399
  C  C172  1  0.939500  0.447500  0.276700  1.0  -0.0747
  C  C173  1  0.695000  0.741600  0.323700  1.0  -0.1003
  C  C174  1  0.698700  0.738100  0.092500  1.0  0.0054
  C  C175  1  0.701900  0.678500  0.152200  1.0  -0.1395
  C  C176  1  0.696100  0.798900  0.146200  1.0  -0.1036
  C  C177  1  0.695600  0.801900  0.262000  1.0  -0.0457
  C  C178  1  0.939400  0.938400  0.814500  1.0  -0.0332
  C  C179  1  0.939600  0.942500  0.928800  1.0  -0.1777
  C  C180  1  0.713600  0.613800  0.090300  1.0  0.6792
  C  C181  1  0.698500  0.864000  0.077400  1.0  0.6906
  C  C182  1  0.875200  0.946300  0.995800  1.0  0.7102
  C  C183  1  0.700900  0.679700  0.268100  1.0  -0.0776
  C  C184  1  0.624700  0.037400  0.962400  1.0  0.7058
  C  C185  1  0.562000  0.047400  0.891600  1.0  -0.1381
  C  C186  1  0.560500  0.052500  0.776700  1.0  -0.0759
  C  C187  1  0.195000  0.241600  0.323700  1.0  -0.1003
  C  C188  1  0.198700  0.238100  0.092500  1.0  0.0054
  C  C189  1  0.201900  0.178500  0.152200  1.0  -0.1395
  C  C190  1  0.196100  0.298900  0.146200  1.0  -0.1036
  C  C191  1  0.195600  0.301900  0.262000  1.0  -0.0457
  C  C192  1  0.439400  0.438400  0.814500  1.0  -0.0332
  C  C193  1  0.439600  0.442500  0.928800  1.0  -0.1777
  C  C194  1  0.213600  0.113800  0.090300  1.0  0.6792
  C  C195  1  0.198500  0.364000  0.077400  1.0  0.6906
  C  C196  1  0.375200  0.446300  0.995800  1.0  0.7102
  C  C197  1  0.200900  0.179700  0.268100  1.0  -0.0776
  C  C198  1  0.124700  0.537400  0.962400  1.0  0.7058
  C  C199  1  0.062000  0.547400  0.891600  1.0  -0.1381
  C  C200  1  0.060500  0.552500  0.776700  1.0  -0.0759
  C  C201  1  0.000000  0.942500  0.985900  1.0  0.0316
  C  C202  1  0.000000  0.935200  0.757400  1.0  -0.1133
  C  C203  1  0.500000  0.442500  0.985900  1.0  0.0316
  C  C204  1  0.500000  0.435200  0.757400  1.0  -0.1133
  C  C205  1  0.000000  0.057500  0.485900  1.0  0.0314
  C  C206  1  0.000000  0.064800  0.257400  1.0  -0.1139
  C  C207  1  0.500000  0.557500  0.485900  1.0  0.0314
  C  C208  1  0.500000  0.564800  0.257400  1.0  -0.1139
  C  C209  1  0.500000  0.045700  0.951100  1.0  -0.0027
  C  C210  1  0.500000  0.056000  0.718400  1.0  -0.0966
  C  C211  1  0.000000  0.545700  0.951100  1.0  -0.0027
  C  C212  1  0.000000  0.556000  0.718400  1.0  -0.0966
  C  C213  1  0.500000  0.954300  0.451100  1.0  -0.003
  C  C214  1  0.500000  0.944000  0.218400  1.0  -0.0963
  C  C215  1  0.000000  0.454300  0.451100  1.0  -0.003
  C  C216  1  0.000000  0.444000  0.218400  1.0  -0.0963
  O  O217  1  0.285900  0.916500  0.126700  1.0  -0.6205
  O  O218  1  0.124800  0.942600  0.097000  1.0  -0.5996
  O  O219  1  0.318700  0.859900  0.977700  1.0  -0.6205
  O  O220  1  0.294900  0.612600  0.987500  1.0  -0.6462
  O  O221  1  0.177800  0.962400  0.939100  1.0  -0.6745
  O  O222  1  0.267900  0.562000  0.144700  1.0  -0.7225
  O  O223  1  0.323000  0.017200  0.909600  1.0  -0.7557
  O  O224  1  0.375000  0.046700  0.061100  1.0  -0.641
  O  O225  1  0.785900  0.416500  0.126700  1.0  -0.6205
  O  O226  1  0.624800  0.442600  0.097000  1.0  -0.5996
  O  O227  1  0.818700  0.359900  0.977700  1.0  -0.6205
  O  O228  1  0.794900  0.112600  0.987500  1.0  -0.6462
  O  O229  1  0.677800  0.462400  0.939100  1.0  -0.6745
  O  O230  1  0.767900  0.062000  0.144700  1.0  -0.7225
  O  O231  1  0.823000  0.517200  0.909600  1.0  -0.7557
  O  O232  1  0.875000  0.546700  0.061100  1.0  -0.641
  O  O233  1  0.714100  0.083500  0.626700  1.0  -0.6214
  O  O234  1  0.875200  0.057400  0.597000  1.0  -0.5995
  O  O235  1  0.681300  0.140100  0.477700  1.0  -0.6206
  O  O236  1  0.705100  0.387400  0.487500  1.0  -0.6462
  O  O237  1  0.822200  0.037600  0.439100  1.0  -0.6766
  O  O238  1  0.732100  0.438000  0.644700  1.0  -0.721
  O  O239  1  0.677000  0.982800  0.409600  1.0  -0.7552
  O  O240  1  0.625000  0.953300  0.561100  1.0  -0.6415
  O  O241  1  0.214100  0.583500  0.626700  1.0  -0.6214
  O  O242  1  0.375200  0.557400  0.597000  1.0  -0.5995
  O  O243  1  0.181300  0.640100  0.477700  1.0  -0.6206
  O  O244  1  0.205100  0.887400  0.487500  1.0  -0.6462
  O  O245  1  0.322200  0.537600  0.439100  1.0  -0.6766
  O  O246  1  0.232100  0.938000  0.644700  1.0  -0.721
  O  O247  1  0.177000  0.482800  0.409600  1.0  -0.7552
  O  O248  1  0.125000  0.453300  0.561100  1.0  -0.6415
  O  O249  1  0.285900  0.083500  0.626700  1.0  -0.6202
  O  O250  1  0.124800  0.057400  0.597000  1.0  -0.6007
  O  O251  1  0.318700  0.140100  0.477700  1.0  -0.6207
  O  O252  1  0.294900  0.387400  0.487500  1.0  -0.6461
  O  O253  1  0.177800  0.037600  0.439100  1.0  -0.6747
  O  O254  1  0.267900  0.438000  0.644700  1.0  -0.721
  O  O255  1  0.323000  0.982800  0.409600  1.0  -0.7555
  O  O256  1  0.375000  0.953300  0.561100  1.0  -0.6409
  O  O257  1  0.785900  0.583500  0.626700  1.0  -0.6202
  O  O258  1  0.624800  0.557400  0.597000  1.0  -0.6007
  O  O259  1  0.818700  0.640100  0.477700  1.0  -0.6207
  O  O260  1  0.794900  0.887400  0.487500  1.0  -0.6461
  O  O261  1  0.677800  0.537600  0.439100  1.0  -0.6747
  O  O262  1  0.767900  0.938000  0.644700  1.0  -0.721
  O  O263  1  0.823000  0.482800  0.409600  1.0  -0.7555
  O  O264  1  0.875000  0.453300  0.561100  1.0  -0.6409
  O  O265  1  0.714100  0.916500  0.126700  1.0  -0.6213
  O  O266  1  0.875200  0.942600  0.097000  1.0  -0.5991
  O  O267  1  0.681300  0.859900  0.977700  1.0  -0.6204
  O  O268  1  0.705100  0.612600  0.987500  1.0  -0.6463
  O  O269  1  0.822200  0.962400  0.939100  1.0  -0.6763
  O  O270  1  0.732100  0.562000  0.144700  1.0  -0.7224
  O  O271  1  0.677000  0.017200  0.909600  1.0  -0.7553
  O  O272  1  0.625000  0.046700  0.061100  1.0  -0.6418
  O  O273  1  0.214100  0.416500  0.126700  1.0  -0.6213
  O  O274  1  0.375200  0.442600  0.097000  1.0  -0.5991
  O  O275  1  0.181300  0.359900  0.977700  1.0  -0.6204
  O  O276  1  0.205100  0.112600  0.987500  1.0  -0.6463
  O  O277  1  0.322200  0.462400  0.939100  1.0  -0.6763
  O  O278  1  0.232100  0.062000  0.144700  1.0  -0.7224
  O  O279  1  0.177000  0.517200  0.909600  1.0  -0.7553
  O  O280  1  0.125000  0.546700  0.061100  1.0  -0.6418
  O  O281  1  0.500000  0.876900  0.829000  1.0  -0.64
  O  O282  1  0.000000  0.376900  0.829000  1.0  -0.64
  O  O283  1  0.500000  0.123100  0.329000  1.0  -0.6393
  O  O284  1  0.000000  0.623100  0.329000  1.0  -0.6393
