# generated using pymatgen
data_Cu5H18C24(N6O5)2
_symmetry_space_group_name_H-M   'P 1'
_cell_length_a   10.55260000
_cell_length_b   10.87490000
_cell_length_c   15.36430000
_cell_angle_alpha   76.54500000
_cell_angle_beta   82.10100000
_cell_angle_gamma   79.92700000
_symmetry_Int_Tables_number   1
_chemical_formula_structural   Cu5H18C24(N6O5)2
_chemical_formula_sum   'Cu10 H36 C48 N24 O20'
_cell_volume   1679.72058167
_cell_formula_units_Z   2
loop_
 _symmetry_equiv_pos_site_id
 _symmetry_equiv_pos_as_xyz
  1  'x, y, z'
loop_
 _atom_site_type_symbol
 _atom_site_label
 _atom_site_symmetry_multiplicity
 _atom_site_fract_x
 _atom_site_fract_y
 _atom_site_fract_z
 _atom_site_occupancy
 _atom_site_charge
  Cu  Cu1  1  0.159060  0.510200  0.159690  1.0  0.8547
  Cu  Cu2  1  0.926890  0.761190  0.091590  1.0  0.8213
  Cu  Cu3  1  0.320160  0.495670  0.342450  1.0  0.9112
  Cu  Cu4  1  0.619370  0.603610  0.284620  1.0  0.8223
  Cu  Cu5  1  0.840940  0.489800  0.840310  1.0  0.8546
  Cu  Cu6  1  0.073110  0.238810  0.908410  1.0  0.8214
  Cu  Cu7  1  0.679840  0.504330  0.657550  1.0  0.9104
  Cu  Cu8  1  0.380630  0.396390  0.715380  1.0  0.8231
  Cu  Cu9  1  0.000000  0.500000  0.000000  1.0  0.9904
  Cu  Cu10  1  0.500000  0.500000  0.500000  1.0  0.8842
  H  H11  1  0.921100  0.496900  0.164200  1.0  0.4292
  H  H12  1  0.399600  0.667100  0.385500  1.0  0.3865
  H  H13  1  0.150300  0.827600  0.341000  1.0  0.1135
  H  H14  1  0.995400  0.930300  0.230700  1.0  0.1418
  H  H15  1  0.599800  0.647100  0.066900  1.0  0.123
  H  H16  1  0.404800  0.600000  0.014900  1.0  0.1126
  H  H17  1  0.303400  0.096200  0.053500  1.0  0.144
  H  H18  1  0.338600  0.215600  0.163900  1.0  0.1095
  H  H19  1  0.919500  0.623000  0.507600  1.0  0.1271
  H  H20  1  0.885000  0.676400  0.346500  1.0  0.0998
  H  H21  1  0.982300  0.390000  0.308000  1.0  0.1003
  H  H22  1  0.775800  0.100600  0.386800  1.0  0.1226
  H  H23  1  0.964400  0.959900  0.408900  1.0  0.1096
  H  H24  1  0.160300  0.034400  0.386100  1.0  0.1165
  H  H25  1  0.182500  0.003200  0.916300  1.0  0.1201
  H  H26  1  0.472400  0.985800  0.719200  1.0  0.1074
  H  H27  1  0.471800  0.769100  0.738300  1.0  0.1118
  H  H28  1  0.329600  0.668500  0.848800  1.0  0.0944
  H  H29  1  0.078900  0.503100  0.835800  1.0  0.4276
  H  H30  1  0.600400  0.332900  0.614500  1.0  0.3884
  H  H31  1  0.849700  0.172400  0.659000  1.0  0.1135
  H  H32  1  0.004600  0.069700  0.769300  1.0  0.1414
  H  H33  1  0.400200  0.352900  0.933100  1.0  0.1229
  H  H34  1  0.595200  0.400000  0.985100  1.0  0.1123
  H  H35  1  0.696600  0.903800  0.946500  1.0  0.1439
  H  H36  1  0.661400  0.784400  0.836100  1.0  0.11
  H  H37  1  0.080500  0.377000  0.492400  1.0  0.127
  H  H38  1  0.115000  0.323600  0.653500  1.0  0.1003
  H  H39  1  0.017700  0.610000  0.692000  1.0  0.1006
  H  H40  1  0.224200  0.899400  0.613200  1.0  0.1224
  H  H41  1  0.035600  0.040100  0.591100  1.0  0.1099
  H  H42  1  0.839700  0.965600  0.613900  1.0  0.1159
  H  H43  1  0.817500  0.996800  0.083700  1.0  0.1204
  H  H44  1  0.527600  0.014200  0.280800  1.0  0.1073
  H  H45  1  0.528200  0.230900  0.261700  1.0  0.1119
  H  H46  1  0.670400  0.331500  0.151200  1.0  0.0944
  C  C47  1  0.125600  0.789700  0.298900  1.0  0.031
  C  C48  1  0.039400  0.847300  0.238000  1.0  -0.0476
  C  C49  1  0.530800  0.612700  0.102900  1.0  -0.0249
  C  C50  1  0.422600  0.586100  0.074300  1.0  0.0215
  C  C51  1  0.261100  0.176700  0.059800  1.0  -0.0278
  C  C52  1  0.280300  0.242900  0.120600  1.0  0.0067
  C  C53  1  0.846800  0.613200  0.483300  1.0  -0.02
  C  C54  1  0.827200  0.643100  0.393900  1.0  0.0178
  C  C55  1  0.091600  0.220600  0.345600  1.0  -0.1898
  C  C56  1  0.978600  0.303200  0.329100  1.0  -0.0489
  C  C57  1  0.859500  0.260900  0.342900  1.0  -0.1308
  C  C58  1  0.855000  0.130800  0.375100  1.0  -0.071
  C  C59  1  0.967400  0.047000  0.389600  1.0  -0.0783
  C  C60  1  0.084800  0.091800  0.375400  1.0  -0.0511
  C  C61  1  0.216800  0.271200  0.337600  1.0  0.6658
  C  C62  1  0.738400  0.358800  0.330400  1.0  0.6483
  C  C63  1  0.242300  0.824500  0.892900  1.0  -0.1547
  C  C64  1  0.241000  0.956000  0.881000  1.0  -0.0142
  C  C65  1  0.329200  0.015800  0.814900  1.0  -0.1215
  C  C66  1  0.414100  0.945600  0.762900  1.0  -0.0206
  C  C67  1  0.414400  0.815900  0.774400  1.0  -0.1103
  C  C68  1  0.328700  0.756200  0.840200  1.0  -0.0201
  C  C69  1  0.150100  0.756800  0.963800  1.0  0.6965
  C  C70  1  0.329700  0.158600  0.797800  1.0  0.6921
  C  C71  1  0.874400  0.210300  0.701100  1.0  0.0307
  C  C72  1  0.960600  0.152700  0.762000  1.0  -0.0467
  C  C73  1  0.469200  0.387300  0.897100  1.0  -0.0245
  C  C74  1  0.577400  0.413900  0.925700  1.0  0.0223
  C  C75  1  0.738900  0.823300  0.940200  1.0  -0.0282
  C  C76  1  0.719700  0.757100  0.879400  1.0  0.0057
  C  C77  1  0.153200  0.386800  0.516700  1.0  -0.0198
  C  C78  1  0.172800  0.356900  0.606100  1.0  0.0176
  C  C79  1  0.908400  0.779400  0.654400  1.0  -0.1906
  C  C80  1  0.021400  0.696800  0.670900  1.0  -0.0501
  C  C81  1  0.140500  0.739100  0.657100  1.0  -0.1304
  C  C82  1  0.145000  0.869200  0.624900  1.0  -0.0725
  C  C83  1  0.032600  0.953000  0.610400  1.0  -0.0775
  C  C84  1  0.915200  0.908200  0.624600  1.0  -0.0521
  C  C85  1  0.783200  0.728800  0.662400  1.0  0.6637
  C  C86  1  0.261600  0.641200  0.669600  1.0  0.6455
  C  C87  1  0.757700  0.175500  0.107100  1.0  -0.1564
  C  C88  1  0.759000  0.044000  0.119000  1.0  -0.0164
  C  C89  1  0.670800  0.984200  0.185100  1.0  -0.122
  C  C90  1  0.585900  0.054400  0.237100  1.0  -0.0194
  C  C91  1  0.585600  0.184100  0.225600  1.0  -0.1114
  C  C92  1  0.671300  0.243800  0.159800  1.0  -0.0182
  C  C93  1  0.849900  0.243200  0.036200  1.0  0.6952
  C  C94  1  0.670300  0.841400  0.202200  1.0  0.6923
  N  N95  1  0.030500  0.760300  0.190600  1.0  -0.2448
  N  N96  1  0.108300  0.654100  0.221500  1.0  -0.0678
  N  N97  1  0.169300  0.670100  0.288700  1.0  -0.2733
  N  N98  1  0.348600  0.537200  0.146100  1.0  -0.2109
  N  N99  1  0.407400  0.533100  0.218300  1.0  -0.1099
  N  N100  1  0.517000  0.579400  0.192800  1.0  -0.1856
  N  N101  1  0.201300  0.353300  0.107600  1.0  -0.1728
  N  N102  1  0.133600  0.357400  0.039600  1.0  -0.1087
  N  N103  1  0.169100  0.250500  0.010300  1.0  -0.1999
  N  N104  1  0.711400  0.616600  0.386400  1.0  -0.2737
  N  N105  1  0.660400  0.571800  0.468400  1.0  -0.0719
  N  N106  1  0.742700  0.567500  0.528500  1.0  -0.1943
  N  N107  1  0.969500  0.239700  0.809400  1.0  -0.2446
  N  N108  1  0.891700  0.345900  0.778500  1.0  -0.0683
  N  N109  1  0.830700  0.329900  0.711300  1.0  -0.2729
  N  N110  1  0.651400  0.462800  0.853900  1.0  -0.2134
  N  N111  1  0.592600  0.466900  0.781700  1.0  -0.1094
  N  N112  1  0.483000  0.420600  0.807200  1.0  -0.1866
  N  N113  1  0.798700  0.646700  0.892400  1.0  -0.1747
  N  N114  1  0.866400  0.642600  0.960400  1.0  -0.1098
  N  N115  1  0.830900  0.749500  0.989700  1.0  -0.1982
  N  N116  1  0.288600  0.383400  0.613600  1.0  -0.2706
  N  N117  1  0.339600  0.428200  0.531600  1.0  -0.0736
  N  N118  1  0.257300  0.432500  0.471500  1.0  -0.1952
  O  O119  1  0.208900  0.394400  0.304500  1.0  -0.6531
  O  O120  1  0.313800  0.203500  0.362400  1.0  -0.5272
  O  O121  1  0.752000  0.457200  0.268600  1.0  -0.5634
  O  O122  1  0.638800  0.341000  0.381300  1.0  -0.514
  O  O123  1  0.163000  0.638000  0.981100  1.0  -0.6564
  O  O124  1  0.061900  0.828500  0.002600  1.0  -0.577
  O  O125  1  0.238400  0.231900  0.828900  1.0  -0.6552
  O  O126  1  0.423600  0.201700  0.749300  1.0  -0.5829
  O  O127  1  0.983300  0.542100  0.120500  1.0  -0.9213
  O  O128  1  0.443300  0.580900  0.381900  1.0  -0.8938
  O  O129  1  0.791100  0.605600  0.695500  1.0  -0.6537
  O  O130  1  0.686200  0.796500  0.637600  1.0  -0.5283
  O  O131  1  0.248000  0.542800  0.731400  1.0  -0.5631
  O  O132  1  0.361200  0.659000  0.618700  1.0  -0.5135
  O  O133  1  0.837000  0.362000  0.018900  1.0  -0.6573
  O  O134  1  0.938100  0.171500  0.997400  1.0  -0.5766
  O  O135  1  0.761600  0.768100  0.171100  1.0  -0.6546
  O  O136  1  0.576400  0.798300  0.250700  1.0  -0.5829
  O  O137  1  0.016700  0.457900  0.879500  1.0  -0.9191
  O  O138  1  0.556700  0.419100  0.618100  1.0  -0.894
