# generated using pymatgen
data_Cd2H14C29N2(O4F3)2
_symmetry_space_group_name_H-M   'P 1'
_cell_length_a   16.01210000
_cell_length_b   7.55020000
_cell_length_c   27.81530000
_cell_angle_alpha   90.00000000
_cell_angle_beta   99.73300000
_cell_angle_gamma   90.00000000
_symmetry_Int_Tables_number   1
_chemical_formula_structural   Cd2H14C29N2(O4F3)2
_chemical_formula_sum   'Cd8 H56 C116 N8 O32 F24'
_cell_volume   3314.31629794
_cell_formula_units_Z   4
loop_
 _symmetry_equiv_pos_site_id
 _symmetry_equiv_pos_as_xyz
  1  'x, y, z'
loop_
 _atom_site_type_symbol
 _atom_site_label
 _atom_site_symmetry_multiplicity
 _atom_site_fract_x
 _atom_site_fract_y
 _atom_site_fract_z
 _atom_site_occupancy
 _atom_site_charge
  Cd  Cd1  1  0.215610  0.526040  0.080140  1.0  1.0541
  Cd  Cd2  1  0.151000  0.042650  0.046510  1.0  1.0111
  Cd  Cd3  1  0.784390  0.026040  0.419860  1.0  1.054
  Cd  Cd4  1  0.849000  0.542650  0.453490  1.0  1.0116
  Cd  Cd5  1  0.784390  0.473960  0.919860  1.0  1.0539
  Cd  Cd6  1  0.849000  0.957350  0.953490  1.0  1.0124
  Cd  Cd7  1  0.215610  0.973960  0.580140  1.0  1.054
  Cd  Cd8  1  0.151000  0.457350  0.546510  1.0  1.0121
  H  H9  1  0.200500  0.739000  0.232400  1.0  0.1111
  H  H10  1  0.195200  0.205200  0.299700  1.0  0.1027
  H  H11  1  0.218800  0.348400  0.230400  1.0  0.1073
  H  H12  1  0.038400  0.036300  0.291900  1.0  0.1174
  H  H13  1  0.950800  0.198600  0.332200  1.0  0.1097
  H  H14  1  0.193000  0.944700  0.417900  1.0  0.1034
  H  H15  1  0.296300  0.653100  0.990000  1.0  0.0802
  H  H16  1  0.417200  0.750700  0.965700  1.0  0.1294
  H  H17  1  0.538900  0.681600  0.101400  1.0  0.1335
  H  H18  1  0.414200  0.584800  0.121700  1.0  0.0872
  H  H19  1  0.529900  0.795600  0.942200  1.0  0.1324
  H  H20  1  0.652500  0.890700  0.918600  1.0  0.0897
  H  H21  1  0.766700  0.907400  0.053400  1.0  0.0795
  H  H22  1  0.647000  0.816400  0.081100  1.0  0.1375
  H  H23  1  0.799500  0.239000  0.267600  1.0  0.1111
  H  H24  1  0.804800  0.705200  0.200300  1.0  0.1033
  H  H25  1  0.781200  0.848400  0.269600  1.0  0.1075
  H  H26  1  0.961600  0.536300  0.208100  1.0  0.1164
  H  H27  1  0.049200  0.698600  0.167800  1.0  0.1096
  H  H28  1  0.807000  0.444700  0.082100  1.0  0.1034
  H  H29  1  0.703700  0.153100  0.510000  1.0  0.0801
  H  H30  1  0.582800  0.250700  0.534300  1.0  0.1297
  H  H31  1  0.461100  0.181600  0.398600  1.0  0.1338
  H  H32  1  0.585800  0.084800  0.378300  1.0  0.0877
  H  H33  1  0.470100  0.295600  0.557800  1.0  0.1329
  H  H34  1  0.347500  0.390700  0.581400  1.0  0.0889
  H  H35  1  0.233300  0.407400  0.446600  1.0  0.0796
  H  H36  1  0.353000  0.316400  0.418900  1.0  0.138
  H  H37  1  0.799500  0.261000  0.767600  1.0  0.1114
  H  H38  1  0.804800  0.794800  0.700300  1.0  0.1031
  H  H39  1  0.781200  0.651600  0.769600  1.0  0.1068
  H  H40  1  0.961600  0.963700  0.708100  1.0  0.1164
  H  H41  1  0.049200  0.801400  0.667800  1.0  0.1099
  H  H42  1  0.807000  0.055300  0.582100  1.0  0.1038
  H  H43  1  0.703700  0.346900  0.010000  1.0  0.08
  H  H44  1  0.582800  0.249300  0.034300  1.0  0.1297
  H  H45  1  0.461100  0.318400  0.898600  1.0  0.1337
  H  H46  1  0.585800  0.415200  0.878300  1.0  0.0879
  H  H47  1  0.470100  0.204400  0.057800  1.0  0.1327
  H  H48  1  0.347500  0.109300  0.081400  1.0  0.0888
  H  H49  1  0.233300  0.092600  0.946600  1.0  0.0795
  H  H50  1  0.353000  0.183600  0.918900  1.0  0.138
  H  H51  1  0.200500  0.761000  0.732400  1.0  0.1115
  H  H52  1  0.195200  0.294800  0.799700  1.0  0.1023
  H  H53  1  0.218800  0.151600  0.730400  1.0  0.1075
  H  H54  1  0.038400  0.463700  0.791900  1.0  0.1172
  H  H55  1  0.950800  0.301400  0.832200  1.0  0.1098
  H  H56  1  0.193000  0.555300  0.917900  1.0  0.1028
  H  H57  1  0.296300  0.846900  0.490000  1.0  0.0798
  H  H58  1  0.417200  0.749300  0.465700  1.0  0.1296
  H  H59  1  0.538900  0.818400  0.601400  1.0  0.1335
  H  H60  1  0.414200  0.915200  0.621700  1.0  0.0872
  H  H61  1  0.529900  0.704400  0.442200  1.0  0.1326
  H  H62  1  0.652500  0.609300  0.418600  1.0  0.0897
  H  H63  1  0.766700  0.592600  0.553400  1.0  0.0794
  H  H64  1  0.647000  0.683600  0.581100  1.0  0.1377
  C  C65  1  0.238700  0.241200  0.145170  1.0  0.6877
  C  C66  1  0.222700  0.131000  0.188480  1.0  -0.0124
  C  C67  1  0.216600  0.947300  0.189390  1.0  -0.1227
  C  C68  1  0.203000  0.862000  0.231860  1.0  -0.0825
  C  C69  1  0.193200  0.956100  0.273380  1.0  0.0429
  C  C70  1  0.200200  0.139400  0.272100  1.0  -0.1404
  C  C71  1  0.214600  0.225600  0.230410  1.0  -0.082
  C  C72  1  0.228300  0.833800  0.146430  1.0  0.715
  C  C73  1  0.182200  0.864000  0.321540  1.0  -0.2999
  C  C74  1  0.138500  0.682300  0.313270  1.0  0.6983
  C  C75  1  0.272800  0.837000  0.350670  1.0  0.7055
  C  C76  1  0.126300  0.975300  0.350520  1.0  0.0592
  C  C77  1  0.052400  0.051500  0.325440  1.0  -0.1187
  C  C78  1  0.999900  0.149000  0.349640  1.0  -0.0667
  C  C79  1  0.019300  0.174400  0.399660  1.0  -0.0197
  C  C80  1  0.092100  0.096600  0.425390  1.0  -0.1325
  C  C81  1  0.144600  0.997200  0.400510  1.0  -0.0895
  C  C82  1  0.958600  0.279600  0.424170  1.0  0.6672
  C  C83  1  0.118900  0.123500  0.479590  1.0  0.6964
  C  C84  1  0.345800  0.658300  0.012940  1.0  0.1847
  C  C85  1  0.418700  0.717400  0.998040  1.0  -0.1774
  C  C86  1  0.494100  0.727700  0.030490  1.0  0.0928
  C  C87  1  0.490500  0.676900  0.077620  1.0  -0.1968
  C  C88  1  0.414500  0.618700  0.089590  1.0  0.1976
  C  C89  1  0.573200  0.791700  0.014660  1.0  0.0902
  C  C90  1  0.577400  0.817000  0.965710  1.0  -0.1625
  C  C91  1  0.651800  0.873800  0.951620  1.0  0.1809
  C  C92  1  0.718400  0.883900  0.030670  1.0  0.1859
  C  C93  1  0.646400  0.828700  0.047760  1.0  -0.1689
  C  C94  1  0.761300  0.741200  0.354830  1.0  0.688
  C  C95  1  0.777300  0.631000  0.311520  1.0  -0.0138
  C  C96  1  0.783400  0.447300  0.310610  1.0  -0.122
  C  C97  1  0.797000  0.362000  0.268140  1.0  -0.0842
  C  C98  1  0.806800  0.456100  0.226620  1.0  0.042
  C  C99  1  0.799800  0.639400  0.227900  1.0  -0.1403
  C  C100  1  0.785400  0.725600  0.269590  1.0  -0.0797
  C  C101  1  0.771700  0.333800  0.353570  1.0  0.7154
  C  C102  1  0.817800  0.364000  0.178460  1.0  -0.3006
  C  C103  1  0.861500  0.182300  0.186730  1.0  0.6985
  C  C104  1  0.727200  0.337000  0.149330  1.0  0.7081
  C  C105  1  0.873700  0.475300  0.149480  1.0  0.059
  C  C106  1  0.947600  0.551500  0.174560  1.0  -0.1191
  C  C107  1  0.000100  0.649000  0.150360  1.0  -0.0686
  C  C108  1  0.980700  0.674400  0.100340  1.0  -0.0203
  C  C109  1  0.907900  0.596600  0.074610  1.0  -0.1328
  C  C110  1  0.855400  0.497200  0.099490  1.0  -0.0888
  C  C111  1  0.041400  0.779600  0.075830  1.0  0.6696
  C  C112  1  0.881100  0.623500  0.020410  1.0  0.7
  C  C113  1  0.654200  0.158300  0.487060  1.0  0.1851
  C  C114  1  0.581300  0.217400  0.501960  1.0  -0.1794
  C  C115  1  0.505900  0.227700  0.469510  1.0  0.0935
  C  C116  1  0.509500  0.176900  0.422380  1.0  -0.1959
  C  C117  1  0.585500  0.118700  0.410410  1.0  0.1998
  C  C118  1  0.426800  0.291700  0.485340  1.0  0.09
  C  C119  1  0.422600  0.317000  0.534290  1.0  -0.1612
  C  C120  1  0.348200  0.373800  0.548380  1.0  0.1793
  C  C121  1  0.281600  0.383900  0.469330  1.0  0.1863
  C  C122  1  0.353600  0.328700  0.452240  1.0  -0.1709
  C  C123  1  0.761300  0.758800  0.854830  1.0  0.6886
  C  C124  1  0.777300  0.869000  0.811520  1.0  -0.0138
  C  C125  1  0.783400  0.052700  0.810610  1.0  -0.1224
  C  C126  1  0.797000  0.138000  0.768140  1.0  -0.0854
  C  C127  1  0.806800  0.043900  0.726620  1.0  0.042
  C  C128  1  0.799800  0.860600  0.727900  1.0  -0.1407
  C  C129  1  0.785400  0.774400  0.769590  1.0  -0.0791
  C  C130  1  0.771700  0.166200  0.853570  1.0  0.7162
  C  C131  1  0.817800  0.136000  0.678460  1.0  -0.3005
  C  C132  1  0.861500  0.317700  0.686730  1.0  0.698
  C  C133  1  0.727200  0.163000  0.649330  1.0  0.7087
  C  C134  1  0.873700  0.024700  0.649480  1.0  0.0591
  C  C135  1  0.947600  0.948500  0.674560  1.0  -0.1192
  C  C136  1  0.000100  0.851000  0.650360  1.0  -0.0685
  C  C137  1  0.980700  0.825600  0.600340  1.0  -0.0201
  C  C138  1  0.907900  0.903400  0.574610  1.0  -0.1329
  C  C139  1  0.855400  0.002800  0.599490  1.0  -0.0888
  C  C140  1  0.041400  0.720400  0.575830  1.0  0.6696
  C  C141  1  0.881100  0.876500  0.520410  1.0  0.6983
  C  C142  1  0.654200  0.341700  0.987060  1.0  0.1856
  C  C143  1  0.581300  0.282600  0.001960  1.0  -0.1791
  C  C144  1  0.505900  0.272300  0.969510  1.0  0.0934
  C  C145  1  0.509500  0.323100  0.922380  1.0  -0.1958
  C  C146  1  0.585500  0.381300  0.910410  1.0  0.1995
  C  C147  1  0.426800  0.208300  0.985340  1.0  0.09
  C  C148  1  0.422600  0.183000  0.034290  1.0  -0.1614
  C  C149  1  0.348200  0.126200  0.048380  1.0  0.1792
  C  C150  1  0.281600  0.116100  0.969330  1.0  0.1862
  C  C151  1  0.353600  0.171300  0.952240  1.0  -0.1701
  C  C152  1  0.238700  0.258800  0.645170  1.0  0.6881
  C  C153  1  0.222700  0.369000  0.688480  1.0  -0.0123
  C  C154  1  0.216600  0.552700  0.689390  1.0  -0.1231
  C  C155  1  0.203000  0.638000  0.731860  1.0  -0.0851
  C  C156  1  0.193200  0.543900  0.773380  1.0  0.043
  C  C157  1  0.200200  0.360600  0.772100  1.0  -0.1401
  C  C158  1  0.214600  0.274400  0.730410  1.0  -0.0803
  C  C159  1  0.228300  0.666200  0.646430  1.0  0.7159
  C  C160  1  0.182200  0.636000  0.821540  1.0  -0.2998
  C  C161  1  0.138500  0.817700  0.813270  1.0  0.6973
  C  C162  1  0.272800  0.663000  0.850670  1.0  0.7047
  C  C163  1  0.126300  0.524700  0.850520  1.0  0.0593
  C  C164  1  0.052400  0.448500  0.825440  1.0  -0.1186
  C  C165  1  0.999900  0.351000  0.849640  1.0  -0.0673
  C  C166  1  0.019300  0.325600  0.899660  1.0  -0.0196
  C  C167  1  0.092100  0.403400  0.925390  1.0  -0.1325
  C  C168  1  0.144600  0.502800  0.900510  1.0  -0.0897
  C  C169  1  0.958600  0.220400  0.924170  1.0  0.6682
  C  C170  1  0.118900  0.376500  0.979590  1.0  0.6977
  C  C171  1  0.345800  0.841700  0.512940  1.0  0.1849
  C  C172  1  0.418700  0.782600  0.498040  1.0  -0.1772
  C  C173  1  0.494100  0.772300  0.530490  1.0  0.0927
  C  C174  1  0.490500  0.823100  0.577620  1.0  -0.1967
  C  C175  1  0.414500  0.881300  0.589590  1.0  0.1978
  C  C176  1  0.573200  0.708300  0.514660  1.0  0.09
  C  C177  1  0.577400  0.683000  0.465710  1.0  -0.1628
  C  C178  1  0.651800  0.626200  0.451620  1.0  0.1811
  C  C179  1  0.718400  0.616100  0.530670  1.0  0.1866
  C  C180  1  0.646400  0.671300  0.547760  1.0  -0.1692
  N  N181  1  0.342710  0.608100  0.058650  1.0  -0.3513
  N  N182  1  0.722620  0.905500  0.983360  1.0  -0.3687
  N  N183  1  0.657290  0.108100  0.441350  1.0  -0.3509
  N  N184  1  0.277380  0.405500  0.516640  1.0  -0.3695
  N  N185  1  0.657290  0.391900  0.941350  1.0  -0.3507
  N  N186  1  0.277380  0.094500  0.016640  1.0  -0.3699
  N  N187  1  0.342710  0.891900  0.558650  1.0  -0.352
  N  N188  1  0.722620  0.594500  0.483360  1.0  -0.3689
  O  O189  1  0.177310  0.263700  0.109640  1.0  -0.683
  O  O190  1  0.306940  0.318200  0.148160  1.0  -0.5934
  O  O191  1  0.245740  0.907200  0.108580  1.0  -0.6755
  O  O192  1  0.219430  0.669700  0.150940  1.0  -0.6153
  O  O193  1  0.903430  0.199000  0.442640  1.0  -0.6891
  O  O194  1  0.962370  0.446500  0.422390  1.0  -0.5883
  O  O195  1  0.081210  0.240000  0.499840  1.0  -0.5991
  O  O196  1  0.179620  0.030600  0.500020  1.0  -0.5961
  O  O197  1  0.822690  0.763700  0.390360  1.0  -0.682
  O  O198  1  0.693060  0.818200  0.351840  1.0  -0.5925
  O  O199  1  0.754260  0.407200  0.391420  1.0  -0.6765
  O  O200  1  0.780570  0.169700  0.349060  1.0  -0.6158
  O  O201  1  0.096570  0.699000  0.057360  1.0  -0.6881
  O  O202  1  0.037630  0.946500  0.077610  1.0  -0.5892
  O  O203  1  0.918790  0.740000  0.000160  1.0  -0.5991
  O  O204  1  0.820380  0.530600  0.999980  1.0  -0.5968
  O  O205  1  0.822690  0.736300  0.890360  1.0  -0.6821
  O  O206  1  0.693060  0.681800  0.851840  1.0  -0.5921
  O  O207  1  0.754260  0.092800  0.891420  1.0  -0.676
  O  O208  1  0.780570  0.330300  0.849060  1.0  -0.6178
  O  O209  1  0.096570  0.801000  0.557360  1.0  -0.6881
  O  O210  1  0.037630  0.553500  0.577610  1.0  -0.5896
  O  O211  1  0.918790  0.760000  0.500160  1.0  -0.5993
  O  O212  1  0.820380  0.969400  0.499980  1.0  -0.5964
  O  O213  1  0.177310  0.236300  0.609640  1.0  -0.6836
  O  O214  1  0.306940  0.181800  0.648160  1.0  -0.5928
  O  O215  1  0.245740  0.592800  0.608580  1.0  -0.6753
  O  O216  1  0.219430  0.830300  0.650940  1.0  -0.6161
  O  O217  1  0.903430  0.301000  0.942640  1.0  -0.6896
  O  O218  1  0.962370  0.053500  0.922390  1.0  -0.5897
  O  O219  1  0.081210  0.260000  0.999840  1.0  -0.5982
  O  O220  1  0.179620  0.469400  0.000020  1.0  -0.5968
  F  F221  1  0.323600  0.762800  0.322620  1.0  -0.2008
  F  F222  1  0.307960  0.988400  0.366900  1.0  -0.1756
  F  F223  1  0.275100  0.729100  0.389270  1.0  -0.1884
  F  F224  1  0.115500  0.619300  0.353740  1.0  -0.201
  F  F225  1  0.069200  0.691200  0.279430  1.0  -0.1967
  F  F226  1  0.188600  0.557700  0.298040  1.0  -0.1976
  F  F227  1  0.676400  0.262800  0.177380  1.0  -0.2003
  F  F228  1  0.692040  0.488400  0.133100  1.0  -0.1774
  F  F229  1  0.724900  0.229100  0.110730  1.0  -0.1872
  F  F230  1  0.884500  0.119300  0.146260  1.0  -0.2011
  F  F231  1  0.930800  0.191200  0.220570  1.0  -0.1972
  F  F232  1  0.811400  0.057700  0.201960  1.0  -0.1983
  F  F233  1  0.676400  0.237200  0.677380  1.0  -0.2004
  F  F234  1  0.692040  0.011600  0.633100  1.0  -0.1762
  F  F235  1  0.724900  0.270900  0.610730  1.0  -0.1873
  F  F236  1  0.884500  0.380700  0.646260  1.0  -0.2009
  F  F237  1  0.930800  0.308800  0.720570  1.0  -0.1973
  F  F238  1  0.811400  0.442300  0.701960  1.0  -0.198
  F  F239  1  0.323600  0.737200  0.822620  1.0  -0.2006
  F  F240  1  0.307960  0.511600  0.866900  1.0  -0.1768
  F  F241  1  0.275100  0.770900  0.889270  1.0  -0.1886
  F  F242  1  0.115500  0.880700  0.853740  1.0  -0.2007
  F  F243  1  0.069200  0.808800  0.779430  1.0  -0.197
  F  F244  1  0.188600  0.942300  0.798040  1.0  -0.1966
