# generated using pymatgen
data_TbH9(C3O2)3
_symmetry_space_group_name_H-M   'P 1'
_cell_length_a   9.62100000
_cell_length_b   13.90800000
_cell_length_c   15.33700000
_cell_angle_alpha   90.00000000
_cell_angle_beta   93.42500000
_cell_angle_gamma   90.00000000
_symmetry_Int_Tables_number   1
_chemical_formula_structural   TbH9(C3O2)3
_chemical_formula_sum   'Tb4 H36 C36 O24'
_cell_volume   2048.56103548
_cell_formula_units_Z   4
loop_
 _symmetry_equiv_pos_site_id
 _symmetry_equiv_pos_as_xyz
  1  'x, y, z'
loop_
 _atom_site_type_symbol
 _atom_site_label
 _atom_site_symmetry_multiplicity
 _atom_site_fract_x
 _atom_site_fract_y
 _atom_site_fract_z
 _atom_site_occupancy
 _atom_site_charge
  Tb  Tb1  1  0.042340  0.111470  0.914140  1.0  2.2135
  Tb  Tb2  1  0.457660  0.611470  0.585860  1.0  2.2112
  Tb  Tb3  1  0.957660  0.888530  0.085860  1.0  2.2123
  Tb  Tb4  1  0.542340  0.388530  0.414140  1.0  2.2154
  H  H5  1  0.667400  0.892300  0.751800  1.0  0.075
  H  H6  1  0.734600  0.811400  0.811800  1.0  0.071
  H  H7  1  0.666100  0.888100  0.934000  1.0  0.0772
  H  H8  1  0.552400  0.036300  0.928500  1.0  0.0602
  H  H9  1  0.550800  0.037100  0.826100  1.0  0.0742
  H  H10  1  0.407700  0.903300  0.925300  1.0  0.0779
  H  H11  1  0.309900  0.835500  0.797700  1.0  0.0817
  H  H12  1  0.394300  0.906500  0.741200  1.0  0.0694
  H  H13  1  0.514200  0.764700  0.855000  1.0  0.0871
  H  H14  1  0.832600  0.392300  0.748200  1.0  0.0746
  H  H15  1  0.765400  0.311400  0.688200  1.0  0.0715
  H  H16  1  0.833900  0.388100  0.566000  1.0  0.0762
  H  H17  1  0.947600  0.536300  0.571500  1.0  0.0606
  H  H18  1  0.949200  0.537100  0.673900  1.0  0.0727
  H  H19  1  0.092300  0.403300  0.574700  1.0  0.0782
  H  H20  1  0.190100  0.335500  0.702300  1.0  0.0805
  H  H21  1  0.105700  0.406500  0.758800  1.0  0.069
  H  H22  1  0.985800  0.264700  0.645000  1.0  0.0849
  H  H23  1  0.332600  0.107700  0.248200  1.0  0.0748
  H  H24  1  0.265400  0.188600  0.188200  1.0  0.0705
  H  H25  1  0.333900  0.111900  0.066000  1.0  0.0762
  H  H26  1  0.447600  0.963700  0.071500  1.0  0.0603
  H  H27  1  0.449200  0.962900  0.173900  1.0  0.0733
  H  H28  1  0.592300  0.096700  0.074700  1.0  0.0778
  H  H29  1  0.690100  0.164500  0.202300  1.0  0.0813
  H  H30  1  0.605700  0.093500  0.258800  1.0  0.0691
  H  H31  1  0.485800  0.235300  0.145000  1.0  0.0852
  H  H32  1  0.167400  0.607700  0.251800  1.0  0.0744
  H  H33  1  0.234600  0.688600  0.311800  1.0  0.0716
  H  H34  1  0.166100  0.611900  0.434000  1.0  0.0767
  H  H35  1  0.052400  0.463700  0.428500  1.0  0.0609
  H  H36  1  0.050800  0.462900  0.326100  1.0  0.0734
  H  H37  1  0.907700  0.596700  0.425300  1.0  0.0769
  H  H38  1  0.809900  0.664500  0.297700  1.0  0.0824
  H  H39  1  0.894300  0.593500  0.241200  1.0  0.0691
  H  H40  1  0.014200  0.735300  0.355000  1.0  0.0861
  C  C41  1  0.658700  0.857300  0.805900  1.0  -0.1179
  C  C42  1  0.670300  0.925900  0.880300  1.0  -0.1833
  C  C43  1  0.546300  0.995800  0.876900  1.0  -0.13
  C  C44  1  0.407300  0.942500  0.872200  1.0  -0.1642
  C  C45  1  0.396000  0.871600  0.796000  1.0  -0.1326
  C  C46  1  0.518800  0.802800  0.801500  1.0  -0.1556
  C  C47  1  0.282200  0.009400  0.876100  1.0  0.6625
  C  C48  1  0.807800  0.982000  0.886800  1.0  0.7091
  C  C49  1  0.504700  0.735800  0.725100  1.0  0.6524
  C  C50  1  0.841300  0.357300  0.694100  1.0  -0.1173
  C  C51  1  0.829700  0.425900  0.619700  1.0  -0.1846
  C  C52  1  0.953700  0.495800  0.623100  1.0  -0.1299
  C  C53  1  0.092700  0.442500  0.627800  1.0  -0.1638
  C  C54  1  0.104000  0.371600  0.704000  1.0  -0.1335
  C  C55  1  0.981200  0.302800  0.698500  1.0  -0.1548
  C  C56  1  0.217800  0.509400  0.623900  1.0  0.661
  C  C57  1  0.692200  0.482000  0.613200  1.0  0.709
  C  C58  1  0.995300  0.235800  0.774900  1.0  0.6515
  C  C59  1  0.341300  0.142700  0.194100  1.0  -0.1182
  C  C60  1  0.329700  0.074100  0.119700  1.0  -0.1852
  C  C61  1  0.453700  0.004200  0.123100  1.0  -0.1275
  C  C62  1  0.592700  0.057500  0.127800  1.0  -0.1645
  C  C63  1  0.604000  0.128400  0.204000  1.0  -0.1335
  C  C64  1  0.481200  0.197200  0.198500  1.0  -0.1558
  C  C65  1  0.717800  0.990600  0.123900  1.0  0.6615
  C  C66  1  0.192200  0.018000  0.113200  1.0  0.7086
  C  C67  1  0.495300  0.264200  0.274900  1.0  0.651
  C  C68  1  0.158700  0.642700  0.305900  1.0  -0.1169
  C  C69  1  0.170300  0.574100  0.380300  1.0  -0.1847
  C  C70  1  0.046300  0.504200  0.376900  1.0  -0.1278
  C  C71  1  0.907300  0.557500  0.372200  1.0  -0.1652
  C  C72  1  0.896000  0.628400  0.296000  1.0  -0.1329
  C  C73  1  0.018800  0.697200  0.301500  1.0  -0.1566
  C  C74  1  0.782200  0.490600  0.376100  1.0  0.6626
  C  C75  1  0.307800  0.518000  0.386800  1.0  0.7092
  C  C76  1  0.004700  0.764200  0.225100  1.0  0.6515
  O  O77  1  0.161800  0.970200  0.863600  1.0  -0.6623
  O  O78  1  0.293500  0.095500  0.896800  1.0  -0.6515
  O  O79  1  0.832400  0.045600  0.833300  1.0  -0.6358
  O  O80  1  0.893600  0.962900  0.949700  1.0  -0.8327
  O  O81  1  0.424800  0.665300  0.731900  1.0  -0.6
  O  O82  1  0.567100  0.749500  0.656300  1.0  -0.6374
  O  O83  1  0.338200  0.470200  0.636400  1.0  -0.6619
  O  O84  1  0.206500  0.595500  0.603200  1.0  -0.6533
  O  O85  1  0.667600  0.545600  0.666667  1.0  -0.6374
  O  O86  1  0.606400  0.462900  0.550300  1.0  -0.8339
  O  O87  1  0.075200  0.165300  0.768100  1.0  -0.6014
  O  O88  1  0.932900  0.249500  0.843700  1.0  -0.635
  O  O89  1  0.838200  0.029800  0.136400  1.0  -0.6611
  O  O90  1  0.706500  0.904500  0.103200  1.0  -0.6536
  O  O91  1  0.167600  0.954400  0.166700  1.0  -0.6355
  O  O92  1  0.106400  0.037100  0.050300  1.0  -0.8334
  O  O93  1  0.575200  0.334700  0.268100  1.0  -0.6013
  O  O94  1  0.432900  0.250500  0.343700  1.0  -0.6352
  O  O95  1  0.661800  0.529800  0.363600  1.0  -0.6618
  O  O96  1  0.793500  0.404500  0.396800  1.0  -0.6561
  O  O97  1  0.332400  0.454400  0.333333  1.0  -0.6364
  O  O98  1  0.393600  0.537100  0.449700  1.0  -0.8323
  O  O99  1  0.924800  0.834700  0.231900  1.0  -0.6004
  O  O100  1  0.067100  0.750500  0.156300  1.0  -0.638
