# generated using pymatgen
data_ErH9(C3O2)3
_symmetry_space_group_name_H-M   'P 1'
_cell_length_a   9.56310000
_cell_length_b   13.87410000
_cell_length_c   15.30000000
_cell_angle_alpha   90.00000000
_cell_angle_beta   93.38200000
_cell_angle_gamma   90.00000000
_symmetry_Int_Tables_number   1
_chemical_formula_structural   ErH9(C3O2)3
_chemical_formula_sum   'Er4 H36 C36 O24'
_cell_volume   2026.45948916
_cell_formula_units_Z   4
loop_
 _symmetry_equiv_pos_site_id
 _symmetry_equiv_pos_as_xyz
  1  'x, y, z'
loop_
 _atom_site_type_symbol
 _atom_site_label
 _atom_site_symmetry_multiplicity
 _atom_site_fract_x
 _atom_site_fract_y
 _atom_site_fract_z
 _atom_site_occupancy
 _atom_site_charge
  Er  Er1  1  0.542670  0.889050  0.914230  1.0  1.4973
  Er  Er2  1  0.957330  0.389050  0.585770  1.0  1.4975
  Er  Er3  1  0.457330  0.110950  0.085770  1.0  1.4973
  Er  Er4  1  0.042670  0.610950  0.414230  1.0  1.4969
  H  H5  1  0.237000  0.188700  0.811600  1.0  0.1007
  H  H6  1  0.169400  0.107000  0.752000  1.0  0.1071
  H  H7  1  0.013100  0.235000  0.855600  1.0  0.1061
  H  H8  1  0.808900  0.165300  0.795100  1.0  0.1079
  H  H9  1  0.895400  0.094700  0.738800  1.0  0.0998
  H  H10  1  0.907100  0.095500  0.925000  1.0  0.1037
  H  H11  1  0.052700  0.962700  0.928400  1.0  0.0825
  H  H12  1  0.053300  0.963700  0.825900  1.0  0.0999
  H  H13  1  0.164300  0.112300  0.936300  1.0  0.0948
  H  H14  1  0.263000  0.688700  0.688400  1.0  0.0997
  H  H15  1  0.330600  0.607000  0.748000  1.0  0.1079
  H  H16  1  0.486900  0.735000  0.644400  1.0  0.1052
  H  H17  1  0.691100  0.665300  0.704900  1.0  0.1063
  H  H18  1  0.604600  0.594700  0.761200  1.0  0.0993
  H  H19  1  0.592900  0.595500  0.575000  1.0  0.1033
  H  H20  1  0.447300  0.462700  0.571600  1.0  0.0828
  H  H21  1  0.446700  0.463700  0.674100  1.0  0.1003
  H  H22  1  0.335700  0.612300  0.563700  1.0  0.0954
  H  H23  1  0.763000  0.811300  0.188400  1.0  0.0998
  H  H24  1  0.830600  0.893000  0.248000  1.0  0.1079
  H  H25  1  0.986900  0.765000  0.144400  1.0  0.1053
  H  H26  1  0.191100  0.834700  0.204900  1.0  0.1054
  H  H27  1  0.104600  0.905300  0.261200  1.0  0.0993
  H  H28  1  0.092900  0.904500  0.075000  1.0  0.1026
  H  H29  1  0.947300  0.037300  0.071600  1.0  0.0828
  H  H30  1  0.946700  0.036300  0.174100  1.0  0.0996
  H  H31  1  0.835700  0.887700  0.063700  1.0  0.0953
  H  H32  1  0.737000  0.311300  0.311600  1.0  0.0996
  H  H33  1  0.669400  0.393000  0.252000  1.0  0.1078
  H  H34  1  0.513100  0.265000  0.355600  1.0  0.1075
  H  H35  1  0.308900  0.334700  0.295100  1.0  0.1072
  H  H36  1  0.395400  0.405300  0.238800  1.0  0.1001
  H  H37  1  0.407100  0.404500  0.425000  1.0  0.1039
  H  H38  1  0.552700  0.537300  0.428400  1.0  0.0818
  H  H39  1  0.553300  0.536300  0.325900  1.0  0.1005
  H  H40  1  0.664300  0.387700  0.436300  1.0  0.0951
  C  C41  1  0.160600  0.142800  0.805900  1.0  -0.1147
  C  C42  1  0.018900  0.197400  0.801700  1.0  -0.1325
  C  C43  1  0.895600  0.129200  0.793900  1.0  -0.1191
  C  C44  1  0.906200  0.055600  0.872200  1.0  -0.1459
  C  C45  1  0.046900  0.004200  0.877200  1.0  -0.1102
  C  C46  1  0.169600  0.074300  0.882600  1.0  -0.1642
  C  C47  1  0.306600  0.019500  0.888100  1.0  0.728
  C  C48  1  0.003700  0.265200  0.724800  1.0  0.6684
  C  C49  1  0.780500  0.991200  0.877400  1.0  0.6649
  C  C50  1  0.339400  0.642800  0.694100  1.0  -0.1142
  C  C51  1  0.481100  0.697400  0.698300  1.0  -0.1317
  C  C52  1  0.604400  0.629200  0.706100  1.0  -0.1197
  C  C53  1  0.593800  0.555600  0.627800  1.0  -0.1462
  C  C54  1  0.453100  0.504200  0.622800  1.0  -0.1103
  C  C55  1  0.330400  0.574300  0.617400  1.0  -0.1636
  C  C56  1  0.193400  0.519500  0.611900  1.0  0.7286
  C  C57  1  0.496300  0.765200  0.775200  1.0  0.6666
  C  C58  1  0.719500  0.491200  0.622600  1.0  0.6677
  C  C59  1  0.839400  0.857200  0.194100  1.0  -0.1142
  C  C60  1  0.981100  0.802600  0.198300  1.0  -0.1317
  C  C61  1  0.104400  0.870800  0.206100  1.0  -0.1195
  C  C62  1  0.093800  0.944400  0.127800  1.0  -0.1453
  C  C63  1  0.953100  0.995800  0.122800  1.0  -0.1115
  C  C64  1  0.830400  0.925700  0.117400  1.0  -0.1635
  C  C65  1  0.693400  0.980500  0.111900  1.0  0.7288
  C  C66  1  0.996300  0.734800  0.275200  1.0  0.6688
  C  C67  1  0.219500  0.008800  0.122600  1.0  0.6661
  C  C68  1  0.660600  0.357200  0.305900  1.0  -0.1154
  C  C69  1  0.518900  0.302600  0.301700  1.0  -0.1325
  C  C70  1  0.395600  0.370800  0.293900  1.0  -0.1186
  C  C71  1  0.406200  0.444400  0.372200  1.0  -0.1456
  C  C72  1  0.546900  0.495800  0.377200  1.0  -0.1112
  C  C73  1  0.669600  0.425700  0.382600  1.0  -0.1634
  C  C74  1  0.806600  0.480500  0.388100  1.0  0.7273
  C  C75  1  0.503700  0.234800  0.224800  1.0  0.6701
  C  C76  1  0.280500  0.508800  0.377400  1.0  0.6646
  O  O77  1  0.336000  0.955700  0.834800  1.0  -0.5937
  O  O78  1  0.394200  0.037500  0.951700  1.0  -0.7447
  O  O79  1  0.067600  0.253700  0.656000  1.0  -0.603
  O  O80  1  0.922300  0.336700  0.730400  1.0  -0.5607
  O  O81  1  0.793900  0.905700  0.898800  1.0  -0.5788
  O  O82  1  0.658800  0.029100  0.863500  1.0  -0.5869
  O  O83  1  0.164000  0.455700  0.665200  1.0  -0.5913
  O  O84  1  0.105800  0.537500  0.548300  1.0  -0.7549
  O  O85  1  0.432400  0.753700  0.844000  1.0  -0.6034
  O  O86  1  0.577700  0.836700  0.769600  1.0  -0.5616
  O  O87  1  0.706100  0.405700  0.601200  1.0  -0.5787
  O  O88  1  0.841200  0.529100  0.636500  1.0  -0.5822
  O  O89  1  0.664000  0.044300  0.165200  1.0  -0.5937
  O  O90  1  0.605800  0.962500  0.048300  1.0  -0.7528
  O  O91  1  0.932400  0.746300  0.344000  1.0  -0.6034
  O  O92  1  0.077700  0.663300  0.269600  1.0  -0.5614
  O  O93  1  0.206100  0.094300  0.101200  1.0  -0.5914
  O  O94  1  0.341200  0.970900  0.136500  1.0  -0.5827
  O  O95  1  0.836000  0.544300  0.334800  1.0  -0.5934
  O  O96  1  0.894200  0.462500  0.451700  1.0  -0.7435
  O  O97  1  0.567600  0.246300  0.156000  1.0  -0.6022
  O  O98  1  0.422300  0.163300  0.230400  1.0  -0.5603
  O  O99  1  0.293900  0.594300  0.398800  1.0  -0.5843
  O  O100  1  0.158800  0.470900  0.363500  1.0  -0.5891
