# generated using pymatgen
data_HoH9(C3O2)3
_symmetry_space_group_name_H-M   'P 1'
_cell_length_a   9.57360000
_cell_length_b   13.83170000
_cell_length_c   15.34420000
_cell_angle_alpha   90.00000000
_cell_angle_beta   93.43600000
_cell_angle_gamma   90.00000000
_symmetry_Int_Tables_number   1
_chemical_formula_structural   HoH9(C3O2)3
_chemical_formula_sum   'Ho4 H36 C36 O24'
_cell_volume   2028.21357435
_cell_formula_units_Z   4
loop_
 _symmetry_equiv_pos_site_id
 _symmetry_equiv_pos_as_xyz
  1  'x, y, z'
loop_
 _atom_site_type_symbol
 _atom_site_label
 _atom_site_symmetry_multiplicity
 _atom_site_fract_x
 _atom_site_fract_y
 _atom_site_fract_z
 _atom_site_occupancy
 _atom_site_charge
  Ho  Ho1  1  0.542700  0.388660  0.914390  1.0  2.1232
  Ho  Ho2  1  0.957300  0.888660  0.585610  1.0  2.1218
  Ho  Ho3  1  0.457300  0.611340  0.085610  1.0  2.1213
  Ho  Ho4  1  0.042700  0.111340  0.414390  1.0  2.1226
  H  H5  1  0.235900  0.688500  0.812400  1.0  0.0821
  H  H6  1  0.169800  0.606900  0.752100  1.0  0.0872
  H  H7  1  0.164200  0.611100  0.935000  1.0  0.0862
  H  H8  1  0.050800  0.462800  0.826500  1.0  0.0872
  H  H9  1  0.052000  0.462800  0.928800  1.0  0.0727
  H  H10  1  0.909100  0.597700  0.925600  1.0  0.0917
  H  H11  1  0.895200  0.590900  0.742800  1.0  0.0815
  H  H12  1  0.810100  0.662900  0.798300  1.0  0.0908
  H  H13  1  0.014300  0.735300  0.853800  1.0  0.0972
  H  H14  1  0.264100  0.188500  0.687600  1.0  0.081
  H  H15  1  0.330200  0.106900  0.747900  1.0  0.0881
  H  H16  1  0.335800  0.111100  0.565000  1.0  0.0866
  H  H17  1  0.449200  0.962800  0.673500  1.0  0.0868
  H  H18  1  0.448000  0.962800  0.571200  1.0  0.0729
  H  H19  1  0.590900  0.097700  0.574400  1.0  0.0921
  H  H20  1  0.604800  0.090900  0.757200  1.0  0.0808
  H  H21  1  0.689900  0.162900  0.701700  1.0  0.0886
  H  H22  1  0.485700  0.235300  0.646200  1.0  0.0976
  H  H23  1  0.764100  0.311500  0.187600  1.0  0.0815
  H  H24  1  0.830200  0.393100  0.247900  1.0  0.0879
  H  H25  1  0.835800  0.388900  0.065000  1.0  0.087
  H  H26  1  0.949200  0.537200  0.173500  1.0  0.0859
  H  H27  1  0.948000  0.537200  0.071200  1.0  0.073
  H  H28  1  0.090900  0.402300  0.074400  1.0  0.0921
  H  H29  1  0.104800  0.409100  0.257200  1.0  0.0807
  H  H30  1  0.189900  0.337100  0.201700  1.0  0.0886
  H  H31  1  0.985700  0.264700  0.146200  1.0  0.0968
  H  H32  1  0.735900  0.811500  0.312400  1.0  0.0813
  H  H33  1  0.669800  0.893100  0.252100  1.0  0.0879
  H  H34  1  0.664200  0.888900  0.435000  1.0  0.0868
  H  H35  1  0.550800  0.037200  0.326500  1.0  0.0872
  H  H36  1  0.552000  0.037200  0.428800  1.0  0.0722
  H  H37  1  0.409100  0.902300  0.425600  1.0  0.0926
  H  H38  1  0.395200  0.909100  0.242800  1.0  0.0821
  H  H39  1  0.310100  0.837100  0.298300  1.0  0.0907
  H  H40  1  0.514300  0.764700  0.353800  1.0  0.098
  C  C41  1  0.159800  0.642300  0.805900  1.0  -0.106
  C  C42  1  0.169100  0.572900  0.881500  1.0  -0.1878
  C  C43  1  0.046300  0.503900  0.877500  1.0  -0.1086
  C  C44  1  0.907900  0.557500  0.872900  1.0  -0.1502
  C  C45  1  0.897000  0.627000  0.797100  1.0  -0.1152
  C  C46  1  0.018800  0.697100  0.800300  1.0  -0.1497
  C  C47  1  0.306800  0.518400  0.888000  1.0  0.7693
  C  C48  1  0.781100  0.491400  0.877500  1.0  0.6843
  C  C49  1  0.003200  0.765300  0.724800  1.0  0.7056
  C  C50  1  0.340200  0.142300  0.694100  1.0  -0.1069
  C  C51  1  0.330900  0.072900  0.618500  1.0  -0.1888
  C  C52  1  0.453700  0.003900  0.622500  1.0  -0.1078
  C  C53  1  0.592100  0.057500  0.627100  1.0  -0.1503
  C  C54  1  0.603000  0.127000  0.702900  1.0  -0.1157
  C  C55  1  0.481200  0.197100  0.699700  1.0  -0.15
  C  C56  1  0.193200  0.018400  0.612000  1.0  0.7691
  C  C57  1  0.718900  0.991400  0.622500  1.0  0.6843
  C  C58  1  0.496800  0.265300  0.775200  1.0  0.7045
  C  C59  1  0.840200  0.357700  0.194100  1.0  -0.1061
  C  C60  1  0.830900  0.427100  0.118500  1.0  -0.1886
  C  C61  1  0.953700  0.496100  0.122500  1.0  -0.109
  C  C62  1  0.092100  0.442500  0.127100  1.0  -0.1502
  C  C63  1  0.103000  0.373000  0.202900  1.0  -0.1156
  C  C64  1  0.981200  0.302900  0.199700  1.0  -0.1488
  C  C65  1  0.693200  0.481600  0.112000  1.0  0.7694
  C  C66  1  0.218900  0.508600  0.122500  1.0  0.6834
  C  C67  1  0.996800  0.234700  0.275200  1.0  0.7048
  C  C68  1  0.659800  0.857700  0.305900  1.0  -0.1068
  C  C69  1  0.669100  0.927100  0.381500  1.0  -0.1865
  C  C70  1  0.546300  0.996100  0.377500  1.0  -0.1096
  C  C71  1  0.407900  0.942500  0.372900  1.0  -0.15
  C  C72  1  0.397000  0.873000  0.297100  1.0  -0.1151
  C  C73  1  0.518800  0.802900  0.300300  1.0  -0.1486
  C  C74  1  0.806800  0.981600  0.388000  1.0  0.769
  C  C75  1  0.281100  0.008600  0.377500  1.0  0.6845
  C  C76  1  0.503200  0.734700  0.224800  1.0  0.7063
  O  O77  1  0.394400  0.537200  0.951500  1.0  -0.8905
  O  O78  1  0.334500  0.455100  0.835100  1.0  -0.6246
  O  O79  1  0.660000  0.530200  0.865200  1.0  -0.6759
  O  O80  1  0.794400  0.405300  0.898900  1.0  -0.6608
  O  O81  1  0.921700  0.836700  0.730400  1.0  -0.6471
  O  O82  1  0.065100  0.751100  0.657200  1.0  -0.7438
  O  O83  1  0.105600  0.037200  0.548500  1.0  -0.895
  O  O84  1  0.165500  0.955100  0.664900  1.0  -0.6234
  O  O85  1  0.840000  0.030200  0.634800  1.0  -0.6762
  O  O86  1  0.705600  0.905300  0.601100  1.0  -0.6581
  O  O87  1  0.578300  0.336700  0.769600  1.0  -0.6491
  O  O88  1  0.434900  0.251100  0.842800  1.0  -0.7346
  O  O89  1  0.605600  0.462800  0.048500  1.0  -0.894
  O  O90  1  0.665500  0.544900  0.164900  1.0  -0.6249
  O  O91  1  0.340000  0.469800  0.134800  1.0  -0.6765
  O  O92  1  0.205600  0.594700  0.101100  1.0  -0.6597
  O  O93  1  0.078300  0.163300  0.269600  1.0  -0.6486
  O  O94  1  0.934900  0.248900  0.342800  1.0  -0.7342
  O  O95  1  0.894400  0.962800  0.451500  1.0  -0.8908
  O  O96  1  0.834500  0.044900  0.335100  1.0  -0.6238
  O  O97  1  0.160000  0.969800  0.365200  1.0  -0.6763
  O  O98  1  0.294400  0.094700  0.398900  1.0  -0.6569
  O  O99  1  0.421700  0.663300  0.230400  1.0  -0.6472
  O  O100  1  0.565100  0.748900  0.157200  1.0  -0.7429
