# generated using pymatgen
data_TmH9(C3O2)3
_symmetry_space_group_name_H-M   'P 1'
_cell_length_a   9.54300000
_cell_length_b   13.82150000
_cell_length_c   15.29930000
_cell_angle_alpha   90.00000000
_cell_angle_beta   93.38800000
_cell_angle_gamma   90.00000000
_symmetry_Int_Tables_number   1
_chemical_formula_structural   TmH9(C3O2)3
_chemical_formula_sum   'Tm4 H36 C36 O24'
_cell_volume   2014.42893234
_cell_formula_units_Z   4
loop_
 _symmetry_equiv_pos_site_id
 _symmetry_equiv_pos_as_xyz
  1  'x, y, z'
loop_
 _atom_site_type_symbol
 _atom_site_label
 _atom_site_symmetry_multiplicity
 _atom_site_fract_x
 _atom_site_fract_y
 _atom_site_fract_z
 _atom_site_occupancy
 _atom_site_charge
  Tm  Tm1  1  0.543230  0.111370  0.914440  1.0  2.0883
  Tm  Tm2  1  0.956770  0.611370  0.585560  1.0  2.0865
  Tm  Tm3  1  0.456770  0.888630  0.085560  1.0  2.0876
  Tm  Tm4  1  0.043230  0.388630  0.414440  1.0  2.0891
  H  H5  1  0.892400  0.908400  0.740100  1.0  0.0871
  H  H6  1  0.806900  0.836500  0.796300  1.0  0.0972
  H  H7  1  0.906900  0.903000  0.924900  1.0  0.0926
  H  H8  1  0.052100  0.037500  0.928900  1.0  0.0737
  H  H9  1  0.053200  0.036500  0.826400  1.0  0.0889
  H  H10  1  0.162600  0.888100  0.936700  1.0  0.086
  H  H11  1  0.169200  0.893800  0.752200  1.0  0.0965
  H  H12  1  0.237000  0.811800  0.811700  1.0  0.0865
  H  H13  1  0.015100  0.764900  0.854600  1.0  0.1015
  H  H14  1  0.607600  0.408400  0.759900  1.0  0.0866
  H  H15  1  0.693100  0.336500  0.703700  1.0  0.0949
  H  H16  1  0.593100  0.403000  0.575100  1.0  0.0921
  H  H17  1  0.447900  0.537500  0.571100  1.0  0.0741
  H  H18  1  0.446800  0.536500  0.673600  1.0  0.0877
  H  H19  1  0.337400  0.388100  0.563300  1.0  0.086
  H  H20  1  0.330800  0.393800  0.747800  1.0  0.0967
  H  H21  1  0.263000  0.311800  0.688300  1.0  0.0866
  H  H22  1  0.484900  0.264900  0.645400  1.0  0.1002
  H  H23  1  0.107600  0.091600  0.259900  1.0  0.0866
  H  H24  1  0.193100  0.163500  0.203700  1.0  0.0963
  H  H25  1  0.093100  0.097000  0.075100  1.0  0.0918
  H  H26  1  0.947900  0.962500  0.071100  1.0  0.074
  H  H27  1  0.946800  0.963500  0.173600  1.0  0.0884
  H  H28  1  0.837400  0.111900  0.063300  1.0  0.0861
  H  H29  1  0.830800  0.106200  0.247800  1.0  0.0967
  H  H30  1  0.763000  0.188200  0.188300  1.0  0.0863
  H  H31  1  0.984900  0.235100  0.145400  1.0  0.1
  H  H32  1  0.392400  0.591600  0.240100  1.0  0.0867
  H  H33  1  0.306900  0.663500  0.296300  1.0  0.0978
  H  H34  1  0.406900  0.597000  0.424900  1.0  0.0917
  H  H35  1  0.552100  0.462500  0.428900  1.0  0.0742
  H  H36  1  0.553200  0.463500  0.326400  1.0  0.0884
  H  H37  1  0.662600  0.611900  0.436700  1.0  0.0859
  H  H38  1  0.669200  0.606200  0.252200  1.0  0.0958
  H  H39  1  0.737000  0.688200  0.311700  1.0  0.0877
  H  H40  1  0.515100  0.735100  0.354600  1.0  0.1004
  C  C41  1  0.893800  0.872800  0.794800  1.0  -0.1217
  C  C42  1  0.906400  0.943500  0.872300  1.0  -0.157
  C  C43  1  0.046800  0.995900  0.877700  1.0  -0.1116
  C  C44  1  0.168600  0.926500  0.883200  1.0  -0.1862
  C  C45  1  0.160100  0.857600  0.805900  1.0  -0.1126
  C  C46  1  0.020200  0.802800  0.800700  1.0  -0.1473
  C  C47  1  0.781100  0.008500  0.877200  1.0  0.6995
  C  C48  1  0.307600  0.979700  0.888900  1.0  0.7674
  C  C49  1  0.003300  0.733400  0.723700  1.0  0.6941
  C  C50  1  0.606200  0.372800  0.705200  1.0  -0.1226
  C  C51  1  0.593600  0.443500  0.627700  1.0  -0.1568
  C  C52  1  0.453200  0.495900  0.622300  1.0  -0.1116
  C  C53  1  0.331400  0.426500  0.616800  1.0  -0.1879
  C  C54  1  0.339900  0.357600  0.694100  1.0  -0.1117
  C  C55  1  0.479800  0.302800  0.699300  1.0  -0.1469
  C  C56  1  0.718900  0.508500  0.622800  1.0  0.6994
  C  C57  1  0.192400  0.479700  0.611100  1.0  0.7671
  C  C58  1  0.496700  0.233400  0.776300  1.0  0.6931
  C  C59  1  0.106200  0.127200  0.205200  1.0  -0.1222
  C  C60  1  0.093600  0.056500  0.127700  1.0  -0.1573
  C  C61  1  0.953200  0.004100  0.122300  1.0  -0.1104
  C  C62  1  0.831400  0.073500  0.116800  1.0  -0.1879
  C  C63  1  0.839900  0.142400  0.194100  1.0  -0.112
  C  C64  1  0.979800  0.197200  0.199300  1.0  -0.1484
  C  C65  1  0.218900  0.991500  0.122800  1.0  0.7002
  C  C66  1  0.692400  0.020300  0.111100  1.0  0.7665
  C  C67  1  0.996700  0.266600  0.276300  1.0  0.6928
  C  C68  1  0.393800  0.627200  0.294800  1.0  -0.122
  C  C69  1  0.406400  0.556500  0.372300  1.0  -0.1569
  C  C70  1  0.546800  0.504100  0.377700  1.0  -0.1105
  C  C71  1  0.668600  0.573500  0.383200  1.0  -0.1871
  C  C72  1  0.660100  0.642400  0.305900  1.0  -0.1111
  C  C73  1  0.520200  0.697200  0.300700  1.0  -0.1488
  C  C74  1  0.281100  0.491500  0.377200  1.0  0.6989
  C  C75  1  0.807600  0.520300  0.388900  1.0  0.7677
  C  C76  1  0.503300  0.766600  0.223700  1.0  0.6939
  O  O77  1  0.659400  0.971600  0.865300  1.0  -0.6653
  O  O78  1  0.793600  0.095300  0.898600  1.0  -0.6698
  O  O79  1  0.920600  0.663100  0.730100  1.0  -0.6519
  O  O80  1  0.066900  0.747200  0.656300  1.0  -0.7235
  O  O81  1  0.337700  0.043600  0.836200  1.0  -0.6284
  O  O82  1  0.394200  0.961500  0.952800  1.0  -0.8769
  O  O83  1  0.840600  0.471600  0.634700  1.0  -0.6654
  O  O84  1  0.706400  0.595300  0.601400  1.0  -0.6721
  O  O85  1  0.579400  0.163100  0.769900  1.0  -0.6538
  O  O86  1  0.433100  0.247200  0.843700  1.0  -0.7163
  O  O87  1  0.162300  0.543600  0.663800  1.0  -0.63
  O  O88  1  0.105800  0.461500  0.547200  1.0  -0.8804
  O  O89  1  0.340600  0.028400  0.134700  1.0  -0.6661
  O  O90  1  0.206400  0.904700  0.101400  1.0  -0.6727
  O  O91  1  0.079400  0.336900  0.269900  1.0  -0.6545
  O  O92  1  0.933100  0.252800  0.343700  1.0  -0.7199
  O  O93  1  0.662300  0.956400  0.163800  1.0  -0.6273
  O  O94  1  0.605800  0.038500  0.047200  1.0  -0.88
  O  O95  1  0.159400  0.528400  0.365300  1.0  -0.6655
  O  O96  1  0.293600  0.404700  0.398600  1.0  -0.6732
  O  O97  1  0.420600  0.836900  0.230100  1.0  -0.6531
  O  O98  1  0.566900  0.752800  0.156300  1.0  -0.7211
  O  O99  1  0.837700  0.456400  0.336200  1.0  -0.6289
  O  O100  1  0.894200  0.538500  0.452800  1.0  -0.8769
