# generated using pymatgen
data_DyH9(C3O2)3
_symmetry_space_group_name_H-M   'P 1'
_cell_length_a   9.59830000
_cell_length_b   13.87890000
_cell_length_c   15.34430000
_cell_angle_alpha   90.00000000
_cell_angle_beta   93.45100000
_cell_angle_gamma   90.00000000
_symmetry_Int_Tables_number   1
_chemical_formula_structural   DyH9(C3O2)3
_chemical_formula_sum   'Dy4 H36 C36 O24'
_cell_volume   2040.36658032
_cell_formula_units_Z   4
loop_
 _symmetry_equiv_pos_site_id
 _symmetry_equiv_pos_as_xyz
  1  'x, y, z'
loop_
 _atom_site_type_symbol
 _atom_site_label
 _atom_site_symmetry_multiplicity
 _atom_site_fract_x
 _atom_site_fract_y
 _atom_site_fract_z
 _atom_site_occupancy
 _atom_site_charge
  Dy  Dy1  1  0.042470  0.888720  0.914210  1.0  2.2094
  Dy  Dy2  1  0.457530  0.388720  0.585790  1.0  2.2088
  Dy  Dy3  1  0.957530  0.111280  0.085790  1.0  2.2085
  Dy  Dy4  1  0.542470  0.611280  0.414210  1.0  2.2087
  H  H5  1  0.395500  0.091100  0.743100  1.0  0.0825
  H  H6  1  0.310300  0.162200  0.799000  1.0  0.0909
  H  H7  1  0.515400  0.235200  0.855300  1.0  0.0979
  H  H8  1  0.735800  0.188200  0.812200  1.0  0.086
  H  H9  1  0.668300  0.107100  0.752000  1.0  0.0896
  H  H10  1  0.662700  0.110400  0.936300  1.0  0.085
  H  H11  1  0.552100  0.963400  0.825800  1.0  0.0838
  H  H12  1  0.552200  0.961800  0.928100  1.0  0.0733
  H  H13  1  0.409400  0.096600  0.925500  1.0  0.0884
  H  H14  1  0.104500  0.591100  0.756900  1.0  0.0823
  H  H15  1  0.189700  0.662200  0.701000  1.0  0.0899
  H  H16  1  0.984600  0.735200  0.644700  1.0  0.0972
  H  H17  1  0.764200  0.688200  0.687800  1.0  0.0849
  H  H18  1  0.831700  0.607100  0.748000  1.0  0.0907
  H  H19  1  0.837300  0.610400  0.563700  1.0  0.0853
  H  H20  1  0.947900  0.463400  0.674200  1.0  0.084
  H  H21  1  0.947800  0.461800  0.571900  1.0  0.0733
  H  H22  1  0.090600  0.596600  0.574500  1.0  0.0884
  H  H23  1  0.604500  0.908900  0.256900  1.0  0.0822
  H  H24  1  0.689700  0.837800  0.201000  1.0  0.0899
  H  H25  1  0.484600  0.764800  0.144700  1.0  0.0966
  H  H26  1  0.264200  0.811800  0.187800  1.0  0.0856
  H  H27  1  0.331700  0.892900  0.248000  1.0  0.0907
  H  H28  1  0.337300  0.889600  0.063700  1.0  0.0851
  H  H29  1  0.447900  0.036600  0.174200  1.0  0.0829
  H  H30  1  0.447800  0.038200  0.071900  1.0  0.0727
  H  H31  1  0.590600  0.903400  0.074500  1.0  0.0882
  H  H32  1  0.895500  0.408900  0.243100  1.0  0.083
  H  H33  1  0.810300  0.337800  0.299000  1.0  0.0906
  H  H34  1  0.015400  0.264800  0.355300  1.0  0.0988
  H  H35  1  0.235800  0.311800  0.312200  1.0  0.0851
  H  H36  1  0.168300  0.392900  0.252000  1.0  0.0902
  H  H37  1  0.162700  0.389600  0.436300  1.0  0.0848
  H  H38  1  0.052100  0.536600  0.325800  1.0  0.084
  H  H39  1  0.052200  0.538200  0.428100  1.0  0.0722
  H  H40  1  0.909400  0.403400  0.425500  1.0  0.089
  C  C41  1  0.397000  0.126500  0.797600  1.0  -0.1135
  C  C42  1  0.519600  0.197100  0.801800  1.0  -0.1524
  C  C43  1  0.659400  0.142500  0.806000  1.0  -0.1127
  C  C44  1  0.668100  0.072700  0.882600  1.0  -0.1925
  C  C45  1  0.546700  0.003500  0.877200  1.0  -0.1098
  C  C46  1  0.407900  0.056800  0.872700  1.0  -0.1499
  C  C47  1  0.280900  0.991100  0.877700  1.0  0.6921
  C  C48  1  0.503700  0.265400  0.724400  1.0  0.707
  C  C49  1  0.805900  0.018700  0.888200  1.0  0.7745
  C  C50  1  0.103000  0.626500  0.702400  1.0  -0.1129
  C  C51  1  0.980400  0.697100  0.698200  1.0  -0.1522
  C  C52  1  0.840600  0.642500  0.694000  1.0  -0.1137
  C  C53  1  0.831900  0.572700  0.617400  1.0  -0.1938
  C  C54  1  0.953300  0.503500  0.622800  1.0  -0.1088
  C  C55  1  0.092100  0.556800  0.627300  1.0  -0.1499
  C  C56  1  0.219100  0.491100  0.622300  1.0  0.6925
  C  C57  1  0.996300  0.765400  0.775600  1.0  0.706
  C  C58  1  0.694100  0.518700  0.611800  1.0  0.7742
  C  C59  1  0.603000  0.873500  0.202400  1.0  -0.1126
  C  C60  1  0.480400  0.802900  0.198200  1.0  -0.1504
  C  C61  1  0.340600  0.857500  0.194000  1.0  -0.1129
  C  C62  1  0.331900  0.927300  0.117400  1.0  -0.1937
  C  C63  1  0.453300  0.996500  0.122800  1.0  -0.1103
  C  C64  1  0.592100  0.943200  0.127300  1.0  -0.1496
  C  C65  1  0.719100  0.008900  0.122300  1.0  0.6922
  C  C66  1  0.496300  0.734600  0.275600  1.0  0.7064
  C  C67  1  0.194100  0.981300  0.111800  1.0  0.7749
  C  C68  1  0.897000  0.373500  0.297600  1.0  -0.1134
  C  C69  1  0.019600  0.302900  0.301800  1.0  -0.1508
  C  C70  1  0.159400  0.357500  0.306000  1.0  -0.1142
  C  C71  1  0.168100  0.427300  0.382600  1.0  -0.1915
  C  C72  1  0.046700  0.496500  0.377200  1.0  -0.1109
  C  C73  1  0.907900  0.443200  0.372700  1.0  -0.1497
  C  C74  1  0.780900  0.508900  0.377700  1.0  0.6921
  C  C75  1  0.003700  0.234600  0.224400  1.0  0.7074
  C  C76  1  0.305900  0.481300  0.388200  1.0  0.774
  O  O77  1  0.295000  0.905500  0.897500  1.0  -0.6711
  O  O78  1  0.160900  0.029800  0.864700  1.0  -0.6871
  O  O79  1  0.893800  0.037500  0.950700  1.0  -0.8992
  O  O80  1  0.832600  0.955600  0.834800  1.0  -0.629
  O  O81  1  0.422900  0.336200  0.732400  1.0  -0.6932
  O  O82  1  0.566100  0.252100  0.657800  1.0  -0.7534
  O  O83  1  0.205000  0.405500  0.602500  1.0  -0.6705
  O  O84  1  0.339100  0.529800  0.635300  1.0  -0.6879
  O  O85  1  0.606200  0.537500  0.549300  1.0  -0.9022
  O  O86  1  0.667400  0.455600  0.665200  1.0  -0.6276
  O  O87  1  0.077100  0.836200  0.767600  1.0  -0.6942
  O  O88  1  0.933900  0.752100  0.842200  1.0  -0.7505
  O  O89  1  0.705000  0.094500  0.102500  1.0  -0.6649
  O  O90  1  0.839100  0.970200  0.135300  1.0  -0.6885
  O  O91  1  0.106200  0.962500  0.049300  1.0  -0.9022
  O  O92  1  0.167400  0.044400  0.165200  1.0  -0.6289
  O  O93  1  0.577100  0.663800  0.267600  1.0  -0.6941
  O  O94  1  0.433900  0.747900  0.342200  1.0  -0.7499
  O  O95  1  0.795000  0.594500  0.397500  1.0  -0.6584
  O  O96  1  0.660900  0.470200  0.364700  1.0  -0.6876
  O  O97  1  0.393800  0.462500  0.450700  1.0  -0.8981
  O  O98  1  0.332600  0.544400  0.334800  1.0  -0.6278
  O  O99  1  0.922900  0.163800  0.232400  1.0  -0.6928
  O  O100  1  0.066100  0.247900  0.157800  1.0  -0.7528
