# generated using pymatgen
data_CoH8C14SO6
_symmetry_space_group_name_H-M   'P 1'
_cell_length_a   16.70330000
_cell_length_b   20.01950000
_cell_length_c   17.46020000
_cell_angle_alpha   90.00000000
_cell_angle_beta   100.42300000
_cell_angle_gamma   90.00000000
_symmetry_Int_Tables_number   1
_chemical_formula_structural   CoH8C14SO6
_chemical_formula_sum   'Co12 H96 C168 S12 O72'
_cell_volume   5742.20393096
_cell_formula_units_Z   12
loop_
 _symmetry_equiv_pos_site_id
 _symmetry_equiv_pos_as_xyz
  1  'x, y, z'
loop_
 _atom_site_type_symbol
 _atom_site_label
 _atom_site_symmetry_multiplicity
 _atom_site_fract_x
 _atom_site_fract_y
 _atom_site_fract_z
 _atom_site_occupancy
 _atom_site_charge
  Co  Co1  1  0.959110  0.165800  0.243320  1.0  1.1703
  Co  Co2  1  0.853490  0.125170  0.055580  1.0  1.0396
  Co  Co3  1  0.085280  0.145940  0.439070  1.0  0.9285
  Co  Co4  1  0.540890  0.665800  0.256680  1.0  1.1693
  Co  Co5  1  0.646510  0.625170  0.444420  1.0  1.0395
  Co  Co6  1  0.414720  0.645940  0.060930  1.0  0.9303
  Co  Co7  1  0.040890  0.834200  0.756680  1.0  1.1697
  Co  Co8  1  0.146510  0.874830  0.944420  1.0  1.0395
  Co  Co9  1  0.914720  0.854060  0.560930  1.0  0.9311
  Co  Co10  1  0.459110  0.334200  0.743320  1.0  1.1707
  Co  Co11  1  0.353490  0.374830  0.555580  1.0  1.0402
  Co  Co12  1  0.585280  0.354060  0.939070  1.0  0.9276
  H  H13  1  0.001100  0.933200  0.062500  1.0  0.1057
  H  H14  1  0.037300  0.829600  0.115400  1.0  0.123
  H  H15  1  0.031700  0.902800  0.328000  1.0  0.117
  H  H16  1  0.995300  0.007200  0.273300  1.0  0.1013
  H  H17  1  0.902100  0.747000  0.170100  1.0  0.1156
  H  H18  1  0.773700  0.721000  0.191500  1.0  0.1186
  H  H19  1  0.859400  0.720400  0.421900  1.0  0.1078
  H  H20  1  0.985300  0.755600  0.399900  1.0  0.1232
  H  H21  1  0.788200  0.094800  0.306300  1.0  0.1076
  H  H22  1  0.660000  0.066300  0.331600  1.0  0.1172
  H  H23  1  0.761000  0.013400  0.549200  1.0  0.125
  H  H24  1  0.888200  0.044600  0.526300  1.0  0.1145
  H  H25  1  0.515200  0.130000  0.393300  1.0  0.1254
  H  H26  1  0.464200  0.223300  0.443800  1.0  0.1065
  H  H27  1  0.565400  0.166000  0.659200  1.0  0.1109
  H  H28  1  0.613800  0.069900  0.609200  1.0  0.1153
  H  H29  1  0.287100  0.074300  0.363600  1.0  0.1081
  H  H30  1  0.404800  0.056600  0.313500  1.0  0.1214
  H  H31  1  0.288700  0.117500  0.103400  1.0  0.1264
  H  H32  1  0.170500  0.132200  0.152600  1.0  0.1143
  H  H33  1  0.510500  0.961900  0.259300  1.0  0.1179
  H  H34  1  0.518500  0.848100  0.240900  1.0  0.1075
  H  H35  1  0.380100  0.867400  0.028200  1.0  0.1101
  H  H36  1  0.377900  0.979900  0.043500  1.0  0.131
  H  H37  1  0.498900  0.433200  0.437500  1.0  0.106
  H  H38  1  0.462700  0.329600  0.384600  1.0  0.1232
  H  H39  1  0.468300  0.402800  0.172000  1.0  0.1168
  H  H40  1  0.504700  0.507200  0.226700  1.0  0.1011
  H  H41  1  0.597900  0.247000  0.329900  1.0  0.1153
  H  H42  1  0.726300  0.221000  0.308500  1.0  0.1192
  H  H43  1  0.640600  0.220400  0.078100  1.0  0.1069
  H  H44  1  0.514700  0.255600  0.100100  1.0  0.1233
  H  H45  1  0.711800  0.594800  0.193700  1.0  0.1078
  H  H46  1  0.840000  0.566300  0.168400  1.0  0.1176
  H  H47  1  0.739000  0.513400  0.950800  1.0  0.1252
  H  H48  1  0.611800  0.544600  0.973700  1.0  0.1146
  H  H49  1  0.984800  0.630000  0.106700  1.0  0.1249
  H  H50  1  0.035800  0.723300  0.056200  1.0  0.1054
  H  H51  1  0.934600  0.666000  0.840800  1.0  0.1114
  H  H52  1  0.886200  0.569900  0.890800  1.0  0.1148
  H  H53  1  0.212900  0.574300  0.136400  1.0  0.1074
  H  H54  1  0.095200  0.556600  0.186500  1.0  0.1209
  H  H55  1  0.211300  0.617500  0.396600  1.0  0.1251
  H  H56  1  0.329500  0.632200  0.347400  1.0  0.1143
  H  H57  1  0.989500  0.461900  0.240700  1.0  0.118
  H  H58  1  0.981500  0.348100  0.259100  1.0  0.1071
  H  H59  1  0.119900  0.367400  0.471800  1.0  0.11
  H  H60  1  0.122100  0.479900  0.456500  1.0  0.131
  H  H61  1  0.998900  0.066800  0.937500  1.0  0.1059
  H  H62  1  0.962700  0.170400  0.884600  1.0  0.1228
  H  H63  1  0.968300  0.097200  0.672000  1.0  0.1168
  H  H64  1  0.004700  0.992800  0.726700  1.0  0.1015
  H  H65  1  0.097900  0.253000  0.829900  1.0  0.1155
  H  H66  1  0.226300  0.279000  0.808500  1.0  0.119
  H  H67  1  0.140600  0.279600  0.578100  1.0  0.1067
  H  H68  1  0.014700  0.244400  0.600100  1.0  0.1232
  H  H69  1  0.211800  0.905200  0.693700  1.0  0.1073
  H  H70  1  0.340000  0.933700  0.668400  1.0  0.1176
  H  H71  1  0.239000  0.986600  0.450800  1.0  0.1251
  H  H72  1  0.111800  0.955400  0.473700  1.0  0.1145
  H  H73  1  0.484800  0.870000  0.606700  1.0  0.1254
  H  H74  1  0.535800  0.776700  0.556200  1.0  0.1063
  H  H75  1  0.434600  0.834000  0.340800  1.0  0.1116
  H  H76  1  0.386200  0.930100  0.390800  1.0  0.1149
  H  H77  1  0.712900  0.925700  0.636400  1.0  0.1073
  H  H78  1  0.595200  0.943400  0.686500  1.0  0.1212
  H  H79  1  0.711300  0.882500  0.896600  1.0  0.1254
  H  H80  1  0.829500  0.867800  0.847400  1.0  0.1146
  H  H81  1  0.489500  0.038100  0.740700  1.0  0.1183
  H  H82  1  0.481500  0.151900  0.759100  1.0  0.1073
  H  H83  1  0.619900  0.132600  0.971800  1.0  0.1098
  H  H84  1  0.622100  0.020100  0.956500  1.0  0.1311
  H  H85  1  0.501100  0.566800  0.562500  1.0  0.1057
  H  H86  1  0.537300  0.670400  0.615400  1.0  0.1228
  H  H87  1  0.531700  0.597200  0.828000  1.0  0.117
  H  H88  1  0.495300  0.492800  0.773300  1.0  0.1018
  H  H89  1  0.402100  0.753000  0.670100  1.0  0.1158
  H  H90  1  0.273700  0.779000  0.691500  1.0  0.1185
  H  H91  1  0.359400  0.779600  0.921900  1.0  0.1075
  H  H92  1  0.485300  0.744400  0.899900  1.0  0.1237
  H  H93  1  0.288200  0.405200  0.806300  1.0  0.1075
  H  H94  1  0.160000  0.433700  0.831600  1.0  0.1173
  H  H95  1  0.261000  0.486600  0.049200  1.0  0.1248
  H  H96  1  0.388200  0.455400  0.026300  1.0  0.1143
  H  H97  1  0.015200  0.370000  0.893300  1.0  0.1253
  H  H98  1  0.964200  0.276700  0.943800  1.0  0.1054
  H  H99  1  0.065400  0.334000  0.159200  1.0  0.1113
  H  H100  1  0.113800  0.430100  0.109200  1.0  0.115
  H  H101  1  0.787100  0.425700  0.863600  1.0  0.1082
  H  H102  1  0.904800  0.443400  0.813500  1.0  0.1214
  H  H103  1  0.788700  0.382500  0.603400  1.0  0.1265
  H  H104  1  0.670500  0.367800  0.652600  1.0  0.1142
  H  H105  1  0.010500  0.538100  0.759300  1.0  0.1179
  H  H106  1  0.018500  0.651900  0.740900  1.0  0.1072
  H  H107  1  0.880100  0.632600  0.528200  1.0  0.1101
  H  H108  1  0.877900  0.520100  0.543500  1.0  0.1307
  C  C109  1  0.949800  0.040100  0.123400  1.0  0.6806
  C  C110  1  0.988500  0.979100  0.161400  1.0  -0.117
  C  C111  1  0.005200  0.926700  0.115800  1.0  -0.0515
  C  C112  1  0.027900  0.864900  0.147100  1.0  -0.0557
  C  C113  1  0.036200  0.856700  0.225600  1.0  -0.166
  C  C114  1  0.024500  0.909000  0.274400  1.0  -0.0556
  C  C115  1  0.001700  0.971100  0.241400  1.0  -0.0517
  C  C116  1  0.955300  0.752500  0.282900  1.0  -0.1714
  C  C117  1  0.892600  0.742700  0.220700  1.0  -0.0335
  C  C118  1  0.816300  0.726600  0.233300  1.0  0.004
  C  C119  1  0.803300  0.718900  0.309000  1.0  -0.1393
  C  C120  1  0.867700  0.727600  0.371200  1.0  -0.0281
  C  C121  1  0.943300  0.746800  0.358400  1.0  -0.0376
  C  C122  1  0.720400  0.697300  0.323000  1.0  0.7551
  C  C123  1  0.930000  0.096400  0.399700  1.0  0.74
  C  C124  1  0.849800  0.073700  0.414600  1.0  -0.1317
  C  C125  1  0.782300  0.079400  0.355300  1.0  -0.0412
  C  C126  1  0.706200  0.061800  0.369900  1.0  -0.0511
  C  C127  1  0.700600  0.037700  0.442500  1.0  -0.1336
  C  C128  1  0.767000  0.030400  0.501000  1.0  -0.0574
  C  C129  1  0.842500  0.048800  0.487300  1.0  -0.0379
  C  C130  1  0.568700  0.090700  0.497100  1.0  -0.1811
  C  C131  1  0.524400  0.136900  0.446800  1.0  -0.0481
  C  C132  1  0.494400  0.192500  0.477000  1.0  -0.0054
  C  C133  1  0.508500  0.203600  0.556500  1.0  -0.1376
  C  C134  1  0.554400  0.158100  0.605800  1.0  -0.0313
  C  C135  1  0.584000  0.101000  0.576000  1.0  -0.0228
  C  C136  1  0.472400  0.263100  0.589700  1.0  0.707
  C  C137  1  0.140900  0.117000  0.295600  1.0  0.7259
  C  C138  1  0.216400  0.103900  0.262400  1.0  -0.1315
  C  C139  1  0.287200  0.081900  0.311100  1.0  -0.0225
  C  C140  1  0.357500  0.071500  0.281500  1.0  -0.079
  C  C141  1  0.355900  0.083600  0.203200  1.0  -0.1888
  C  C142  1  0.287600  0.107600  0.155300  1.0  -0.0519
  C  C143  1  0.217400  0.117000  0.184900  1.0  -0.0299
  C  C144  1  0.446300  0.982200  0.152800  1.0  -0.2473
  C  C145  1  0.486200  0.942700  0.212300  1.0  -0.0224
  C  C146  1  0.489900  0.874600  0.201500  1.0  -0.0231
  C  C147  1  0.451000  0.844900  0.132000  1.0  -0.1323
  C  C148  1  0.407900  0.886500  0.074000  1.0  -0.0377
  C  C149  1  0.405900  0.953100  0.083000  1.0  -0.0834
  C  C150  1  0.457600  0.771000  0.123400  1.0  0.7048
  C  C151  1  0.550200  0.540100  0.376600  1.0  0.6806
  C  C152  1  0.511500  0.479100  0.338600  1.0  -0.1179
  C  C153  1  0.494800  0.426700  0.384200  1.0  -0.0539
  C  C154  1  0.472100  0.364900  0.352900  1.0  -0.056
  C  C155  1  0.463800  0.356700  0.274400  1.0  -0.1665
  C  C156  1  0.475500  0.409000  0.225600  1.0  -0.0529
  C  C157  1  0.498300  0.471100  0.258600  1.0  -0.0511
  C  C158  1  0.544700  0.252500  0.217100  1.0  -0.1688
  C  C159  1  0.607400  0.242700  0.279300  1.0  -0.035
  C  C160  1  0.683700  0.226600  0.266700  1.0  0.0039
  C  C161  1  0.696700  0.218900  0.191000  1.0  -0.1394
  C  C162  1  0.632300  0.227600  0.128800  1.0  -0.0287
  C  C163  1  0.556700  0.246800  0.141600  1.0  -0.0372
  C  C164  1  0.779600  0.197300  0.177000  1.0  0.7542
  C  C165  1  0.570000  0.596400  0.100300  1.0  0.7398
  C  C166  1  0.650200  0.573700  0.085400  1.0  -0.1318
  C  C167  1  0.717700  0.579400  0.144700  1.0  -0.0409
  C  C168  1  0.793800  0.561800  0.130100  1.0  -0.0519
  C  C169  1  0.799400  0.537700  0.057500  1.0  -0.1334
  C  C170  1  0.733000  0.530400  0.999000  1.0  -0.0561
  C  C171  1  0.657500  0.548800  0.012700  1.0  -0.0374
  C  C172  1  0.931300  0.590700  0.002900  1.0  -0.1812
  C  C173  1  0.975600  0.636900  0.053200  1.0  -0.0492
  C  C174  1  0.005600  0.692500  0.023000  1.0  -0.0047
  C  C175  1  0.991500  0.703600  0.943500  1.0  -0.1375
  C  C176  1  0.945600  0.658100  0.894200  1.0  -0.0309
  C  C177  1  0.916000  0.601000  0.924000  1.0  -0.0229
  C  C178  1  0.027600  0.763100  0.910300  1.0  0.7075
  C  C179  1  0.359100  0.617000  0.204400  1.0  0.7259
  C  C180  1  0.283600  0.603900  0.237600  1.0  -0.1314
  C  C181  1  0.212800  0.581900  0.188900  1.0  -0.0228
  C  C182  1  0.142500  0.571500  0.218500  1.0  -0.0783
  C  C183  1  0.144100  0.583600  0.296800  1.0  -0.1893
  C  C184  1  0.212400  0.607600  0.344700  1.0  -0.0527
  C  C185  1  0.282600  0.617000  0.315100  1.0  -0.029
  C  C186  1  0.053700  0.482200  0.347200  1.0  -0.2469
  C  C187  1  0.013800  0.442700  0.287700  1.0  -0.0217
  C  C188  1  0.010100  0.374600  0.298500  1.0  -0.0226
  C  C189  1  0.049000  0.344900  0.368000  1.0  -0.132
  C  C190  1  0.092100  0.386500  0.426000  1.0  -0.04
  C  C191  1  0.094100  0.453100  0.417000  1.0  -0.0839
  C  C192  1  0.042400  0.271000  0.376600  1.0  0.7055
  C  C193  1  0.050200  0.959900  0.876600  1.0  0.6806
  C  C194  1  0.011500  0.020900  0.838600  1.0  -0.1174
  C  C195  1  0.994800  0.073300  0.884200  1.0  -0.0545
  C  C196  1  0.972100  0.135100  0.852900  1.0  -0.0561
  C  C197  1  0.963800  0.143300  0.774400  1.0  -0.1673
  C  C198  1  0.975500  0.091000  0.725600  1.0  -0.0523
  C  C199  1  0.998300  0.028900  0.758600  1.0  -0.0511
  C  C200  1  0.044700  0.247500  0.717100  1.0  -0.1689
  C  C201  1  0.107400  0.257300  0.779300  1.0  -0.0345
  C  C202  1  0.183700  0.273400  0.766700  1.0  0.0039
  C  C203  1  0.196700  0.281100  0.691000  1.0  -0.1391
  C  C204  1  0.132300  0.272400  0.628800  1.0  -0.0283
  C  C205  1  0.056700  0.253200  0.641600  1.0  -0.0363
  C  C206  1  0.279600  0.302700  0.677000  1.0  0.7548
  C  C207  1  0.070000  0.903600  0.600300  1.0  0.7394
  C  C208  1  0.150200  0.926300  0.585400  1.0  -0.1316
  C  C209  1  0.217700  0.920600  0.644700  1.0  -0.0414
  C  C210  1  0.293800  0.938200  0.630100  1.0  -0.0522
  C  C211  1  0.299400  0.962300  0.557500  1.0  -0.1328
  C  C212  1  0.233000  0.969600  0.499000  1.0  -0.0552
  C  C213  1  0.157500  0.951200  0.512700  1.0  -0.0375
  C  C214  1  0.431300  0.909300  0.502900  1.0  -0.1811
  C  C215  1  0.475600  0.863100  0.553200  1.0  -0.0496
  C  C216  1  0.505600  0.807500  0.523000  1.0  -0.0055
  C  C217  1  0.491500  0.796400  0.443500  1.0  -0.1379
  C  C218  1  0.445600  0.841900  0.394200  1.0  -0.0304
  C  C219  1  0.416000  0.899000  0.424000  1.0  -0.0224
  C  C220  1  0.527600  0.736900  0.410300  1.0  0.7078
  C  C221  1  0.859100  0.883000  0.704400  1.0  0.7261
  C  C222  1  0.783600  0.896100  0.737600  1.0  -0.131
  C  C223  1  0.712800  0.918100  0.688900  1.0  -0.0228
  C  C224  1  0.642500  0.928500  0.718500  1.0  -0.0784
  C  C225  1  0.644100  0.916400  0.796800  1.0  -0.1895
  C  C226  1  0.712400  0.892400  0.844700  1.0  -0.053
  C  C227  1  0.782600  0.883000  0.815100  1.0  -0.0288
  C  C228  1  0.553700  0.017800  0.847200  1.0  -0.2466
  C  C229  1  0.513800  0.057300  0.787700  1.0  -0.022
  C  C230  1  0.510100  0.125400  0.798500  1.0  -0.022
  C  C231  1  0.549000  0.155100  0.868000  1.0  -0.1308
  C  C232  1  0.592100  0.113500  0.926000  1.0  -0.0396
  C  C233  1  0.594100  0.046900  0.917000  1.0  -0.0843
  C  C234  1  0.542400  0.229000  0.876600  1.0  0.7052
  C  C235  1  0.449800  0.459900  0.623400  1.0  0.6803
  C  C236  1  0.488500  0.520900  0.661400  1.0  -0.1174
  C  C237  1  0.505200  0.573300  0.615800  1.0  -0.0522
  C  C238  1  0.527900  0.635100  0.647100  1.0  -0.0565
  C  C239  1  0.536200  0.643300  0.725600  1.0  -0.1674
  C  C240  1  0.524500  0.591000  0.774400  1.0  -0.0555
  C  C241  1  0.501700  0.528900  0.741400  1.0  -0.0525
  C  C242  1  0.455300  0.747500  0.782900  1.0  -0.1714
  C  C243  1  0.392600  0.757300  0.720700  1.0  -0.0327
  C  C244  1  0.316300  0.773400  0.733300  1.0  0.0046
  C  C245  1  0.303300  0.781100  0.809000  1.0  -0.1402
  C  C246  1  0.367700  0.772400  0.871200  1.0  -0.0282
  C  C247  1  0.443300  0.753200  0.858400  1.0  -0.0367
  C  C248  1  0.220400  0.802700  0.823000  1.0  0.7556
  C  C249  1  0.430000  0.403600  0.899700  1.0  0.7397
  C  C250  1  0.349800  0.426300  0.914600  1.0  -0.1317
  C  C251  1  0.282300  0.420600  0.855300  1.0  -0.0417
  C  C252  1  0.206200  0.438200  0.869900  1.0  -0.0516
  C  C253  1  0.200600  0.462300  0.942500  1.0  -0.1335
  C  C254  1  0.267000  0.469600  0.001000  1.0  -0.0568
  C  C255  1  0.342500  0.451200  0.987300  1.0  -0.038
  C  C256  1  0.068700  0.409300  0.997100  1.0  -0.1809
  C  C257  1  0.024400  0.363100  0.946800  1.0  -0.0473
  C  C258  1  0.994400  0.307500  0.977000  1.0  -0.0062
  C  C259  1  0.008500  0.296400  0.056500  1.0  -0.1375
  C  C260  1  0.054400  0.341900  0.105800  1.0  -0.0309
  C  C261  1  0.084000  0.399000  0.076000  1.0  -0.0224
  C  C262  1  0.972400  0.236900  0.089700  1.0  0.7074
  C  C263  1  0.640900  0.383000  0.795600  1.0  0.7265
  C  C264  1  0.716400  0.396100  0.762400  1.0  -0.1314
  C  C265  1  0.787200  0.418100  0.811100  1.0  -0.0229
  C  C266  1  0.857500  0.428500  0.781500  1.0  -0.0787
  C  C267  1  0.855900  0.416400  0.703200  1.0  -0.1888
  C  C268  1  0.787600  0.392400  0.655300  1.0  -0.0512
  C  C269  1  0.717400  0.383000  0.684900  1.0  -0.0296
  C  C270  1  0.946300  0.517800  0.652800  1.0  -0.2475
  C  C271  1  0.986200  0.557300  0.712300  1.0  -0.0219
  C  C272  1  0.989900  0.625400  0.701500  1.0  -0.0233
  C  C273  1  0.951000  0.655100  0.632000  1.0  -0.1309
  C  C274  1  0.907900  0.613500  0.574000  1.0  -0.0376
  C  C275  1  0.905900  0.546900  0.583000  1.0  -0.0839
  C  C276  1  0.957600  0.729000  0.623400  1.0  0.7044
  S  S277  1  0.052380  0.775110  0.265850  1.0  1.1081
  S  S278  1  0.603130  0.016490  0.460480  1.0  1.1229
  S  S279  1  0.444460  0.069890  0.165600  1.0  1.1116
  S  S280  1  0.447620  0.275110  0.234150  1.0  1.1091
  S  S281  1  0.896870  0.516490  0.039520  1.0  1.1227
  S  S282  1  0.055540  0.569890  0.334400  1.0  1.1134
  S  S283  1  0.947620  0.224890  0.734150  1.0  1.1087
  S  S284  1  0.396870  0.983510  0.539520  1.0  1.1226
  S  S285  1  0.555540  0.930110  0.834400  1.0  1.1136
  S  S286  1  0.552380  0.724890  0.765850  1.0  1.1085
  S  S287  1  0.103130  0.483510  0.960480  1.0  1.1226
  S  S288  1  0.944460  0.430110  0.665600  1.0  1.1122
  O  O289  1  0.478400  0.265100  0.662600  1.0  -0.6063
  O  O290  1  0.939000  0.100700  0.330800  1.0  -0.609
  O  O291  1  0.080400  0.136900  0.249000  1.0  -0.6145
  O  O292  1  0.663500  0.693500  0.266900  1.0  -0.5957
  O  O293  1  0.508200  0.740300  0.172200  1.0  -0.6418
  O  O294  1  0.926500  0.086660  0.164400  1.0  -0.755
  O  O295  1  0.718400  0.684500  0.393400  1.0  -0.6122
  O  O296  1  0.438100  0.305900  0.542100  1.0  -0.5987
  O  O297  1  0.932900  0.043800  0.051500  1.0  -0.5639
  O  O298  1  0.984500  0.108600  0.457900  1.0  -0.601
  O  O299  1  0.146900  0.106900  0.366900  1.0  -0.6015
  O  O300  1  0.411700  0.743600  0.065700  1.0  -0.5844
  O  O301  1  0.071900  0.732000  0.206200  1.0  -0.5515
  O  O302  1  0.106900  0.779900  0.338500  1.0  -0.5501
  O  O303  1  0.551900  0.001200  0.387700  1.0  -0.6039
  O  O304  1  0.614400  0.967400  0.521300  1.0  -0.5537
  O  O305  1  0.513400  0.086900  0.223500  1.0  -0.5534
  O  O306  1  0.434200  0.101400  0.090900  1.0  -0.5406
  O  O307  1  0.021600  0.765100  0.837400  1.0  -0.6056
  O  O308  1  0.561000  0.600700  0.169200  1.0  -0.6093
  O  O309  1  0.419600  0.636900  0.251000  1.0  -0.6142
  O  O310  1  0.836500  0.193500  0.233100  1.0  -0.5979
  O  O311  1  0.991800  0.240300  0.327800  1.0  -0.6392
  O  O312  1  0.573500  0.586660  0.335600  1.0  -0.7555
  O  O313  1  0.781600  0.184500  0.106600  1.0  -0.6111
  O  O314  1  0.061900  0.805900  0.957900  1.0  -0.5985
  O  O315  1  0.567100  0.543800  0.448500  1.0  -0.5637
  O  O316  1  0.515500  0.608600  0.042100  1.0  -0.599
  O  O317  1  0.353100  0.606900  0.133100  1.0  -0.6033
  O  O318  1  0.088300  0.243600  0.434300  1.0  -0.5848
  O  O319  1  0.428100  0.232000  0.293800  1.0  -0.5515
  O  O320  1  0.393100  0.279900  0.161500  1.0  -0.548
  O  O321  1  0.948100  0.501200  0.112300  1.0  -0.6047
  O  O322  1  0.885600  0.467400  0.978700  1.0  -0.553
  O  O323  1  0.986600  0.586900  0.276500  1.0  -0.5522
  O  O324  1  0.065800  0.601400  0.409100  1.0  -0.5403
  O  O325  1  0.521600  0.734900  0.337400  1.0  -0.6054
  O  O326  1  0.061000  0.899300  0.669200  1.0  -0.6089
  O  O327  1  0.919600  0.863100  0.751000  1.0  -0.6135
  O  O328  1  0.336500  0.306500  0.733100  1.0  -0.5975
  O  O329  1  0.491800  0.259700  0.827800  1.0  -0.6387
  O  O330  1  0.073500  0.913340  0.835600  1.0  -0.7566
  O  O331  1  0.281600  0.315500  0.606600  1.0  -0.611
  O  O332  1  0.561900  0.694100  0.457900  1.0  -0.5984
  O  O333  1  0.067100  0.956200  0.948500  1.0  -0.5638
  O  O334  1  0.015500  0.891400  0.542100  1.0  -0.5991
  O  O335  1  0.853100  0.893100  0.633100  1.0  -0.6029
  O  O336  1  0.588300  0.256400  0.934300  1.0  -0.5849
  O  O337  1  0.928100  0.268000  0.793800  1.0  -0.5513
  O  O338  1  0.893100  0.220100  0.661500  1.0  -0.5479
  O  O339  1  0.448100  0.998800  0.612300  1.0  -0.6061
  O  O340  1  0.385600  0.032600  0.478700  1.0  -0.5539
  O  O341  1  0.486600  0.913100  0.776500  1.0  -0.5521
  O  O342  1  0.565800  0.898600  0.909100  1.0  -0.5408
  O  O343  1  0.978400  0.234900  0.162600  1.0  -0.6064
  O  O344  1  0.439000  0.399300  0.830800  1.0  -0.6088
  O  O345  1  0.580400  0.363100  0.749000  1.0  -0.6147
  O  O346  1  0.163500  0.806500  0.766900  1.0  -0.596
  O  O347  1  0.008200  0.759700  0.672200  1.0  -0.6416
  O  O348  1  0.426500  0.413340  0.664400  1.0  -0.7557
  O  O349  1  0.218400  0.815500  0.893400  1.0  -0.611
  O  O350  1  0.938100  0.194100  0.042100  1.0  -0.5987
  O  O351  1  0.432900  0.456200  0.551500  1.0  -0.5638
  O  O352  1  0.484500  0.391400  0.957900  1.0  -0.6013
  O  O353  1  0.646900  0.393100  0.866900  1.0  -0.6009
  O  O354  1  0.911700  0.756400  0.565700  1.0  -0.5848
  O  O355  1  0.571900  0.768000  0.706200  1.0  -0.5518
  O  O356  1  0.606900  0.720100  0.838500  1.0  -0.5502
  O  O357  1  0.051900  0.498800  0.887700  1.0  -0.6043
  O  O358  1  0.114400  0.532600  0.021300  1.0  -0.554
  O  O359  1  0.013400  0.413100  0.723500  1.0  -0.5533
  O  O360  1  0.934200  0.398600  0.590900  1.0  -0.54
