# generated using pymatgen
data_Co3H27C44S3NO18
_symmetry_space_group_name_H-M   'P 1'
_cell_length_a   16.70330000
_cell_length_b   20.01950000
_cell_length_c   17.46020000
_cell_angle_alpha   90.00000000
_cell_angle_beta   100.42300000
_cell_angle_gamma   90.00000000
_symmetry_Int_Tables_number   1
_chemical_formula_structural   Co3H27C44S3NO18
_chemical_formula_sum   'Co12 H108 C176 S12 N4 O72'
_cell_volume   5742.20393096
_cell_formula_units_Z   4
loop_
 _symmetry_equiv_pos_site_id
 _symmetry_equiv_pos_as_xyz
  1  'x, y, z'
loop_
 _atom_site_type_symbol
 _atom_site_label
 _atom_site_symmetry_multiplicity
 _atom_site_fract_x
 _atom_site_fract_y
 _atom_site_fract_z
 _atom_site_occupancy
 _atom_site_charge
  Co  Co1  1  0.038840  0.164950  0.254650  1.0  1.0638
  Co  Co2  1  0.143560  0.125420  0.444730  1.0  1.0882
  Co  Co3  1  0.913110  0.143450  0.057370  1.0  0.969
  Co  Co4  1  0.461160  0.664950  0.245350  1.0  1.0635
  Co  Co5  1  0.356440  0.625420  0.055270  1.0  1.0898
  Co  Co6  1  0.586890  0.643450  0.442630  1.0  0.9689
  Co  Co7  1  0.961160  0.835050  0.745350  1.0  1.0637
  Co  Co8  1  0.856440  0.874580  0.555270  1.0  1.0897
  Co  Co9  1  0.086890  0.856550  0.942630  1.0  0.9685
  Co  Co10  1  0.538840  0.335050  0.754650  1.0  1.064
  Co  Co11  1  0.643560  0.374580  0.944730  1.0  1.0883
  Co  Co12  1  0.413110  0.356550  0.557370  1.0  0.9695
  H  H13  1  0.350700  0.222800  0.421000  1.0  0.1228
  H  H14  1  0.479200  0.255100  0.401700  1.0  0.1241
  H  H15  1  0.405600  0.241000  0.168700  1.0  0.127
  H  H16  1  0.275100  0.213700  0.187500  1.0  0.1186
  H  H17  1  0.531000  0.401900  0.329800  1.0  0.1229
  H  H18  1  0.489200  0.505000  0.274400  1.0  0.1207
  H  H19  1  0.499700  0.431200  0.061900  1.0  0.1156
  H  H20  1  0.540400  0.328300  0.117400  1.0  0.1235
  H  H21  1  0.204800  0.087100  0.193100  1.0  0.1138
  H  H22  1  0.333800  0.059900  0.172000  1.0  0.1212
  H  H23  1  0.240900  0.015400  0.947700  1.0  0.1299
  H  H24  1  0.114700  0.048500  0.967200  1.0  0.1091
  H  H25  1  0.483300  0.127800  0.109700  1.0  0.1251
  H  H26  1  0.534000  0.223700  0.059200  1.0  0.1128
  H  H27  1  0.435500  0.165000  0.841600  1.0  0.1124
  H  H28  1  0.386800  0.069500  0.890800  1.0  0.1246
  H  H29  1  0.711600  0.073100  0.139400  1.0  0.1186
  H  H30  1  0.594900  0.055700  0.190700  1.0  0.1201
  H  H31  1  0.711000  0.117300  0.400600  1.0  0.1324
  H  H32  1  0.827200  0.135200  0.348900  1.0  0.1207
  H  H33  1  0.491500  0.961900  0.245800  1.0  0.1331
  H  H34  1  0.487300  0.846700  0.261900  1.0  0.1096
  H  H35  1  0.617800  0.864200  0.478500  1.0  0.1038
  H  H36  1  0.620500  0.978700  0.463800  1.0  0.121
  H  H37  1  0.315300  0.018200  0.291700  1.0  0.1441
  H  H38  1  0.380000  0.991600  0.361400  1.0  0.1518
  H  H39  1  0.374700  0.068200  0.342500  1.0  0.1507
  H  H40  1  0.149300  0.722800  0.079000  1.0  0.1222
  H  H41  1  0.020800  0.755100  0.098300  1.0  0.1237
  H  H42  1  0.094400  0.741000  0.331300  1.0  0.1269
  H  H43  1  0.224900  0.713700  0.312500  1.0  0.119
  H  H44  1  0.969000  0.901900  0.170200  1.0  0.1228
  H  H45  1  0.010800  0.005000  0.225600  1.0  0.1202
  H  H46  1  0.000300  0.931200  0.438100  1.0  0.1158
  H  H47  1  0.959600  0.828300  0.382600  1.0  0.1234
  H  H48  1  0.295200  0.587100  0.306900  1.0  0.1139
  H  H49  1  0.166200  0.559900  0.328000  1.0  0.1206
  H  H50  1  0.259100  0.515400  0.552300  1.0  0.1305
  H  H51  1  0.385300  0.548500  0.532800  1.0  0.109
  H  H52  1  0.016700  0.627800  0.390300  1.0  0.125
  H  H53  1  0.966000  0.723700  0.440800  1.0  0.113
  H  H54  1  0.064500  0.665000  0.658400  1.0  0.1123
  H  H55  1  0.113200  0.569500  0.609200  1.0  0.1248
  H  H56  1  0.788400  0.573100  0.360600  1.0  0.1191
  H  H57  1  0.905100  0.555700  0.309300  1.0  0.1202
  H  H58  1  0.789000  0.617300  0.099400  1.0  0.133
  H  H59  1  0.672800  0.635200  0.151100  1.0  0.1204
  H  H60  1  0.008500  0.461900  0.254200  1.0  0.1333
  H  H61  1  0.012700  0.346700  0.238100  1.0  0.1097
  H  H62  1  0.882200  0.364200  0.021500  1.0  0.104
  H  H63  1  0.879500  0.478700  0.036200  1.0  0.1216
  H  H64  1  0.184700  0.518200  0.208300  1.0  0.1433
  H  H65  1  0.120000  0.491600  0.138600  1.0  0.1509
  H  H66  1  0.125300  0.568200  0.157500  1.0  0.1505
  H  H67  1  0.649300  0.777200  0.579000  1.0  0.122
  H  H68  1  0.520800  0.744900  0.598300  1.0  0.1237
  H  H69  1  0.594400  0.759000  0.831300  1.0  0.1271
  H  H70  1  0.724900  0.786300  0.812500  1.0  0.119
  H  H71  1  0.469000  0.598100  0.670200  1.0  0.1226
  H  H72  1  0.510800  0.495000  0.725600  1.0  0.1207
  H  H73  1  0.500300  0.568800  0.938100  1.0  0.1158
  H  H74  1  0.459600  0.671700  0.882600  1.0  0.1234
  H  H75  1  0.795200  0.912900  0.806900  1.0  0.1141
  H  H76  1  0.666200  0.940100  0.828000  1.0  0.1209
  H  H77  1  0.759100  0.984600  0.052300  1.0  0.1304
  H  H78  1  0.885300  0.951500  0.032800  1.0  0.1089
  H  H79  1  0.516700  0.872200  0.890300  1.0  0.1247
  H  H80  1  0.466000  0.776300  0.940800  1.0  0.1126
  H  H81  1  0.564500  0.835000  0.158400  1.0  0.1126
  H  H82  1  0.613200  0.930500  0.109200  1.0  0.1244
  H  H83  1  0.288400  0.926900  0.860600  1.0  0.1186
  H  H84  1  0.405100  0.944300  0.809300  1.0  0.12
  H  H85  1  0.289000  0.882700  0.599400  1.0  0.133
  H  H86  1  0.172800  0.864800  0.651100  1.0  0.1204
  H  H87  1  0.508500  0.038100  0.754200  1.0  0.1332
  H  H88  1  0.512700  0.153300  0.738100  1.0  0.1094
  H  H89  1  0.382200  0.135800  0.521500  1.0  0.1041
  H  H90  1  0.379500  0.021300  0.536200  1.0  0.1214
  H  H91  1  0.684700  0.981800  0.708300  1.0  0.1419
  H  H92  1  0.620000  0.008400  0.638600  1.0  0.1509
  H  H93  1  0.625300  0.931800  0.657500  1.0  0.1502
  H  H94  1  0.850700  0.277200  0.921000  1.0  0.1223
  H  H95  1  0.979200  0.244900  0.901700  1.0  0.1246
  H  H96  1  0.905600  0.259000  0.668700  1.0  0.1274
  H  H97  1  0.775100  0.286300  0.687500  1.0  0.1184
  H  H98  1  0.031000  0.098100  0.829800  1.0  0.1229
  H  H99  1  0.989200  0.995000  0.774400  1.0  0.1211
  H  H100  1  0.999700  0.068800  0.561900  1.0  0.1157
  H  H101  1  0.040400  0.171700  0.617400  1.0  0.1235
  H  H102  1  0.704800  0.412900  0.693100  1.0  0.1137
  H  H103  1  0.833800  0.440100  0.672000  1.0  0.121
  H  H104  1  0.740900  0.484600  0.447700  1.0  0.1301
  H  H105  1  0.614700  0.451500  0.467200  1.0  0.109
  H  H106  1  0.983300  0.372200  0.609700  1.0  0.1254
  H  H107  1  0.034000  0.276300  0.559200  1.0  0.1131
  H  H108  1  0.935500  0.335000  0.341600  1.0  0.1127
  H  H109  1  0.886800  0.430500  0.390800  1.0  0.1245
  H  H110  1  0.211600  0.426900  0.639400  1.0  0.1182
  H  H111  1  0.094900  0.444300  0.690700  1.0  0.1203
  H  H112  1  0.211000  0.382700  0.900600  1.0  0.1327
  H  H113  1  0.327200  0.364800  0.848900  1.0  0.121
  H  H114  1  0.991500  0.538100  0.745800  1.0  0.1337
  H  H115  1  0.987300  0.653300  0.761900  1.0  0.1098
  H  H116  1  0.117800  0.635800  0.978500  1.0  0.1034
  H  H117  1  0.120500  0.521300  0.963800  1.0  0.1215
  H  H118  1  0.815300  0.481800  0.791700  1.0  0.1425
  H  H119  1  0.880000  0.508400  0.861400  1.0  0.1508
  H  H120  1  0.874700  0.431800  0.842500  1.0  0.1504
  C  C121  1  0.217600  0.195300  0.320300  1.0  0.6981
  C  C122  1  0.301100  0.215500  0.306200  1.0  -0.1118
  C  C123  1  0.361700  0.227300  0.370900  1.0  -0.0257
  C  C124  1  0.438300  0.245700  0.359400  1.0  -0.0146
  C  C125  1  0.453400  0.249900  0.283600  1.0  -0.2001
  C  C126  1  0.393800  0.237900  0.218700  1.0  -0.0751
  C  C127  1  0.316500  0.221200  0.230000  1.0  0.0015
  C  C128  1  0.534200  0.354900  0.227400  1.0  -0.2075
  C  C129  1  0.522500  0.407600  0.276100  1.0  -0.0406
  C  C130  1  0.497900  0.469300  0.242900  1.0  -0.0302
  C  C131  1  0.486400  0.477200  0.162500  1.0  -0.1201
  C  C132  1  0.504100  0.424800  0.115200  1.0  -0.0522
  C  C133  1  0.528300  0.363400  0.148300  1.0  -0.0483
  C  C134  1  0.447000  0.538600  0.124000  1.0  0.672
  C  C135  1  0.066300  0.094000  0.095000  1.0  0.7302
  C  C136  1  0.147400  0.072400  0.082200  1.0  -0.1228
  C  C137  1  0.212700  0.074300  0.143800  1.0  0.0031
  C  C138  1  0.289200  0.057100  0.131700  1.0  -0.0424
  C  C139  1  0.298700  0.035400  0.057700  1.0  -0.2259
  C  C140  1  0.233500  0.031000  0.996100  1.0  -0.0655
  C  C141  1  0.158800  0.050100  0.008100  1.0  -0.0264
  C  C142  1  0.431200  0.090000  0.005700  1.0  -0.2131
  C  C143  1  0.474300  0.135300  0.056200  1.0  -0.0278
  C  C144  1  0.504500  0.192700  0.025800  1.0  -0.0132
  C  C145  1  0.490300  0.203900  0.944900  1.0  -0.1199
  C  C146  1  0.445500  0.157400  0.895000  1.0  -0.0239
  C  C147  1  0.416200  0.100700  0.924200  1.0  -0.0201
  C  C148  1  0.525500  0.264000  0.911300  1.0  0.7178
  C  C149  1  0.857100  0.116500  0.205100  1.0  0.7143
  C  C150  1  0.781700  0.104000  0.239400  1.0  -0.1127
  C  C151  1  0.711800  0.081400  0.191900  1.0  0.0007
  C  C152  1  0.642100  0.071100  0.222400  1.0  -0.024
  C  C153  1  0.643000  0.083900  0.300600  1.0  -0.2083
  C  C154  1  0.711400  0.108100  0.348400  1.0  -0.0601
  C  C155  1  0.780600  0.118400  0.317400  1.0  -0.0272
  C  C156  1  0.555500  0.981000  0.353800  1.0  -0.2046
  C  C157  1  0.515900  0.942300  0.292400  1.0  -0.0598
  C  C158  1  0.513800  0.873300  0.302300  1.0  -0.0287
  C  C159  1  0.550900  0.843600  0.372100  1.0  -0.1344
  C  C160  1  0.591800  0.883800  0.432300  1.0  -0.0057
  C  C161  1  0.593800  0.952100  0.423500  1.0  -0.0275
  C  C162  1  0.544000  0.768900  0.379800  1.0  0.7309
  C  C163  1  0.277500  0.037400  0.402600  1.0  0.3153
  C  C164  1  0.343900  0.027800  0.343300  1.0  -0.4157
  C  C165  1  0.282400  0.695300  0.179700  1.0  0.6962
  C  C166  1  0.198900  0.715500  0.193800  1.0  -0.1119
  C  C167  1  0.138300  0.727300  0.129100  1.0  -0.0257
  C  C168  1  0.061700  0.745700  0.140600  1.0  -0.013
  C  C169  1  0.046600  0.749900  0.216400  1.0  -0.1999
  C  C170  1  0.106200  0.737900  0.281300  1.0  -0.075
  C  C171  1  0.183500  0.721200  0.270000  1.0  0.0007
  C  C172  1  0.965800  0.854900  0.272600  1.0  -0.2081
  C  C173  1  0.977500  0.907600  0.223900  1.0  -0.0366
  C  C174  1  0.002100  0.969300  0.257100  1.0  -0.031
  C  C175  1  0.013600  0.977200  0.337500  1.0  -0.1198
  C  C176  1  0.995900  0.924800  0.384800  1.0  -0.0541
  C  C177  1  0.971700  0.863400  0.351700  1.0  -0.0499
  C  C178  1  0.053000  0.038600  0.376000  1.0  0.6711
  C  C179  1  0.433700  0.594000  0.405000  1.0  0.7298
  C  C180  1  0.352600  0.572400  0.417800  1.0  -0.1222
  C  C181  1  0.287300  0.574300  0.356200  1.0  0.0055
  C  C182  1  0.210800  0.557100  0.368300  1.0  -0.0419
  C  C183  1  0.201300  0.535400  0.442300  1.0  -0.228
  C  C184  1  0.266500  0.531000  0.503900  1.0  -0.0677
  C  C185  1  0.341200  0.550100  0.491900  1.0  -0.0265
  C  C186  1  0.068800  0.590000  0.494300  1.0  -0.2129
  C  C187  1  0.025700  0.635300  0.443800  1.0  -0.0264
  C  C188  1  0.995500  0.692700  0.474200  1.0  -0.013
  C  C189  1  0.009700  0.703900  0.555100  1.0  -0.1198
  C  C190  1  0.054500  0.657400  0.605000  1.0  -0.025
  C  C191  1  0.083800  0.600700  0.575800  1.0  -0.0199
  C  C192  1  0.974500  0.764000  0.588700  1.0  0.7169
  C  C193  1  0.642900  0.616500  0.294900  1.0  0.7154
  C  C194  1  0.718300  0.604000  0.260600  1.0  -0.1135
  C  C195  1  0.788200  0.581400  0.308100  1.0  0.0
  C  C196  1  0.857900  0.571100  0.277600  1.0  -0.0252
  C  C197  1  0.857000  0.583900  0.199400  1.0  -0.207
  C  C198  1  0.788600  0.608100  0.151600  1.0  -0.0565
  C  C199  1  0.719400  0.618400  0.182600  1.0  -0.0279
  C  C200  1  0.944500  0.481000  0.146200  1.0  -0.2043
  C  C201  1  0.984100  0.442300  0.207600  1.0  -0.059
  C  C202  1  0.986200  0.373300  0.197700  1.0  -0.0291
  C  C203  1  0.949100  0.343600  0.127900  1.0  -0.135
  C  C204  1  0.908200  0.383800  0.067700  1.0  -0.0063
  C  C205  1  0.906200  0.452100  0.076500  1.0  -0.0273
  C  C206  1  0.956000  0.268900  0.120200  1.0  0.7312
  C  C207  1  0.222500  0.537400  0.097400  1.0  0.3133
  C  C208  1  0.156100  0.527800  0.156700  1.0  -0.4146
  C  C209  1  0.782400  0.804700  0.679700  1.0  0.6945
  C  C210  1  0.698900  0.784500  0.693800  1.0  -0.1126
  C  C211  1  0.638300  0.772700  0.629100  1.0  -0.0234
  C  C212  1  0.561700  0.754300  0.640600  1.0  -0.0131
  C  C213  1  0.546600  0.750100  0.716400  1.0  -0.2005
  C  C214  1  0.606200  0.762100  0.781300  1.0  -0.0754
  C  C215  1  0.683500  0.778800  0.770000  1.0  0.0016
  C  C216  1  0.465800  0.645100  0.772600  1.0  -0.2077
  C  C217  1  0.477500  0.592400  0.723900  1.0  -0.0354
  C  C218  1  0.502100  0.530700  0.757100  1.0  -0.0314
  C  C219  1  0.513600  0.522800  0.837500  1.0  -0.1194
  C  C220  1  0.495900  0.575200  0.884800  1.0  -0.0547
  C  C221  1  0.471700  0.636600  0.851700  1.0  -0.049
  C  C222  1  0.553000  0.461400  0.876000  1.0  0.671
  C  C223  1  0.933700  0.906000  0.905000  1.0  0.7297
  C  C224  1  0.852600  0.927600  0.917800  1.0  -0.1222
  C  C225  1  0.787300  0.925700  0.856200  1.0  0.0051
  C  C226  1  0.710800  0.942900  0.868300  1.0  -0.0417
  C  C227  1  0.701300  0.964600  0.942300  1.0  -0.2269
  C  C228  1  0.766500  0.969000  0.003900  1.0  -0.0675
  C  C229  1  0.841200  0.949900  0.991900  1.0  -0.0266
  C  C230  1  0.568800  0.910000  0.994300  1.0  -0.2127
  C  C231  1  0.525700  0.864700  0.943800  1.0  -0.0263
  C  C232  1  0.495500  0.807300  0.974200  1.0  -0.0126
  C  C233  1  0.509700  0.796100  0.055100  1.0  -0.1206
  C  C234  1  0.554500  0.842600  0.105000  1.0  -0.024
  C  C235  1  0.583800  0.899300  0.075800  1.0  -0.0201
  C  C236  1  0.474500  0.736000  0.088700  1.0  0.717
  C  C237  1  0.142900  0.883500  0.794900  1.0  0.7161
  C  C238  1  0.218300  0.896000  0.760600  1.0  -0.1134
  C  C239  1  0.288200  0.918600  0.808100  1.0  0.0004
  C  C240  1  0.357900  0.928900  0.777600  1.0  -0.0251
  C  C241  1  0.357000  0.916100  0.699400  1.0  -0.2075
  C  C242  1  0.288600  0.891900  0.651600  1.0  -0.0561
  C  C243  1  0.219400  0.881600  0.682600  1.0  -0.0274
  C  C244  1  0.444500  0.019000  0.646200  1.0  -0.2046
  C  C245  1  0.484100  0.057700  0.707600  1.0  -0.0587
  C  C246  1  0.486200  0.126700  0.697700  1.0  -0.0298
  C  C247  1  0.449100  0.156400  0.627900  1.0  -0.1338
  C  C248  1  0.408200  0.116200  0.567700  1.0  -0.0066
  C  C249  1  0.406200  0.047900  0.576500  1.0  -0.0272
  C  C250  1  0.456000  0.231100  0.620200  1.0  0.7316
  C  C251  1  0.722500  0.962600  0.597400  1.0  0.3137
  C  C252  1  0.656100  0.972200  0.656700  1.0  -0.4146
  C  C253  1  0.717600  0.304700  0.820300  1.0  0.6966
  C  C254  1  0.801100  0.284500  0.806200  1.0  -0.1138
  C  C255  1  0.861700  0.272700  0.870900  1.0  -0.0246
  C  C256  1  0.938300  0.254300  0.859400  1.0  -0.0146
  C  C257  1  0.953400  0.250100  0.783600  1.0  -0.2008
  C  C258  1  0.893800  0.262100  0.718700  1.0  -0.0739
  C  C259  1  0.816500  0.278800  0.730000  1.0  0.0019
  C  C260  1  0.034200  0.145100  0.727400  1.0  -0.2072
  C  C261  1  0.022500  0.092400  0.776100  1.0  -0.0401
  C  C262  1  0.997900  0.030700  0.742900  1.0  -0.0313
  C  C263  1  0.986400  0.022800  0.662500  1.0  -0.1202
  C  C264  1  0.004100  0.075200  0.615200  1.0  -0.0534
  C  C265  1  0.028300  0.136600  0.648300  1.0  -0.0482
  C  C266  1  0.947000  0.961400  0.624000  1.0  0.672
  C  C267  1  0.566300  0.406000  0.595000  1.0  0.73
  C  C268  1  0.647400  0.427600  0.582200  1.0  -0.1229
  C  C269  1  0.712700  0.425700  0.643800  1.0  0.0032
  C  C270  1  0.789200  0.442900  0.631700  1.0  -0.042
  C  C271  1  0.798700  0.464600  0.557700  1.0  -0.2254
  C  C272  1  0.733500  0.469000  0.496100  1.0  -0.0651
  C  C273  1  0.658800  0.449900  0.508100  1.0  -0.0263
  C  C274  1  0.931200  0.410000  0.505700  1.0  -0.2136
  C  C275  1  0.974300  0.364700  0.556200  1.0  -0.0281
  C  C276  1  0.004500  0.307300  0.525800  1.0  -0.0127
  C  C277  1  0.990300  0.296100  0.444900  1.0  -0.121
  C  C278  1  0.945500  0.342600  0.395000  1.0  -0.0236
  C  C279  1  0.916200  0.399300  0.424200  1.0  -0.0205
  C  C280  1  0.025500  0.236000  0.411300  1.0  0.7181
  C  C281  1  0.357100  0.383500  0.705100  1.0  0.7147
  C  C282  1  0.281700  0.396000  0.739400  1.0  -0.1125
  C  C283  1  0.211800  0.418600  0.691900  1.0  0.0012
  C  C284  1  0.142100  0.428900  0.722400  1.0  -0.024
  C  C285  1  0.143000  0.416100  0.800600  1.0  -0.2086
  C  C286  1  0.211400  0.391900  0.848400  1.0  -0.0599
  C  C287  1  0.280600  0.381600  0.817400  1.0  -0.0268
  C  C288  1  0.055500  0.519000  0.853800  1.0  -0.2045
  C  C289  1  0.015900  0.557700  0.792400  1.0  -0.0604
  C  C290  1  0.013800  0.626700  0.802300  1.0  -0.0287
  C  C291  1  0.050900  0.656400  0.872100  1.0  -0.1333
  C  C292  1  0.091800  0.616200  0.932300  1.0  -0.0061
  C  C293  1  0.093800  0.547900  0.923500  1.0  -0.0279
  C  C294  1  0.044000  0.731100  0.879800  1.0  0.7314
  C  C295  1  0.777500  0.462600  0.902600  1.0  0.3123
  C  C296  1  0.843900  0.472200  0.843300  1.0  -0.4162
  S  S297  1  0.551030  0.273620  0.267880  1.0  1.0753
  S  S298  1  0.396280  0.015330  0.041120  1.0  1.1157
  S  S299  1  0.555630  0.068810  0.341440  1.0  1.0754
  S  S300  1  0.948970  0.773620  0.232120  1.0  1.0785
  S  S301  1  0.103720  0.515330  0.458880  1.0  1.1158
  S  S302  1  0.944370  0.568810  0.158560  1.0  1.0736
  S  S303  1  0.448970  0.726380  0.732120  1.0  1.0785
  S  S304  1  0.603720  0.984670  0.958880  1.0  1.116
  S  S305  1  0.444370  0.931190  0.658560  1.0  1.0731
  S  S306  1  0.051030  0.226380  0.767880  1.0  1.0759
  S  S307  1  0.896280  0.484670  0.541120  1.0  1.1153
  S  S308  1  0.055630  0.431190  0.841440  1.0  1.0758
  N  N309  1  0.233400  0.049200  0.434300  1.0  -0.357
  N  N310  1  0.266600  0.549200  0.065700  1.0  -0.3578
  N  N311  1  0.766600  0.950800  0.565700  1.0  -0.3566
  N  N312  1  0.733400  0.450800  0.934300  1.0  -0.3568
  O  O313  1  0.521500  0.265900  0.838000  1.0  -0.5969
  O  O314  1  0.917600  0.137300  0.251000  1.0  -0.5867
  O  O315  1  0.161400  0.191400  0.262500  1.0  -0.6118
  O  O316  1  0.054800  0.099300  0.164200  1.0  -0.6398
  O  O317  1  0.494400  0.739700  0.330200  1.0  -0.6234
  O  O318  1  0.427900  0.585900  0.165700  1.0  -0.7169
  O  O319  1  0.213600  0.183400  0.391300  1.0  -0.6011
  O  O320  1  0.557500  0.307300  0.960400  1.0  -0.5686
  O  O321  1  0.428200  0.539800  0.051300  1.0  -0.5566
  O  O322  1  0.013900  0.106500  0.035000  1.0  -0.5901
  O  O323  1  0.851200  0.105400  0.132200  1.0  -0.6066
  O  O324  1  0.589400  0.741800  0.437500  1.0  -0.5719
  O  O325  1  0.603000  0.278700  0.343400  1.0  -0.5607
  O  O326  1  0.573600  0.230800  0.208700  1.0  -0.5791
  O  O327  1  0.445100  0.000300  0.116200  1.0  -0.6727
  O  O328  1  0.387600  0.966600  0.979000  1.0  -0.5852
  O  O329  1  0.486300  0.086000  0.283900  1.0  -0.5591
  O  O330  1  0.566300  0.099000  0.418000  1.0  -0.581
  O  O331  1  0.978500  0.765900  0.662000  1.0  -0.5974
  O  O332  1  0.582400  0.637300  0.249000  1.0  -0.5871
  O  O333  1  0.338600  0.691400  0.237500  1.0  -0.6128
  O  O334  1  0.445200  0.599300  0.335800  1.0  -0.6375
  O  O335  1  0.005600  0.239700  0.169800  1.0  -0.6234
  O  O336  1  0.072100  0.085900  0.334300  1.0  -0.7172
  O  O337  1  0.286400  0.683400  0.108700  1.0  -0.6019
  O  O338  1  0.942500  0.807300  0.539600  1.0  -0.5705
  O  O339  1  0.071800  0.039800  0.448700  1.0  -0.5584
  O  O340  1  0.486100  0.606500  0.465000  1.0  -0.59
  O  O341  1  0.648800  0.605400  0.367800  1.0  -0.6057
  O  O342  1  0.910600  0.241800  0.062500  1.0  -0.5715
  O  O343  1  0.897000  0.778700  0.156600  1.0  -0.5571
  O  O344  1  0.926400  0.730800  0.291300  1.0  -0.577
  O  O345  1  0.054900  0.500300  0.383800  1.0  -0.674
  O  O346  1  0.112400  0.466600  0.521000  1.0  -0.5857
  O  O347  1  0.013700  0.586000  0.216100  1.0  -0.5577
  O  O348  1  0.933700  0.599000  0.082000  1.0  -0.5812
  O  O349  1  0.478500  0.734100  0.162000  1.0  -0.5973
  O  O350  1  0.082400  0.862700  0.749000  1.0  -0.5872
  O  O351  1  0.838600  0.808600  0.737500  1.0  -0.6116
  O  O352  1  0.945200  0.900700  0.835800  1.0  -0.6373
  O  O353  1  0.505600  0.260300  0.669800  1.0  -0.6235
  O  O354  1  0.572100  0.414100  0.834300  1.0  -0.7173
  O  O355  1  0.786400  0.816600  0.608700  1.0  -0.6019
  O  O356  1  0.442500  0.692700  0.039600  1.0  -0.5702
  O  O357  1  0.571800  0.460200  0.948700  1.0  -0.559
  O  O358  1  0.986100  0.893500  0.965000  1.0  -0.5902
  O  O359  1  0.148800  0.894600  0.867800  1.0  -0.6053
  O  O360  1  0.410600  0.258200  0.562500  1.0  -0.5717
  O  O361  1  0.397000  0.721300  0.656600  1.0  -0.5569
  O  O362  1  0.426400  0.769200  0.791300  1.0  -0.577
  O  O363  1  0.554900  0.999700  0.883800  1.0  -0.6746
  O  O364  1  0.612400  0.033400  0.021000  1.0  -0.5862
  O  O365  1  0.513700  0.914000  0.716100  1.0  -0.5583
  O  O366  1  0.433700  0.901000  0.582000  1.0  -0.581
  O  O367  1  0.021500  0.234100  0.338000  1.0  -0.5967
  O  O368  1  0.417600  0.362700  0.751000  1.0  -0.5863
  O  O369  1  0.661400  0.308600  0.762500  1.0  -0.6109
  O  O370  1  0.554800  0.400700  0.664200  1.0  -0.6396
  O  O371  1  0.994400  0.760300  0.830200  1.0  -0.6237
  O  O372  1  0.927900  0.914100  0.665700  1.0  -0.7166
  O  O373  1  0.713600  0.316600  0.891300  1.0  -0.6018
  O  O374  1  0.057500  0.192700  0.460400  1.0  -0.5688
  O  O375  1  0.928200  0.960200  0.551300  1.0  -0.557
  O  O376  1  0.513900  0.393500  0.535000  1.0  -0.59
  O  O377  1  0.351200  0.394600  0.632200  1.0  -0.6064
  O  O378  1  0.089400  0.758200  0.937500  1.0  -0.5727
  O  O379  1  0.103000  0.221300  0.843400  1.0  -0.5607
  O  O380  1  0.073600  0.269200  0.708700  1.0  -0.5789
  O  O381  1  0.945100  0.499700  0.616200  1.0  -0.6743
  O  O382  1  0.887600  0.533400  0.479000  1.0  -0.5858
  O  O383  1  0.986300  0.414000  0.783900  1.0  -0.5597
  O  O384  1  0.066300  0.401000  0.918000  1.0  -0.581
