# generated using pymatgen
data_CoH8C14SO6
_symmetry_space_group_name_H-M   'P 1'
_cell_length_a   16.70330000
_cell_length_b   20.01950000
_cell_length_c   17.46020000
_cell_angle_alpha   90.00000000
_cell_angle_beta   100.42300000
_cell_angle_gamma   90.00000000
_symmetry_Int_Tables_number   1
_chemical_formula_structural   CoH8C14SO6
_chemical_formula_sum   'Co12 H96 C168 S12 O72'
_cell_volume   5742.20393096
_cell_formula_units_Z   12
loop_
 _symmetry_equiv_pos_site_id
 _symmetry_equiv_pos_as_xyz
  1  'x, y, z'
loop_
 _atom_site_type_symbol
 _atom_site_label
 _atom_site_symmetry_multiplicity
 _atom_site_fract_x
 _atom_site_fract_y
 _atom_site_fract_z
 _atom_site_occupancy
 _atom_site_charge
  Co  Co1  1  0.968510  0.330960  0.741360  1.0  1.0407
  Co  Co2  1  0.865430  0.366390  0.547540  1.0  1.0562
  Co  Co3  1  0.090650  0.352200  0.937440  1.0  1.0082
  Co  Co4  1  0.531490  0.830960  0.758640  1.0  1.0402
  Co  Co5  1  0.634570  0.866390  0.952460  1.0  1.0551
  Co  Co6  1  0.409350  0.852200  0.562560  1.0  1.0115
  Co  Co7  1  0.031490  0.669040  0.258640  1.0  1.0404
  Co  Co8  1  0.134570  0.633610  0.452460  1.0  1.055
  Co  Co9  1  0.909350  0.647800  0.062560  1.0  1.0116
  Co  Co10  1  0.468510  0.169040  0.241360  1.0  1.0408
  Co  Co11  1  0.365430  0.133610  0.047540  1.0  1.0567
  Co  Co12  1  0.590650  0.147800  0.437440  1.0  1.0079
  H  H13  1  0.648600  0.281400  0.578900  1.0  0.1139
  H  H14  1  0.522300  0.245800  0.601400  1.0  0.1171
  H  H15  1  0.603900  0.256000  0.833900  1.0  0.1323
  H  H16  1  0.731000  0.284200  0.810200  1.0  0.1098
  H  H17  1  0.462500  0.093400  0.677100  1.0  0.1316
  H  H18  1  0.500600  0.990500  0.732400  1.0  0.115
  H  H19  1  0.536600  0.070900  0.946600  1.0  0.1286
  H  H20  1  0.492700  0.173500  0.892900  1.0  0.1181
  H  H21  1  0.796500  0.409900  0.802100  1.0  0.1146
  H  H22  1  0.668400  0.439800  0.825400  1.0  0.1123
  H  H23  1  0.765000  0.493300  0.045400  1.0  0.1295
  H  H24  1  0.892200  0.457500  0.024400  1.0  0.1099
  H  H25  1  0.524300  0.376700  0.888000  1.0  0.1309
  H  H26  1  0.475400  0.281200  0.938000  1.0  0.1114
  H  H27  1  0.564200  0.342600  0.155600  1.0  0.1171
  H  H28  1  0.612800  0.438600  0.106300  1.0  0.1195
  H  H29  1  0.296600  0.423000  0.856400  1.0  0.1156
  H  H30  1  0.412400  0.444900  0.804100  1.0  0.1027
  H  H31  1  0.298200  0.379700  0.594700  1.0  0.1286
  H  H32  1  0.182400  0.360100  0.647200  1.0  0.1123
  H  H33  1  0.512600  0.536300  0.750500  1.0  0.1307
  H  H34  1  0.513200  0.650400  0.738000  1.0  0.1194
  H  H35  1  0.386400  0.634900  0.520000  1.0  0.1224
  H  H36  1  0.390400  0.520200  0.531200  1.0  0.1275
  H  H37  1  0.851400  0.781400  0.921100  1.0  0.1141
  H  H38  1  0.977700  0.745800  0.898600  1.0  0.118
  H  H39  1  0.896100  0.756000  0.666100  1.0  0.1332
  H  H40  1  0.769000  0.784200  0.689800  1.0  0.1095
  H  H41  1  0.037500  0.593400  0.822900  1.0  0.1316
  H  H42  1  0.999400  0.490500  0.767600  1.0  0.1149
  H  H43  1  0.963400  0.570900  0.553400  1.0  0.1282
  H  H44  1  0.007300  0.673500  0.607100  1.0  0.1177
  H  H45  1  0.703500  0.909900  0.697900  1.0  0.1145
  H  H46  1  0.831600  0.939800  0.674600  1.0  0.1127
  H  H47  1  0.735000  0.993300  0.454600  1.0  0.1298
  H  H48  1  0.607800  0.957500  0.475600  1.0  0.11
  H  H49  1  0.975700  0.876700  0.612000  1.0  0.1308
  H  H50  1  0.024600  0.781200  0.562000  1.0  0.1115
  H  H51  1  0.935800  0.842600  0.344400  1.0  0.1171
  H  H52  1  0.887200  0.938600  0.393700  1.0  0.12
  H  H53  1  0.203400  0.923000  0.643600  1.0  0.1148
  H  H54  1  0.087600  0.944900  0.695900  1.0  0.1032
  H  H55  1  0.201800  0.879700  0.905300  1.0  0.1284
  H  H56  1  0.317600  0.860100  0.852800  1.0  0.1128
  H  H57  1  0.987400  0.036300  0.749500  1.0  0.1317
  H  H58  1  0.986800  0.150400  0.762000  1.0  0.1198
  H  H59  1  0.113600  0.134900  0.980000  1.0  0.122
  H  H60  1  0.109600  0.020200  0.968800  1.0  0.1269
  H  H61  1  0.351400  0.718600  0.421100  1.0  0.1141
  H  H62  1  0.477700  0.754200  0.398600  1.0  0.1176
  H  H63  1  0.396100  0.744000  0.166100  1.0  0.1331
  H  H64  1  0.269000  0.715800  0.189800  1.0  0.1093
  H  H65  1  0.537500  0.906600  0.322900  1.0  0.1319
  H  H66  1  0.499400  0.009500  0.267600  1.0  0.1145
  H  H67  1  0.463400  0.929100  0.053400  1.0  0.128
  H  H68  1  0.507300  0.826500  0.107100  1.0  0.1177
  H  H69  1  0.203500  0.590100  0.197900  1.0  0.1151
  H  H70  1  0.331600  0.560200  0.174600  1.0  0.1125
  H  H71  1  0.235000  0.506700  0.954600  1.0  0.1298
  H  H72  1  0.107800  0.542500  0.975600  1.0  0.1101
  H  H73  1  0.475700  0.623300  0.112000  1.0  0.1308
  H  H74  1  0.524600  0.718800  0.062000  1.0  0.1113
  H  H75  1  0.435800  0.657400  0.844400  1.0  0.1168
  H  H76  1  0.387200  0.561400  0.893700  1.0  0.12
  H  H77  1  0.703400  0.577000  0.143600  1.0  0.1149
  H  H78  1  0.587600  0.555100  0.195900  1.0  0.103
  H  H79  1  0.701800  0.620300  0.405300  1.0  0.1282
  H  H80  1  0.817600  0.639900  0.352800  1.0  0.1126
  H  H81  1  0.487400  0.463700  0.249500  1.0  0.1313
  H  H82  1  0.486800  0.349600  0.262000  1.0  0.1195
  H  H83  1  0.613600  0.365100  0.480000  1.0  0.1222
  H  H84  1  0.609600  0.479800  0.468800  1.0  0.1267
  H  H85  1  0.148600  0.218600  0.078900  1.0  0.1139
  H  H86  1  0.022300  0.254200  0.101400  1.0  0.1172
  H  H87  1  0.103900  0.244000  0.333900  1.0  0.1325
  H  H88  1  0.231000  0.215800  0.310200  1.0  0.1098
  H  H89  1  0.962500  0.406600  0.177100  1.0  0.1317
  H  H90  1  0.000600  0.509500  0.232400  1.0  0.1144
  H  H91  1  0.036600  0.429100  0.446600  1.0  0.1283
  H  H92  1  0.992700  0.326500  0.392900  1.0  0.1183
  H  H93  1  0.296500  0.090100  0.302100  1.0  0.1147
  H  H94  1  0.168400  0.060200  0.325400  1.0  0.1121
  H  H95  1  0.265000  0.006700  0.545400  1.0  0.1297
  H  H96  1  0.392200  0.042500  0.524400  1.0  0.11
  H  H97  1  0.024300  0.123300  0.388000  1.0  0.1312
  H  H98  1  0.975400  0.218800  0.438000  1.0  0.112
  H  H99  1  0.064200  0.157400  0.655600  1.0  0.1166
  H  H100  1  0.112800  0.061400  0.606300  1.0  0.1199
  H  H101  1  0.796600  0.077000  0.356400  1.0  0.1156
  H  H102  1  0.912400  0.055100  0.304100  1.0  0.103
  H  H103  1  0.798200  0.120300  0.094700  1.0  0.1284
  H  H104  1  0.682400  0.139900  0.147200  1.0  0.1123
  H  H105  1  0.012600  0.963700  0.250500  1.0  0.1304
  H  H106  1  0.013200  0.849600  0.238000  1.0  0.1195
  H  H107  1  0.886400  0.865100  0.020000  1.0  0.1226
  H  H108  1  0.890400  0.979800  0.031200  1.0  0.1272
  C  C109  1  0.784700  0.308700  0.676000  1.0  0.7292
  C  C110  1  0.703000  0.286900  0.692200  1.0  -0.1151
  C  C111  1  0.640000  0.275400  0.629600  1.0  -0.0091
  C  C112  1  0.564000  0.254800  0.643100  1.0  -0.0223
  C  C113  1  0.550800  0.247900  0.719600  1.0  -0.2009
  C  C114  1  0.613100  0.260000  0.783100  1.0  -0.1003
  C  C115  1  0.688400  0.277900  0.768400  1.0  -0.0163
  C  C116  1  0.474200  0.142700  0.780200  1.0  -0.2068
  C  C117  1  0.476500  0.088600  0.730900  1.0  -0.061
  C  C118  1  0.500100  0.027900  0.763900  1.0  -0.0317
  C  C119  1  0.523100  0.022200  0.844100  1.0  -0.1023
  C  C120  1  0.521000  0.075700  0.893000  1.0  -0.0708
  C  C121  1  0.495600  0.136700  0.861000  1.0  -0.0299
  C  C122  1  0.557300  0.958500  0.878800  1.0  0.7091
  C  C123  1  0.937500  0.404400  0.897500  1.0  0.7332
  C  C124  1  0.856400  0.429300  0.911900  1.0  -0.1122
  C  C125  1  0.789900  0.425100  0.851000  1.0  -0.0084
  C  C126  1  0.713800  0.443800  0.864600  1.0  -0.0249
  C  C127  1  0.705800  0.468700  0.937400  1.0  -0.2058
  C  C128  1  0.771300  0.475400  0.997700  1.0  -0.0594
  C  C129  1  0.847200  0.454600  0.984500  1.0  -0.0108
  C  C130  1  0.572700  0.416100  0.992300  1.0  -0.2168
  C  C131  1  0.532100  0.369800  0.941500  1.0  -0.0433
  C  C132  1  0.503100  0.313000  0.971500  1.0  -0.0173
  C  C133  1  0.515100  0.302700  0.052400  1.0  -0.1315
  C  C134  1  0.556100  0.349500  0.102100  1.0  0.0087
  C  C135  1  0.585200  0.406700  0.072800  1.0  -0.0427
  C  C136  1  0.481500  0.241900  0.085800  1.0  0.7118
  C  C137  1  0.150500  0.377700  0.791400  1.0  0.7308
  C  C138  1  0.226700  0.392400  0.756600  1.0  -0.1059
  C  C139  1  0.296200  0.415500  0.803700  1.0  0.0052
  C  C140  1  0.366000  0.427900  0.772600  1.0  -0.0368
  C  C141  1  0.366200  0.414600  0.693800  1.0  -0.2156
  C  C142  1  0.297900  0.389100  0.646800  1.0  -0.0257
  C  C143  1  0.228500  0.377800  0.678500  1.0  -0.0288
  C  C144  1  0.452200  0.518500  0.641100  1.0  -0.185
  C  C145  1  0.488700  0.556500  0.704100  1.0  -0.0865
  C  C146  1  0.488700  0.624000  0.696500  1.0  -0.0343
  C  C147  1  0.452300  0.653600  0.626800  1.0  -0.1236
  C  C148  1  0.413300  0.614800  0.565500  1.0  -0.0366
  C  C149  1  0.414700  0.546900  0.572500  1.0  -0.0325
  C  C150  1  0.454900  0.727500  0.621800  1.0  0.7112
  C  C151  1  0.715300  0.808700  0.824000  1.0  0.7313
  C  C152  1  0.797000  0.786900  0.807800  1.0  -0.1141
  C  C153  1  0.860000  0.775400  0.870400  1.0  -0.0079
  C  C154  1  0.936000  0.754800  0.856900  1.0  -0.0223
  C  C155  1  0.949200  0.747900  0.780400  1.0  -0.2007
  C  C156  1  0.886900  0.760000  0.716900  1.0  -0.0973
  C  C157  1  0.811600  0.777900  0.731600  1.0  -0.0146
  C  C158  1  0.025800  0.642700  0.719800  1.0  -0.2078
  C  C159  1  0.023500  0.588600  0.769100  1.0  -0.0647
  C  C160  1  0.999900  0.527900  0.736100  1.0  -0.0325
  C  C161  1  0.976900  0.522200  0.655900  1.0  -0.1021
  C  C162  1  0.979000  0.575700  0.607000  1.0  -0.0708
  C  C163  1  0.004400  0.636700  0.639000  1.0  -0.0294
  C  C164  1  0.942700  0.458500  0.621200  1.0  0.7078
  C  C165  1  0.562500  0.904400  0.602500  1.0  0.7329
  C  C166  1  0.643600  0.929300  0.588100  1.0  -0.1113
  C  C167  1  0.710100  0.925100  0.649000  1.0  -0.0084
  C  C168  1  0.786200  0.943800  0.635400  1.0  -0.0261
  C  C169  1  0.794200  0.968700  0.562600  1.0  -0.2038
  C  C170  1  0.728700  0.975400  0.502300  1.0  -0.0575
  C  C171  1  0.652800  0.954600  0.515500  1.0  -0.0102
  C  C172  1  0.927300  0.916100  0.507700  1.0  -0.2166
  C  C173  1  0.967900  0.869800  0.558500  1.0  -0.0445
  C  C174  1  0.996900  0.813000  0.528500  1.0  -0.0173
  C  C175  1  0.984900  0.802700  0.447600  1.0  -0.1323
  C  C176  1  0.943900  0.849500  0.397900  1.0  0.0096
  C  C177  1  0.914800  0.906700  0.427200  1.0  -0.0426
  C  C178  1  0.018500  0.741900  0.414200  1.0  0.7117
  C  C179  1  0.349500  0.877700  0.708600  1.0  0.7301
  C  C180  1  0.273300  0.892400  0.743400  1.0  -0.106
  C  C181  1  0.203800  0.915500  0.696300  1.0  0.0067
  C  C182  1  0.134000  0.927900  0.727400  1.0  -0.0357
  C  C183  1  0.133800  0.914600  0.806200  1.0  -0.2149
  C  C184  1  0.202100  0.889100  0.853200  1.0  -0.0265
  C  C185  1  0.271500  0.877800  0.821500  1.0  -0.0283
  C  C186  1  0.047800  0.018500  0.858900  1.0  -0.1853
  C  C187  1  0.011300  0.056500  0.795900  1.0  -0.0866
  C  C188  1  0.011300  0.124000  0.803500  1.0  -0.0329
  C  C189  1  0.047700  0.153600  0.873200  1.0  -0.124
  C  C190  1  0.086700  0.114800  0.934500  1.0  -0.0367
  C  C191  1  0.085300  0.046900  0.927500  1.0  -0.0325
  C  C192  1  0.045100  0.227500  0.878200  1.0  0.711
  C  C193  1  0.215300  0.691300  0.324000  1.0  0.7306
  C  C194  1  0.297000  0.713100  0.307800  1.0  -0.1126
  C  C195  1  0.360000  0.724600  0.370400  1.0  -0.0083
  C  C196  1  0.436000  0.745200  0.356900  1.0  -0.023
  C  C197  1  0.449200  0.752100  0.280400  1.0  -0.2006
  C  C198  1  0.386900  0.740000  0.216900  1.0  -0.0971
  C  C199  1  0.311600  0.722100  0.231600  1.0  -0.0147
  C  C200  1  0.525800  0.857300  0.219800  1.0  -0.2079
  C  C201  1  0.523500  0.911400  0.269100  1.0  -0.0645
  C  C202  1  0.499900  0.972100  0.236100  1.0  -0.0325
  C  C203  1  0.476900  0.977800  0.155900  1.0  -0.1018
  C  C204  1  0.479000  0.924300  0.107000  1.0  -0.0706
  C  C205  1  0.504400  0.863300  0.139000  1.0  -0.0292
  C  C206  1  0.442700  0.041500  0.121200  1.0  0.7087
  C  C207  1  0.062500  0.595600  0.102500  1.0  0.7333
  C  C208  1  0.143600  0.570700  0.088100  1.0  -0.1113
  C  C209  1  0.210100  0.574900  0.149000  1.0  -0.0078
  C  C210  1  0.286200  0.556200  0.135400  1.0  -0.0257
  C  C211  1  0.294200  0.531300  0.062600  1.0  -0.2037
  C  C212  1  0.228700  0.524600  0.002300  1.0  -0.0578
  C  C213  1  0.152800  0.545400  0.015500  1.0  -0.0102
  C  C214  1  0.427300  0.583900  0.007700  1.0  -0.2166
  C  C215  1  0.467900  0.630200  0.058500  1.0  -0.0445
  C  C216  1  0.496900  0.687000  0.028500  1.0  -0.0174
  C  C217  1  0.484900  0.697300  0.947600  1.0  -0.1319
  C  C218  1  0.443900  0.650500  0.897900  1.0  0.0095
  C  C219  1  0.414800  0.593300  0.927200  1.0  -0.0432
  C  C220  1  0.518500  0.758100  0.914200  1.0  0.7121
  C  C221  1  0.849500  0.622300  0.208600  1.0  0.7297
  C  C222  1  0.773300  0.607600  0.243400  1.0  -0.1061
  C  C223  1  0.703800  0.584500  0.196300  1.0  0.0069
  C  C224  1  0.634000  0.572100  0.227400  1.0  -0.0357
  C  C225  1  0.633800  0.585400  0.306200  1.0  -0.2148
  C  C226  1  0.702100  0.610900  0.353200  1.0  -0.0269
  C  C227  1  0.771500  0.622200  0.321500  1.0  -0.0287
  C  C228  1  0.547800  0.481500  0.358900  1.0  -0.1845
  C  C229  1  0.511300  0.443500  0.295900  1.0  -0.086
  C  C230  1  0.511300  0.376000  0.303500  1.0  -0.033
  C  C231  1  0.547700  0.346400  0.373200  1.0  -0.1243
  C  C232  1  0.586700  0.385200  0.434500  1.0  -0.0369
  C  C233  1  0.585300  0.453100  0.427500  1.0  -0.0328
  C  C234  1  0.545100  0.272500  0.378200  1.0  0.7101
  C  C235  1  0.284700  0.191300  0.176000  1.0  0.7287
  C  C236  1  0.203000  0.213100  0.192200  1.0  -0.1143
  C  C237  1  0.140000  0.224600  0.129600  1.0  -0.0098
  C  C238  1  0.064000  0.245200  0.143100  1.0  -0.0226
  C  C239  1  0.050800  0.252100  0.219600  1.0  -0.2008
  C  C240  1  0.113100  0.240000  0.283100  1.0  -0.1002
  C  C241  1  0.188400  0.222100  0.268400  1.0  -0.0161
  C  C242  1  0.974200  0.357300  0.280200  1.0  -0.2072
  C  C243  1  0.976500  0.411400  0.230900  1.0  -0.0612
  C  C244  1  0.000100  0.472100  0.263900  1.0  -0.032
  C  C245  1  0.023100  0.477800  0.344100  1.0  -0.1024
  C  C246  1  0.021000  0.424300  0.393000  1.0  -0.0708
  C  C247  1  0.995600  0.363300  0.361000  1.0  -0.0311
  C  C248  1  0.057300  0.541500  0.378800  1.0  0.7099
  C  C249  1  0.437500  0.095600  0.397500  1.0  0.7335
  C  C250  1  0.356400  0.070700  0.411900  1.0  -0.112
  C  C251  1  0.289900  0.074900  0.351000  1.0  -0.0082
  C  C252  1  0.213800  0.056200  0.364600  1.0  -0.0251
  C  C253  1  0.205800  0.031300  0.437400  1.0  -0.2063
  C  C254  1  0.271300  0.024600  0.497700  1.0  -0.0594
  C  C255  1  0.347200  0.045400  0.484500  1.0  -0.0109
  C  C256  1  0.072700  0.083900  0.492300  1.0  -0.2165
  C  C257  1  0.032100  0.130200  0.441500  1.0  -0.0444
  C  C258  1  0.003100  0.187000  0.471500  1.0  -0.0171
  C  C259  1  0.015100  0.197300  0.552400  1.0  -0.1317
  C  C260  1  0.056100  0.150500  0.602100  1.0  0.0081
  C  C261  1  0.085200  0.093300  0.572800  1.0  -0.0428
  C  C262  1  0.981500  0.258100  0.585800  1.0  0.712
  C  C263  1  0.650500  0.122300  0.291400  1.0  0.7304
  C  C264  1  0.726700  0.107600  0.256600  1.0  -0.106
  C  C265  1  0.796200  0.084500  0.303700  1.0  0.0054
  C  C266  1  0.866000  0.072100  0.272600  1.0  -0.0371
  C  C267  1  0.866200  0.085400  0.193800  1.0  -0.2157
  C  C268  1  0.797900  0.110900  0.146800  1.0  -0.0266
  C  C269  1  0.728500  0.122200  0.178500  1.0  -0.0294
  C  C270  1  0.952200  0.981500  0.141100  1.0  -0.184
  C  C271  1  0.988700  0.943500  0.204100  1.0  -0.0863
  C  C272  1  0.988700  0.876000  0.196500  1.0  -0.0338
  C  C273  1  0.952300  0.846400  0.126800  1.0  -0.1245
  C  C274  1  0.913300  0.885200  0.065500  1.0  -0.0365
  C  C275  1  0.914700  0.953100  0.072500  1.0  -0.0327
  C  C276  1  0.954900  0.772500  0.121800  1.0  0.7102
  S  S277  1  0.454300  0.222360  0.738440  1.0  1.1158
  S  S278  1  0.607460  0.489770  0.955450  1.0  1.1235
  S  S279  1  0.454690  0.430970  0.652490  1.0  1.0675
  S  S280  1  0.045700  0.722360  0.761560  1.0  1.1141
  S  S281  1  0.892540  0.989770  0.544550  1.0  1.1231
  S  S282  1  0.045310  0.930970  0.847510  1.0  1.0659
  S  S283  1  0.545700  0.777640  0.261560  1.0  1.114
  S  S284  1  0.392540  0.510230  0.044550  1.0  1.1234
  S  S285  1  0.545310  0.569030  0.347510  1.0  1.0657
  S  S286  1  0.954300  0.277640  0.238440  1.0  1.1161
  S  S287  1  0.107460  0.010230  0.455450  1.0  1.1236
  S  S288  1  0.954690  0.069030  0.152490  1.0  1.0675
  O  O289  1  0.485900  0.239100  0.158900  1.0  -0.5778
  O  O290  1  0.090900  0.355800  0.746700  1.0  -0.578
  O  O291  1  0.948900  0.397400  0.828300  1.0  -0.6476
  O  O292  1  0.502600  0.757500  0.672800  1.0  -0.6341
  O  O293  1  0.560400  0.908000  0.839700  1.0  -0.634
  O  O294  1  0.844100  0.306600  0.730600  1.0  -0.5837
  O  O295  1  0.590900  0.957500  0.950500  1.0  -0.6033
  O  O296  1  0.448500  0.200700  0.035800  1.0  -0.5931
  O  O297  1  0.785700  0.327200  0.605400  1.0  -0.636
  O  O298  1  0.409800  0.755200  0.564600  1.0  -0.5833
  O  O299  1  0.990400  0.393100  0.957700  1.0  -0.5817
  O  O300  1  0.155500  0.389100  0.864200  1.0  -0.6289
  O  O301  1  0.401100  0.215200  0.663900  1.0  -0.5986
  O  O302  1  0.430600  0.264800  0.797500  1.0  -0.582
  O  O303  1  0.557400  0.504400  0.880900  1.0  -0.67
  O  O304  1  0.616200  0.538300  0.017400  1.0  -0.5877
  O  O305  1  0.524600  0.414900  0.710800  1.0  -0.5784
  O  O306  1  0.444300  0.401500  0.576100  1.0  -0.5787
  O  O307  1  0.014100  0.739100  0.341100  1.0  -0.5765
  O  O308  1  0.409100  0.855800  0.753300  1.0  -0.5769
  O  O309  1  0.551100  0.897400  0.671700  1.0  -0.6499
  O  O310  1  0.997400  0.257500  0.827200  1.0  -0.6311
  O  O311  1  0.939600  0.408000  0.660300  1.0  -0.6341
  O  O312  1  0.655900  0.806600  0.769400  1.0  -0.5831
  O  O313  1  0.909100  0.457500  0.549500  1.0  -0.5986
  O  O314  1  0.051500  0.700700  0.464200  1.0  -0.5929
  O  O315  1  0.714300  0.827200  0.894600  1.0  -0.635
  O  O316  1  0.090200  0.255200  0.935400  1.0  -0.5834
  O  O317  1  0.509600  0.893100  0.542300  1.0  -0.5835
  O  O318  1  0.344500  0.889100  0.635800  1.0  -0.6296
  O  O319  1  0.098900  0.715200  0.836100  1.0  -0.6024
  O  O320  1  0.069400  0.764800  0.702500  1.0  -0.5827
  O  O321  1  0.942600  0.004400  0.619100  1.0  -0.6708
  O  O322  1  0.883800  0.038300  0.482600  1.0  -0.5871
  O  O323  1  0.975400  0.914900  0.789200  1.0  -0.5772
  O  O324  1  0.055700  0.901500  0.923900  1.0  -0.5795
  O  O325  1  0.514100  0.760900  0.841100  1.0  -0.5766
  O  O326  1  0.909100  0.644200  0.253300  1.0  -0.5773
  O  O327  1  0.051100  0.602600  0.171700  1.0  -0.6504
  O  O328  1  0.497400  0.242500  0.327200  1.0  -0.631
  O  O329  1  0.439600  0.092000  0.160300  1.0  -0.6339
  O  O330  1  0.155900  0.693400  0.269400  1.0  -0.5829
  O  O331  1  0.409100  0.042500  0.049500  1.0  -0.5988
  O  O332  1  0.551500  0.799300  0.964200  1.0  -0.5926
  O  O333  1  0.214300  0.672800  0.394600  1.0  -0.6349
  O  O334  1  0.590200  0.244800  0.435400  1.0  -0.5827
  O  O335  1  0.009600  0.606900  0.042300  1.0  -0.583
  O  O336  1  0.844500  0.610900  0.135800  1.0  -0.6299
  O  O337  1  0.598900  0.784800  0.336100  1.0  -0.6022
  O  O338  1  0.569400  0.735200  0.202500  1.0  -0.5829
  O  O339  1  0.442600  0.495600  0.119100  1.0  -0.6693
  O  O340  1  0.383800  0.461700  0.982600  1.0  -0.5871
  O  O341  1  0.475400  0.585100  0.289200  1.0  -0.5772
  O  O342  1  0.555700  0.598500  0.423900  1.0  -0.5792
  O  O343  1  0.985900  0.260900  0.658900  1.0  -0.5776
  O  O344  1  0.590900  0.144200  0.246700  1.0  -0.5777
  O  O345  1  0.448900  0.102600  0.328300  1.0  -0.6479
  O  O346  1  0.002600  0.742500  0.172800  1.0  -0.6343
  O  O347  1  0.060400  0.592000  0.339700  1.0  -0.6334
  O  O348  1  0.344100  0.193400  0.230600  1.0  -0.5838
  O  O349  1  0.090900  0.542500  0.450500  1.0  -0.6035
  O  O350  1  0.948500  0.299300  0.535800  1.0  -0.5921
  O  O351  1  0.285700  0.172800  0.105400  1.0  -0.6363
  O  O352  1  0.909800  0.744800  0.064600  1.0  -0.5828
  O  O353  1  0.490400  0.106900  0.457700  1.0  -0.5815
  O  O354  1  0.655500  0.110900  0.364200  1.0  -0.6292
  O  O355  1  0.901100  0.284800  0.163900  1.0  -0.5983
  O  O356  1  0.930600  0.235200  0.297500  1.0  -0.5821
  O  O357  1  0.057400  0.995600  0.380900  1.0  -0.6696
  O  O358  1  0.116200  0.961700  0.517400  1.0  -0.5874
  O  O359  1  0.024600  0.085100  0.210800  1.0  -0.5783
  O  O360  1  0.944300  0.098500  0.076100  1.0  -0.5787
