# generated using pymatgen
data_CoH8C14SO6
_symmetry_space_group_name_H-M   'P 1'
_cell_length_a   16.70330000
_cell_length_b   20.01950000
_cell_length_c   17.46020000
_cell_angle_alpha   90.00000000
_cell_angle_beta   100.42300000
_cell_angle_gamma   90.00000000
_symmetry_Int_Tables_number   1
_chemical_formula_structural   CoH8C14SO6
_chemical_formula_sum   'Co12 H96 C168 S12 O72'
_cell_volume   5742.20393096
_cell_formula_units_Z   12
loop_
 _symmetry_equiv_pos_site_id
 _symmetry_equiv_pos_as_xyz
  1  'x, y, z'
loop_
 _atom_site_type_symbol
 _atom_site_label
 _atom_site_symmetry_multiplicity
 _atom_site_fract_x
 _atom_site_fract_y
 _atom_site_fract_z
 _atom_site_occupancy
 _atom_site_charge
  Co  Co1  1  0.975830  0.330100  0.748610  1.0  1.0546
  Co  Co2  1  0.876690  0.374500  0.555760  1.0  1.0588
  Co  Co3  1  0.090870  0.349180  0.942620  1.0  0.9547
  Co  Co4  1  0.524170  0.830100  0.751390  1.0  1.0543
  Co  Co5  1  0.623310  0.874500  0.944240  1.0  1.0579
  Co  Co6  1  0.409130  0.849180  0.557380  1.0  0.9536
  Co  Co7  1  0.024170  0.669900  0.251390  1.0  1.0533
  Co  Co8  1  0.123310  0.625500  0.444240  1.0  1.0575
  Co  Co9  1  0.909130  0.650820  0.057380  1.0  0.9549
  Co  Co10  1  0.475830  0.169900  0.248610  1.0  1.0539
  Co  Co11  1  0.376690  0.125500  0.055760  1.0  1.0585
  Co  Co12  1  0.590870  0.150820  0.442620  1.0  0.9532
  H  H13  1  0.997500  0.497700  0.786300  1.0  0.1038
  H  H14  1  0.025000  0.602700  0.835700  1.0  0.1224
  H  H15  1  0.027700  0.668700  0.619800  1.0  0.1174
  H  H16  1  0.007000  0.562900  0.573400  1.0  0.119
  H  H17  1  0.964300  0.753800  0.898000  1.0  0.1009
  H  H18  1  0.836500  0.785200  0.915400  1.0  0.1192
  H  H19  1  0.764600  0.778300  0.685800  1.0  0.0998
  H  H20  1  0.892300  0.748000  0.668200  1.0  0.1146
  H  H21  1  0.996800  0.150800  0.763500  1.0  0.103
  H  H22  1  0.994300  0.038500  0.747800  1.0  0.12
  H  H23  1  0.097500  0.016600  0.968000  1.0  0.119
  H  H24  1  0.102800  0.129900  0.982300  1.0  0.1018
  H  H25  1  0.081000  0.939300  0.693600  1.0  0.0937
  H  H26  1  0.194000  0.917200  0.639200  1.0  0.1133
  H  H27  1  0.311400  0.866200  0.847600  1.0  0.1019
  H  H28  1  0.197700  0.885800  0.901600  1.0  0.1186
  H  H29  1  0.892500  0.465100  0.036900  1.0  0.0984
  H  H30  1  0.763600  0.498000  0.049000  1.0  0.113
  H  H31  1  0.682200  0.427600  0.836200  1.0  0.105
  H  H32  1  0.812000  0.397000  0.823600  1.0  0.1112
  H  H33  1  0.609300  0.435500  0.106100  1.0  0.1067
  H  H34  1  0.561900  0.340900  0.154400  1.0  0.1209
  H  H35  1  0.485600  0.277800  0.938500  1.0  0.1006
  H  H36  1  0.531900  0.373500  0.889500  1.0  0.1199
  H  H37  1  0.502500  0.997700  0.713700  1.0  0.1037
  H  H38  1  0.475000  0.102700  0.664300  1.0  0.122
  H  H39  1  0.472300  0.168700  0.880200  1.0  0.1174
  H  H40  1  0.493000  0.062900  0.926600  1.0  0.1188
  H  H41  1  0.535700  0.253800  0.602000  1.0  0.1001
  H  H42  1  0.663500  0.285200  0.584600  1.0  0.1186
  H  H43  1  0.735400  0.278300  0.814200  1.0  0.1002
  H  H44  1  0.607700  0.248000  0.831800  1.0  0.1137
  H  H45  1  0.503200  0.650800  0.736500  1.0  0.1023
  H  H46  1  0.505700  0.538500  0.752200  1.0  0.12
  H  H47  1  0.402500  0.516600  0.532000  1.0  0.1193
  H  H48  1  0.397200  0.629900  0.517700  1.0  0.102
  H  H49  1  0.419000  0.439300  0.806400  1.0  0.0935
  H  H50  1  0.306000  0.417200  0.860800  1.0  0.1141
  H  H51  1  0.188600  0.366200  0.652400  1.0  0.1015
  H  H52  1  0.302300  0.385800  0.598400  1.0  0.1195
  H  H53  1  0.607500  0.965100  0.463100  1.0  0.0982
  H  H54  1  0.736400  0.998000  0.451000  1.0  0.1127
  H  H55  1  0.817800  0.927600  0.663800  1.0  0.1062
  H  H56  1  0.688000  0.897000  0.676400  1.0  0.1116
  H  H57  1  0.890700  0.935500  0.393900  1.0  0.1068
  H  H58  1  0.938100  0.840900  0.345600  1.0  0.1213
  H  H59  1  0.014400  0.777800  0.561500  1.0  0.101
  H  H60  1  0.968100  0.873500  0.610500  1.0  0.1193
  H  H61  1  0.002500  0.502300  0.213700  1.0  0.1036
  H  H62  1  0.975000  0.397300  0.164300  1.0  0.1225
  H  H63  1  0.972300  0.331300  0.380200  1.0  0.1177
  H  H64  1  0.993000  0.437100  0.426600  1.0  0.1188
  H  H65  1  0.035700  0.246200  0.102000  1.0  0.1001
  H  H66  1  0.163500  0.214800  0.084600  1.0  0.1185
  H  H67  1  0.235400  0.221700  0.314200  1.0  0.1001
  H  H68  1  0.107700  0.252000  0.331800  1.0  0.1139
  H  H69  1  0.003200  0.849200  0.236500  1.0  0.1021
  H  H70  1  0.005700  0.961500  0.252200  1.0  0.12
  H  H71  1  0.902500  0.983400  0.032000  1.0  0.1191
  H  H72  1  0.897200  0.870100  0.017700  1.0  0.1024
  H  H73  1  0.919000  0.060700  0.306400  1.0  0.0937
  H  H74  1  0.806000  0.082800  0.360800  1.0  0.1139
  H  H75  1  0.688600  0.133800  0.152400  1.0  0.1016
  H  H76  1  0.802300  0.114200  0.098400  1.0  0.1196
  H  H77  1  0.107500  0.534900  0.963100  1.0  0.0981
  H  H78  1  0.236400  0.502000  0.951000  1.0  0.1126
  H  H79  1  0.317800  0.572400  0.163800  1.0  0.106
  H  H80  1  0.188000  0.603000  0.176400  1.0  0.1115
  H  H81  1  0.390700  0.564500  0.893900  1.0  0.1071
  H  H82  1  0.438100  0.659100  0.845600  1.0  0.121
  H  H83  1  0.514400  0.722200  0.061500  1.0  0.1007
  H  H84  1  0.468100  0.626500  0.110500  1.0  0.1191
  H  H85  1  0.497500  0.002300  0.286300  1.0  0.1035
  H  H86  1  0.525000  0.897300  0.335700  1.0  0.1227
  H  H87  1  0.527700  0.831300  0.119800  1.0  0.1172
  H  H88  1  0.507000  0.937100  0.073400  1.0  0.1189
  H  H89  1  0.464300  0.746200  0.398000  1.0  0.1006
  H  H90  1  0.336500  0.714800  0.415400  1.0  0.1192
  H  H91  1  0.264600  0.721700  0.185800  1.0  0.0997
  H  H92  1  0.392300  0.752000  0.168200  1.0  0.1141
  H  H93  1  0.496800  0.349200  0.263500  1.0  0.102
  H  H94  1  0.494300  0.461500  0.247800  1.0  0.1195
  H  H95  1  0.597500  0.483400  0.468000  1.0  0.1188
  H  H96  1  0.602800  0.370100  0.482300  1.0  0.1017
  H  H97  1  0.581000  0.560700  0.193600  1.0  0.0934
  H  H98  1  0.694000  0.582800  0.139200  1.0  0.1133
  H  H99  1  0.811400  0.633800  0.347600  1.0  0.1017
  H  H100  1  0.697700  0.614200  0.401600  1.0  0.1186
  H  H101  1  0.392500  0.034900  0.536900  1.0  0.0985
  H  H102  1  0.263600  0.002000  0.549000  1.0  0.1131
  H  H103  1  0.182200  0.072400  0.336200  1.0  0.1054
  H  H104  1  0.312000  0.103000  0.323600  1.0  0.1108
  H  H105  1  0.109300  0.064500  0.606100  1.0  0.1075
  H  H106  1  0.061900  0.159100  0.654400  1.0  0.1208
  H  H107  1  0.985600  0.222200  0.438500  1.0  0.1012
  H  H108  1  0.031900  0.126500  0.389500  1.0  0.1202
  C  C109  1  0.973000  0.457100  0.641700  1.0  0.6771
  C  C110  1  0.997900  0.521300  0.674800  1.0  -0.0967
  C  C111  1  0.004100  0.532900  0.753300  1.0  -0.0506
  C  C112  1  0.019400  0.594500  0.782600  1.0  -0.0485
  C  C113  1  0.026600  0.644400  0.731300  1.0  -0.078
  C  C114  1  0.021900  0.633500  0.653100  1.0  -0.0704
  C  C115  1  0.008700  0.571600  0.626000  1.0  -0.085
  C  C116  1  0.939700  0.747700  0.780700  1.0  -0.087
  C  C117  1  0.923000  0.758900  0.854900  1.0  -0.0237
  C  C118  1  0.846900  0.777300  0.865700  1.0  -0.0822
  C  C119  1  0.787200  0.784000  0.802600  1.0  -0.1468
  C  C120  1  0.805600  0.773100  0.729100  1.0  -0.0295
  C  C121  1  0.881500  0.755000  0.718000  1.0  -0.1486
  C  C122  1  0.704100  0.804600  0.815700  1.0  0.7484
  C  C123  1  0.050500  0.223000  0.882300  1.0  0.7499
  C  C124  1  0.050200  0.151400  0.875100  1.0  -0.0998
  C  C125  1  0.017900  0.123400  0.805300  1.0  -0.0134
  C  C126  1  0.016000  0.057400  0.795700  1.0  -0.1463
  C  C127  1  0.046300  0.018800  0.857300  1.0  -0.0806
  C  C128  1  0.077600  0.044300  0.926200  1.0  -0.0985
  C  C129  1  0.080000  0.111400  0.934500  1.0  -0.063
  C  C130  1  0.129500  0.915000  0.803000  1.0  -0.0837
  C  C131  1  0.128400  0.924200  0.725100  1.0  -0.0464
  C  C132  1  0.196300  0.911600  0.692400  1.0  -0.0688
  C  C133  1  0.266000  0.891100  0.737900  1.0  -0.1146
  C  C134  1  0.264300  0.881400  0.815600  1.0  -0.0432
  C  C135  1  0.196400  0.893100  0.848800  1.0  -0.1334
  C  C136  1  0.340500  0.877800  0.703500  1.0  0.748
  C  C137  1  0.946600  0.402200  0.922500  1.0  0.6836
  C  C138  1  0.863900  0.426900  0.928400  1.0  -0.0998
  C  C139  1  0.849300  0.457600  0.996200  1.0  -0.0379
  C  C140  1  0.772700  0.477000  0.003900  1.0  -0.0112
  C  C141  1  0.711200  0.464900  0.944900  1.0  -0.0954
  C  C142  1  0.725400  0.435100  0.877000  1.0  -0.0537
  C  C143  1  0.802600  0.416600  0.869500  1.0  -0.071
  C  C144  1  0.575200  0.412700  0.993400  1.0  -0.0968
  C  C145  1  0.583800  0.403000  0.072100  1.0  -0.0529
  C  C146  1  0.555800  0.347000  0.100900  1.0  -0.0205
  C  C147  1  0.519200  0.300300  0.051800  1.0  -0.1482
  C  C148  1  0.510800  0.310400  0.972400  1.0  -0.0386
  C  C149  1  0.538300  0.366800  0.943000  1.0  -0.07
  C  C150  1  0.487200  0.239400  0.084200  1.0  0.7179
  C  C151  1  0.527000  0.957100  0.858300  1.0  0.6785
  C  C152  1  0.502100  0.021300  0.825200  1.0  -0.0964
  C  C153  1  0.495900  0.032900  0.746700  1.0  -0.0495
  C  C154  1  0.480600  0.094500  0.717400  1.0  -0.0505
  C  C155  1  0.473400  0.144400  0.768700  1.0  -0.0778
  C  C156  1  0.478100  0.133500  0.846900  1.0  -0.0696
  C  C157  1  0.491300  0.071600  0.874000  1.0  -0.0853
  C  C158  1  0.560300  0.247700  0.719300  1.0  -0.087
  C  C159  1  0.577000  0.258900  0.645100  1.0  -0.0242
  C  C160  1  0.653100  0.277300  0.634300  1.0  -0.0812
  C  C161  1  0.712800  0.284000  0.697400  1.0  -0.1439
  C  C162  1  0.694400  0.273100  0.770900  1.0  -0.0305
  C  C163  1  0.618500  0.255000  0.782000  1.0  -0.1509
  C  C164  1  0.795900  0.304600  0.684300  1.0  0.747
  C  C165  1  0.449500  0.723000  0.617700  1.0  0.7495
  C  C166  1  0.449800  0.651400  0.624900  1.0  -0.1002
  C  C167  1  0.482100  0.623400  0.694700  1.0  -0.0148
  C  C168  1  0.484000  0.557400  0.704300  1.0  -0.1455
  C  C169  1  0.453700  0.518800  0.642700  1.0  -0.0816
  C  C170  1  0.422400  0.544300  0.573800  1.0  -0.0963
  C  C171  1  0.420000  0.611400  0.565500  1.0  -0.063
  C  C172  1  0.370500  0.415000  0.697000  1.0  -0.0858
  C  C173  1  0.371600  0.424200  0.774900  1.0  -0.0476
  C  C174  1  0.303700  0.411600  0.807600  1.0  -0.0683
  C  C175  1  0.234000  0.391100  0.762100  1.0  -0.1156
  C  C176  1  0.235700  0.381400  0.684400  1.0  -0.0427
  C  C177  1  0.303600  0.393100  0.651200  1.0  -0.1322
  C  C178  1  0.159500  0.377800  0.796500  1.0  0.7486
  C  C179  1  0.553400  0.902200  0.577500  1.0  0.6826
  C  C180  1  0.636100  0.926900  0.571600  1.0  -0.1027
  C  C181  1  0.650700  0.957600  0.503800  1.0  -0.0373
  C  C182  1  0.727300  0.977000  0.496100  1.0  -0.0102
  C  C183  1  0.788800  0.964900  0.555100  1.0  -0.0949
  C  C184  1  0.774600  0.935100  0.623000  1.0  -0.053
  C  C185  1  0.697400  0.916600  0.630500  1.0  -0.0725
  C  C186  1  0.924800  0.912700  0.506600  1.0  -0.0951
  C  C187  1  0.916200  0.903000  0.427900  1.0  -0.0525
  C  C188  1  0.944200  0.847000  0.399100  1.0  -0.0266
  C  C189  1  0.980800  0.800300  0.448200  1.0  -0.1481
  C  C190  1  0.989200  0.810400  0.527600  1.0  -0.0387
  C  C191  1  0.961700  0.866800  0.557000  1.0  -0.0674
  C  C192  1  0.012800  0.739400  0.415800  1.0  0.7165
  C  C193  1  0.027000  0.542900  0.358300  1.0  0.6786
  C  C194  1  0.002100  0.478700  0.325200  1.0  -0.0964
  C  C195  1  0.995900  0.467100  0.246700  1.0  -0.0492
  C  C196  1  0.980600  0.405500  0.217400  1.0  -0.0513
  C  C197  1  0.973400  0.355600  0.268700  1.0  -0.0782
  C  C198  1  0.978100  0.366500  0.346900  1.0  -0.0699
  C  C199  1  0.991300  0.428400  0.374000  1.0  -0.0851
  C  C200  1  0.060300  0.252300  0.219300  1.0  -0.0862
  C  C201  1  0.077000  0.241100  0.145100  1.0  -0.0238
  C  C202  1  0.153100  0.222700  0.134300  1.0  -0.081
  C  C203  1  0.212800  0.216000  0.197400  1.0  -0.1439
  C  C204  1  0.194400  0.226900  0.270900  1.0  -0.0305
  C  C205  1  0.118500  0.245000  0.282000  1.0  -0.1512
  C  C206  1  0.295900  0.195400  0.184300  1.0  0.747
  C  C207  1  0.949500  0.777000  0.117700  1.0  0.7495
  C  C208  1  0.949800  0.848600  0.124900  1.0  -0.1002
  C  C209  1  0.982100  0.876600  0.194700  1.0  -0.0139
  C  C210  1  0.984000  0.942600  0.204300  1.0  -0.145
  C  C211  1  0.953700  0.981200  0.142700  1.0  -0.0793
  C  C212  1  0.922400  0.955700  0.073800  1.0  -0.097
  C  C213  1  0.920000  0.888600  0.065500  1.0  -0.0636
  C  C214  1  0.870500  0.085000  0.197000  1.0  -0.0857
  C  C215  1  0.871600  0.075800  0.274900  1.0  -0.0481
  C  C216  1  0.803700  0.088400  0.307600  1.0  -0.069
  C  C217  1  0.734000  0.108900  0.262100  1.0  -0.1154
  C  C218  1  0.735700  0.118600  0.184400  1.0  -0.0438
  C  C219  1  0.803600  0.106900  0.151200  1.0  -0.133
  C  C220  1  0.659500  0.122200  0.296500  1.0  0.7484
  C  C221  1  0.053400  0.597800  0.077500  1.0  0.6828
  C  C222  1  0.136100  0.573100  0.071600  1.0  -0.1026
  C  C223  1  0.150700  0.542400  0.003800  1.0  -0.0373
  C  C224  1  0.227300  0.523000  0.996100  1.0  -0.0111
  C  C225  1  0.288800  0.535100  0.055100  1.0  -0.0955
  C  C226  1  0.274600  0.564900  0.123000  1.0  -0.0525
  C  C227  1  0.197400  0.583400  0.130500  1.0  -0.0721
  C  C228  1  0.424800  0.587300  0.006600  1.0  -0.095
  C  C229  1  0.416200  0.597000  0.927900  1.0  -0.0533
  C  C230  1  0.444200  0.653000  0.899100  1.0  -0.0261
  C  C231  1  0.480800  0.699700  0.948200  1.0  -0.1474
  C  C232  1  0.489200  0.689600  0.027600  1.0  -0.0388
  C  C233  1  0.461700  0.633200  0.057000  1.0  -0.0671
  C  C234  1  0.512800  0.760600  0.915800  1.0  0.7167
  C  C235  1  0.473000  0.042900  0.141700  1.0  0.6772
  C  C236  1  0.497900  0.978700  0.174800  1.0  -0.0962
  C  C237  1  0.504100  0.967100  0.253300  1.0  -0.0506
  C  C238  1  0.519400  0.905500  0.282600  1.0  -0.0489
  C  C239  1  0.526600  0.855600  0.231300  1.0  -0.0781
  C  C240  1  0.521900  0.866500  0.153100  1.0  -0.0707
  C  C241  1  0.508700  0.928400  0.126000  1.0  -0.0846
  C  C242  1  0.439700  0.752300  0.280700  1.0  -0.0873
  C  C243  1  0.423000  0.741100  0.354900  1.0  -0.024
  C  C244  1  0.346900  0.722700  0.365700  1.0  -0.0821
  C  C245  1  0.287200  0.716000  0.302600  1.0  -0.1451
  C  C246  1  0.305600  0.726900  0.229100  1.0  -0.0291
  C  C247  1  0.381500  0.745000  0.218000  1.0  -0.1483
  C  C248  1  0.204100  0.695400  0.315700  1.0  0.7482
  C  C249  1  0.550500  0.277000  0.382300  1.0  0.7498
  C  C250  1  0.550200  0.348600  0.375100  1.0  -0.0997
  C  C251  1  0.517900  0.376600  0.305300  1.0  -0.0129
  C  C252  1  0.516000  0.442600  0.295700  1.0  -0.146
  C  C253  1  0.546300  0.481200  0.357300  1.0  -0.0786
  C  C254  1  0.577600  0.455700  0.426200  1.0  -0.0988
  C  C255  1  0.580000  0.388600  0.434500  1.0  -0.0633
  C  C256  1  0.629500  0.585000  0.303000  1.0  -0.0836
  C  C257  1  0.628400  0.575800  0.225100  1.0  -0.0467
  C  C258  1  0.696300  0.588400  0.192400  1.0  -0.0692
  C  C259  1  0.766000  0.608900  0.237900  1.0  -0.1147
  C  C260  1  0.764300  0.618600  0.315600  1.0  -0.0436
  C  C261  1  0.696400  0.606900  0.348800  1.0  -0.1338
  C  C262  1  0.840500  0.622200  0.203500  1.0  0.7479
  C  C263  1  0.446600  0.097800  0.422500  1.0  0.6836
  C  C264  1  0.363900  0.073100  0.428400  1.0  -0.0998
  C  C265  1  0.349300  0.042400  0.496200  1.0  -0.0379
  C  C266  1  0.272700  0.023000  0.503900  1.0  -0.0112
  C  C267  1  0.211200  0.035100  0.444900  1.0  -0.0964
  C  C268  1  0.225400  0.064900  0.377000  1.0  -0.0534
  C  C269  1  0.302600  0.083400  0.369500  1.0  -0.071
  C  C270  1  0.075200  0.087300  0.493400  1.0  -0.0965
  C  C271  1  0.083800  0.097000  0.572100  1.0  -0.0538
  C  C272  1  0.055800  0.153000  0.600900  1.0  -0.0211
  C  C273  1  0.019200  0.199700  0.551800  1.0  -0.1469
  C  C274  1  0.010800  0.189600  0.472400  1.0  -0.038
  C  C275  1  0.038300  0.133200  0.443000  1.0  -0.0703
  C  C276  1  0.987200  0.260600  0.584200  1.0  0.7177
  S  S277  1  0.038060  0.724950  0.766860  1.0  1.1468
  S  S278  1  0.042080  0.933090  0.845080  1.0  1.1678
  S  S279  1  0.611280  0.484690  0.956870  1.0  1.1487
  S  S280  1  0.461940  0.224950  0.733140  1.0  1.1476
  S  S281  1  0.457920  0.433090  0.654920  1.0  1.1664
  S  S282  1  0.888720  0.984690  0.543130  1.0  1.1489
  S  S283  1  0.961940  0.275050  0.233140  1.0  1.1478
  S  S284  1  0.957920  0.066910  0.154920  1.0  1.1663
  S  S285  1  0.388720  0.515310  0.043130  1.0  1.1486
  S  S286  1  0.538060  0.775050  0.266860  1.0  1.1464
  S  S287  1  0.542080  0.566910  0.345080  1.0  1.1672
  S  S288  1  0.111280  0.015310  0.456870  1.0  1.148
  O  O289  1  0.015200  0.254600  0.828300  1.0  -0.6659
  O  O290  1  0.943300  0.415350  0.681000  1.0  -0.6484
  O  O291  1  0.494000  0.234900  0.155800  1.0  -0.6204
  O  O292  1  0.401800  0.862100  0.747600  1.0  -0.6046
  O  O293  1  0.649700  0.804940  0.758700  1.0  -0.5974
  O  O294  1  0.964900  0.386400  0.859100  1.0  -0.6845
  O  O295  1  0.454400  0.199500  0.035500  1.0  -0.5766
  O  O296  1  0.696000  0.819600  0.883700  1.0  -0.6686
  O  O297  1  0.975700  0.447900  0.570300  1.0  -0.6011
  O  O298  1  0.086400  0.248680  0.943200  1.0  -0.5823
  O  O299  1  0.335500  0.883000  0.631400  1.0  -0.6147
  O  O300  1  0.995600  0.397600  0.983600  1.0  -0.5712
  O  O301  1  0.087000  0.723500  0.841100  1.0  -0.557
  O  O302  1  0.061400  0.764140  0.705900  1.0  -0.5405
  O  O303  1  0.973200  0.918600  0.789000  1.0  -0.5645
  O  O304  1  0.050100  0.904200  0.920400  1.0  -0.5406
  O  O305  1  0.614100  0.532950  0.016400  1.0  -0.5541
  O  O306  1  0.567000  0.496770  0.882300  1.0  -0.5681
  O  O307  1  0.484800  0.754600  0.671700  1.0  -0.6674
  O  O308  1  0.556700  0.915350  0.819000  1.0  -0.6478
  O  O309  1  0.006000  0.734900  0.344200  1.0  -0.6216
  O  O310  1  0.098200  0.362100  0.752400  1.0  -0.6045
  O  O311  1  0.850300  0.304940  0.741300  1.0  -0.6005
  O  O312  1  0.535100  0.886400  0.640900  1.0  -0.6837
  O  O313  1  0.045600  0.699500  0.464500  1.0  -0.5749
  O  O314  1  0.804000  0.319600  0.616300  1.0  -0.6693
  O  O315  1  0.524300  0.947900  0.929700  1.0  -0.601
  O  O316  1  0.413600  0.748680  0.556800  1.0  -0.5806
  O  O317  1  0.164500  0.383000  0.868600  1.0  -0.6143
  O  O318  1  0.504400  0.897600  0.516400  1.0  -0.5705
  O  O319  1  0.413000  0.223500  0.658900  1.0  -0.5545
  O  O320  1  0.438600  0.264140  0.794100  1.0  -0.5401
  O  O321  1  0.526800  0.418600  0.711000  1.0  -0.5671
  O  O322  1  0.449900  0.404200  0.579600  1.0  -0.5379
  O  O323  1  0.885900  0.032950  0.483600  1.0  -0.5551
  O  O324  1  0.933000  0.996770  0.617700  1.0  -0.5686
  O  O325  1  0.984800  0.745400  0.171700  1.0  -0.6673
  O  O326  1  0.056700  0.584650  0.319000  1.0  -0.6478
  O  O327  1  0.506000  0.765100  0.844200  1.0  -0.6219
  O  O328  1  0.598200  0.137900  0.252400  1.0  -0.6044
  O  O329  1  0.350300  0.195060  0.241300  1.0  -0.5996
  O  O330  1  0.035100  0.613600  0.140900  1.0  -0.6842
  O  O331  1  0.545600  0.800500  0.964500  1.0  -0.5754
  O  O332  1  0.304000  0.180400  0.116300  1.0  -0.6694
  O  O333  1  0.024300  0.552100  0.429700  1.0  -0.6014
  O  O334  1  0.913600  0.751320  0.056800  1.0  -0.5812
  O  O335  1  0.664500  0.117000  0.368600  1.0  -0.6151
  O  O336  1  0.004400  0.602400  0.016400  1.0  -0.5706
  O  O337  1  0.913000  0.276500  0.158900  1.0  -0.5542
  O  O338  1  0.938600  0.235860  0.294100  1.0  -0.5397
  O  O339  1  0.026800  0.081400  0.211000  1.0  -0.5667
  O  O340  1  0.949900  0.095800  0.079600  1.0  -0.5381
  O  O341  1  0.385900  0.467050  0.983600  1.0  -0.5542
  O  O342  1  0.433000  0.503230  0.117700  1.0  -0.5679
  O  O343  1  0.515200  0.245400  0.328300  1.0  -0.6649
  O  O344  1  0.443300  0.084650  0.181000  1.0  -0.6483
  O  O345  1  0.994000  0.265100  0.655800  1.0  -0.6206
  O  O346  1  0.901800  0.637900  0.247600  1.0  -0.6054
  O  O347  1  0.149700  0.695060  0.258700  1.0  -0.5985
  O  O348  1  0.464900  0.113600  0.359100  1.0  -0.6844
  O  O349  1  0.954400  0.300500  0.535500  1.0  -0.5762
  O  O350  1  0.196000  0.680400  0.383700  1.0  -0.6686
  O  O351  1  0.475700  0.052100  0.070300  1.0  -0.6012
  O  O352  1  0.586400  0.251320  0.443200  1.0  -0.5825
  O  O353  1  0.835500  0.617000  0.131400  1.0  -0.6152
  O  O354  1  0.495600  0.102400  0.483600  1.0  -0.5715
  O  O355  1  0.587000  0.776500  0.341100  1.0  -0.5563
  O  O356  1  0.561400  0.735860  0.205900  1.0  -0.54
  O  O357  1  0.473200  0.581400  0.289000  1.0  -0.5644
  O  O358  1  0.550100  0.595800  0.420400  1.0  -0.5405
  O  O359  1  0.114100  0.967050  0.516400  1.0  -0.5538
  O  O360  1  0.067000  0.003230  0.382300  1.0  -0.5683
