# generated using pymatgen
data_Cd2H38C38N5O8
_symmetry_space_group_name_H-M   'P 1'
_cell_length_a   15.86350000
_cell_length_b   15.86350000
_cell_length_c   20.06000000
_cell_angle_alpha   84.22630000
_cell_angle_beta   84.22630000
_cell_angle_gamma   71.39960000
_symmetry_Int_Tables_number   1
_chemical_formula_structural   Cd2H38C38N5O8
_chemical_formula_sum   'Cd8 H152 C152 N20 O32'
_cell_volume   4747.57720467
_cell_formula_units_Z   4
loop_
 _symmetry_equiv_pos_site_id
 _symmetry_equiv_pos_as_xyz
  1  'x, y, z'
loop_
 _atom_site_type_symbol
 _atom_site_label
 _atom_site_symmetry_multiplicity
 _atom_site_fract_x
 _atom_site_fract_y
 _atom_site_fract_z
 _atom_site_occupancy
 _atom_site_charge
  Cd  Cd1  1  0.720850  0.678370  0.811640  1.0  0.9449
  Cd  Cd2  1  0.827580  0.823520  0.731180  1.0  1.0896
  Cd  Cd3  1  0.321630  0.279150  0.688360  1.0  0.9463
  Cd  Cd4  1  0.176480  0.172420  0.768820  1.0  1.0884
  Cd  Cd5  1  0.279150  0.321630  0.188360  1.0  0.9471
  Cd  Cd6  1  0.172420  0.176480  0.268820  1.0  1.0897
  Cd  Cd7  1  0.678370  0.720850  0.311640  1.0  0.9462
  Cd  Cd8  1  0.823520  0.827580  0.231180  1.0  1.0902
  H  H9  1  0.966600  0.830200  0.893500  1.0  0.0808
  H  H10  1  0.056900  0.751300  0.897000  1.0  0.0565
  H  H11  1  0.065800  0.789600  0.997900  1.0  0.0416
  H  H12  1  0.967100  0.854700  0.999600  1.0  0.0812
  H  H13  1  0.015100  0.661900  0.040800  1.0  0.1259
  H  H14  1  0.826200  0.687800  0.065400  1.0  0.1116
  H  H15  1  0.799100  0.683100  0.993200  1.0  0.0952
  H  H16  1  0.886100  0.613900  0.019600  1.0  0.0996
  H  H17  1  0.835400  0.855000  0.938700  1.0  0.1112
  H  H18  1  0.769100  0.813700  0.982900  1.0  0.1298
  H  H19  1  0.823000  0.863400  0.016500  1.0  0.1045
  H  H20  1  0.064600  0.631200  0.887100  1.0  0.0969
  H  H21  1  0.031200  0.590400  0.955200  1.0  0.1047
  H  H22  1  0.990100  0.585500  0.888300  1.0  0.1016
  H  H23  1  0.974600  0.634800  0.621900  1.0  0.0799
  H  H24  1  0.938600  0.597600  0.564800  1.0  0.0789
  H  H25  1  0.072700  0.503500  0.545000  1.0  0.0736
  H  H26  1  0.107500  0.536900  0.605300  1.0  0.068
  H  H27  1  0.032500  0.389700  0.614300  1.0  0.1149
  H  H28  1  0.894100  0.412500  0.735800  1.0  0.1159
  H  H29  1  0.987200  0.340200  0.723900  1.0  0.109
  H  H30  1  0.968400  0.399000  0.785300  1.0  0.1239
  H  H31  1  0.849600  0.514400  0.584100  1.0  0.1061
  H  H32  1  0.903400  0.425600  0.622700  1.0  0.1106
  H  H33  1  0.811500  0.484100  0.654300  1.0  0.1125
  H  H34  1  0.549300  0.754100  0.591700  1.0  0.1222
  H  H35  1  0.662900  0.725700  0.659100  1.0  0.0688
  H  H36  1  0.530700  0.652900  0.814300  1.0  0.0943
  H  H37  1  0.403500  0.687500  0.751400  1.0  0.0966
  H  H38  1  0.101700  0.807300  0.547400  1.0  0.1163
  H  H39  1  0.955200  0.828600  0.584300  1.0  0.086
  H  H40  1  0.021000  0.767000  0.768900  1.0  0.0765
  H  H41  1  0.172000  0.737000  0.733900  1.0  0.11
  H  H42  1  0.363400  0.807200  0.434300  1.0  0.1332
  H  H43  1  0.474600  0.798400  0.350700  1.0  0.0898
  H  H44  1  0.643700  0.607300  0.450900  1.0  0.0861
  H  H45  1  0.538800  0.605800  0.536000  1.0  0.1231
  H  H46  1  0.263200  0.747800  0.514800  1.0  0.3312
  H  H47  1  0.169800  0.033400  0.606500  1.0  0.0824
  H  H48  1  0.248700  0.943100  0.603000  1.0  0.0604
  H  H49  1  0.210400  0.934200  0.502100  1.0  0.0421
  H  H50  1  0.145300  0.032900  0.500400  1.0  0.0834
  H  H51  1  0.338100  0.984900  0.459200  1.0  0.1272
  H  H52  1  0.312200  0.173800  0.434600  1.0  0.1108
  H  H53  1  0.316900  0.200900  0.506800  1.0  0.0958
  H  H54  1  0.386100  0.113900  0.480400  1.0  0.1029
  H  H55  1  0.145000  0.164600  0.561300  1.0  0.1108
  H  H56  1  0.186300  0.230900  0.517100  1.0  0.1264
  H  H57  1  0.136600  0.177000  0.483500  1.0  0.1037
  H  H58  1  0.368800  0.935400  0.612900  1.0  0.1024
  H  H59  1  0.409600  0.968800  0.544800  1.0  0.1061
  H  H60  1  0.414500  0.009900  0.611700  1.0  0.1014
  H  H61  1  0.365200  0.025400  0.878100  1.0  0.0753
  H  H62  1  0.402400  0.061400  0.935200  1.0  0.0793
  H  H63  1  0.496500  0.927300  0.955000  1.0  0.072
  H  H64  1  0.463100  0.892500  0.894700  1.0  0.0752
  H  H65  1  0.610300  0.967500  0.885700  1.0  0.122
  H  H66  1  0.587500  0.105900  0.764200  1.0  0.1147
  H  H67  1  0.659800  0.012800  0.776100  1.0  0.1085
  H  H68  1  0.601000  0.031600  0.714700  1.0  0.1242
  H  H69  1  0.485600  0.150400  0.915900  1.0  0.105
  H  H70  1  0.574400  0.096600  0.877300  1.0  0.1114
  H  H71  1  0.515900  0.188500  0.845700  1.0  0.1102
  H  H72  1  0.245900  0.450700  0.908300  1.0  0.1229
  H  H73  1  0.274300  0.337100  0.840900  1.0  0.0674
  H  H74  1  0.347100  0.469300  0.685700  1.0  0.0931
  H  H75  1  0.312500  0.596500  0.748600  1.0  0.0981
  H  H76  1  0.192700  0.898300  0.952600  1.0  0.1155
  H  H77  1  0.171400  0.044800  0.915700  1.0  0.0878
  H  H78  1  0.233000  0.979000  0.731100  1.0  0.0765
  H  H79  1  0.263000  0.828000  0.766100  1.0  0.1099
  H  H80  1  0.192800  0.636600  0.065700  1.0  0.1333
  H  H81  1  0.201600  0.525400  0.149300  1.0  0.0897
  H  H82  1  0.392700  0.356300  0.049100  1.0  0.0868
  H  H83  1  0.394200  0.461200  0.964000  1.0  0.1232
  H  H84  1  0.252200  0.736800  0.985200  1.0  0.3322
  H  H85  1  0.033400  0.169800  0.106500  1.0  0.0812
  H  H86  1  0.943100  0.248700  0.103000  1.0  0.0563
  H  H87  1  0.934200  0.210400  0.002100  1.0  0.0423
  H  H88  1  0.032900  0.145300  0.000400  1.0  0.0808
  H  H89  1  0.984900  0.338100  0.959200  1.0  0.1277
  H  H90  1  0.173800  0.312200  0.934600  1.0  0.1113
  H  H91  1  0.200900  0.316900  0.006800  1.0  0.0959
  H  H92  1  0.113900  0.386100  0.980400  1.0  0.0987
  H  H93  1  0.164600  0.145000  0.061300  1.0  0.1117
  H  H94  1  0.230900  0.186300  0.017100  1.0  0.1309
  H  H95  1  0.177000  0.136600  0.983500  1.0  0.1051
  H  H96  1  0.935400  0.368800  0.112900  1.0  0.099
  H  H97  1  0.968800  0.409600  0.044800  1.0  0.1048
  H  H98  1  0.009900  0.414500  0.111700  1.0  0.1015
  H  H99  1  0.025400  0.365200  0.378100  1.0  0.0803
  H  H100  1  0.061400  0.402400  0.435200  1.0  0.0804
  H  H101  1  0.927300  0.496500  0.455000  1.0  0.0716
  H  H102  1  0.892500  0.463100  0.394700  1.0  0.0689
  H  H103  1  0.967500  0.610300  0.385700  1.0  0.1193
  H  H104  1  0.105900  0.587500  0.264200  1.0  0.1148
  H  H105  1  0.012800  0.659800  0.276100  1.0  0.1092
  H  H106  1  0.031600  0.601000  0.214700  1.0  0.1231
  H  H107  1  0.150400  0.485600  0.415900  1.0  0.1062
  H  H108  1  0.096600  0.574400  0.377300  1.0  0.1106
  H  H109  1  0.188500  0.515900  0.345700  1.0  0.112
  H  H110  1  0.450700  0.245900  0.408300  1.0  0.1223
  H  H111  1  0.337100  0.274300  0.340900  1.0  0.067
  H  H112  1  0.469300  0.347100  0.185700  1.0  0.0932
  H  H113  1  0.596500  0.312500  0.248600  1.0  0.0961
  H  H114  1  0.898300  0.192700  0.452600  1.0  0.1157
  H  H115  1  0.044800  0.171400  0.415700  1.0  0.0861
  H  H116  1  0.979000  0.233000  0.231100  1.0  0.0765
  H  H117  1  0.828000  0.263000  0.266100  1.0  0.1098
  H  H118  1  0.636600  0.192800  0.565700  1.0  0.1334
  H  H119  1  0.525400  0.201600  0.649300  1.0  0.0896
  H  H120  1  0.356300  0.392700  0.549100  1.0  0.0862
  H  H121  1  0.461200  0.394200  0.464000  1.0  0.1237
  H  H122  1  0.736800  0.252200  0.485200  1.0  0.3306
  H  H123  1  0.830200  0.966600  0.393500  1.0  0.082
  H  H124  1  0.751300  0.056900  0.397000  1.0  0.0599
  H  H125  1  0.789600  0.065800  0.497900  1.0  0.0449
  H  H126  1  0.854700  0.967100  0.499600  1.0  0.0846
  H  H127  1  0.661900  0.015100  0.540800  1.0  0.1264
  H  H128  1  0.687800  0.826200  0.565400  1.0  0.1116
  H  H129  1  0.683100  0.799100  0.493200  1.0  0.097
  H  H130  1  0.613900  0.886100  0.519600  1.0  0.1017
  H  H131  1  0.855000  0.835400  0.438700  1.0  0.1114
  H  H132  1  0.813700  0.769100  0.482900  1.0  0.1268
  H  H133  1  0.863400  0.823000  0.516500  1.0  0.1045
  H  H134  1  0.631200  0.064600  0.387100  1.0  0.1015
  H  H135  1  0.590400  0.031200  0.455200  1.0  0.1038
  H  H136  1  0.585500  0.990100  0.388300  1.0  0.101
  H  H137  1  0.634800  0.974600  0.121900  1.0  0.0753
  H  H138  1  0.597600  0.938600  0.064800  1.0  0.0783
  H  H139  1  0.503500  0.072700  0.045000  1.0  0.0725
  H  H140  1  0.536900  0.107500  0.105300  1.0  0.0745
  H  H141  1  0.389700  0.032500  0.114300  1.0  0.1205
  H  H142  1  0.412500  0.894100  0.235800  1.0  0.118
  H  H143  1  0.340200  0.987200  0.223900  1.0  0.1091
  H  H144  1  0.399000  0.968400  0.285300  1.0  0.1244
  H  H145  1  0.514400  0.849600  0.084100  1.0  0.1052
  H  H146  1  0.425600  0.903400  0.122700  1.0  0.1106
  H  H147  1  0.484100  0.811500  0.154300  1.0  0.1117
  H  H148  1  0.754100  0.549300  0.091700  1.0  0.123
  H  H149  1  0.725700  0.662900  0.159100  1.0  0.0681
  H  H150  1  0.652900  0.530700  0.314300  1.0  0.094
  H  H151  1  0.687500  0.403500  0.251400  1.0  0.0979
  H  H152  1  0.807300  0.101700  0.047400  1.0  0.1165
  H  H153  1  0.828600  0.955200  0.084300  1.0  0.0874
  H  H154  1  0.767000  0.021000  0.268900  1.0  0.0767
  H  H155  1  0.737000  0.172000  0.233900  1.0  0.1098
  H  H156  1  0.807200  0.363400  0.934300  1.0  0.1328
  H  H157  1  0.798400  0.474600  0.850700  1.0  0.0902
  H  H158  1  0.607300  0.643700  0.950900  1.0  0.0864
  H  H159  1  0.605800  0.538800  0.036000  1.0  0.1234
  H  H160  1  0.747800  0.263200  0.014800  1.0  0.3322
  C  C161  1  0.901350  0.736550  0.991700  1.0  0.2113
  C  C162  1  0.945130  0.706930  0.923530  1.0  -0.0389
  C  C163  1  0.997960  0.775760  0.919000  1.0  -0.1607
  C  C164  1  0.004850  0.794850  0.990600  1.0  -0.1289
  C  C165  1  0.972170  0.721970  0.038480  1.0  -0.2312
  C  C166  1  0.848270  0.674670  0.020100  1.0  -0.4055
  C  C167  1  0.825000  0.825600  0.981500  1.0  -0.3691
  C  C168  1  0.949680  0.765880  0.103500  1.0  0.685
  C  C169  1  0.882050  0.719050  0.870300  1.0  0.6909
  C  C170  1  0.013710  0.621110  0.912600  1.0  -0.3207
  C  C171  1  0.991230  0.467630  0.696100  1.0  0.1612
  C  C172  1  0.912160  0.536560  0.661950  1.0  -0.0369
  C  C173  1  0.969170  0.581170  0.605950  1.0  -0.1787
  C  C174  1  0.061360  0.515160  0.592200  1.0  -0.1238
  C  C175  1  0.056710  0.426310  0.638600  1.0  -0.2324
  C  C176  1  0.957040  0.398440  0.739300  1.0  -0.3696
  C  C177  1  0.033810  0.510610  0.745400  1.0  -0.1274
  C  C178  1  0.849650  0.602450  0.703300  1.0  0.6794
  C  C179  1  0.149770  0.373370  0.659500  1.0  0.7173
  C  C180  1  0.864830  0.485430  0.627600  1.0  -0.3222
  C  C181  1  0.386280  0.722480  0.627010  1.0  0.1003
  C  C182  1  0.376000  0.725000  0.558300  1.0  0.0764
  C  C183  1  0.248600  0.748400  0.617300  1.0  0.2785
  C  C184  1  0.461680  0.715280  0.663800  1.0  0.0623
  C  C185  1  0.542820  0.733620  0.636400  1.0  -0.207
  C  C186  1  0.608920  0.719920  0.678300  1.0  0.1878
  C  C187  1  0.532080  0.677680  0.770300  1.0  0.1544
  C  C188  1  0.456710  0.693110  0.730500  1.0  -0.1713
  C  C189  1  0.152310  0.765910  0.636250  1.0  0.0295
  C  C190  1  0.086770  0.796370  0.592730  1.0  -0.1582
  C  C191  1  0.998610  0.811010  0.615200  1.0  0.1757
  C  C192  1  0.036880  0.774080  0.723310  1.0  0.1906
  C  C193  1  0.129010  0.755610  0.702720  1.0  -0.145
  C  C194  1  0.440330  0.713730  0.500120  1.0  0.0791
  C  C195  1  0.420170  0.767170  0.439550  1.0  -0.2086
  C  C196  1  0.486030  0.758830  0.388700  1.0  0.1931
  C  C197  1  0.586010  0.645810  0.447100  1.0  0.1813
  C  C198  1  0.524970  0.647970  0.499800  1.0  -0.2066
  C  C199  1  0.263450  0.098650  0.508300  1.0  0.2124
  C  C200  1  0.293070  0.054870  0.576470  1.0  -0.0397
  C  C201  1  0.224240  0.002040  0.581000  1.0  -0.1629
  C  C202  1  0.205150  0.995150  0.509400  1.0  -0.1269
  C  C203  1  0.278030  0.027830  0.461520  1.0  -0.235
  C  C204  1  0.325330  0.151730  0.479900  1.0  -0.4024
  C  C205  1  0.174400  0.175000  0.518500  1.0  -0.369
  C  C206  1  0.234120  0.050320  0.396500  1.0  0.684
  C  C207  1  0.280950  0.117950  0.629700  1.0  0.6908
  C  C208  1  0.378890  0.986290  0.587400  1.0  -0.321
  C  C209  1  0.532370  0.008770  0.803900  1.0  0.1735
  C  C210  1  0.463440  0.087840  0.838050  1.0  -0.0374
  C  C211  1  0.418830  0.030830  0.894050  1.0  -0.1736
  C  C212  1  0.484840  0.938640  0.907800  1.0  -0.1254
  C  C213  1  0.573690  0.943290  0.861400  1.0  -0.2302
  C  C214  1  0.601560  0.042960  0.760700  1.0  -0.3701
  C  C215  1  0.489390  0.966190  0.754600  1.0  -0.1263
  C  C216  1  0.397550  0.150350  0.796700  1.0  0.6813
  C  C217  1  0.626630  0.850230  0.840500  1.0  0.7188
  C  C218  1  0.514570  0.135170  0.872400  1.0  -0.3217
  C  C219  1  0.277520  0.613720  0.872990  1.0  0.0982
  C  C220  1  0.275000  0.624000  0.941700  1.0  0.0769
  C  C221  1  0.251600  0.751400  0.882700  1.0  0.281
  C  C222  1  0.284720  0.538320  0.836200  1.0  0.0604
  C  C223  1  0.266380  0.457180  0.863600  1.0  -0.2068
  C  C224  1  0.280080  0.391080  0.821700  1.0  0.1894
  C  C225  1  0.322320  0.467920  0.729700  1.0  0.1552
  C  C226  1  0.306890  0.543290  0.769500  1.0  -0.1703
  C  C227  1  0.234090  0.847690  0.863750  1.0  0.0317
  C  C228  1  0.203630  0.913230  0.907270  1.0  -0.1632
  C  C229  1  0.188990  0.001390  0.884800  1.0  0.1787
  C  C230  1  0.225920  0.963120  0.776690  1.0  0.1912
  C  C231  1  0.244390  0.870990  0.797280  1.0  -0.1437
  C  C232  1  0.286270  0.559670  0.999880  1.0  0.0796
  C  C233  1  0.232830  0.579830  0.060450  1.0  -0.2075
  C  C234  1  0.241170  0.513970  0.111300  1.0  0.194
  C  C235  1  0.354190  0.413990  0.052900  1.0  0.1819
  C  C236  1  0.352030  0.475030  0.000200  1.0  -0.2069
  C  C237  1  0.098650  0.263450  0.008300  1.0  0.2117
  C  C238  1  0.054870  0.293070  0.076470  1.0  -0.0381
  C  C239  1  0.002040  0.224240  0.081000  1.0  -0.1616
  C  C240  1  0.995150  0.205150  0.009400  1.0  -0.1268
  C  C241  1  0.027830  0.278030  0.961520  1.0  -0.2379
  C  C242  1  0.151730  0.325330  0.979900  1.0  -0.4
  C  C243  1  0.175000  0.174400  0.018500  1.0  -0.3698
  C  C244  1  0.050320  0.234120  0.896500  1.0  0.6841
  C  C245  1  0.117950  0.280950  0.129700  1.0  0.6908
  C  C246  1  0.986290  0.378890  0.087400  1.0  -0.3198
  C  C247  1  0.008770  0.532370  0.303900  1.0  0.1725
  C  C248  1  0.087840  0.463440  0.338050  1.0  -0.0378
  C  C249  1  0.030830  0.418830  0.394050  1.0  -0.172
  C  C250  1  0.938640  0.484840  0.407800  1.0  -0.1213
  C  C251  1  0.943290  0.573690  0.361400  1.0  -0.2327
  C  C252  1  0.042960  0.601560  0.260700  1.0  -0.3712
  C  C253  1  0.966190  0.489390  0.254600  1.0  -0.1253
  C  C254  1  0.150350  0.397550  0.296700  1.0  0.6801
  C  C255  1  0.850230  0.626630  0.340500  1.0  0.7161
  C  C256  1  0.135170  0.514570  0.372400  1.0  -0.3218
  C  C257  1  0.613720  0.277520  0.372990  1.0  0.0983
  C  C258  1  0.624000  0.275000  0.441700  1.0  0.076
  C  C259  1  0.751400  0.251600  0.382700  1.0  0.2786
  C  C260  1  0.538320  0.284720  0.336200  1.0  0.0565
  C  C261  1  0.457180  0.266380  0.363600  1.0  -0.2068
  C  C262  1  0.391080  0.280080  0.321700  1.0  0.1873
  C  C263  1  0.467920  0.322320  0.229700  1.0  0.1554
  C  C264  1  0.543290  0.306890  0.269500  1.0  -0.1691
  C  C265  1  0.847690  0.234090  0.363750  1.0  0.0313
  C  C266  1  0.913230  0.203630  0.407270  1.0  -0.1632
  C  C267  1  0.001390  0.188990  0.384800  1.0  0.1755
  C  C268  1  0.963120  0.225920  0.276690  1.0  0.19
  C  C269  1  0.870990  0.244390  0.297280  1.0  -0.1435
  C  C270  1  0.559670  0.286270  0.499880  1.0  0.0801
  C  C271  1  0.579830  0.232830  0.560450  1.0  -0.2093
  C  C272  1  0.513970  0.241170  0.611300  1.0  0.1938
  C  C273  1  0.413990  0.354190  0.552900  1.0  0.1799
  C  C274  1  0.475030  0.352030  0.500200  1.0  -0.2071
  C  C275  1  0.736550  0.901350  0.491700  1.0  0.2119
  C  C276  1  0.706930  0.945130  0.423530  1.0  -0.0398
  C  C277  1  0.775760  0.997960  0.419000  1.0  -0.1608
  C  C278  1  0.794850  0.004850  0.490600  1.0  -0.126
  C  C279  1  0.721970  0.972170  0.538480  1.0  -0.2309
  C  C280  1  0.674670  0.848270  0.520100  1.0  -0.4061
  C  C281  1  0.825600  0.825000  0.481500  1.0  -0.3686
  C  C282  1  0.765880  0.949680  0.603500  1.0  0.6848
  C  C283  1  0.719050  0.882050  0.370300  1.0  0.6917
  C  C284  1  0.621110  0.013710  0.412600  1.0  -0.3216
  C  C285  1  0.467630  0.991230  0.196100  1.0  0.1662
  C  C286  1  0.536560  0.912160  0.161950  1.0  -0.0371
  C  C287  1  0.581170  0.969170  0.105950  1.0  -0.1754
  C  C288  1  0.515160  0.061360  0.092200  1.0  -0.1361
  C  C289  1  0.426310  0.056710  0.138600  1.0  -0.2308
  C  C290  1  0.398440  0.957040  0.239300  1.0  -0.3705
  C  C291  1  0.510610  0.033810  0.245400  1.0  -0.1288
  C  C292  1  0.602450  0.849650  0.203300  1.0  0.6795
  C  C293  1  0.373370  0.149770  0.159500  1.0  0.7183
  C  C294  1  0.485430  0.864830  0.127600  1.0  -0.3228
  C  C295  1  0.722480  0.386280  0.127010  1.0  0.097
  C  C296  1  0.725000  0.376000  0.058300  1.0  0.0764
  C  C297  1  0.748400  0.248600  0.117300  1.0  0.282
  C  C298  1  0.715280  0.461680  0.163800  1.0  0.0607
  C  C299  1  0.733620  0.542820  0.136400  1.0  -0.2058
  C  C300  1  0.719920  0.608920  0.178300  1.0  0.1899
  C  C301  1  0.677680  0.532080  0.270300  1.0  0.1554
  C  C302  1  0.693110  0.456710  0.230500  1.0  -0.1723
  C  C303  1  0.765910  0.152310  0.136250  1.0  0.0319
  C  C304  1  0.796370  0.086770  0.092730  1.0  -0.1593
  C  C305  1  0.811010  0.998610  0.115200  1.0  0.1766
  C  C306  1  0.774080  0.036880  0.223310  1.0  0.1915
  C  C307  1  0.755610  0.129010  0.202720  1.0  -0.1434
  C  C308  1  0.713730  0.440330  0.000120  1.0  0.0784
  C  C309  1  0.767170  0.420170  0.939550  1.0  -0.208
  C  C310  1  0.758830  0.486030  0.888700  1.0  0.1929
  C  C311  1  0.645810  0.586010  0.947100  1.0  0.1826
  C  C312  1  0.647970  0.524970  0.999800  1.0  -0.2084
  N  N313  1  0.306840  0.739320  0.660820  1.0  -0.3581
  N  N314  1  0.288910  0.742010  0.551520  1.0  -0.2932
  N  N315  1  0.603760  0.699200  0.743330  1.0  -0.3324
  N  N316  1  0.973580  0.800240  0.682250  1.0  -0.3555
  N  N317  1  0.567080  0.695820  0.390820  1.0  -0.3382
  N  N318  1  0.260680  0.693160  0.839180  1.0  -0.3569
  N  N319  1  0.257990  0.711090  0.948480  1.0  -0.2942
  N  N320  1  0.300800  0.396240  0.756670  1.0  -0.3362
  N  N321  1  0.199760  0.026420  0.817750  1.0  -0.362
  N  N322  1  0.304180  0.432920  0.109180  1.0  -0.3368
  N  N323  1  0.693160  0.260680  0.339180  1.0  -0.3564
  N  N324  1  0.711090  0.257990  0.448480  1.0  -0.2933
  N  N325  1  0.396240  0.300800  0.256670  1.0  -0.3329
  N  N326  1  0.026420  0.199760  0.317750  1.0  -0.3568
  N  N327  1  0.432920  0.304180  0.609180  1.0  -0.3373
  N  N328  1  0.739320  0.306840  0.160820  1.0  -0.3574
  N  N329  1  0.742010  0.288910  0.051520  1.0  -0.2941
  N  N330  1  0.699200  0.603760  0.243330  1.0  -0.3347
  N  N331  1  0.800240  0.973580  0.182250  1.0  -0.3602
  N  N332  1  0.695820  0.567080  0.890820  1.0  -0.3374
  O  O333  1  0.883760  0.782800  0.830800  1.0  -0.6057
  O  O334  1  0.834590  0.666930  0.868810  1.0  -0.6122
  O  O335  1  0.006320  0.798060  0.125170  1.0  -0.6729
  O  O336  1  0.880750  0.760530  0.137010  1.0  -0.594
  O  O337  1  0.838850  0.680810  0.701410  1.0  -0.6408
  O  O338  1  0.802060  0.567220  0.746600  1.0  -0.6407
  O  O339  1  0.158550  0.314310  0.707390  1.0  -0.6938
  O  O340  1  0.213340  0.385200  0.625370  1.0  -0.5964
  O  O341  1  0.217200  0.116240  0.669200  1.0  -0.607
  O  O342  1  0.333070  0.165410  0.631190  1.0  -0.612
  O  O343  1  0.201940  0.993680  0.374830  1.0  -0.6722
  O  O344  1  0.239470  0.119250  0.362990  1.0  -0.5946
  O  O345  1  0.319190  0.161150  0.798590  1.0  -0.6405
  O  O346  1  0.432780  0.197940  0.753400  1.0  -0.6432
  O  O347  1  0.685690  0.841450  0.792610  1.0  -0.6952
  O  O348  1  0.614800  0.786660  0.874630  1.0  -0.5976
  O  O349  1  0.116240  0.217200  0.169200  1.0  -0.6045
  O  O350  1  0.165410  0.333070  0.131190  1.0  -0.6122
  O  O351  1  0.993680  0.201940  0.874830  1.0  -0.6709
  O  O352  1  0.119250  0.239470  0.862990  1.0  -0.5946
  O  O353  1  0.161150  0.319190  0.298590  1.0  -0.6394
  O  O354  1  0.197940  0.432780  0.253400  1.0  -0.6412
  O  O355  1  0.841450  0.685690  0.292610  1.0  -0.6942
  O  O356  1  0.786660  0.614800  0.374630  1.0  -0.5971
  O  O357  1  0.782800  0.883760  0.330800  1.0  -0.6067
  O  O358  1  0.666930  0.834590  0.368810  1.0  -0.6119
  O  O359  1  0.798060  0.006320  0.625170  1.0  -0.6737
  O  O360  1  0.760530  0.880750  0.637010  1.0  -0.5951
  O  O361  1  0.680810  0.838850  0.201410  1.0  -0.6393
  O  O362  1  0.567220  0.802060  0.246600  1.0  -0.6438
  O  O363  1  0.314310  0.158550  0.207390  1.0  -0.6955
  O  O364  1  0.385200  0.213340  0.125370  1.0  -0.5964
