# generated using pymatgen
data_Cu2H8C7N6
_symmetry_space_group_name_H-M   'P 1'
_cell_length_a   26.20920000
_cell_length_b   11.62780000
_cell_length_c   16.11670000
_cell_angle_alpha   90.00000000
_cell_angle_beta   122.49000000
_cell_angle_gamma   90.00000000
_symmetry_Int_Tables_number   1
_chemical_formula_structural   Cu2H8C7N6
_chemical_formula_sum   'Cu32 H128 C112 N96'
_cell_volume   4142.90439872
_cell_formula_units_Z   16
loop_
 _symmetry_equiv_pos_site_id
 _symmetry_equiv_pos_as_xyz
  1  'x, y, z'
loop_
 _atom_site_type_symbol
 _atom_site_label
 _atom_site_symmetry_multiplicity
 _atom_site_fract_x
 _atom_site_fract_y
 _atom_site_fract_z
 _atom_site_occupancy
 _atom_site_charge
  Cu  Cu1  1  0.242290  0.117370  0.449980  1.0  0.3586
  Cu  Cu2  1  0.312270  0.232230  0.327700  1.0  0.4078
  Cu  Cu3  1  0.567940  0.353880  0.508110  1.0  0.3001
  Cu  Cu4  1  0.742290  0.617370  0.449980  1.0  0.3586
  Cu  Cu5  1  0.812270  0.732230  0.327700  1.0  0.4078
  Cu  Cu6  1  0.067940  0.853880  0.508110  1.0  0.3001
  Cu  Cu7  1  0.757710  0.117370  0.050020  1.0  0.3584
  Cu  Cu8  1  0.687730  0.232230  0.172300  1.0  0.4078
  Cu  Cu9  1  0.432060  0.353880  0.991890  1.0  0.2993
  Cu  Cu10  1  0.257710  0.617370  0.050020  1.0  0.3584
  Cu  Cu11  1  0.187730  0.732230  0.172300  1.0  0.4078
  Cu  Cu12  1  0.932060  0.853880  0.991890  1.0  0.2993
  Cu  Cu13  1  0.757710  0.882630  0.550020  1.0  0.3589
  Cu  Cu14  1  0.687730  0.767770  0.672300  1.0  0.409
  Cu  Cu15  1  0.432060  0.646120  0.491890  1.0  0.301
  Cu  Cu16  1  0.257710  0.382630  0.550020  1.0  0.3589
  Cu  Cu17  1  0.187730  0.267770  0.672300  1.0  0.409
  Cu  Cu18  1  0.932060  0.146120  0.491890  1.0  0.301
  Cu  Cu19  1  0.242290  0.882630  0.949980  1.0  0.3588
  Cu  Cu20  1  0.312270  0.767770  0.827700  1.0  0.4092
  Cu  Cu21  1  0.567940  0.646120  0.008110  1.0  0.3016
  Cu  Cu22  1  0.742290  0.382630  0.949980  1.0  0.3588
  Cu  Cu23  1  0.812270  0.267770  0.827700  1.0  0.4092
  Cu  Cu24  1  0.067940  0.146120  0.008110  1.0  0.3016
  Cu  Cu25  1  0.500000  0.177480  0.750000  1.0  0.2908
  Cu  Cu26  1  0.000000  0.677480  0.750000  1.0  0.2908
  Cu  Cu27  1  0.500000  0.822520  0.250000  1.0  0.289
  Cu  Cu28  1  0.000000  0.322520  0.250000  1.0  0.289
  Cu  Cu29  1  0.500000  0.391240  0.250000  1.0  0.3775
  Cu  Cu30  1  0.000000  0.891240  0.250000  1.0  0.3775
  Cu  Cu31  1  0.500000  0.608760  0.750000  1.0  0.3776
  Cu  Cu32  1  0.000000  0.108760  0.750000  1.0  0.3776
  H  H33  1  0.323400  0.060600  0.669900  1.0  0.1307
  H  H34  1  0.381900  0.128900  0.752200  1.0  0.1382
  H  H35  1  0.389200  0.005500  0.715700  1.0  0.1376
  H  H36  1  0.493600  0.243700  0.573600  1.0  0.1456
  H  H37  1  0.455900  0.359500  0.550800  1.0  0.1463
  H  H38  1  0.383300  0.242000  0.133700  1.0  0.1314
  H  H39  1  0.334700  0.321900  0.137000  1.0  0.1252
  H  H40  1  0.335700  0.186400  0.155300  1.0  0.1393
  H  H41  1  0.682600  0.508600  0.638800  1.0  0.1238
  H  H42  1  0.725900  0.585500  0.619600  1.0  0.1204
  H  H43  1  0.731200  0.448300  0.622000  1.0  0.1268
  H  H44  1  0.561500  0.620200  0.210900  1.0  0.1526
  H  H45  1  0.589000  0.502600  0.201200  1.0  0.1361
  H  H46  1  0.727200  0.855100  0.133300  1.0  0.1364
  H  H47  1  0.655300  0.859200  0.059200  1.0  0.141
  H  H48  1  0.693500  0.757100  0.051700  1.0  0.1169
  H  H49  1  0.823400  0.560600  0.669900  1.0  0.1319
  H  H50  1  0.881900  0.628900  0.752200  1.0  0.1382
  H  H51  1  0.889200  0.505500  0.715700  1.0  0.1376
  H  H52  1  0.993600  0.743700  0.573600  1.0  0.1456
  H  H53  1  0.955900  0.859500  0.550800  1.0  0.1463
  H  H54  1  0.883300  0.742000  0.133700  1.0  0.1314
  H  H55  1  0.834700  0.821900  0.137000  1.0  0.1252
  H  H56  1  0.835700  0.686400  0.155300  1.0  0.1396
  H  H57  1  0.182600  0.008600  0.638800  1.0  0.1238
  H  H58  1  0.225900  0.085500  0.619600  1.0  0.1204
  H  H59  1  0.231200  0.948300  0.622000  1.0  0.1268
  H  H60  1  0.061500  0.120200  0.210900  1.0  0.1526
  H  H61  1  0.089000  0.002600  0.201200  1.0  0.1361
  H  H62  1  0.227200  0.355100  0.133300  1.0  0.1364
  H  H63  1  0.155300  0.359200  0.059200  1.0  0.141
  H  H64  1  0.193500  0.257100  0.051700  1.0  0.1169
  H  H65  1  0.676600  0.060600  0.830100  1.0  0.1327
  H  H66  1  0.618100  0.128900  0.747800  1.0  0.1379
  H  H67  1  0.610800  0.005500  0.784300  1.0  0.1371
  H  H68  1  0.506400  0.243700  0.926400  1.0  0.1473
  H  H69  1  0.544100  0.359500  0.949200  1.0  0.1463
  H  H70  1  0.616700  0.242000  0.366300  1.0  0.1325
  H  H71  1  0.665300  0.321900  0.363000  1.0  0.125
  H  H72  1  0.664300  0.186400  0.344700  1.0  0.1393
  H  H73  1  0.317400  0.508600  0.861200  1.0  0.1236
  H  H74  1  0.274100  0.585500  0.880400  1.0  0.1203
  H  H75  1  0.268800  0.448300  0.878000  1.0  0.1261
  H  H76  1  0.438500  0.620200  0.289100  1.0  0.1531
  H  H77  1  0.411000  0.502600  0.298800  1.0  0.1358
  H  H78  1  0.272800  0.855100  0.366700  1.0  0.1369
  H  H79  1  0.344700  0.859200  0.440800  1.0  0.1413
  H  H80  1  0.306500  0.757100  0.448300  1.0  0.117
  H  H81  1  0.176600  0.560600  0.830100  1.0  0.1343
  H  H82  1  0.118100  0.628900  0.747800  1.0  0.1379
  H  H83  1  0.110800  0.505500  0.784300  1.0  0.1371
  H  H84  1  0.006400  0.743700  0.926400  1.0  0.1473
  H  H85  1  0.044100  0.859500  0.949200  1.0  0.1463
  H  H86  1  0.116700  0.742000  0.366300  1.0  0.1325
  H  H87  1  0.165300  0.821900  0.363000  1.0  0.125
  H  H88  1  0.164300  0.686400  0.344700  1.0  0.1396
  H  H89  1  0.817400  0.008600  0.861200  1.0  0.1236
  H  H90  1  0.774100  0.085500  0.880400  1.0  0.1203
  H  H91  1  0.768800  0.948300  0.878000  1.0  0.1261
  H  H92  1  0.938500  0.120200  0.289100  1.0  0.1531
  H  H93  1  0.911000  0.002600  0.298800  1.0  0.1358
  H  H94  1  0.772800  0.355100  0.366700  1.0  0.1369
  H  H95  1  0.844700  0.359200  0.440800  1.0  0.1413
  H  H96  1  0.806500  0.257100  0.448300  1.0  0.117
  H  H97  1  0.676600  0.939400  0.330100  1.0  0.1325
  H  H98  1  0.618100  0.871100  0.247800  1.0  0.1372
  H  H99  1  0.610800  0.994500  0.284300  1.0  0.1377
  H  H100  1  0.506400  0.756300  0.426400  1.0  0.1477
  H  H101  1  0.544100  0.640500  0.449200  1.0  0.1465
  H  H102  1  0.616700  0.758000  0.866300  1.0  0.132
  H  H103  1  0.665300  0.678100  0.863000  1.0  0.1257
  H  H104  1  0.664300  0.813600  0.844700  1.0  0.139
  H  H105  1  0.317400  0.491400  0.361200  1.0  0.1234
  H  H106  1  0.274100  0.414500  0.380400  1.0  0.1203
  H  H107  1  0.268800  0.551700  0.378000  1.0  0.1264
  H  H108  1  0.438500  0.379800  0.789100  1.0  0.1529
  H  H109  1  0.411000  0.497400  0.798800  1.0  0.1351
  H  H110  1  0.272800  0.144900  0.866700  1.0  0.1368
  H  H111  1  0.344700  0.140800  0.940800  1.0  0.141
  H  H112  1  0.306500  0.242900  0.948300  1.0  0.1171
  H  H113  1  0.176600  0.439400  0.330100  1.0  0.1343
  H  H114  1  0.118100  0.371100  0.247800  1.0  0.1372
  H  H115  1  0.110800  0.494500  0.284300  1.0  0.1377
  H  H116  1  0.006400  0.256300  0.426400  1.0  0.1477
  H  H117  1  0.044100  0.140500  0.449200  1.0  0.1465
  H  H118  1  0.116700  0.258000  0.866300  1.0  0.132
  H  H119  1  0.165300  0.178100  0.863000  1.0  0.1257
  H  H120  1  0.164300  0.313600  0.844700  1.0  0.1389
  H  H121  1  0.817400  0.991400  0.361200  1.0  0.1234
  H  H122  1  0.774100  0.914500  0.380400  1.0  0.1203
  H  H123  1  0.768800  0.051700  0.378000  1.0  0.1264
  H  H124  1  0.938500  0.879800  0.789100  1.0  0.1529
  H  H125  1  0.911000  0.997400  0.798800  1.0  0.1351
  H  H126  1  0.772800  0.644900  0.866700  1.0  0.1368
  H  H127  1  0.844700  0.640800  0.940800  1.0  0.141
  H  H128  1  0.806500  0.742900  0.948300  1.0  0.1171
  H  H129  1  0.323400  0.939400  0.169900  1.0  0.1307
  H  H130  1  0.381900  0.871100  0.252200  1.0  0.1368
  H  H131  1  0.389200  0.994500  0.215700  1.0  0.1373
  H  H132  1  0.493600  0.756300  0.073600  1.0  0.1456
  H  H133  1  0.455900  0.640500  0.050800  1.0  0.1465
  H  H134  1  0.383300  0.758000  0.633700  1.0  0.1313
  H  H135  1  0.334700  0.678100  0.637000  1.0  0.126
  H  H136  1  0.335700  0.813600  0.655300  1.0  0.1397
  H  H137  1  0.682600  0.491400  0.138800  1.0  0.1234
  H  H138  1  0.725900  0.414500  0.119600  1.0  0.1208
  H  H139  1  0.731200  0.551700  0.122000  1.0  0.1261
  H  H140  1  0.561500  0.379800  0.710900  1.0  0.1522
  H  H141  1  0.589000  0.497400  0.701200  1.0  0.1353
  H  H142  1  0.727200  0.144900  0.633300  1.0  0.1365
  H  H143  1  0.655300  0.140800  0.559200  1.0  0.1409
  H  H144  1  0.693500  0.242900  0.551700  1.0  0.1166
  H  H145  1  0.823400  0.439400  0.169900  1.0  0.1319
  H  H146  1  0.881900  0.371100  0.252200  1.0  0.1368
  H  H147  1  0.889200  0.494500  0.215700  1.0  0.1373
  H  H148  1  0.993600  0.256300  0.073600  1.0  0.1456
  H  H149  1  0.955900  0.140500  0.050800  1.0  0.1465
  H  H150  1  0.883300  0.258000  0.633700  1.0  0.1313
  H  H151  1  0.834700  0.178100  0.637000  1.0  0.126
  H  H152  1  0.835700  0.313600  0.655300  1.0  0.1396
  H  H153  1  0.182600  0.991400  0.138800  1.0  0.1234
  H  H154  1  0.225900  0.914500  0.119600  1.0  0.1208
  H  H155  1  0.231200  0.051700  0.122000  1.0  0.1261
  H  H156  1  0.061500  0.879800  0.710900  1.0  0.1522
  H  H157  1  0.089000  0.997400  0.701200  1.0  0.1353
  H  H158  1  0.227200  0.644900  0.633300  1.0  0.1365
  H  H159  1  0.155300  0.640800  0.559200  1.0  0.1409
  H  H160  1  0.193500  0.742900  0.551700  1.0  0.1166
  C  C161  1  0.366000  0.077400  0.695500  1.0  -0.4278
  C  C162  1  0.371200  0.133300  0.617800  1.0  0.4135
  C  C163  1  0.409100  0.217500  0.544600  1.0  0.3852
  C  C164  1  0.453400  0.278900  0.529300  1.0  -0.3951
  C  C165  1  0.441800  0.280800  0.427700  1.0  0.3766
  C  C166  1  0.404000  0.272500  0.273300  1.0  0.4329
  C  C167  1  0.360700  0.254100  0.165500  1.0  -0.4161
  C  C168  1  0.703200  0.513200  0.603200  1.0  -0.3982
  C  C169  1  0.657700  0.509000  0.495400  1.0  0.413
  C  C170  1  0.614400  0.538600  0.341600  1.0  0.3397
  C  C171  1  0.598900  0.573400  0.241100  1.0  -0.3345
  C  C172  1  0.644700  0.639400  0.231700  1.0  0.3778
  C  C173  1  0.682900  0.739500  0.166800  1.0  0.4167
  C  C174  1  0.690400  0.808600  0.096800  1.0  -0.4093
  C  C175  1  0.866000  0.577400  0.695500  1.0  -0.428
  C  C176  1  0.871200  0.633300  0.617800  1.0  0.4135
  C  C177  1  0.909100  0.717500  0.544600  1.0  0.3852
  C  C178  1  0.953400  0.778900  0.529300  1.0  -0.3951
  C  C179  1  0.941800  0.780800  0.427700  1.0  0.3766
  C  C180  1  0.904000  0.772500  0.273300  1.0  0.4329
  C  C181  1  0.860700  0.754100  0.165500  1.0  -0.4161
  C  C182  1  0.203200  0.013200  0.603200  1.0  -0.3982
  C  C183  1  0.157700  0.009000  0.495400  1.0  0.413
  C  C184  1  0.114400  0.038600  0.341600  1.0  0.3397
  C  C185  1  0.098900  0.073400  0.241100  1.0  -0.3345
  C  C186  1  0.144700  0.139400  0.231700  1.0  0.3778
  C  C187  1  0.182900  0.239500  0.166800  1.0  0.4167
  C  C188  1  0.190400  0.308600  0.096800  1.0  -0.4093
  C  C189  1  0.634000  0.077400  0.804500  1.0  -0.427
  C  C190  1  0.628800  0.133300  0.882200  1.0  0.4129
  C  C191  1  0.590900  0.217500  0.955400  1.0  0.3849
  C  C192  1  0.546600  0.278900  0.970700  1.0  -0.3947
  C  C193  1  0.558200  0.280800  0.072300  1.0  0.3762
  C  C194  1  0.596000  0.272500  0.226700  1.0  0.4327
  C  C195  1  0.639300  0.254100  0.334500  1.0  -0.4151
  C  C196  1  0.296800  0.513200  0.896800  1.0  -0.3976
  C  C197  1  0.342300  0.509000  0.004600  1.0  0.4129
  C  C198  1  0.385600  0.538600  0.158400  1.0  0.3396
  C  C199  1  0.401100  0.573400  0.258900  1.0  -0.3354
  C  C200  1  0.355300  0.639400  0.268300  1.0  0.3775
  C  C201  1  0.317100  0.739500  0.333200  1.0  0.4168
  C  C202  1  0.309600  0.808600  0.403200  1.0  -0.4099
  C  C203  1  0.134000  0.577400  0.804500  1.0  -0.4275
  C  C204  1  0.128800  0.633300  0.882200  1.0  0.4129
  C  C205  1  0.090900  0.717500  0.955400  1.0  0.3849
  C  C206  1  0.046600  0.778900  0.970700  1.0  -0.3947
  C  C207  1  0.058200  0.780800  0.072300  1.0  0.3762
  C  C208  1  0.096000  0.772500  0.226700  1.0  0.4327
  C  C209  1  0.139300  0.754100  0.334500  1.0  -0.4151
  C  C210  1  0.796800  0.013200  0.896800  1.0  -0.3976
  C  C211  1  0.842300  0.009000  0.004600  1.0  0.4129
  C  C212  1  0.885600  0.038600  0.158400  1.0  0.3396
  C  C213  1  0.901100  0.073400  0.258900  1.0  -0.3354
  C  C214  1  0.855300  0.139400  0.268300  1.0  0.3775
  C  C215  1  0.817100  0.239500  0.333200  1.0  0.4168
  C  C216  1  0.809600  0.308600  0.403200  1.0  -0.4099
  C  C217  1  0.634000  0.922600  0.304500  1.0  -0.4281
  C  C218  1  0.628800  0.866700  0.382200  1.0  0.4142
  C  C219  1  0.590900  0.782500  0.455400  1.0  0.3855
  C  C220  1  0.546600  0.721100  0.470700  1.0  -0.3943
  C  C221  1  0.558200  0.719200  0.572300  1.0  0.3758
  C  C222  1  0.596000  0.727500  0.726700  1.0  0.4332
  C  C223  1  0.639300  0.745900  0.834500  1.0  -0.4138
  C  C224  1  0.296800  0.486800  0.396800  1.0  -0.3978
  C  C225  1  0.342300  0.491000  0.504600  1.0  0.413
  C  C226  1  0.385600  0.461400  0.658400  1.0  0.3397
  C  C227  1  0.401100  0.426600  0.758900  1.0  -0.336
  C  C228  1  0.355300  0.360600  0.768300  1.0  0.3777
  C  C229  1  0.317100  0.260500  0.833200  1.0  0.4165
  C  C230  1  0.309600  0.191400  0.903200  1.0  -0.4104
  C  C231  1  0.134000  0.422600  0.304500  1.0  -0.4269
  C  C232  1  0.128800  0.366700  0.382200  1.0  0.4142
  C  C233  1  0.090900  0.282500  0.455400  1.0  0.3855
  C  C234  1  0.046600  0.221100  0.470700  1.0  -0.3943
  C  C235  1  0.058200  0.219200  0.572300  1.0  0.3758
  C  C236  1  0.096000  0.227500  0.726700  1.0  0.4332
  C  C237  1  0.139300  0.245900  0.834500  1.0  -0.4138
  C  C238  1  0.796800  0.986800  0.396800  1.0  -0.3978
  C  C239  1  0.842300  0.991000  0.504600  1.0  0.413
  C  C240  1  0.885600  0.961400  0.658400  1.0  0.3397
  C  C241  1  0.901100  0.926600  0.758900  1.0  -0.336
  C  C242  1  0.855300  0.860600  0.768300  1.0  0.3777
  C  C243  1  0.817100  0.760500  0.833200  1.0  0.4165
  C  C244  1  0.809600  0.691400  0.903200  1.0  -0.4104
  C  C245  1  0.366000  0.922600  0.195500  1.0  -0.4295
  C  C246  1  0.371200  0.866700  0.117800  1.0  0.4148
  C  C247  1  0.409100  0.782500  0.044600  1.0  0.3853
  C  C248  1  0.453400  0.721100  0.029300  1.0  -0.3945
  C  C249  1  0.441800  0.719200  0.927700  1.0  0.3764
  C  C250  1  0.404000  0.727500  0.773300  1.0  0.4332
  C  C251  1  0.360700  0.745900  0.665500  1.0  -0.4152
  C  C252  1  0.703200  0.486800  0.103200  1.0  -0.3985
  C  C253  1  0.657700  0.491000  0.995400  1.0  0.4131
  C  C254  1  0.614400  0.461400  0.841600  1.0  0.3398
  C  C255  1  0.598900  0.426600  0.741100  1.0  -0.3352
  C  C256  1  0.644700  0.360600  0.731700  1.0  0.3781
  C  C257  1  0.682900  0.260500  0.666800  1.0  0.4164
  C  C258  1  0.690400  0.191400  0.596800  1.0  -0.4104
  C  C259  1  0.866000  0.422600  0.195500  1.0  -0.4281
  C  C260  1  0.871200  0.366700  0.117800  1.0  0.4148
  C  C261  1  0.909100  0.282500  0.044600  1.0  0.3853
  C  C262  1  0.953400  0.221100  0.029300  1.0  -0.3945
  C  C263  1  0.941800  0.219200  0.927700  1.0  0.3764
  C  C264  1  0.904000  0.227500  0.773300  1.0  0.4332
  C  C265  1  0.860700  0.245900  0.665500  1.0  -0.4152
  C  C266  1  0.203200  0.986800  0.103200  1.0  -0.3985
  C  C267  1  0.157700  0.991000  0.995400  1.0  0.4131
  C  C268  1  0.114400  0.961400  0.841600  1.0  0.3398
  C  C269  1  0.098900  0.926600  0.741100  1.0  -0.3352
  C  C270  1  0.144700  0.860600  0.731700  1.0  0.3781
  C  C271  1  0.182900  0.760500  0.666800  1.0  0.4164
  C  C272  1  0.190400  0.691400  0.596800  1.0  -0.4104
  N  N273  1  0.424100  0.177400  0.633900  1.0  -0.5177
  N  N274  1  0.326900  0.146300  0.524300  1.0  -0.3053
  N  N275  1  0.351570  0.199600  0.477000  1.0  -0.2868
  N  N276  1  0.389300  0.258100  0.341800  1.0  -0.4795
  N  N277  1  0.485670  0.307600  0.413400  1.0  -0.2872
  N  N278  1  0.461310  0.301900  0.313200  1.0  -0.3063
  N  N279  1  0.574870  0.482300  0.353700  1.0  -0.3047
  N  N280  1  0.602660  0.462500  0.453000  1.0  -0.3112
  N  N281  1  0.667420  0.557500  0.428700  1.0  -0.4724
  N  N282  1  0.629770  0.689500  0.144700  1.0  -0.4623
  N  N283  1  0.726650  0.719800  0.259700  1.0  -0.298
  N  N284  1  0.701670  0.655700  0.301400  1.0  -0.2918
  N  N285  1  0.924100  0.677400  0.633900  1.0  -0.5177
  N  N286  1  0.826900  0.646300  0.524300  1.0  -0.3053
  N  N287  1  0.851570  0.699600  0.477000  1.0  -0.2868
  N  N288  1  0.889300  0.758100  0.341800  1.0  -0.4795
  N  N289  1  0.985670  0.807600  0.413400  1.0  -0.2872
  N  N290  1  0.961310  0.801900  0.313200  1.0  -0.3063
  N  N291  1  0.074870  0.982300  0.353700  1.0  -0.3047
  N  N292  1  0.102660  0.962500  0.453000  1.0  -0.3112
  N  N293  1  0.167420  0.057500  0.428700  1.0  -0.4724
  N  N294  1  0.129770  0.189500  0.144700  1.0  -0.4623
  N  N295  1  0.226650  0.219800  0.259700  1.0  -0.298
  N  N296  1  0.201670  0.155700  0.301400  1.0  -0.2918
  N  N297  1  0.575900  0.177400  0.866100  1.0  -0.5208
  N  N298  1  0.673100  0.146300  0.975700  1.0  -0.3045
  N  N299  1  0.648430  0.199600  0.023000  1.0  -0.2877
  N  N300  1  0.610700  0.258100  0.158200  1.0  -0.4794
  N  N301  1  0.514330  0.307600  0.086600  1.0  -0.287
  N  N302  1  0.538690  0.301900  0.186800  1.0  -0.3056
  N  N303  1  0.425130  0.482300  0.146300  1.0  -0.3031
  N  N304  1  0.397340  0.462500  0.047000  1.0  -0.31
  N  N305  1  0.332580  0.557500  0.071300  1.0  -0.4732
  N  N306  1  0.370230  0.689500  0.355300  1.0  -0.4625
  N  N307  1  0.273350  0.719800  0.240300  1.0  -0.2975
  N  N308  1  0.298330  0.655700  0.198600  1.0  -0.2904
  N  N309  1  0.075900  0.677400  0.866100  1.0  -0.5208
  N  N310  1  0.173100  0.646300  0.975700  1.0  -0.3045
  N  N311  1  0.148430  0.699600  0.023000  1.0  -0.2877
  N  N312  1  0.110700  0.758100  0.158200  1.0  -0.4794
  N  N313  1  0.014330  0.807600  0.086600  1.0  -0.287
  N  N314  1  0.038690  0.801900  0.186800  1.0  -0.3056
  N  N315  1  0.925130  0.982300  0.146300  1.0  -0.3031
  N  N316  1  0.897340  0.962500  0.047000  1.0  -0.31
  N  N317  1  0.832580  0.057500  0.071300  1.0  -0.4732
  N  N318  1  0.870230  0.189500  0.355300  1.0  -0.4625
  N  N319  1  0.773350  0.219800  0.240300  1.0  -0.2975
  N  N320  1  0.798330  0.155700  0.198600  1.0  -0.2904
  N  N321  1  0.575900  0.822600  0.366100  1.0  -0.5231
  N  N322  1  0.673100  0.853700  0.475700  1.0  -0.3056
  N  N323  1  0.648430  0.800400  0.523000  1.0  -0.2894
  N  N324  1  0.610700  0.741900  0.658200  1.0  -0.482
  N  N325  1  0.514330  0.692400  0.586600  1.0  -0.2874
  N  N326  1  0.538690  0.698100  0.686800  1.0  -0.3048
  N  N327  1  0.425130  0.517700  0.646300  1.0  -0.3032
  N  N328  1  0.397340  0.537500  0.547000  1.0  -0.3102
  N  N329  1  0.332580  0.442500  0.571300  1.0  -0.4738
  N  N330  1  0.370230  0.310500  0.855300  1.0  -0.4621
  N  N331  1  0.273350  0.280200  0.740300  1.0  -0.2975
  N  N332  1  0.298330  0.344300  0.698600  1.0  -0.2897
  N  N333  1  0.075900  0.322600  0.366100  1.0  -0.5231
  N  N334  1  0.173100  0.353700  0.475700  1.0  -0.3056
  N  N335  1  0.148430  0.300400  0.523000  1.0  -0.2894
  N  N336  1  0.110700  0.241900  0.658200  1.0  -0.482
  N  N337  1  0.014330  0.192400  0.586600  1.0  -0.2874
  N  N338  1  0.038690  0.198100  0.686800  1.0  -0.3048
  N  N339  1  0.925130  0.017700  0.646300  1.0  -0.3032
  N  N340  1  0.897340  0.037500  0.547000  1.0  -0.3102
  N  N341  1  0.832580  0.942500  0.571300  1.0  -0.4738
  N  N342  1  0.870230  0.810500  0.855300  1.0  -0.4621
  N  N343  1  0.773350  0.780200  0.740300  1.0  -0.2975
  N  N344  1  0.798330  0.844300  0.698600  1.0  -0.2897
  N  N345  1  0.424100  0.822600  0.133900  1.0  -0.5195
  N  N346  1  0.326900  0.853700  0.024300  1.0  -0.3043
  N  N347  1  0.351570  0.800400  0.977000  1.0  -0.2875
  N  N348  1  0.389300  0.741900  0.841800  1.0  -0.483
  N  N349  1  0.485670  0.692400  0.913400  1.0  -0.287
  N  N350  1  0.461310  0.698100  0.813200  1.0  -0.3071
  N  N351  1  0.574870  0.517700  0.853700  1.0  -0.3044
  N  N352  1  0.602660  0.537500  0.953000  1.0  -0.3122
  N  N353  1  0.667420  0.442500  0.928700  1.0  -0.4732
  N  N354  1  0.629770  0.310500  0.644700  1.0  -0.4625
  N  N355  1  0.726650  0.280200  0.759700  1.0  -0.2979
  N  N356  1  0.701670  0.344300  0.801400  1.0  -0.2922
  N  N357  1  0.924100  0.322600  0.133900  1.0  -0.5195
  N  N358  1  0.826900  0.353700  0.024300  1.0  -0.3043
  N  N359  1  0.851570  0.300400  0.977000  1.0  -0.2875
  N  N360  1  0.889300  0.241900  0.841800  1.0  -0.483
  N  N361  1  0.985670  0.192400  0.913400  1.0  -0.287
  N  N362  1  0.961310  0.198100  0.813200  1.0  -0.3071
  N  N363  1  0.074870  0.017700  0.853700  1.0  -0.3044
  N  N364  1  0.102660  0.037500  0.953000  1.0  -0.3122
  N  N365  1  0.167420  0.942500  0.928700  1.0  -0.4732
  N  N366  1  0.129770  0.810500  0.644700  1.0  -0.4625
  N  N367  1  0.226650  0.780200  0.759700  1.0  -0.2979
  N  N368  1  0.201670  0.844300  0.801400  1.0  -0.2922
