# generated using pymatgen
data_Ni(CO2)3
_symmetry_space_group_name_H-M   'P 1'
_cell_length_a   15.31050000
_cell_length_b   15.31050000
_cell_length_c   15.31050000
_cell_angle_alpha   90.00000000
_cell_angle_beta   90.00000000
_cell_angle_gamma   90.00000000
_symmetry_Int_Tables_number   1
_chemical_formula_structural   Ni(CO2)3
_chemical_formula_sum   'Ni8 C24 O48'
_cell_volume   3588.95589663
_cell_formula_units_Z   8
loop_
 _symmetry_equiv_pos_site_id
 _symmetry_equiv_pos_as_xyz
  1  'x, y, z'
loop_
 _atom_site_type_symbol
 _atom_site_label
 _atom_site_symmetry_multiplicity
 _atom_site_fract_x
 _atom_site_fract_y
 _atom_site_fract_z
 _atom_site_occupancy
 _atom_site_charge
  Ni  Ni1  1  0.875000  0.875000  0.875000  1.0  0.733
  Ni  Ni2  1  0.375000  0.375000  0.375000  1.0  0.733
  Ni  Ni3  1  0.625000  0.125000  0.375000  1.0  0.733
  Ni  Ni4  1  0.125000  0.625000  0.875000  1.0  0.733
  Ni  Ni5  1  0.125000  0.375000  0.625000  1.0  0.733
  Ni  Ni6  1  0.625000  0.875000  0.125000  1.0  0.733
  Ni  Ni7  1  0.375000  0.625000  0.125000  1.0  0.733
  Ni  Ni8  1  0.875000  0.125000  0.625000  1.0  0.733
  C  C9  1  0.875000  0.964230  0.714230  1.0  0.6039
  C  C10  1  0.625000  0.035770  0.214230  1.0  0.605
  C  C11  1  0.125000  0.464230  0.785770  1.0  0.6053
  C  C12  1  0.375000  0.535770  0.285770  1.0  0.6035
  C  C13  1  0.714230  0.875000  0.964230  1.0  0.6078
  C  C14  1  0.214230  0.625000  0.035770  1.0  0.6069
  C  C15  1  0.785770  0.125000  0.464230  1.0  0.6086
  C  C16  1  0.285770  0.375000  0.535770  1.0  0.6094
  C  C17  1  0.964230  0.714230  0.875000  1.0  0.6045
  C  C18  1  0.035770  0.214230  0.625000  1.0  0.6057
  C  C19  1  0.464230  0.785770  0.125000  1.0  0.6047
  C  C20  1  0.535770  0.285770  0.375000  1.0  0.6054
  C  C21  1  0.714230  0.125000  0.535770  1.0  0.6069
  C  C22  1  0.785770  0.875000  0.035770  1.0  0.6094
  C  C23  1  0.214230  0.375000  0.464230  1.0  0.6078
  C  C24  1  0.285770  0.625000  0.964230  1.0  0.6086
  C  C25  1  0.625000  0.964230  0.285770  1.0  0.6053
  C  C26  1  0.375000  0.464230  0.214230  1.0  0.6039
  C  C27  1  0.875000  0.035770  0.785770  1.0  0.6035
  C  C28  1  0.125000  0.535770  0.714230  1.0  0.605
  C  C29  1  0.464230  0.214230  0.375000  1.0  0.6045
  C  C30  1  0.964230  0.285770  0.625000  1.0  0.6047
  C  C31  1  0.535770  0.714230  0.125000  1.0  0.6057
  C  C32  1  0.035770  0.785770  0.875000  1.0  0.6054
  O  O33  1  0.874160  0.886920  0.739640  1.0  -0.4259
  O  O34  1  0.374160  0.386920  0.239640  1.0  -0.4257
  O  O35  1  0.625840  0.113080  0.239640  1.0  -0.4248
  O  O36  1  0.125840  0.613080  0.739640  1.0  -0.4248
  O  O37  1  0.125840  0.386920  0.760360  1.0  -0.4254
  O  O38  1  0.625840  0.886920  0.260360  1.0  -0.4254
  O  O39  1  0.374160  0.613080  0.260360  1.0  -0.4227
  O  O40  1  0.874160  0.113080  0.760360  1.0  -0.4227
  O  O41  1  0.739640  0.874160  0.886920  1.0  -0.424
  O  O42  1  0.239640  0.374160  0.386920  1.0  -0.4238
  O  O43  1  0.239640  0.625840  0.113080  1.0  -0.423
  O  O44  1  0.739640  0.125840  0.613080  1.0  -0.423
  O  O45  1  0.760360  0.125840  0.386920  1.0  -0.4222
  O  O46  1  0.260360  0.625840  0.886920  1.0  -0.4222
  O  O47  1  0.260360  0.374160  0.613080  1.0  -0.4212
  O  O48  1  0.760360  0.874160  0.113080  1.0  -0.4212
  O  O49  1  0.886920  0.739640  0.874160  1.0  -0.4294
  O  O50  1  0.386920  0.239640  0.374160  1.0  -0.4292
  O  O51  1  0.113080  0.239640  0.625840  1.0  -0.4275
  O  O52  1  0.613080  0.739640  0.125840  1.0  -0.4275
  O  O53  1  0.386920  0.760360  0.125840  1.0  -0.4286
  O  O54  1  0.886920  0.260360  0.625840  1.0  -0.4286
  O  O55  1  0.613080  0.260360  0.374160  1.0  -0.4273
  O  O56  1  0.113080  0.760360  0.874160  1.0  -0.4273
  O  O57  1  0.636920  0.124160  0.510360  1.0  -0.426
  O  O58  1  0.136920  0.624160  0.010360  1.0  -0.426
  O  O59  1  0.863080  0.875840  0.010360  1.0  -0.4248
  O  O60  1  0.363080  0.375840  0.510360  1.0  -0.4248
  O  O61  1  0.136920  0.375840  0.489640  1.0  -0.4269
  O  O62  1  0.636920  0.875840  0.989640  1.0  -0.4269
  O  O63  1  0.363080  0.624160  0.989640  1.0  -0.4259
  O  O64  1  0.863080  0.124160  0.489640  1.0  -0.4231
  O  O65  1  0.624160  0.989640  0.363080  1.0  -0.4235
  O  O66  1  0.124160  0.489640  0.863080  1.0  -0.4208
  O  O67  1  0.375840  0.489640  0.136920  1.0  -0.4234
  O  O68  1  0.875840  0.989640  0.636920  1.0  -0.4234
  O  O69  1  0.875840  0.010360  0.863080  1.0  -0.422
  O  O70  1  0.375840  0.510360  0.363080  1.0  -0.4222
  O  O71  1  0.124160  0.510360  0.636920  1.0  -0.4234
  O  O72  1  0.624160  0.010360  0.136920  1.0  -0.4234
  O  O73  1  0.489640  0.136920  0.375840  1.0  -0.4281
  O  O74  1  0.989640  0.636920  0.875840  1.0  -0.4281
  O  O75  1  0.989640  0.363080  0.624160  1.0  -0.4277
  O  O76  1  0.489640  0.863080  0.124160  1.0  -0.4259
  O  O77  1  0.510360  0.636920  0.124160  1.0  -0.4282
  O  O78  1  0.010360  0.136920  0.624160  1.0  -0.4282
  O  O79  1  0.010360  0.863080  0.875840  1.0  -0.4246
  O  O80  1  0.510360  0.363080  0.375840  1.0  -0.4245
