# generated using pymatgen
data_Co(CO2)3
_symmetry_space_group_name_H-M   'P 1'
_cell_length_a   15.45190000
_cell_length_b   15.45190000
_cell_length_c   15.45190000
_cell_angle_alpha   90.00000000
_cell_angle_beta   90.00000000
_cell_angle_gamma   90.00000000
_symmetry_Int_Tables_number   1
_chemical_formula_structural   Co(CO2)3
_chemical_formula_sum   'Co8 C24 O48'
_cell_volume   3689.31439658
_cell_formula_units_Z   8
loop_
 _symmetry_equiv_pos_site_id
 _symmetry_equiv_pos_as_xyz
  1  'x, y, z'
loop_
 _atom_site_type_symbol
 _atom_site_label
 _atom_site_symmetry_multiplicity
 _atom_site_fract_x
 _atom_site_fract_y
 _atom_site_fract_z
 _atom_site_occupancy
 _atom_site_charge
  Co  Co1  1  0.125000  0.875000  0.375000  1.0  0.9547
  Co  Co2  1  0.375000  0.125000  0.875000  1.0  0.9547
  Co  Co3  1  0.875000  0.375000  0.125000  1.0  0.9547
  Co  Co4  1  0.375000  0.875000  0.625000  1.0  0.9547
  Co  Co5  1  0.625000  0.625000  0.625000  1.0  0.9547
  Co  Co6  1  0.875000  0.625000  0.375000  1.0  0.9547
  Co  Co7  1  0.625000  0.375000  0.875000  1.0  0.9547
  Co  Co8  1  0.125000  0.125000  0.125000  1.0  0.9547
  C  C9  1  0.125000  0.035890  0.285890  1.0  0.5833
  C  C10  1  0.625000  0.535890  0.785890  1.0  0.5833
  C  C11  1  0.375000  0.964110  0.785890  1.0  0.585
  C  C12  1  0.875000  0.464110  0.285890  1.0  0.585
  C  C13  1  0.875000  0.535890  0.214110  1.0  0.5841
  C  C14  1  0.375000  0.035890  0.714110  1.0  0.5841
  C  C15  1  0.625000  0.464110  0.714110  1.0  0.5836
  C  C16  1  0.125000  0.964110  0.214110  1.0  0.5836
  C  C17  1  0.285890  0.125000  0.035890  1.0  0.5897
  C  C18  1  0.785890  0.625000  0.535890  1.0  0.5897
  C  C19  1  0.785890  0.375000  0.964110  1.0  0.5884
  C  C20  1  0.285890  0.875000  0.464110  1.0  0.5884
  C  C21  1  0.214110  0.875000  0.535890  1.0  0.5871
  C  C22  1  0.714110  0.375000  0.035890  1.0  0.5871
  C  C23  1  0.714110  0.625000  0.464110  1.0  0.5878
  C  C24  1  0.214110  0.125000  0.964110  1.0  0.5878
  C  C25  1  0.035890  0.285890  0.125000  1.0  0.585
  C  C26  1  0.535890  0.785890  0.625000  1.0  0.585
  C  C27  1  0.964110  0.785890  0.375000  1.0  0.5842
  C  C28  1  0.464110  0.285890  0.875000  1.0  0.5842
  C  C29  1  0.535890  0.214110  0.875000  1.0  0.5858
  C  C30  1  0.035890  0.714110  0.375000  1.0  0.5858
  C  C31  1  0.464110  0.714110  0.625000  1.0  0.585
  C  C32  1  0.964110  0.214110  0.125000  1.0  0.585
  O  O33  1  0.124100  0.010380  0.361660  1.0  -0.4503
  O  O34  1  0.624100  0.510380  0.861660  1.0  -0.4503
  O  O35  1  0.375900  0.989620  0.861660  1.0  -0.4502
  O  O36  1  0.875900  0.489620  0.361660  1.0  -0.4502
  O  O37  1  0.875900  0.510380  0.138340  1.0  -0.4482
  O  O38  1  0.375900  0.010380  0.638340  1.0  -0.45
  O  O39  1  0.624100  0.489620  0.638340  1.0  -0.4504
  O  O40  1  0.124100  0.989620  0.138340  1.0  -0.4504
  O  O41  1  0.361660  0.124100  0.010380  1.0  -0.4531
  O  O42  1  0.861660  0.624100  0.510380  1.0  -0.4531
  O  O43  1  0.861660  0.375900  0.989620  1.0  -0.453
  O  O44  1  0.361660  0.875900  0.489620  1.0  -0.453
  O  O45  1  0.138340  0.875900  0.510380  1.0  -0.4522
  O  O46  1  0.638340  0.375900  0.010380  1.0  -0.4538
  O  O47  1  0.638340  0.624100  0.489620  1.0  -0.4541
  O  O48  1  0.138340  0.124100  0.989620  1.0  -0.4541
  O  O49  1  0.010380  0.361660  0.124100  1.0  -0.4516
  O  O50  1  0.510380  0.861660  0.624100  1.0  -0.4516
  O  O51  1  0.989620  0.861660  0.375900  1.0  -0.4544
  O  O52  1  0.489620  0.361660  0.875900  1.0  -0.4544
  O  O53  1  0.510380  0.138340  0.875900  1.0  -0.4523
  O  O54  1  0.010380  0.638340  0.375900  1.0  -0.4541
  O  O55  1  0.489620  0.638340  0.624100  1.0  -0.4543
  O  O56  1  0.989620  0.138340  0.124100  1.0  -0.4543
  O  O57  1  0.760380  0.374100  0.888340  1.0  -0.4489
  O  O58  1  0.260380  0.874100  0.388340  1.0  -0.4489
  O  O59  1  0.739620  0.625900  0.388340  1.0  -0.4499
  O  O60  1  0.239620  0.125900  0.888340  1.0  -0.4499
  O  O61  1  0.260380  0.125900  0.111660  1.0  -0.4487
  O  O62  1  0.760380  0.625900  0.611660  1.0  -0.4486
  O  O63  1  0.239620  0.874100  0.611660  1.0  -0.4507
  O  O64  1  0.739620  0.374100  0.111660  1.0  -0.4507
  O  O65  1  0.874100  0.611660  0.239620  1.0  -0.4512
  O  O66  1  0.374100  0.111660  0.739620  1.0  -0.4512
  O  O67  1  0.125900  0.111660  0.260380  1.0  -0.4501
  O  O68  1  0.625900  0.611660  0.760380  1.0  -0.4501
  O  O69  1  0.625900  0.388340  0.739620  1.0  -0.4509
  O  O70  1  0.125900  0.888340  0.239620  1.0  -0.4509
  O  O71  1  0.374100  0.888340  0.760380  1.0  -0.452
  O  O72  1  0.874100  0.388340  0.260380  1.0  -0.452
  O  O73  1  0.111660  0.260380  0.125900  1.0  -0.4543
  O  O74  1  0.611660  0.760380  0.625900  1.0  -0.4543
  O  O75  1  0.611660  0.239620  0.874100  1.0  -0.4539
  O  O76  1  0.111660  0.739620  0.374100  1.0  -0.4539
  O  O77  1  0.888340  0.760380  0.374100  1.0  -0.4558
  O  O78  1  0.388340  0.260380  0.874100  1.0  -0.4558
  O  O79  1  0.388340  0.739620  0.625900  1.0  -0.4549
  O  O80  1  0.888340  0.239620  0.125900  1.0  -0.4549
