# generated using pymatgen
data_Fe(CO2)3
_symmetry_space_group_name_H-M   'P 1'
_cell_length_a   15.58630000
_cell_length_b   15.58630000
_cell_length_c   15.58630000
_cell_angle_alpha   90.00000000
_cell_angle_beta   90.00000000
_cell_angle_gamma   90.00000000
_symmetry_Int_Tables_number   1
_chemical_formula_structural   Fe(CO2)3
_chemical_formula_sum   'Fe8 C24 O48'
_cell_volume   3786.42268532
_cell_formula_units_Z   8
loop_
 _symmetry_equiv_pos_site_id
 _symmetry_equiv_pos_as_xyz
  1  'x, y, z'
loop_
 _atom_site_type_symbol
 _atom_site_label
 _atom_site_symmetry_multiplicity
 _atom_site_fract_x
 _atom_site_fract_y
 _atom_site_fract_z
 _atom_site_occupancy
 _atom_site_charge
  Fe  Fe1  1  0.125000  0.875000  0.375000  1.0  0.8844
  Fe  Fe2  1  0.375000  0.125000  0.875000  1.0  0.8844
  Fe  Fe3  1  0.875000  0.375000  0.125000  1.0  0.8844
  Fe  Fe4  1  0.375000  0.875000  0.625000  1.0  0.8844
  Fe  Fe5  1  0.625000  0.625000  0.625000  1.0  0.8844
  Fe  Fe6  1  0.875000  0.625000  0.375000  1.0  0.8844
  Fe  Fe7  1  0.625000  0.375000  0.875000  1.0  0.8844
  Fe  Fe8  1  0.125000  0.125000  0.125000  1.0  0.8844
  C  C9  1  0.125000  0.035430  0.285430  1.0  0.5973
  C  C10  1  0.625000  0.535430  0.785430  1.0  0.5973
  C  C11  1  0.375000  0.964570  0.785430  1.0  0.5989
  C  C12  1  0.875000  0.464570  0.285430  1.0  0.5989
  C  C13  1  0.875000  0.535430  0.214570  1.0  0.5982
  C  C14  1  0.375000  0.035430  0.714570  1.0  0.5982
  C  C15  1  0.625000  0.464570  0.714570  1.0  0.5972
  C  C16  1  0.125000  0.964570  0.214570  1.0  0.5972
  C  C17  1  0.285430  0.125000  0.035430  1.0  0.6033
  C  C18  1  0.785430  0.625000  0.535430  1.0  0.6033
  C  C19  1  0.785430  0.375000  0.964570  1.0  0.602
  C  C20  1  0.285430  0.875000  0.464570  1.0  0.602
  C  C21  1  0.214570  0.875000  0.535430  1.0  0.6007
  C  C22  1  0.714570  0.375000  0.035430  1.0  0.6007
  C  C23  1  0.714570  0.625000  0.464570  1.0  0.6011
  C  C24  1  0.214570  0.125000  0.964570  1.0  0.6011
  C  C25  1  0.035430  0.285430  0.125000  1.0  0.599
  C  C26  1  0.535430  0.785430  0.625000  1.0  0.599
  C  C27  1  0.964570  0.785430  0.375000  1.0  0.5975
  C  C28  1  0.464570  0.285430  0.875000  1.0  0.5975
  C  C29  1  0.535430  0.214570  0.875000  1.0  0.5995
  C  C30  1  0.035430  0.714570  0.375000  1.0  0.5995
  C  C31  1  0.464570  0.714570  0.625000  1.0  0.598
  C  C32  1  0.964570  0.214570  0.125000  1.0  0.598
  O  O33  1  0.122920  0.010710  0.361030  1.0  -0.4446
  O  O34  1  0.622920  0.510710  0.861030  1.0  -0.4446
  O  O35  1  0.377080  0.989290  0.861030  1.0  -0.4448
  O  O36  1  0.877080  0.489290  0.361030  1.0  -0.4448
  O  O37  1  0.877080  0.510710  0.138970  1.0  -0.4438
  O  O38  1  0.377080  0.010710  0.638970  1.0  -0.4453
  O  O39  1  0.622920  0.489290  0.638970  1.0  -0.4447
  O  O40  1  0.122920  0.989290  0.138970  1.0  -0.4447
  O  O41  1  0.361030  0.122920  0.010710  1.0  -0.4484
  O  O42  1  0.861030  0.622920  0.510710  1.0  -0.4484
  O  O43  1  0.861030  0.377080  0.989290  1.0  -0.4488
  O  O44  1  0.361030  0.877080  0.489290  1.0  -0.4488
  O  O45  1  0.138970  0.877080  0.510710  1.0  -0.4474
  O  O46  1  0.638970  0.377080  0.010710  1.0  -0.4488
  O  O47  1  0.638970  0.622920  0.489290  1.0  -0.4493
  O  O48  1  0.138970  0.122920  0.989290  1.0  -0.4493
  O  O49  1  0.010710  0.361030  0.122920  1.0  -0.4471
  O  O50  1  0.510710  0.861030  0.622920  1.0  -0.4471
  O  O51  1  0.989290  0.861030  0.377080  1.0  -0.4495
  O  O52  1  0.489290  0.361030  0.877080  1.0  -0.4495
  O  O53  1  0.510710  0.138970  0.877080  1.0  -0.4472
  O  O54  1  0.010710  0.638970  0.377080  1.0  -0.4489
  O  O55  1  0.489290  0.638970  0.622920  1.0  -0.4494
  O  O56  1  0.989290  0.138970  0.122920  1.0  -0.4494
  O  O57  1  0.760710  0.372920  0.888970  1.0  -0.444
  O  O58  1  0.260710  0.872920  0.388970  1.0  -0.444
  O  O59  1  0.739290  0.627080  0.388970  1.0  -0.4452
  O  O60  1  0.239290  0.127080  0.888970  1.0  -0.4452
  O  O61  1  0.260710  0.127080  0.111030  1.0  -0.4429
  O  O62  1  0.760710  0.627080  0.611030  1.0  -0.4424
  O  O63  1  0.239290  0.872920  0.611030  1.0  -0.445
  O  O64  1  0.739290  0.372920  0.111030  1.0  -0.445
  O  O65  1  0.872920  0.611030  0.239290  1.0  -0.4468
  O  O66  1  0.372920  0.111030  0.739290  1.0  -0.4468
  O  O67  1  0.127080  0.111030  0.260710  1.0  -0.4459
  O  O68  1  0.627080  0.611030  0.760710  1.0  -0.4454
  O  O69  1  0.627080  0.388970  0.739290  1.0  -0.4468
  O  O70  1  0.127080  0.888970  0.239290  1.0  -0.4468
  O  O71  1  0.372920  0.888970  0.760710  1.0  -0.448
  O  O72  1  0.872920  0.388970  0.260710  1.0  -0.448
  O  O73  1  0.111030  0.260710  0.127080  1.0  -0.4495
  O  O74  1  0.611030  0.760710  0.627080  1.0  -0.449
  O  O75  1  0.611030  0.239290  0.872920  1.0  -0.4489
  O  O76  1  0.111030  0.739290  0.372920  1.0  -0.4489
  O  O77  1  0.888970  0.760710  0.372920  1.0  -0.4509
  O  O78  1  0.388970  0.260710  0.872920  1.0  -0.4509
  O  O79  1  0.388970  0.739290  0.627080  1.0  -0.4496
  O  O80  1  0.888970  0.239290  0.127080  1.0  -0.4496
