# generated using pymatgen
data_CdH8C10S(NO2)2
_symmetry_space_group_name_H-M   'P 1'
_cell_length_a   9.75540000
_cell_length_b   13.24300000
_cell_length_c   13.59560000
_cell_angle_alpha   118.30300000
_cell_angle_beta   90.00000000
_cell_angle_gamma   111.61200000
_symmetry_Int_Tables_number   1
_chemical_formula_structural   CdH8C10S(NO2)2
_chemical_formula_sum   'Cd4 H32 C40 S4 N8 O16'
_cell_volume   1404.63300568
_cell_formula_units_Z   4
loop_
 _symmetry_equiv_pos_site_id
 _symmetry_equiv_pos_as_xyz
  1  'x, y, z'
loop_
 _atom_site_type_symbol
 _atom_site_label
 _atom_site_symmetry_multiplicity
 _atom_site_fract_x
 _atom_site_fract_y
 _atom_site_fract_z
 _atom_site_occupancy
 _atom_site_charge
  Cd  Cd1  1  0.323180  0.512960  0.856450  1.0  1.0701
  Cd  Cd2  1  0.818970  0.491820  0.602720  1.0  1.1085
  Cd  Cd3  1  0.810220  0.487040  0.143550  1.0  1.0678
  Cd  Cd4  1  0.327150  0.508180  0.397280  1.0  1.1094
  H  H5  1  0.404000  0.806000  0.002900  1.0  0.0879
  H  H6  1  0.596600  0.002200  0.111700  1.0  0.1265
  H  H7  1  0.890700  0.841200  0.059200  1.0  0.1338
  H  H8  1  0.682600  0.644000  0.957200  1.0  0.0919
  H  H9  1  0.770000  0.177200  0.205300  1.0  0.125
  H  H10  1  0.970800  0.373600  0.297500  1.0  0.0888
  H  H11  1  0.259600  0.220000  0.239200  1.0  0.0869
  H  H12  1  0.066200  0.018200  0.136800  1.0  0.1309
  H  H13  1  0.953400  0.374000  0.785000  1.0  0.0983
  H  H14  1  0.755700  0.177600  0.695100  1.0  0.1372
  H  H15  1  0.058900  0.022200  0.635800  1.0  0.1488
  H  H16  1  0.247800  0.224000  0.721500  1.0  0.0879
  H  H17  1  0.690100  0.648400  0.459900  1.0  0.0781
  H  H18  1  0.889700  0.848600  0.548200  1.0  0.1301
  H  H19  1  0.583100  0.996800  0.640300  1.0  0.1344
  H  H20  1  0.392700  0.792800  0.549900  1.0  0.097
  H  H21  1  0.598000  0.194000  0.997100  1.0  0.0877
  H  H22  1  0.594400  0.997800  0.888300  1.0  0.1237
  H  H23  1  0.049500  0.158800  0.940800  1.0  0.1343
  H  H24  1  0.038600  0.356000  0.042800  1.0  0.0923
  H  H25  1  0.592800  0.822800  0.794700  1.0  0.1248
  H  H26  1  0.597200  0.626400  0.702500  1.0  0.0881
  H  H27  1  0.039600  0.780000  0.760800  1.0  0.0872
  H  H28  1  0.048000  0.981800  0.863200  1.0  0.1311
  H  H29  1  0.579400  0.626000  0.215000  1.0  0.0979
  H  H30  1  0.578100  0.822400  0.304900  1.0  0.1365
  H  H31  1  0.036700  0.977800  0.364200  1.0  0.1497
  H  H32  1  0.023800  0.776000  0.278500  1.0  0.0883
  H  H33  1  0.041700  0.351600  0.540100  1.0  0.0783
  H  H34  1  0.041100  0.151400  0.451800  1.0  0.1302
  H  H35  1  0.586300  0.003200  0.359700  1.0  0.1344
  H  H36  1  0.599900  0.207200  0.450100  1.0  0.097
  C  C37  1  0.503200  0.812400  0.014600  1.0  0.1731
  C  C38  1  0.619400  0.931000  0.079300  1.0  -0.1799
  C  C39  1  0.764900  0.945200  0.098300  1.0  0.0916
  C  C40  1  0.790700  0.836800  0.049600  1.0  -0.1901
  C  C41  1  0.666200  0.718400  0.987500  1.0  0.1739
  C  C42  1  0.892600  0.074800  0.161100  1.0  0.0538
  C  C43  1  0.869300  0.183200  0.210100  1.0  -0.1858
  C  C44  1  0.990400  0.300400  0.267000  1.0  0.177
  C  C45  1  0.158100  0.210800  0.231500  1.0  0.1775
  C  C46  1  0.044000  0.090400  0.171100  1.0  -0.2027
  C  C47  1  0.974900  0.301800  0.753300  1.0  0.1668
  C  C48  1  0.856100  0.184400  0.702100  1.0  -0.1776
  C  C49  1  0.883300  0.076200  0.659900  1.0  0.0816
  C  C50  1  0.034600  0.093000  0.666500  1.0  -0.2113
  C  C51  1  0.146100  0.214200  0.717700  1.0  0.1863
  C  C52  1  0.668200  0.720200  0.496800  1.0  0.173
  C  C53  1  0.787900  0.840000  0.549900  1.0  -0.199
  C  C54  1  0.757800  0.947000  0.604400  1.0  0.073
  C  C55  1  0.608800  0.927200  0.604000  1.0  -0.1664
  C  C56  1  0.494600  0.804200  0.549300  1.0  0.1866
  C  C57  1  0.690800  0.187600  0.985400  1.0  0.1727
  C  C58  1  0.688400  0.069000  0.920700  1.0  -0.18
  C  C59  1  0.819700  0.054800  0.901700  1.0  0.0922
  C  C60  1  0.953900  0.163200  0.950400  1.0  -0.1895
  C  C61  1  0.947800  0.281600  0.012500  1.0  0.1743
  C  C62  1  0.817800  0.925200  0.838900  1.0  0.0542
  C  C63  1  0.686100  0.816800  0.789900  1.0  -0.1855
  C  C64  1  0.690000  0.699600  0.733000  1.0  0.1773
  C  C65  1  0.947300  0.789200  0.768500  1.0  0.1765
  C  C66  1  0.953600  0.909600  0.828900  1.0  -0.2029
  C  C67  1  0.673100  0.698200  0.246700  1.0  0.1673
  C  C68  1  0.671700  0.815600  0.297900  1.0  -0.1774
  C  C69  1  0.807100  0.923800  0.340100  1.0  0.0817
  C  C70  1  0.941600  0.907000  0.333500  1.0  -0.2105
  C  C71  1  0.931900  0.785800  0.282300  1.0  0.1861
  C  C72  1  0.948000  0.279800  0.503200  1.0  0.1735
  C  C73  1  0.947900  0.160000  0.450100  1.0  -0.1992
  C  C74  1  0.810800  0.053000  0.395600  1.0  0.0729
  C  C75  1  0.681600  0.072800  0.396000  1.0  -0.1669
  C  C76  1  0.690400  0.195800  0.450700  1.0  0.1868
  S  S77  1  0.222680  0.616960  0.688400  1.0  1.6493
  S  S78  1  0.577140  0.370880  0.723200  1.0  1.6955
  S  S79  1  0.605720  0.383040  0.311600  1.0  1.6491
  S  S80  1  0.206260  0.629120  0.276800  1.0  1.6944
  N  N81  1  0.525000  0.706800  0.968800  1.0  -0.3582
  N  N82  1  0.133500  0.315400  0.280200  1.0  -0.3525
  N  N83  1  0.122100  0.319000  0.761900  1.0  -0.3515
  N  N84  1  0.524100  0.701400  0.495500  1.0  -0.355
  N  N85  1  0.818200  0.293200  0.031200  1.0  -0.3535
  N  N86  1  0.818100  0.684600  0.719800  1.0  -0.3515
  N  N87  1  0.803100  0.681000  0.238100  1.0  -0.3598
  N  N88  1  0.822700  0.298600  0.504500  1.0  -0.355
  O  O89  1  0.298300  0.544800  0.705100  1.0  -0.7746
  O  O90  1  0.306400  0.751600  0.766200  1.0  -0.7276
  O  O91  1  0.067400  0.573200  0.710000  1.0  -0.8115
  O  O92  1  0.211300  0.585600  0.568900  1.0  -0.7433
  O  O93  1  0.573800  0.401000  0.631500  1.0  -0.779
  O  O94  1  0.508900  0.234600  0.670800  1.0  -0.7065
  O  O95  1  0.735700  0.429200  0.776200  1.0  -0.7503
  O  O96  1  0.495300  0.428000  0.805400  1.0  -0.7876
  O  O97  1  0.753500  0.455200  0.294900  1.0  -0.7754
  O  O98  1  0.554800  0.248400  0.233800  1.0  -0.7244
  O  O99  1  0.494200  0.426800  0.290000  1.0  -0.811
  O  O100  1  0.625700  0.414400  0.431100  1.0  -0.7435
  O  O101  1  0.172800  0.599000  0.368500  1.0  -0.7791
  O  O102  1  0.274300  0.765400  0.329200  1.0  -0.7222
  O  O103  1  0.306500  0.570800  0.223800  1.0  -0.7532
  O  O104  1  0.067300  0.572000  0.194600  1.0  -0.788
