# generated using pymatgen
data_Mn2Mo(CN)8
_symmetry_space_group_name_H-M   'P 1'
_cell_length_a   7.33290000
_cell_length_b   14.37200000
_cell_length_c   18.07000000
_cell_angle_alpha   90.00000000
_cell_angle_beta   90.86900000
_cell_angle_gamma   90.00000000
_symmetry_Int_Tables_number   1
_chemical_formula_structural   Mn2Mo(CN)8
_chemical_formula_sum   'Mn8 Mo4 C32 N32'
_cell_volume   1904.15005736
_cell_formula_units_Z   4
loop_
 _symmetry_equiv_pos_site_id
 _symmetry_equiv_pos_as_xyz
  1  'x, y, z'
loop_
 _atom_site_type_symbol
 _atom_site_label
 _atom_site_symmetry_multiplicity
 _atom_site_fract_x
 _atom_site_fract_y
 _atom_site_fract_z
 _atom_site_occupancy
 _atom_site_charge
  Mn  Mn1  1  0.270720  0.565150  0.796120  1.0  1.2042
  Mn  Mn2  1  0.750140  0.194980  0.945350  1.0  1.131
  Mn  Mn3  1  0.229280  0.065150  0.703880  1.0  1.2049
  Mn  Mn4  1  0.749860  0.694980  0.554650  1.0  1.1306
  Mn  Mn5  1  0.729280  0.434850  0.203880  1.0  1.2043
  Mn  Mn6  1  0.249860  0.805020  0.054650  1.0  1.1301
  Mn  Mn7  1  0.770720  0.934850  0.296120  1.0  1.2056
  Mn  Mn8  1  0.250140  0.305020  0.445350  1.0  1.131
  Mo  Mo9  1  0.756240  0.338430  0.666540  1.0  -0.2624
  Mo  Mo10  1  0.743760  0.838430  0.833460  1.0  -0.261
  Mo  Mo11  1  0.243760  0.661570  0.333470  1.0  -0.2607
  Mo  Mo12  1  0.256240  0.161570  0.166540  1.0  -0.2622
  C  C13  1  0.963600  0.424190  0.717230  1.0  0.2317
  C  C14  1  0.809400  0.287660  0.778480  1.0  0.2389
  C  C15  1  0.565100  0.413020  0.734630  1.0  0.2136
  C  C16  1  0.547100  0.234230  0.687260  1.0  0.2344
  C  C17  1  0.910900  0.212090  0.654950  1.0  0.2226
  C  C18  1  0.592600  0.316060  0.566870  1.0  0.2077
  C  C19  1  0.961000  0.349830  0.582010  1.0  0.235
  C  C20  1  0.718200  0.476550  0.618510  1.0  0.2223
  C  C21  1  0.536400  0.924190  0.782770  1.0  0.2324
  C  C22  1  0.690600  0.787660  0.721520  1.0  0.2389
  C  C23  1  0.934900  0.913020  0.765370  1.0  0.2142
  C  C24  1  0.952900  0.734230  0.812740  1.0  0.2346
  C  C25  1  0.589100  0.712090  0.845050  1.0  0.2224
  C  C26  1  0.907400  0.816060  0.933130  1.0  0.2079
  C  C27  1  0.539000  0.849830  0.917990  1.0  0.237
  C  C28  1  0.781800  0.976550  0.881490  1.0  0.2226
  C  C29  1  0.036400  0.575810  0.282770  1.0  0.2326
  C  C30  1  0.190600  0.712340  0.221520  1.0  0.2382
  C  C31  1  0.434900  0.586980  0.265370  1.0  0.2143
  C  C32  1  0.452900  0.765770  0.312740  1.0  0.2347
  C  C33  1  0.089100  0.787910  0.345050  1.0  0.2228
  C  C34  1  0.407400  0.683940  0.433130  1.0  0.2079
  C  C35  1  0.039000  0.650170  0.417990  1.0  0.2368
  C  C36  1  0.281800  0.523450  0.381490  1.0  0.2229
  C  C37  1  0.463600  0.075810  0.217230  1.0  0.2331
  C  C38  1  0.309400  0.212340  0.278480  1.0  0.2382
  C  C39  1  0.065100  0.086980  0.234630  1.0  0.2137
  C  C40  1  0.047100  0.265770  0.187260  1.0  0.2345
  C  C41  1  0.410900  0.287910  0.154950  1.0  0.2229
  C  C42  1  0.092600  0.183940  0.066870  1.0  0.2076
  C  C43  1  0.461000  0.150170  0.082010  1.0  0.2348
  C  C44  1  0.218200  0.023450  0.118510  1.0  0.2223
  N  N45  1  0.068500  0.475070  0.742140  1.0  -0.4918
  N  N46  1  0.833000  0.259000  0.837580  1.0  -0.4888
  N  N47  1  0.474000  0.453560  0.774240  1.0  -0.4932
  N  N48  1  0.436300  0.179400  0.696540  1.0  -0.4917
  N  N49  1  0.004400  0.147640  0.651930  1.0  -0.5152
  N  N50  1  0.504000  0.305940  0.514380  1.0  -0.4837
  N  N51  1  0.074000  0.351220  0.537840  1.0  -0.4656
  N  N52  1  0.705300  0.550260  0.593850  1.0  -0.4527
  N  N53  1  0.431500  0.975070  0.757860  1.0  -0.4905
  N  N54  1  0.667000  0.759000  0.662420  1.0  -0.4881
  N  N55  1  0.026000  0.953560  0.725760  1.0  -0.4918
  N  N56  1  0.063700  0.679400  0.803460  1.0  -0.4927
  N  N57  1  0.495600  0.647640  0.848070  1.0  -0.5155
  N  N58  1  0.996000  0.805940  0.985620  1.0  -0.4834
  N  N59  1  0.426000  0.851220  0.962160  1.0  -0.465
  N  N60  1  0.794700  0.050260  0.906150  1.0  -0.4527
  N  N61  1  0.931500  0.524930  0.257860  1.0  -0.4898
  N  N62  1  0.167000  0.741000  0.162420  1.0  -0.4876
  N  N63  1  0.526000  0.546440  0.225760  1.0  -0.4926
  N  N64  1  0.563700  0.820600  0.303460  1.0  -0.4937
  N  N65  1  0.995600  0.852360  0.348070  1.0  -0.5167
  N  N66  1  0.496000  0.694060  0.485620  1.0  -0.4846
  N  N67  1  0.926000  0.648780  0.462160  1.0  -0.4652
  N  N68  1  0.294700  0.449740  0.406150  1.0  -0.4519
  N  N69  1  0.568500  0.024930  0.242140  1.0  -0.4915
  N  N70  1  0.333000  0.241000  0.337580  1.0  -0.4889
  N  N71  1  0.974000  0.046440  0.274240  1.0  -0.4934
  N  N72  1  0.936300  0.320600  0.196540  1.0  -0.4929
  N  N73  1  0.504400  0.352360  0.151930  1.0  -0.5157
  N  N74  1  0.004000  0.194060  0.014380  1.0  -0.4838
  N  N75  1  0.574000  0.148780  0.037840  1.0  -0.4658
  N  N76  1  0.205300  0.949740  0.093850  1.0  -0.4525
