# generated using pymatgen
data_Cu6Mo2H36C47S8N11
_symmetry_space_group_name_H-M   'P 1'
_cell_length_a   17.10420000
_cell_length_b   18.30520000
_cell_length_c   20.23600000
_cell_angle_alpha   75.30500000
_cell_angle_beta   86.88200000
_cell_angle_gamma   67.40900000
_symmetry_Int_Tables_number   1
_chemical_formula_structural   Cu6Mo2H36C47S8N11
_chemical_formula_sum   'Cu12 Mo4 H72 C94 S16 N22'
_cell_volume   5651.74091263
_cell_formula_units_Z   2
loop_
 _symmetry_equiv_pos_site_id
 _symmetry_equiv_pos_as_xyz
  1  'x, y, z'
loop_
 _atom_site_type_symbol
 _atom_site_label
 _atom_site_symmetry_multiplicity
 _atom_site_fract_x
 _atom_site_fract_y
 _atom_site_fract_z
 _atom_site_occupancy
 _atom_site_charge
  Cu  Cu1  1  0.078600  0.152040  0.677880  1.0  0.3277
  Cu  Cu2  1  0.012780  0.301280  0.774570  1.0  0.3608
  Cu  Cu3  1  0.197080  0.291560  0.668600  1.0  0.4246
  Cu  Cu4  1  0.373740  0.695430  0.219730  1.0  0.3925
  Cu  Cu5  1  0.526000  0.655950  0.081250  1.0  0.3318
  Cu  Cu6  1  0.498600  0.182580  0.834810  1.0  0.3273
  Cu  Cu7  1  0.921400  0.847960  0.322120  1.0  0.3289
  Cu  Cu8  1  0.987220  0.698720  0.225430  1.0  0.361
  Cu  Cu9  1  0.802920  0.708440  0.331400  1.0  0.4256
  Cu  Cu10  1  0.626260  0.304570  0.780270  1.0  0.3944
  Cu  Cu11  1  0.474000  0.344050  0.918750  1.0  0.3313
  Cu  Cu12  1  0.501400  0.817420  0.165190  1.0  0.3302
  Mo  Mo13  1  0.035720  0.313750  0.641540  1.0  0.48
  Mo  Mo14  1  0.542290  0.655560  0.211610  1.0  0.5397
  Mo  Mo15  1  0.964280  0.686250  0.358460  1.0  0.4813
  Mo  Mo16  1  0.457710  0.344440  0.788390  1.0  0.5426
  H  H17  1  0.089500  0.976600  0.689900  1.0  0.1146
  H  H18  1  0.058300  0.919900  0.604900  1.0  0.1082
  H  H19  1  0.949200  0.136800  0.470100  1.0  0.1338
  H  H20  1  0.970700  0.190900  0.557000  1.0  0.0486
  H  H21  1  0.223700  0.685700  0.302200  1.0  0.0583
  H  H22  1  0.183600  0.606000  0.388400  1.0  0.1073
  H  H23  1  0.431700  0.461000  0.432200  1.0  0.1246
  H  H24  1  0.459400  0.557000  0.343200  1.0  0.0557
  H  H25  1  0.163000  0.497400  0.446900  1.0  0.119
  H  H26  1  0.135200  0.408100  0.534300  1.0  0.0487
  H  H27  1  0.344800  0.347800  0.629400  1.0  0.034
  H  H28  1  0.390000  0.426800  0.548500  1.0  0.1193
  H  H29  1  0.339700  0.757600  0.062300  1.0  0.1041
  H  H30  1  0.244100  0.853000  0.982900  1.0  0.0974
  H  H31  1  0.432900  0.848400  0.850900  1.0  0.1258
  H  H32  1  0.523500  0.751200  0.935000  1.0  0.0836
  H  H33  1  0.162400  0.905700  0.877100  1.0  0.1148
  H  H34  1  0.073200  0.009100  0.787400  1.0  0.0877
  H  H35  1  0.250800  0.095600  0.737700  1.0  0.0989
  H  H36  1  0.348300  0.989700  0.815400  1.0  0.1184
  H  H37  1  0.707700  0.546700  0.089700  1.0  0.0887
  H  H38  1  0.808300  0.477200  0.026000  1.0  0.1216
  H  H39  1  0.618600  0.510000  0.894000  1.0  0.1238
  H  H40  1  0.527100  0.576900  0.960900  1.0  0.0754
  H  H41  1  0.874000  0.495700  0.916900  1.0  0.1179
  H  H42  1  0.975400  0.430200  0.849000  1.0  0.0846
  H  H43  1  0.842600  0.306300  0.821400  1.0  0.0681
  H  H44  1  0.734100  0.375500  0.881800  1.0  0.1165
  H  H45  1  0.310700  0.917500  0.153400  1.0  0.1
  H  H46  1  0.211300  0.013100  0.074500  1.0  0.1156
  H  H47  1  0.390000  0.024200  0.942100  1.0  0.1152
  H  H48  1  0.489400  0.912200  0.019300  1.0  0.083
  H  H49  1  0.130000  0.047300  0.969700  1.0  0.1312
  H  H50  1  0.032000  0.150500  0.890100  1.0  0.0716
  H  H51  1  0.189800  0.260200  0.827700  1.0  0.0786
  H  H52  1  0.292700  0.162900  0.908700  1.0  0.1127
  H  H53  1  0.910500  0.023400  0.310100  1.0  0.1143
  H  H54  1  0.941700  0.080100  0.395100  1.0  0.1085
  H  H55  1  0.050800  0.863200  0.529900  1.0  0.1333
  H  H56  1  0.029300  0.809100  0.443000  1.0  0.0483
  H  H57  1  0.776300  0.314300  0.697800  1.0  0.0584
  H  H58  1  0.816400  0.394000  0.611600  1.0  0.1062
  H  H59  1  0.568300  0.539000  0.567800  1.0  0.1272
  H  H60  1  0.540600  0.443000  0.656800  1.0  0.0565
  H  H61  1  0.837000  0.502600  0.553100  1.0  0.1191
  H  H62  1  0.864800  0.591900  0.465700  1.0  0.0472
  H  H63  1  0.655200  0.652200  0.370600  1.0  0.0327
  H  H64  1  0.610000  0.573200  0.451500  1.0  0.1187
  H  H65  1  0.660300  0.242400  0.937700  1.0  0.1032
  H  H66  1  0.755900  0.147000  0.017100  1.0  0.0978
  H  H67  1  0.567100  0.151600  0.149100  1.0  0.126
  H  H68  1  0.476500  0.248800  0.065000  1.0  0.0839
  H  H69  1  0.837600  0.094300  0.122900  1.0  0.1149
  H  H70  1  0.926800  0.990900  0.212600  1.0  0.09
  H  H71  1  0.749200  0.904400  0.262300  1.0  0.0988
  H  H72  1  0.651700  0.010300  0.184600  1.0  0.1182
  H  H73  1  0.292300  0.453300  0.910300  1.0  0.0864
  H  H74  1  0.191700  0.522800  0.974000  1.0  0.122
  H  H75  1  0.381400  0.490000  0.106000  1.0  0.1238
  H  H76  1  0.472900  0.423100  0.039100  1.0  0.075
  H  H77  1  0.126000  0.504300  0.083100  1.0  0.1175
  H  H78  1  0.024600  0.569800  0.151000  1.0  0.0842
  H  H79  1  0.157400  0.693700  0.178600  1.0  0.0673
  H  H80  1  0.265900  0.624500  0.118200  1.0  0.1169
  H  H81  1  0.689300  0.082500  0.846600  1.0  0.1007
  H  H82  1  0.788700  0.986900  0.925500  1.0  0.1162
  H  H83  1  0.610000  0.975800  0.057900  1.0  0.1156
  H  H84  1  0.510600  0.087800  0.980700  1.0  0.083
  H  H85  1  0.870000  0.952700  0.030300  1.0  0.1312
  H  H86  1  0.968000  0.849500  0.109900  1.0  0.0742
  H  H87  1  0.810200  0.739800  0.172300  1.0  0.0783
  H  H88  1  0.707300  0.837100  0.091300  1.0  0.1145
  C  C89  1  0.065000  0.007300  0.646000  1.0  0.0681
  C  C90  1  0.043500  0.977300  0.594200  1.0  -0.1238
  C  C91  1  0.004000  0.019800  0.531400  1.0  0.0613
  C  C92  1  0.977000  0.103400  0.513000  1.0  -0.1799
  C  C93  1  0.996000  0.133200  0.564000  1.0  0.1907
  C  C94  1  0.266900  0.637400  0.327700  1.0  0.1773
  C  C95  1  0.242100  0.593200  0.380500  1.0  -0.2001
  C  C96  1  0.303000  0.528600  0.423100  1.0  0.0855
  C  C97  1  0.387300  0.508000  0.407000  1.0  -0.2138
  C  C98  1  0.402000  0.563200  0.350000  1.0  0.1663
  C  C99  1  0.281900  0.470700  0.482300  1.0  0.0838
  C  C100  1  0.204200  0.465000  0.483300  1.0  -0.208
  C  C101  1  0.188000  0.414000  0.536600  1.0  0.1825
  C  C102  1  0.307500  0.379300  0.590400  1.0  0.1897
  C  C103  1  0.336200  0.424400  0.543200  1.0  -0.2186
  C  C104  1  0.357500  0.775900  0.018100  1.0  0.1389
  C  C105  1  0.301900  0.833300  0.971700  1.0  -0.1591
  C  C106  1  0.323600  0.867700  0.905300  1.0  0.0797
  C  C107  1  0.411800  0.831100  0.893900  1.0  -0.207
  C  C108  1  0.464900  0.772200  0.943700  1.0  0.1474
  C  C109  1  0.266500  0.929800  0.853200  1.0  0.0657
  C  C110  1  0.183700  0.941700  0.846600  1.0  -0.1918
  C  C111  1  0.128700  0.006000  0.795700  1.0  0.1214
  C  C112  1  0.234500  0.054500  0.766400  1.0  0.1547
  C  C113  1  0.292200  0.992300  0.811300  1.0  -0.1407
  C  C114  1  0.690400  0.541400  0.047900  1.0  0.1392
  C  C115  1  0.750300  0.498500  0.011100  1.0  -0.22
  C  C116  1  0.727300  0.485000  0.950000  1.0  0.0811
  C  C117  1  0.639000  0.517700  0.933400  1.0  -0.204
  C  C118  1  0.585800  0.558700  0.972600  1.0  0.146
  C  C119  1  0.792800  0.441700  0.908700  1.0  0.1074
  C  C120  1  0.865500  0.457300  0.897100  1.0  -0.2078
  C  C121  1  0.926200  0.417700  0.856800  1.0  0.1302
  C  C122  1  0.848600  0.346700  0.839900  1.0  0.1652
  C  C123  1  0.784400  0.386300  0.877400  1.0  -0.203
  C  C124  1  0.327900  0.937100  0.109300  1.0  0.1282
  C  C125  1  0.269100  0.995700  0.063300  1.0  -0.1813
  C  C126  1  0.290100  0.030800  0.000800  1.0  0.1037
  C  C127  1  0.372700  0.001000  0.984900  1.0  -0.1845
  C  C128  1  0.432700  0.935200  0.032500  1.0  0.133
  C  C129  1  0.224500  0.095000  0.948400  1.0  0.0809
  C  C130  1  0.143500  0.090600  0.941800  1.0  -0.2087
  C  C131  1  0.086500  0.152000  0.893300  1.0  0.1468
  C  C132  1  0.177400  0.216800  0.856900  1.0  0.1603
  C  C133  1  0.239600  0.158500  0.905500  1.0  -0.2017
  C  C134  1  0.360100  0.168300  0.758600  1.0  0.2951
  C  C135  1  0.206000  0.817000  0.143800  1.0  0.337
  C  C136  1  0.935000  0.992700  0.354000  1.0  0.0666
  C  C137  1  0.956500  0.022700  0.405800  1.0  -0.1233
  C  C138  1  0.996000  0.980200  0.468600  1.0  0.0612
  C  C139  1  0.023000  0.896600  0.487000  1.0  -0.1793
  C  C140  1  0.004000  0.866800  0.436000  1.0  0.1901
  C  C141  1  0.733100  0.362600  0.672300  1.0  0.177
  C  C142  1  0.757900  0.406800  0.619500  1.0  -0.1985
  C  C143  1  0.697000  0.471400  0.576900  1.0  0.0855
  C  C144  1  0.612700  0.492000  0.593000  1.0  -0.2163
  C  C145  1  0.598000  0.436800  0.650000  1.0  0.1671
  C  C146  1  0.718100  0.529300  0.517700  1.0  0.0833
  C  C147  1  0.795800  0.535000  0.516700  1.0  -0.2109
  C  C148  1  0.812000  0.586000  0.463400  1.0  0.1813
  C  C149  1  0.692500  0.620700  0.409600  1.0  0.1907
  C  C150  1  0.663800  0.575600  0.456800  1.0  -0.2174
  C  C151  1  0.642500  0.224100  0.981900  1.0  0.1373
  C  C152  1  0.698100  0.166700  0.028300  1.0  -0.1597
  C  C153  1  0.676400  0.132300  0.094700  1.0  0.0797
  C  C154  1  0.588200  0.168900  0.106100  1.0  -0.21
  C  C155  1  0.535100  0.227800  0.056300  1.0  0.1457
  C  C156  1  0.733500  0.070200  0.146800  1.0  0.0659
  C  C157  1  0.816300  0.058300  0.153400  1.0  -0.1932
  C  C158  1  0.871300  0.994000  0.204300  1.0  0.1245
  C  C159  1  0.765500  0.945500  0.233600  1.0  0.1481
  C  C160  1  0.707800  0.007700  0.188700  1.0  -0.1544
  C  C161  1  0.309600  0.458600  0.952100  1.0  0.1395
  C  C162  1  0.249700  0.501500  0.988900  1.0  -0.2216
  C  C163  1  0.272700  0.515000  0.050000  1.0  0.0811
  C  C164  1  0.361000  0.482300  0.066600  1.0  -0.2031
  C  C165  1  0.414200  0.441300  0.027400  1.0  0.1468
  C  C166  1  0.207200  0.558300  0.091300  1.0  0.1083
  C  C167  1  0.134500  0.542700  0.102900  1.0  -0.2057
  C  C168  1  0.073800  0.582300  0.143200  1.0  0.1303
  C  C169  1  0.151400  0.653300  0.160100  1.0  0.1658
  C  C170  1  0.215600  0.613700  0.122600  1.0  -0.2009
  C  C171  1  0.672100  0.062900  0.890700  1.0  0.1296
  C  C172  1  0.730900  0.004300  0.936700  1.0  -0.1828
  C  C173  1  0.709900  0.969200  0.999200  1.0  0.1007
  C  C174  1  0.627300  0.999000  0.015100  1.0  -0.1833
  C  C175  1  0.567300  0.064800  0.967500  1.0  0.1337
  C  C176  1  0.775500  0.905000  0.051600  1.0  0.0813
  C  C177  1  0.856500  0.909400  0.058200  1.0  -0.209
  C  C178  1  0.913500  0.848000  0.106700  1.0  0.1494
  C  C179  1  0.822600  0.783200  0.143100  1.0  0.1604
  C  C180  1  0.760400  0.841500  0.094500  1.0  -0.2024
  C  C181  1  0.639900  0.831700  0.241400  1.0  0.2829
  C  C182  1  0.794000  0.183000  0.856200  1.0  0.3245
  S  S183  1  0.962800  0.244400  0.708000  1.0  -0.448
  S  S184  1  0.153000  0.219500  0.611200  1.0  -0.462
  S  S185  1  0.077800  0.377400  0.707200  1.0  -0.4865
  S  S186  1  0.464800  0.599500  0.169000  1.0  -0.5209
  S  S187  1  0.452400  0.752200  0.259100  1.0  -0.4554
  S  S188  1  0.598800  0.717700  0.122200  1.0  -0.4874
  S  S189  1  0.441200  0.097900  0.802800  1.0  -0.3331
  S  S190  1  0.118100  0.887600  0.099100  1.0  -0.4902
  S  S191  1  0.037200  0.755600  0.292000  1.0  -0.4493
  S  S192  1  0.847000  0.780500  0.388800  1.0  -0.4663
  S  S193  1  0.922200  0.622600  0.292800  1.0  -0.4951
  S  S194  1  0.535200  0.400500  0.831000  1.0  -0.5129
  S  S195  1  0.547600  0.247800  0.740900  1.0  -0.4561
  S  S196  1  0.401200  0.282300  0.877800  1.0  -0.4876
  S  S197  1  0.558800  0.902100  0.197200  1.0  -0.3345
  S  S198  1  0.881900  0.112400  0.900900  1.0  -0.4873
  N  N199  1  0.042300  0.095100  0.616700  1.0  -0.2798
  N  N200  1  0.344300  0.622500  0.306500  1.0  -0.2738
  N  N201  1  0.237000  0.371200  0.592000  1.0  -0.2825
  N  N202  1  0.441200  0.741800  0.003700  1.0  -0.3161
  N  N203  1  0.154600  0.060000  0.760900  1.0  -0.2756
  N  N204  1  0.606400  0.577600  0.028500  1.0  -0.3066
  N  N205  1  0.918700  0.362000  0.828100  1.0  -0.2883
  N  N206  1  0.412600  0.904100  0.095300  1.0  -0.2898
  N  N207  1  0.100700  0.214600  0.849400  1.0  -0.3075
  N  N208  1  0.300800  0.223400  0.726400  1.0  -0.4897
  N  N209  1  0.263300  0.770600  0.174200  1.0  -0.4862
  N  N210  1  0.957700  0.904900  0.383300  1.0  -0.28
  N  N211  1  0.655700  0.377500  0.693500  1.0  -0.2789
  N  N212  1  0.763000  0.628800  0.408000  1.0  -0.2835
  N  N213  1  0.558800  0.258200  0.996300  1.0  -0.3156
  N  N214  1  0.845400  0.940000  0.239100  1.0  -0.2781
  N  N215  1  0.393600  0.422400  0.971500  1.0  -0.3067
  N  N216  1  0.081300  0.638000  0.171900  1.0  -0.2923
  N  N217  1  0.587400  0.095900  0.904700  1.0  -0.2884
  N  N218  1  0.899300  0.785400  0.150600  1.0  -0.3082
  N  N219  1  0.699200  0.776600  0.273600  1.0  -0.4902
  N  N220  1  0.736700  0.229400  0.825800  1.0  -0.487
