# generated using pymatgen
data_Cu3MoH20C26(S2N3)2
_symmetry_space_group_name_H-M   'P 1'
_cell_length_a   9.99980000
_cell_length_b   17.66400000
_cell_length_c   27.29400000
_cell_angle_alpha   90.00000000
_cell_angle_beta   90.00000000
_cell_angle_gamma   100.51000000
_symmetry_Int_Tables_number   1
_chemical_formula_structural   Cu3MoH20C26(S2N3)2
_chemical_formula_sum   'Cu12 Mo4 H80 C104 S16 N24'
_cell_volume   4740.23229403
_cell_formula_units_Z   4
loop_
 _symmetry_equiv_pos_site_id
 _symmetry_equiv_pos_as_xyz
  1  'x, y, z'
loop_
 _atom_site_type_symbol
 _atom_site_label
 _atom_site_symmetry_multiplicity
 _atom_site_fract_x
 _atom_site_fract_y
 _atom_site_fract_z
 _atom_site_occupancy
 _atom_site_charge
  Cu  Cu1  1  0.754050  0.176260  0.592160  1.0  0.4371
  Cu  Cu2  1  0.115310  0.180530  0.549550  1.0  0.3545
  Cu  Cu3  1  0.054190  0.298370  0.657880  1.0  0.3398
  Cu  Cu4  1  0.245950  0.323740  0.092160  1.0  0.4389
  Cu  Cu5  1  0.884690  0.319470  0.049550  1.0  0.3539
  Cu  Cu6  1  0.945810  0.201630  0.157880  1.0  0.3398
  Cu  Cu7  1  0.245950  0.823740  0.407840  1.0  0.4365
  Cu  Cu8  1  0.884690  0.819470  0.450450  1.0  0.3539
  Cu  Cu9  1  0.945810  0.701630  0.342120  1.0  0.3384
  Cu  Cu10  1  0.754050  0.676260  0.907840  1.0  0.4341
  Cu  Cu11  1  0.115310  0.680530  0.950450  1.0  0.3544
  Cu  Cu12  1  0.054190  0.798370  0.842120  1.0  0.3381
  Mo  Mo13  1  0.984270  0.148790  0.635560  1.0  0.4943
  Mo  Mo14  1  0.015730  0.351210  0.135560  1.0  0.4936
  Mo  Mo15  1  0.015730  0.851210  0.364440  1.0  0.4942
  Mo  Mo16  1  0.984270  0.648790  0.864440  1.0  0.4951
  H  H17  1  0.149100  0.017900  0.553900  1.0  0.071
  H  H18  1  0.310700  0.940600  0.539300  1.0  0.1292
  H  H19  1  0.541700  0.123300  0.473900  1.0  0.1231
  H  H20  1  0.373400  0.193300  0.489900  1.0  0.0725
  H  H21  1  0.327800  0.812900  0.794900  1.0  0.0922
  H  H22  1  0.461100  0.887000  0.737500  1.0  0.1274
  H  H23  1  0.133600  0.975900  0.696300  1.0  0.123
  H  H24  1  0.008900  0.898500  0.754500  1.0  0.0835
  H  H25  1  0.304400  0.082800  0.676500  1.0  0.1116
  H  H26  1  0.459400  0.163400  0.628000  1.0  0.0876
  H  H27  1  0.677700  0.002500  0.611400  1.0  0.0697
  H  H28  1  0.530400  0.917700  0.658900  1.0  0.1279
  H  H29  1  0.281500  0.333700  0.516700  1.0  0.0781
  H  H30  1  0.251400  0.443100  0.473200  1.0  0.127
  H  H31  1  0.868800  0.334600  0.442500  1.0  0.1153
  H  H32  1  0.912200  0.228900  0.484300  1.0  0.0789
  H  H33  1  0.170500  0.551100  0.461900  1.0  0.1191
  H  H34  1  0.117600  0.657300  0.421700  1.0  0.0671
  H  H35  1  0.829400  0.526800  0.346600  1.0  0.0812
  H  H36  1  0.863700  0.419200  0.388400  1.0  0.1262
  H  H37  1  0.850900  0.482100  0.053900  1.0  0.071
  H  H38  1  0.689300  0.559400  0.039300  1.0  0.1289
  H  H39  1  0.458300  0.376700  0.973900  1.0  0.1234
  H  H40  1  0.626600  0.306700  0.989900  1.0  0.0727
  H  H41  1  0.672200  0.687100  0.294900  1.0  0.0925
  H  H42  1  0.538900  0.613000  0.237500  1.0  0.1272
  H  H43  1  0.866400  0.524100  0.196300  1.0  0.1224
  H  H44  1  0.991100  0.601500  0.254500  1.0  0.0835
  H  H45  1  0.695600  0.417200  0.176500  1.0  0.1112
  H  H46  1  0.540600  0.336600  0.128000  1.0  0.0879
  H  H47  1  0.322300  0.497500  0.111400  1.0  0.0701
  H  H48  1  0.469600  0.582300  0.158900  1.0  0.1274
  H  H49  1  0.718500  0.166300  0.016700  1.0  0.0783
  H  H50  1  0.748600  0.056900  0.973200  1.0  0.127
  H  H51  1  0.131200  0.165400  0.942500  1.0  0.1154
  H  H52  1  0.087800  0.271100  0.984300  1.0  0.0789
  H  H53  1  0.829500  0.948900  0.961900  1.0  0.1189
  H  H54  1  0.882400  0.842700  0.921700  1.0  0.0671
  H  H55  1  0.170600  0.973200  0.846600  1.0  0.0816
  H  H56  1  0.136300  0.080800  0.888400  1.0  0.1269
  H  H57  1  0.850900  0.982100  0.446100  1.0  0.0715
  H  H58  1  0.689300  0.059400  0.460700  1.0  0.1292
  H  H59  1  0.458300  0.876700  0.526100  1.0  0.1239
  H  H60  1  0.626600  0.806700  0.510100  1.0  0.0724
  H  H61  1  0.672200  0.187100  0.205100  1.0  0.0925
  H  H62  1  0.538900  0.113000  0.262500  1.0  0.1272
  H  H63  1  0.866400  0.024100  0.303700  1.0  0.122
  H  H64  1  0.991100  0.101500  0.245500  1.0  0.0836
  H  H65  1  0.695600  0.917200  0.323500  1.0  0.1109
  H  H66  1  0.540600  0.836600  0.372000  1.0  0.0878
  H  H67  1  0.322300  0.997500  0.388600  1.0  0.0699
  H  H68  1  0.469600  0.082300  0.341100  1.0  0.1277
  H  H69  1  0.718500  0.666300  0.483300  1.0  0.0787
  H  H70  1  0.748600  0.556900  0.526800  1.0  0.1272
  H  H71  1  0.131200  0.665400  0.557500  1.0  0.1153
  H  H72  1  0.087800  0.771100  0.515700  1.0  0.0791
  H  H73  1  0.829500  0.448900  0.538100  1.0  0.1195
  H  H74  1  0.882400  0.342700  0.578300  1.0  0.0677
  H  H75  1  0.170600  0.473200  0.653400  1.0  0.0819
  H  H76  1  0.136300  0.580800  0.611600  1.0  0.1268
  H  H77  1  0.149100  0.517900  0.946100  1.0  0.0708
  H  H78  1  0.310700  0.440600  0.960700  1.0  0.1287
  H  H79  1  0.541700  0.623300  0.026100  1.0  0.124
  H  H80  1  0.373400  0.693300  0.010100  1.0  0.0728
  H  H81  1  0.327800  0.312900  0.705100  1.0  0.0922
  H  H82  1  0.461100  0.387000  0.762500  1.0  0.1271
  H  H83  1  0.133600  0.475900  0.803700  1.0  0.1228
  H  H84  1  0.008900  0.398500  0.745500  1.0  0.0833
  H  H85  1  0.304400  0.582800  0.823500  1.0  0.1115
  H  H86  1  0.459400  0.663400  0.872000  1.0  0.0877
  H  H87  1  0.677700  0.502500  0.888600  1.0  0.0694
  H  H88  1  0.530400  0.417700  0.841100  1.0  0.1279
  H  H89  1  0.281500  0.833700  0.983300  1.0  0.0787
  H  H90  1  0.251400  0.943100  0.026800  1.0  0.1268
  H  H91  1  0.868800  0.834600  0.057500  1.0  0.1151
  H  H92  1  0.912200  0.728900  0.015700  1.0  0.079
  H  H93  1  0.170500  0.051100  0.038100  1.0  0.1197
  H  H94  1  0.117600  0.157300  0.078300  1.0  0.0672
  H  H95  1  0.829400  0.026800  0.153400  1.0  0.0818
  H  H96  1  0.863700  0.919200  0.111600  1.0  0.1263
  C  C97  1  0.636900  0.283200  0.520300  1.0  0.3479
  C  C98  1  0.230900  0.039800  0.537500  1.0  0.1445
  C  C99  1  0.327100  0.992800  0.528900  1.0  -0.1958
  C  C100  1  0.446900  0.023800  0.504800  1.0  0.0874
  C  C101  1  0.461700  0.099500  0.490600  1.0  -0.192
  C  C102  1  0.360500  0.141300  0.500600  1.0  0.1651
  C  C103  1  0.288100  0.847100  0.775000  1.0  0.1403
  C  C104  1  0.368000  0.891100  0.740700  1.0  -0.2058
  C  C105  1  0.314300  0.940900  0.710900  1.0  0.0929
  C  C106  1  0.176100  0.943200  0.716400  1.0  -0.1993
  C  C107  1  0.103100  0.897100  0.751400  1.0  0.14
  C  C108  1  0.402900  0.992400  0.676000  1.0  0.0932
  C  C109  1  0.382400  0.065300  0.664500  1.0  -0.1906
  C  C110  1  0.475500  0.113200  0.635300  1.0  0.1456
  C  C111  1  0.602000  0.019800  0.625700  1.0  0.1517
  C  C112  1  0.514800  0.968700  0.654200  1.0  -0.2228
  C  C113  1  0.196500  0.334000  0.501300  1.0  0.1541
  C  C114  1  0.178700  0.400400  0.475800  1.0  -0.1935
  C  C115  1  0.053400  0.403200  0.454200  1.0  0.0805
  C  C116  1  0.954900  0.336500  0.457600  1.0  -0.1875
  C  C117  1  0.981700  0.273400  0.482700  1.0  0.1483
  C  C118  1  0.025300  0.472400  0.429000  1.0  0.0973
  C  C119  1  0.098500  0.544600  0.438700  1.0  -0.1897
  C  C120  1  0.066200  0.608000  0.414200  1.0  0.1697
  C  C121  1  0.897600  0.532300  0.371200  1.0  0.1345
  C  C122  1  0.920000  0.467500  0.395000  1.0  -0.1966
  C  C123  1  0.363100  0.216800  0.020300  1.0  0.347
  C  C124  1  0.769100  0.460200  0.037500  1.0  0.1444
  C  C125  1  0.672900  0.507200  0.028900  1.0  -0.1997
  C  C126  1  0.553100  0.476200  0.004800  1.0  0.0886
  C  C127  1  0.538300  0.400500  0.990600  1.0  -0.1909
  C  C128  1  0.639500  0.358700  0.000600  1.0  0.1643
  C  C129  1  0.711900  0.652900  0.275000  1.0  0.1403
  C  C130  1  0.632000  0.608900  0.240700  1.0  -0.206
  C  C131  1  0.685700  0.559100  0.210900  1.0  0.0927
  C  C132  1  0.823900  0.556800  0.216400  1.0  -0.1986
  C  C133  1  0.896900  0.602900  0.251400  1.0  0.1416
  C  C134  1  0.597100  0.507600  0.176000  1.0  0.0933
  C  C135  1  0.617600  0.434700  0.164500  1.0  -0.1897
  C  C136  1  0.524500  0.386800  0.135300  1.0  0.1464
  C  C137  1  0.398000  0.480200  0.125700  1.0  0.1508
  C  C138  1  0.485200  0.531300  0.154200  1.0  -0.2261
  C  C139  1  0.803500  0.166000  0.001300  1.0  0.1533
  C  C140  1  0.821300  0.099600  0.975800  1.0  -0.1949
  C  C141  1  0.946600  0.096800  0.954200  1.0  0.0802
  C  C142  1  0.045100  0.163500  0.957600  1.0  -0.1881
  C  C143  1  0.018300  0.226600  0.982700  1.0  0.1502
  C  C144  1  0.974700  0.027600  0.929000  1.0  0.0991
  C  C145  1  0.901500  0.955400  0.938700  1.0  -0.1902
  C  C146  1  0.933800  0.892000  0.914200  1.0  0.1701
  C  C147  1  0.102400  0.967700  0.871200  1.0  0.1347
  C  C148  1  0.080000  0.032500  0.895000  1.0  -0.198
  C  C149  1  0.363100  0.716800  0.479700  1.0  0.3472
  C  C150  1  0.769100  0.960200  0.462500  1.0  0.1443
  C  C151  1  0.672900  0.007200  0.471100  1.0  -0.1995
  C  C152  1  0.553100  0.976200  0.495200  1.0  0.0886
  C  C153  1  0.538300  0.900500  0.509400  1.0  -0.1906
  C  C154  1  0.639500  0.858700  0.499400  1.0  0.1647
  C  C155  1  0.711900  0.152900  0.225000  1.0  0.141
  C  C156  1  0.632000  0.108900  0.259300  1.0  -0.2058
  C  C157  1  0.685700  0.059100  0.289100  1.0  0.0927
  C  C158  1  0.823900  0.056800  0.283600  1.0  -0.1987
  C  C159  1  0.896900  0.102900  0.248600  1.0  0.1414
  C  C160  1  0.597100  0.007600  0.324000  1.0  0.0933
  C  C161  1  0.617600  0.934700  0.335500  1.0  -0.1897
  C  C162  1  0.524500  0.886800  0.364700  1.0  0.1439
  C  C163  1  0.398000  0.980200  0.374300  1.0  0.1501
  C  C164  1  0.485200  0.031300  0.345800  1.0  -0.2247
  C  C165  1  0.803500  0.666000  0.498700  1.0  0.1531
  C  C166  1  0.821300  0.599600  0.524200  1.0  -0.1957
  C  C167  1  0.946600  0.596800  0.545800  1.0  0.0804
  C  C168  1  0.045100  0.663500  0.542400  1.0  -0.1881
  C  C169  1  0.018300  0.726600  0.517300  1.0  0.1495
  C  C170  1  0.974700  0.527600  0.571000  1.0  0.0996
  C  C171  1  0.901500  0.455400  0.561300  1.0  -0.1904
  C  C172  1  0.933800  0.392000  0.585800  1.0  0.1694
  C  C173  1  0.102400  0.467700  0.628800  1.0  0.1345
  C  C174  1  0.080000  0.532500  0.605000  1.0  -0.1961
  C  C175  1  0.636900  0.783200  0.979700  1.0  0.3478
  C  C176  1  0.230900  0.539800  0.962500  1.0  0.1445
  C  C177  1  0.327100  0.492800  0.971100  1.0  -0.196
  C  C178  1  0.446900  0.523800  0.995200  1.0  0.0875
  C  C179  1  0.461700  0.599500  0.009400  1.0  -0.1928
  C  C180  1  0.360500  0.641300  0.999400  1.0  0.1642
  C  C181  1  0.288100  0.347100  0.725000  1.0  0.1395
  C  C182  1  0.368000  0.391100  0.759300  1.0  -0.2058
  C  C183  1  0.314300  0.440900  0.789100  1.0  0.0924
  C  C184  1  0.176100  0.443200  0.783600  1.0  -0.1997
  C  C185  1  0.103100  0.397100  0.748600  1.0  0.1403
  C  C186  1  0.402900  0.492400  0.824000  1.0  0.0931
  C  C187  1  0.382400  0.565300  0.835500  1.0  -0.1897
  C  C188  1  0.475500  0.613200  0.864700  1.0  0.1447
  C  C189  1  0.602000  0.519800  0.874300  1.0  0.1521
  C  C190  1  0.514800  0.468700  0.845800  1.0  -0.222
  C  C191  1  0.196500  0.834000  0.998700  1.0  0.1537
  C  C192  1  0.178700  0.900400  0.024200  1.0  -0.1939
  C  C193  1  0.053400  0.903200  0.045800  1.0  0.0806
  C  C194  1  0.954900  0.836500  0.042400  1.0  -0.1884
  C  C195  1  0.981700  0.773400  0.017300  1.0  0.1486
  C  C196  1  0.025300  0.972400  0.071000  1.0  0.1006
  C  C197  1  0.098500  0.044600  0.061300  1.0  -0.191
  C  C198  1  0.066200  0.108000  0.085800  1.0  0.1694
  C  C199  1  0.897600  0.032300  0.128800  1.0  0.1343
  C  C200  1  0.920000  0.967500  0.105000  1.0  -0.1985
  S  S201  1  0.844000  0.224170  0.666420  1.0  -0.5091
  S  S202  1  0.192220  0.222880  0.624980  1.0  -0.4931
  S  S203  1  0.905560  0.106060  0.560500  1.0  -0.5158
  S  S204  1  0.581300  0.338300  0.478990  1.0  -0.4737
  S  S205  1  0.156000  0.275830  0.166420  1.0  -0.5079
  S  S206  1  0.807780  0.277120  0.124980  1.0  -0.4947
  S  S207  1  0.094440  0.393940  0.060500  1.0  -0.5172
  S  S208  1  0.418700  0.161700  0.978990  1.0  -0.4719
  S  S209  1  0.156000  0.775830  0.333580  1.0  -0.5057
  S  S210  1  0.807780  0.777120  0.375020  1.0  -0.4948
  S  S211  1  0.094440  0.893940  0.439500  1.0  -0.5168
  S  S212  1  0.418700  0.661700  0.521010  1.0  -0.4734
  S  S213  1  0.844000  0.724170  0.833580  1.0  -0.506
  S  S214  1  0.192220  0.722880  0.875020  1.0  -0.4932
  S  S215  1  0.905560  0.606060  0.939500  1.0  -0.5152
  S  S216  1  0.581300  0.838300  0.021010  1.0  -0.4744
  N  N217  1  0.247400  0.113200  0.524100  1.0  -0.2817
  N  N218  1  0.156000  0.850500  0.781500  1.0  -0.2895
  N  N219  1  0.587600  0.091500  0.616800  1.0  -0.3033
  N  N220  1  0.100100  0.271100  0.504900  1.0  -0.2875
  N  N221  1  0.967900  0.603800  0.381100  1.0  -0.2861
  N  N222  1  0.675500  0.244200  0.548600  1.0  -0.5144
  N  N223  1  0.752600  0.386800  0.024100  1.0  -0.2818
  N  N224  1  0.844000  0.649500  0.281500  1.0  -0.2882
  N  N225  1  0.412400  0.408500  0.116800  1.0  -0.3049
  N  N226  1  0.899900  0.228900  0.004900  1.0  -0.2866
  N  N227  1  0.032100  0.896200  0.881100  1.0  -0.2873
  N  N228  1  0.324500  0.255800  0.048600  1.0  -0.5148
  N  N229  1  0.752600  0.886800  0.475900  1.0  -0.2813
  N  N230  1  0.844000  0.149500  0.218500  1.0  -0.2877
  N  N231  1  0.412400  0.908500  0.383200  1.0  -0.3049
  N  N232  1  0.899900  0.728900  0.495100  1.0  -0.2845
  N  N233  1  0.032100  0.396200  0.618900  1.0  -0.2872
  N  N234  1  0.324500  0.755800  0.451400  1.0  -0.5159
  N  N235  1  0.247400  0.613200  0.975900  1.0  -0.2818
  N  N236  1  0.156000  0.350500  0.718500  1.0  -0.2892
  N  N237  1  0.587600  0.591500  0.883200  1.0  -0.3026
  N  N238  1  0.100100  0.771100  0.995100  1.0  -0.2861
  N  N239  1  0.967900  0.103800  0.118900  1.0  -0.2867
  N  N240  1  0.675500  0.744200  0.951400  1.0  -0.5154
