# generated using pymatgen
data_CeH5C14(NO4)2
_symmetry_space_group_name_H-M   'P 1'
_cell_length_a   12.13400000
_cell_length_b   12.39100000
_cell_length_c   12.72000000
_cell_angle_alpha   90.00000000
_cell_angle_beta   90.00000000
_cell_angle_gamma   114.77700000
_symmetry_Int_Tables_number   1
_chemical_formula_structural   CeH5C14(NO4)2
_chemical_formula_sum   'Ce4 H20 C56 N8 O32'
_cell_volume   1736.43037945
_cell_formula_units_Z   4
loop_
 _symmetry_equiv_pos_site_id
 _symmetry_equiv_pos_as_xyz
  1  'x, y, z'
loop_
 _atom_site_type_symbol
 _atom_site_label
 _atom_site_symmetry_multiplicity
 _atom_site_fract_x
 _atom_site_fract_y
 _atom_site_fract_z
 _atom_site_occupancy
 _atom_site_charge
  Ce  Ce1  1  0.544900  0.853650  0.546610  1.0  2.1728
  Ce  Ce2  1  0.455100  0.646350  0.046610  1.0  2.1726
  Ce  Ce3  1  0.455100  0.146350  0.453390  1.0  2.1717
  Ce  Ce4  1  0.544900  0.353650  0.953390  1.0  2.1729
  H  H5  1  0.621000  0.673000  0.722000  1.0  0.3995
  H  H6  1  0.067900  0.753500  0.645400  1.0  0.1308
  H  H7  1  0.201600  0.574400  0.836400  1.0  0.1187
  H  H8  1  0.905400  0.673100  0.716300  1.0  0.1208
  H  H9  1  0.020500  0.451500  0.869000  1.0  0.1248
  H  H10  1  0.379000  0.827000  0.222000  1.0  0.3999
  H  H11  1  0.932100  0.746500  0.145400  1.0  0.1314
  H  H12  1  0.798400  0.925600  0.336400  1.0  0.1183
  H  H13  1  0.094600  0.826900  0.216300  1.0  0.1208
  H  H14  1  0.979500  0.048500  0.369000  1.0  0.1254
  H  H15  1  0.379000  0.327000  0.278000  1.0  0.4001
  H  H16  1  0.932100  0.246500  0.354600  1.0  0.1315
  H  H17  1  0.798400  0.425600  0.163600  1.0  0.1181
  H  H18  1  0.094600  0.326900  0.283700  1.0  0.1212
  H  H19  1  0.979500  0.548500  0.131000  1.0  0.1255
  H  H20  1  0.621000  0.173000  0.778000  1.0  0.3998
  H  H21  1  0.067900  0.253500  0.854600  1.0  0.1312
  H  H22  1  0.201600  0.074400  0.663600  1.0  0.118
  H  H23  1  0.905400  0.173100  0.783700  1.0  0.1206
  H  H24  1  0.020500  0.951500  0.631000  1.0  0.1249
  C  C25  1  0.278500  0.894300  0.551200  1.0  0.6374
  C  C26  1  0.434900  0.677200  0.767500  1.0  0.712
  C  C27  1  0.667000  0.556300  0.766000  1.0  0.6199
  C  C28  1  0.801800  0.302700  0.954000  1.0  0.6374
  C  C29  1  0.247900  0.794800  0.628400  1.0  0.1482
  C  C30  1  0.132200  0.735000  0.669200  1.0  -0.1157
  C  C31  1  0.110700  0.647400  0.745300  1.0  0.0858
  C  C32  1  0.210500  0.629100  0.781200  1.0  -0.0992
  C  C33  1  0.322600  0.692100  0.734700  1.0  0.1297
  C  C34  1  0.774900  0.531500  0.790700  1.0  0.1229
  C  C35  1  0.890700  0.604300  0.757200  1.0  -0.1084
  C  C36  1  0.985800  0.574300  0.784800  1.0  0.0776
  C  C37  1  0.958300  0.474400  0.847800  1.0  -0.0966
  C  C38  1  0.838800  0.408200  0.879700  1.0  0.1558
  C  C39  1  0.721500  0.605700  0.051200  1.0  0.6378
  C  C40  1  0.565100  0.822800  0.267500  1.0  0.7121
  C  C41  1  0.333000  0.943700  0.266000  1.0  0.6191
  C  C42  1  0.198200  0.197300  0.454000  1.0  0.6366
  C  C43  1  0.752100  0.705200  0.128400  1.0  0.1479
  C  C44  1  0.867800  0.765000  0.169200  1.0  -0.1163
  C  C45  1  0.889300  0.852600  0.245300  1.0  0.0858
  C  C46  1  0.789500  0.870900  0.281200  1.0  -0.0998
  C  C47  1  0.677400  0.807900  0.234700  1.0  0.129
  C  C48  1  0.225100  0.968500  0.290700  1.0  0.1232
  C  C49  1  0.109300  0.895700  0.257200  1.0  -0.109
  C  C50  1  0.014200  0.925700  0.284800  1.0  0.0771
  C  C51  1  0.041700  0.025600  0.347800  1.0  -0.0961
  C  C52  1  0.161200  0.091800  0.379700  1.0  0.1563
  C  C53  1  0.721500  0.105700  0.448800  1.0  0.6379
  C  C54  1  0.565100  0.322800  0.232500  1.0  0.7117
  C  C55  1  0.333000  0.443700  0.234000  1.0  0.6199
  C  C56  1  0.198200  0.697300  0.046000  1.0  0.6375
  C  C57  1  0.752100  0.205200  0.371600  1.0  0.1474
  C  C58  1  0.867800  0.265000  0.330800  1.0  -0.1167
  C  C59  1  0.889300  0.352600  0.254700  1.0  0.085
  C  C60  1  0.789500  0.370900  0.218800  1.0  -0.0998
  C  C61  1  0.677400  0.307900  0.265300  1.0  0.1291
  C  C62  1  0.225100  0.468500  0.209300  1.0  0.1221
  C  C63  1  0.109300  0.395700  0.242800  1.0  -0.1097
  C  C64  1  0.014200  0.425700  0.215200  1.0  0.0772
  C  C65  1  0.041700  0.525600  0.152200  1.0  -0.0967
  C  C66  1  0.161200  0.591800  0.120300  1.0  0.1561
  C  C67  1  0.278500  0.394300  0.948800  1.0  0.6384
  C  C68  1  0.434900  0.177200  0.732500  1.0  0.7116
  C  C69  1  0.667000  0.056300  0.734000  1.0  0.6185
  C  C70  1  0.801800  0.802700  0.546000  1.0  0.6368
  C  C71  1  0.247900  0.294800  0.871600  1.0  0.1473
  C  C72  1  0.132200  0.235000  0.830800  1.0  -0.1156
  C  C73  1  0.110700  0.147400  0.754700  1.0  0.0852
  C  C74  1  0.210500  0.129100  0.718800  1.0  -0.0993
  C  C75  1  0.322600  0.192100  0.765300  1.0  0.1297
  C  C76  1  0.774900  0.031500  0.709300  1.0  0.1224
  C  C77  1  0.890700  0.104300  0.742800  1.0  -0.109
  C  C78  1  0.985800  0.074300  0.715200  1.0  0.077
  C  C79  1  0.958300  0.974400  0.652200  1.0  -0.0972
  C  C80  1  0.838800  0.908200  0.620300  1.0  0.1558
  N  N81  1  0.341180  0.770600  0.657330  1.0  -0.4494
  N  N82  1  0.748330  0.435100  0.849810  1.0  -0.4481
  N  N83  1  0.658820  0.729400  0.157330  1.0  -0.4488
  N  N84  1  0.251670  0.064900  0.349810  1.0  -0.4483
  N  N85  1  0.658820  0.229400  0.342670  1.0  -0.4492
  N  N86  1  0.251670  0.564900  0.150190  1.0  -0.4491
  N  N87  1  0.341180  0.270600  0.842670  1.0  -0.4498
  N  N88  1  0.748330  0.935100  0.650190  1.0  -0.4487
  O  O89  1  0.380980  0.925620  0.502570  1.0  -0.7997
  O  O90  1  0.210480  0.944010  0.540930  1.0  -0.5345
  O  O91  1  0.520070  0.712710  0.699330  1.0  -0.6983
  O  O92  1  0.438180  0.633560  0.853400  1.0  -0.6765
  O  O93  1  0.563320  0.480810  0.784080  1.0  -0.585
  O  O94  1  0.694640  0.660900  0.727800  1.0  -0.4531
  O  O95  1  0.693340  0.263860  0.989010  1.0  -0.7471
  O  O96  1  0.878070  0.264700  0.974290  1.0  -0.5781
  O  O97  1  0.619020  0.574380  0.002570  1.0  -0.8012
  O  O98  1  0.789520  0.555990  0.040930  1.0  -0.5357
  O  O99  1  0.479930  0.787290  0.199330  1.0  -0.6986
  O  O100  1  0.561820  0.866440  0.353400  1.0  -0.6761
  O  O101  1  0.436680  0.019190  0.284080  1.0  -0.5854
  O  O102  1  0.305360  0.839100  0.227800  1.0  -0.4532
  O  O103  1  0.306660  0.236140  0.489010  1.0  -0.7486
  O  O104  1  0.121930  0.235300  0.474290  1.0  -0.58
  O  O105  1  0.619020  0.074380  0.497430  1.0  -0.8005
  O  O106  1  0.789520  0.055990  0.459070  1.0  -0.5357
  O  O107  1  0.479930  0.287290  0.300670  1.0  -0.6963
  O  O108  1  0.561820  0.366440  0.146600  1.0  -0.6766
  O  O109  1  0.436680  0.519190  0.215920  1.0  -0.585
  O  O110  1  0.305360  0.339100  0.272200  1.0  -0.4535
  O  O111  1  0.306660  0.736140  0.010990  1.0  -0.7465
  O  O112  1  0.121930  0.735300  0.025710  1.0  -0.5794
  O  O113  1  0.380980  0.425620  0.997430  1.0  -0.7998
  O  O114  1  0.210480  0.444010  0.959070  1.0  -0.5345
  O  O115  1  0.520070  0.212710  0.800670  1.0  -0.6959
  O  O116  1  0.438180  0.133560  0.646600  1.0  -0.6763
  O  O117  1  0.563320  0.980810  0.715920  1.0  -0.5845
  O  O118  1  0.694640  0.160900  0.772200  1.0  -0.4534
  O  O119  1  0.693340  0.763860  0.510990  1.0  -0.7462
  O  O120  1  0.878070  0.764700  0.525710  1.0  -0.5777
