# generated using pymatgen
data_LaH5C14(NO4)2
_symmetry_space_group_name_H-M   'P 1'
_cell_length_a   12.12000000
_cell_length_b   12.36050000
_cell_length_c   12.80670000
_cell_angle_alpha   90.00000000
_cell_angle_beta   90.00000000
_cell_angle_gamma   114.97400000
_symmetry_Int_Tables_number   1
_chemical_formula_structural   LaH5C14(NO4)2
_chemical_formula_sum   'La4 H20 C56 N8 O32'
_cell_volume   1739.17566628
_cell_formula_units_Z   4
loop_
 _symmetry_equiv_pos_site_id
 _symmetry_equiv_pos_as_xyz
  1  'x, y, z'
loop_
 _atom_site_type_symbol
 _atom_site_label
 _atom_site_symmetry_multiplicity
 _atom_site_fract_x
 _atom_site_fract_y
 _atom_site_fract_z
 _atom_site_occupancy
 _atom_site_charge
  La  La1  1  0.548220  0.853700  0.455200  1.0  2.0746
  La  La2  1  0.451780  0.646300  0.955200  1.0  2.0742
  La  La3  1  0.451780  0.146300  0.544800  1.0  2.0738
  La  La4  1  0.548220  0.353700  0.044800  1.0  2.0735
  H  H5  1  0.633700  0.667800  0.284200  1.0  0.408
  H  H6  1  0.202700  0.576200  0.166100  1.0  0.1148
  H  H7  1  0.071500  0.752300  0.353100  1.0  0.118
  H  H8  1  0.022100  0.453300  0.131600  1.0  0.1165
  H  H9  1  0.905400  0.669800  0.283600  1.0  0.1149
  H  H10  1  0.366300  0.832200  0.784200  1.0  0.4091
  H  H11  1  0.797300  0.923800  0.666100  1.0  0.1154
  H  H12  1  0.928500  0.747700  0.853100  1.0  0.1188
  H  H13  1  0.977900  0.046700  0.631600  1.0  0.1159
  H  H14  1  0.094600  0.830200  0.783600  1.0  0.1153
  H  H15  1  0.366300  0.332200  0.715800  1.0  0.4089
  H  H16  1  0.797300  0.423800  0.833900  1.0  0.115
  H  H17  1  0.928500  0.247700  0.646900  1.0  0.1185
  H  H18  1  0.977900  0.546700  0.868400  1.0  0.1156
  H  H19  1  0.094600  0.330200  0.716400  1.0  0.1148
  H  H20  1  0.633700  0.167800  0.215800  1.0  0.4079
  H  H21  1  0.202700  0.076200  0.333900  1.0  0.115
  H  H22  1  0.071500  0.252300  0.146900  1.0  0.1176
  H  H23  1  0.022100  0.953300  0.368400  1.0  0.1161
  H  H24  1  0.905400  0.169800  0.216400  1.0  0.115
  C  C25  1  0.436300  0.678100  0.235400  1.0  0.7138
  C  C26  1  0.279500  0.893200  0.448000  1.0  0.6377
  C  C27  1  0.808000  0.304900  0.046000  1.0  0.6385
  C  C28  1  0.668600  0.554500  0.233400  1.0  0.6257
  C  C29  1  0.325000  0.692100  0.267400  1.0  0.1278
  C  C30  1  0.211900  0.629500  0.220200  1.0  -0.0794
  C  C31  1  0.113800  0.648500  0.255500  1.0  0.0872
  C  C32  1  0.134900  0.734700  0.330300  1.0  -0.1093
  C  C33  1  0.250000  0.795300  0.371800  1.0  0.1436
  C  C34  1  0.843400  0.410200  0.120500  1.0  0.1476
  C  C35  1  0.960900  0.475400  0.152300  1.0  -0.0978
  C  C36  1  0.988500  0.574900  0.215900  1.0  0.078
  C  C37  1  0.891800  0.603100  0.242800  1.0  -0.1146
  C  C38  1  0.777400  0.531800  0.208600  1.0  0.1113
  C  C39  1  0.563700  0.821900  0.735400  1.0  0.7148
  C  C40  1  0.720500  0.606800  0.948000  1.0  0.6357
  C  C41  1  0.192000  0.195100  0.546000  1.0  0.6396
  C  C42  1  0.331400  0.945500  0.733400  1.0  0.6246
  C  C43  1  0.675000  0.807900  0.767400  1.0  0.1275
  C  C44  1  0.788100  0.870500  0.720200  1.0  -0.0795
  C  C45  1  0.886200  0.851500  0.755500  1.0  0.0866
  C  C46  1  0.865100  0.765300  0.830300  1.0  -0.1103
  C  C47  1  0.750000  0.704700  0.871800  1.0  0.1426
  C  C48  1  0.156600  0.089800  0.620500  1.0  0.1478
  C  C49  1  0.039100  0.024600  0.652300  1.0  -0.0954
  C  C50  1  0.011500  0.925100  0.715900  1.0  0.0783
  C  C51  1  0.108200  0.896900  0.742800  1.0  -0.1153
  C  C52  1  0.222600  0.968200  0.708600  1.0  0.1119
  C  C53  1  0.563700  0.321900  0.764600  1.0  0.7152
  C  C54  1  0.720500  0.106800  0.552000  1.0  0.6438
  C  C55  1  0.192000  0.695100  0.954000  1.0  0.6388
  C  C56  1  0.331400  0.445500  0.766600  1.0  0.6246
  C  C57  1  0.675000  0.307900  0.732600  1.0  0.1274
  C  C58  1  0.788100  0.370500  0.779800  1.0  -0.0791
  C  C59  1  0.886200  0.351500  0.744500  1.0  0.0876
  C  C60  1  0.865100  0.265300  0.669700  1.0  -0.1097
  C  C61  1  0.750000  0.204700  0.628200  1.0  0.1431
  C  C62  1  0.156600  0.589800  0.879500  1.0  0.1476
  C  C63  1  0.039100  0.524600  0.847700  1.0  -0.0946
  C  C64  1  0.011500  0.425100  0.784100  1.0  0.0784
  C  C65  1  0.108200  0.396900  0.757200  1.0  -0.1145
  C  C66  1  0.222600  0.468200  0.791400  1.0  0.1129
  C  C67  1  0.436300  0.178100  0.264600  1.0  0.7142
  C  C68  1  0.279500  0.393200  0.052000  1.0  0.6451
  C  C69  1  0.808000  0.804900  0.454000  1.0  0.6392
  C  C70  1  0.668600  0.054500  0.266600  1.0  0.6256
  C  C71  1  0.325000  0.192100  0.232600  1.0  0.128
  C  C72  1  0.211900  0.129500  0.279800  1.0  -0.0791
  C  C73  1  0.113800  0.148500  0.244500  1.0  0.0878
  C  C74  1  0.134900  0.234700  0.169700  1.0  -0.1088
  C  C75  1  0.250000  0.295300  0.128200  1.0  0.1444
  C  C76  1  0.843400  0.910200  0.379500  1.0  0.1474
  C  C77  1  0.960900  0.975400  0.347700  1.0  -0.0971
  C  C78  1  0.988500  0.074900  0.284100  1.0  0.0786
  C  C79  1  0.891800  0.103100  0.257200  1.0  -0.1144
  C  C80  1  0.777400  0.031800  0.291400  1.0  0.1116
  N  N81  1  0.342900  0.770000  0.343900  1.0  -0.4293
  N  N82  1  0.752600  0.437100  0.150100  1.0  -0.4214
  N  N83  1  0.657100  0.730000  0.843900  1.0  -0.4281
  N  N84  1  0.247400  0.062900  0.650100  1.0  -0.422
  N  N85  1  0.657100  0.230000  0.656100  1.0  -0.4279
  N  N86  1  0.247400  0.562900  0.849900  1.0  -0.4219
  N  N87  1  0.342900  0.270000  0.156100  1.0  -0.429
  N  N88  1  0.752600  0.937100  0.349900  1.0  -0.4211
  O  O89  1  0.521000  0.711000  0.303000  1.0  -0.6946
  O  O90  1  0.440000  0.635600  0.150500  1.0  -0.6719
  O  O91  1  0.381900  0.924700  0.497700  1.0  -0.7821
  O  O92  1  0.213700  0.945600  0.457500  1.0  -0.5293
  O  O93  1  0.698900  0.266700  0.010600  1.0  -0.7386
  O  O94  1  0.883500  0.267800  0.026500  1.0  -0.5644
  O  O95  1  0.566800  0.479900  0.214700  1.0  -0.5541
  O  O96  1  0.696200  0.659200  0.273300  1.0  -0.4728
  O  O97  1  0.479000  0.789000  0.803000  1.0  -0.695
  O  O98  1  0.560000  0.864400  0.650500  1.0  -0.6721
  O  O99  1  0.618100  0.575300  0.997700  1.0  -0.7822
  O  O100  1  0.786300  0.554400  0.957500  1.0  -0.5307
  O  O101  1  0.301100  0.233300  0.510600  1.0  -0.7394
  O  O102  1  0.116500  0.232200  0.526500  1.0  -0.5653
  O  O103  1  0.433200  0.020100  0.714700  1.0  -0.555
  O  O104  1  0.303800  0.840800  0.773300  1.0  -0.4722
  O  O105  1  0.479000  0.289000  0.697000  1.0  -0.6971
  O  O106  1  0.560000  0.364400  0.849500  1.0  -0.6715
  O  O107  1  0.618100  0.075300  0.502300  1.0  -0.7833
  O  O108  1  0.786300  0.054400  0.542500  1.0  -0.5302
  O  O109  1  0.301100  0.733300  0.989400  1.0  -0.741
  O  O110  1  0.116500  0.732200  0.973500  1.0  -0.567
  O  O111  1  0.433200  0.520100  0.785300  1.0  -0.555
  O  O112  1  0.303800  0.340800  0.726700  1.0  -0.472
  O  O113  1  0.521000  0.211000  0.197000  1.0  -0.6966
  O  O114  1  0.440000  0.135600  0.349500  1.0  -0.672
  O  O115  1  0.381900  0.424700  0.002300  1.0  -0.7828
  O  O116  1  0.213700  0.445600  0.042500  1.0  -0.529
  O  O117  1  0.698900  0.766700  0.489400  1.0  -0.7389
  O  O118  1  0.883500  0.767800  0.473500  1.0  -0.5653
  O  O119  1  0.566800  0.979900  0.285300  1.0  -0.5548
  O  O120  1  0.696200  0.159200  0.226700  1.0  -0.473
