# generated using pymatgen
data_Tb2H6C21(NO4)3
_symmetry_space_group_name_H-M   'P 1'
_cell_length_a   12.13000000
_cell_length_b   12.70160000
_cell_length_c   21.81900000
_cell_angle_alpha   82.74990000
_cell_angle_beta   74.67500000
_cell_angle_gamma   61.47770000
_symmetry_Int_Tables_number   1
_chemical_formula_structural   Tb2H6C21(NO4)3
_chemical_formula_sum   'Tb8 H24 C84 N12 O48'
_cell_volume   2848.63602149
_cell_formula_units_Z   4
loop_
 _symmetry_equiv_pos_site_id
 _symmetry_equiv_pos_as_xyz
  1  'x, y, z'
loop_
 _atom_site_type_symbol
 _atom_site_label
 _atom_site_symmetry_multiplicity
 _atom_site_fract_x
 _atom_site_fract_y
 _atom_site_fract_z
 _atom_site_occupancy
 _atom_site_charge
  Tb  Tb1  1  0.768260  0.739060  0.474450  1.0  2.27
  Tb  Tb2  1  0.492680  0.739060  0.025550  1.0  2.2695
  Tb  Tb3  1  0.231740  0.260940  0.525550  1.0  2.27
  Tb  Tb4  1  0.507320  0.260940  0.974450  1.0  2.2718
  Tb  Tb5  1  0.787500  0.425000  0.250000  1.0  2.0888
  Tb  Tb6  1  0.212500  0.575000  0.750000  1.0  2.0893
  Tb  Tb7  1  0.247010  0.505980  0.250000  1.0  2.1063
  Tb  Tb8  1  0.752990  0.494020  0.750000  1.0  2.1053
  H  H9  1  0.028600  0.869400  0.415100  1.0  0.117
  H  H10  1  0.418200  0.702000  0.383200  1.0  0.1112
  H  H11  1  0.063700  0.040200  0.407500  1.0  0.1222
  H  H12  1  0.372600  0.807600  0.475600  1.0  0.1121
  H  H13  1  0.531700  0.876000  0.163100  1.0  0.1146
  H  H14  1  0.415200  0.057800  0.345400  1.0  0.1061
  H  H15  1  0.102000  0.869400  0.084900  1.0  0.117
  H  H16  1  0.879800  0.702000  0.116800  1.0  0.1116
  H  H17  1  0.896100  0.040200  0.092500  1.0  0.1225
  H  H18  1  0.819800  0.807600  0.024400  1.0  0.112
  H  H19  1  0.592300  0.876000  0.336900  1.0  0.1142
  H  H20  1  0.527000  0.057800  0.154600  1.0  0.105
  H  H21  1  0.971400  0.130600  0.584900  1.0  0.1174
  H  H22  1  0.581800  0.298000  0.616800  1.0  0.1118
  H  H23  1  0.936300  0.959800  0.592500  1.0  0.1223
  H  H24  1  0.627400  0.192400  0.524400  1.0  0.1132
  H  H25  1  0.468300  0.124000  0.836900  1.0  0.1147
  H  H26  1  0.584800  0.942200  0.654600  1.0  0.1047
  H  H27  1  0.898000  0.130600  0.915100  1.0  0.1169
  H  H28  1  0.120200  0.298000  0.883200  1.0  0.1109
  H  H29  1  0.103900  0.959800  0.907500  1.0  0.1219
  H  H30  1  0.180200  0.192400  0.975600  1.0  0.1129
  H  H31  1  0.407700  0.124000  0.663100  1.0  0.1149
  H  H32  1  0.473000  0.942200  0.845400  1.0  0.1057
  C  C33  1  0.646800  0.631600  0.149600  1.0  0.6451
  C  C34  1  0.280900  0.300400  0.360500  1.0  0.6599
  C  C35  1  0.003900  0.718000  0.347100  1.0  0.6191
  C  C36  1  0.120400  0.720800  0.360700  1.0  0.14
  C  C37  1  0.110900  0.808200  0.395500  1.0  -0.127
  C  C38  1  0.223100  0.806800  0.402100  1.0  0.0691
  C  C39  1  0.340000  0.710000  0.376800  1.0  -0.1027
  C  C40  1  0.341300  0.624600  0.342000  1.0  0.1129
  C  C41  1  0.464900  0.516800  0.306500  1.0  0.681
  C  C42  1  0.034100  0.243800  0.456000  1.0  0.6848
  C  C43  1  0.127800  0.110400  0.459500  1.0  0.1391
  C  C44  1  0.126300  0.021400  0.431100  1.0  -0.1469
  C  C45  1  0.217700  0.902400  0.436900  1.0  0.0749
  C  C46  1  0.306000  0.886000  0.471500  1.0  -0.1113
  C  C47  1  0.298500  0.981000  0.500200  1.0  0.0808
  C  C48  1  0.373200  0.994200  0.544600  1.0  0.4626
  C  C49  1  0.625800  0.714400  0.201100  1.0  0.1132
  C  C50  1  0.564000  0.836000  0.199100  1.0  -0.0955
  C  C51  1  0.359800  0.218400  0.302900  1.0  0.1427
  C  C52  1  0.418400  0.097200  0.305500  1.0  -0.1396
  C  C53  1  0.721600  0.631600  0.350400  1.0  0.6469
  C  C54  1  0.418700  0.300400  0.139500  1.0  0.6593
  C  C55  1  0.278100  0.718000  0.152900  1.0  0.6175
  C  C56  1  0.158800  0.720800  0.139300  1.0  0.1409
  C  C57  1  0.080900  0.808200  0.104500  1.0  -0.1255
  C  C58  1  0.970100  0.806800  0.097900  1.0  0.0696
  C  C59  1  0.950000  0.710000  0.123200  1.0  -0.1039
  C  C60  1  0.034100  0.624600  0.158000  1.0  0.1124
  C  C61  1  0.018300  0.516800  0.193500  1.0  0.6807
  C  C62  1  0.722100  0.243800  0.044000  1.0  0.6829
  C  C63  1  0.761800  0.110400  0.040500  1.0  0.1388
  C  C64  1  0.852300  0.021400  0.068900  1.0  -0.1462
  C  C65  1  0.879900  0.902400  0.063100  1.0  0.0746
  C  C66  1  0.808000  0.886000  0.028500  1.0  -0.1143
  C  C67  1  0.720500  0.981000  0.999800  1.0  0.0793
  C  C68  1  0.632600  0.994200  0.955400  1.0  0.4627
  C  C69  1  0.659800  0.714400  0.298900  1.0  0.1141
  C  C70  1  0.600000  0.836000  0.300900  1.0  -0.0965
  C  C71  1  0.421800  0.218400  0.197100  1.0  0.1416
  C  C72  1  0.484400  0.097200  0.194500  1.0  -0.14
  C  C73  1  0.353200  0.368400  0.850400  1.0  0.6478
  C  C74  1  0.719100  0.699600  0.639500  1.0  0.658
  C  C75  1  0.996100  0.282000  0.652900  1.0  0.6184
  C  C76  1  0.879600  0.279200  0.639300  1.0  0.1408
  C  C77  1  0.889100  0.191800  0.604500  1.0  -0.1249
  C  C78  1  0.776900  0.193200  0.597900  1.0  0.0692
  C  C79  1  0.660000  0.290000  0.623200  1.0  -0.1043
  C  C80  1  0.658700  0.375400  0.658000  1.0  0.1125
  C  C81  1  0.535100  0.483200  0.693500  1.0  0.6838
  C  C82  1  0.965900  0.756200  0.544000  1.0  0.6836
  C  C83  1  0.872200  0.889600  0.540500  1.0  0.1389
  C  C84  1  0.873700  0.978600  0.568900  1.0  -0.1452
  C  C85  1  0.782300  0.097600  0.563100  1.0  0.0744
  C  C86  1  0.694000  0.114000  0.528500  1.0  -0.1151
  C  C87  1  0.701500  0.019000  0.499800  1.0  0.0802
  C  C88  1  0.626800  0.005800  0.455400  1.0  0.4644
  C  C89  1  0.374200  0.285600  0.798900  1.0  0.1136
  C  C90  1  0.436000  0.164000  0.800900  1.0  -0.096
  C  C91  1  0.640200  0.781600  0.697100  1.0  0.1414
  C  C92  1  0.581600  0.902800  0.694500  1.0  -0.1398
  C  C93  1  0.278400  0.368400  0.649600  1.0  0.6485
  C  C94  1  0.581300  0.699600  0.860500  1.0  0.6608
  C  C95  1  0.721900  0.282000  0.847100  1.0  0.6197
  C  C96  1  0.841200  0.279200  0.860700  1.0  0.1399
  C  C97  1  0.919100  0.191800  0.895500  1.0  -0.1264
  C  C98  1  0.029900  0.193200  0.902100  1.0  0.0689
  C  C99  1  0.050000  0.290000  0.876800  1.0  -0.1029
  C  C100  1  0.965900  0.375400  0.842000  1.0  0.1129
  C  C101  1  0.981700  0.483200  0.806500  1.0  0.6837
  C  C102  1  0.277900  0.756200  0.956000  1.0  0.6829
  C  C103  1  0.238200  0.889600  0.959500  1.0  0.1381
  C  C104  1  0.147700  0.978600  0.931100  1.0  -0.1462
  C  C105  1  0.120100  0.097600  0.936900  1.0  0.0749
  C  C106  1  0.192000  0.114000  0.971500  1.0  -0.112
  C  C107  1  0.279500  0.019000  0.000200  1.0  0.0802
  C  C108  1  0.367400  0.005800  0.044600  1.0  0.4641
  C  C109  1  0.340200  0.285600  0.701100  1.0  0.1136
  C  C110  1  0.400000  0.164000  0.699100  1.0  -0.0951
  C  C111  1  0.578200  0.781600  0.802900  1.0  0.1426
  C  C112  1  0.515600  0.902800  0.805500  1.0  -0.139
  C  C113  1  0.549000  0.902000  0.250000  1.0  0.0893
  C  C114  1  0.484700  0.030600  0.250000  1.0  0.1073
  C  C115  1  0.451000  0.098000  0.750000  1.0  0.0892
  C  C116  1  0.515300  0.969400  0.750000  1.0  0.1074
  N  N117  1  0.233900  0.632200  0.331300  1.0  -0.3905
  N  N118  1  0.210600  0.089200  0.494000  1.0  -0.3969
  N  N119  1  0.133900  0.632200  0.168700  1.0  -0.3893
  N  N120  1  0.700200  0.089200  0.006000  1.0  -0.3988
  N  N121  1  0.766100  0.367800  0.668700  1.0  -0.3896
  N  N122  1  0.789400  0.910800  0.506000  1.0  -0.3987
  N  N123  1  0.866100  0.367800  0.831300  1.0  -0.3904
  N  N124  1  0.299800  0.910800  0.994000  1.0  -0.3963
  N  N125  1  0.673700  0.652600  0.250000  1.0  -0.4212
  N  N126  1  0.358700  0.282600  0.250000  1.0  -0.4125
  N  N127  1  0.326300  0.347400  0.750000  1.0  -0.4196
  N  N128  1  0.641300  0.717400  0.750000  1.0  -0.4112
  O  O129  1  0.031600  0.649000  0.301700  1.0  -0.6534
  O  O130  1  0.896300  0.777800  0.381700  1.0  -0.7063
  O  O131  1  0.447700  0.452400  0.276200  1.0  -0.6385
  O  O132  1  0.568400  0.506400  0.312500  1.0  -0.7264
  O  O133  1  0.039300  0.313000  0.489400  1.0  -0.6753
  O  O134  1  0.954800  0.274400  0.422500  1.0  -0.5926
  O  O135  1  0.402200  0.083800  0.533800  1.0  -0.5769
  O  O136  1  0.383800  0.900400  0.582700  1.0  -0.5655
  O  O137  1  0.693500  0.525800  0.158300  1.0  -0.5964
  O  O138  1  0.619000  0.689000  0.097800  1.0  -0.7336
  O  O139  1  0.218800  0.410400  0.352500  1.0  -0.6324
  O  O140  1  0.288300  0.245800  0.413100  1.0  -0.7478
  O  O141  1  0.319400  0.649000  0.198300  1.0  -0.6537
  O  O142  1  0.325900  0.777800  0.118300  1.0  -0.7083
  O  O143  1  0.099900  0.452400  0.223800  1.0  -0.6378
  O  O144  1  0.925200  0.506400  0.187500  1.0  -0.7279
  O  O145  1  0.647700  0.313000  0.010600  1.0  -0.6753
  O  O146  1  0.770800  0.274400  0.077500  1.0  -0.5925
  O  O147  1  0.514000  0.083800  0.966200  1.0  -0.5769
  O  O148  1  0.715800  0.900400  0.917300  1.0  -0.5639
  O  O149  1  0.780700  0.525800  0.341700  1.0  -0.5971
  O  O150  1  0.692000  0.689000  0.402200  1.0  -0.7347
  O  O151  1  0.370800  0.410400  0.147500  1.0  -0.6322
  O  O152  1  0.465900  0.245800  0.086900  1.0  -0.7496
  O  O153  1  0.968400  0.351000  0.698300  1.0  -0.6533
  O  O154  1  0.103700  0.222200  0.618300  1.0  -0.7075
  O  O155  1  0.552300  0.547600  0.723800  1.0  -0.6385
  O  O156  1  0.431600  0.493600  0.687500  1.0  -0.7264
  O  O157  1  0.960700  0.687000  0.510600  1.0  -0.6759
  O  O158  1  0.045200  0.725600  0.577500  1.0  -0.5921
  O  O159  1  0.597800  0.916200  0.466200  1.0  -0.5776
  O  O160  1  0.616200  0.099600  0.417300  1.0  -0.5633
  O  O161  1  0.306500  0.474200  0.841700  1.0  -0.5966
  O  O162  1  0.381000  0.311000  0.902200  1.0  -0.7366
  O  O163  1  0.781200  0.589600  0.647500  1.0  -0.6321
  O  O164  1  0.711700  0.754200  0.586900  1.0  -0.7502
  O  O165  1  0.680600  0.351000  0.801700  1.0  -0.6526
  O  O166  1  0.674100  0.222200  0.881700  1.0  -0.7064
  O  O167  1  0.900100  0.547600  0.776200  1.0  -0.6376
  O  O168  1  0.074800  0.493600  0.812500  1.0  -0.7259
  O  O169  1  0.352300  0.687000  0.989400  1.0  -0.6759
  O  O170  1  0.229200  0.725600  0.922500  1.0  -0.5932
  O  O171  1  0.486000  0.916200  0.033800  1.0  -0.5774
  O  O172  1  0.284200  0.099600  0.082700  1.0  -0.5639
  O  O173  1  0.219300  0.474200  0.658300  1.0  -0.596
  O  O174  1  0.308000  0.311000  0.597800  1.0  -0.7363
  O  O175  1  0.629200  0.589600  0.852500  1.0  -0.6316
  O  O176  1  0.534100  0.754200  0.913100  1.0  -0.7476
