# generated using pymatgen
data_SmH5C14(NO4)2
_symmetry_space_group_name_H-M   'P 1'
_cell_length_a   12.06480000
_cell_length_b   12.37870000
_cell_length_c   12.51480000
_cell_angle_alpha   90.00000000
_cell_angle_beta   90.00000000
_cell_angle_gamma   115.06900000
_symmetry_Int_Tables_number   1
_chemical_formula_structural   SmH5C14(NO4)2
_chemical_formula_sum   'Sm4 H20 C56 N8 O32'
_cell_volume   1692.97491139
_cell_formula_units_Z   4
loop_
 _symmetry_equiv_pos_site_id
 _symmetry_equiv_pos_as_xyz
  1  'x, y, z'
loop_
 _atom_site_type_symbol
 _atom_site_label
 _atom_site_symmetry_multiplicity
 _atom_site_fract_x
 _atom_site_fract_y
 _atom_site_fract_z
 _atom_site_occupancy
 _atom_site_charge
  Sm  Sm1  1  0.040330  0.354830  0.550750  1.0  2.2203
  Sm  Sm2  1  0.959670  0.145170  0.050750  1.0  2.2207
  Sm  Sm3  1  0.959670  0.645170  0.449250  1.0  2.2202
  Sm  Sm4  1  0.040330  0.854830  0.949250  1.0  2.2203
  H  H5  1  0.129600  0.172200  0.717600  1.0  0.398
  H  H6  1  0.566300  0.248800  0.645600  1.0  0.1233
  H  H7  1  0.699500  0.074900  0.838500  1.0  0.1137
  H  H8  1  0.404500  0.172300  0.717700  1.0  0.1244
  H  H9  1  0.512100  0.947800  0.870100  1.0  0.1141
  H  H10  1  0.870400  0.327800  0.217600  1.0  0.4023
  H  H11  1  0.433700  0.251200  0.145600  1.0  0.1236
  H  H12  1  0.300500  0.425100  0.338500  1.0  0.1133
  H  H13  1  0.595500  0.327700  0.217700  1.0  0.1239
  H  H14  1  0.487900  0.552200  0.370100  1.0  0.1142
  H  H15  1  0.870400  0.827800  0.282400  1.0  0.4029
  H  H16  1  0.433700  0.751200  0.354400  1.0  0.1241
  H  H17  1  0.300500  0.925100  0.161500  1.0  0.1135
  H  H18  1  0.595500  0.827700  0.282300  1.0  0.1248
  H  H19  1  0.487900  0.052200  0.129900  1.0  0.1145
  H  H20  1  0.129600  0.672200  0.782400  1.0  0.3989
  H  H21  1  0.566300  0.748800  0.854400  1.0  0.1238
  H  H22  1  0.699500  0.574900  0.661500  1.0  0.1134
  H  H23  1  0.404500  0.672300  0.782300  1.0  0.1247
  H  H24  1  0.512100  0.447800  0.629900  1.0  0.1145
  C  C25  1  0.775800  0.393700  0.552300  1.0  0.6485
  C  C26  1  0.935100  0.179900  0.772800  1.0  0.7087
  C  C27  1  0.164500  0.059200  0.768900  1.0  0.6317
  C  C28  1  0.291600  0.800700  0.955400  1.0  0.6396
  C  C29  1  0.746900  0.294800  0.629400  1.0  0.1508
  C  C30  1  0.630100  0.232200  0.670200  1.0  -0.1234
  C  C31  1  0.607800  0.145400  0.746900  1.0  0.0715
  C  C32  1  0.708700  0.129200  0.784100  1.0  -0.0844
  C  C33  1  0.821500  0.193900  0.739700  1.0  0.1347
  C  C34  1  0.271900  0.033500  0.792200  1.0  0.1234
  C  C35  1  0.388600  0.104500  0.758500  1.0  -0.1124
  C  C36  1  0.482200  0.073300  0.786100  1.0  0.0808
  C  C37  1  0.451900  0.971700  0.849300  1.0  -0.0911
  C  C38  1  0.332300  0.907100  0.880700  1.0  0.1592
  C  C39  1  0.224200  0.106300  0.052300  1.0  0.6495
  C  C40  1  0.064900  0.320100  0.272800  1.0  0.7108
  C  C41  1  0.835500  0.440800  0.268900  1.0  0.6316
  C  C42  1  0.708400  0.699300  0.455400  1.0  0.6386
  C  C43  1  0.253100  0.205200  0.129400  1.0  0.1502
  C  C44  1  0.369900  0.267800  0.170200  1.0  -0.1226
  C  C45  1  0.392200  0.354600  0.246900  1.0  0.0722
  C  C46  1  0.291300  0.370800  0.284100  1.0  -0.0858
  C  C47  1  0.178500  0.306100  0.239700  1.0  0.1344
  C  C48  1  0.728100  0.466500  0.292200  1.0  0.1242
  C  C49  1  0.611400  0.395500  0.258500  1.0  -0.1118
  C  C50  1  0.517800  0.426700  0.286100  1.0  0.0803
  C  C51  1  0.548100  0.528300  0.349300  1.0  -0.0882
  C  C52  1  0.667700  0.592900  0.380700  1.0  0.1598
  C  C53  1  0.224200  0.606300  0.447700  1.0  0.6499
  C  C54  1  0.064900  0.820100  0.227200  1.0  0.7103
  C  C55  1  0.835500  0.940800  0.231100  1.0  0.6319
  C  C56  1  0.708400  0.199300  0.044600  1.0  0.6399
  C  C57  1  0.253100  0.705200  0.370600  1.0  0.1505
  C  C58  1  0.369900  0.767800  0.329800  1.0  -0.123
  C  C59  1  0.392200  0.854600  0.253100  1.0  0.0724
  C  C60  1  0.291300  0.870800  0.215900  1.0  -0.0859
  C  C61  1  0.178500  0.806100  0.260300  1.0  0.1345
  C  C62  1  0.728100  0.966500  0.207800  1.0  0.1229
  C  C63  1  0.611400  0.895500  0.241500  1.0  -0.1122
  C  C64  1  0.517800  0.926700  0.213900  1.0  0.0811
  C  C65  1  0.548100  0.028300  0.150700  1.0  -0.0887
  C  C66  1  0.667700  0.092900  0.119300  1.0  0.16
  C  C67  1  0.775800  0.893700  0.947700  1.0  0.6497
  C  C68  1  0.935100  0.679900  0.727200  1.0  0.7081
  C  C69  1  0.164500  0.559200  0.731100  1.0  0.6317
  C  C70  1  0.291600  0.300700  0.544600  1.0  0.6394
  C  C71  1  0.746900  0.794800  0.870600  1.0  0.1508
  C  C72  1  0.630100  0.732200  0.829800  1.0  -0.1233
  C  C73  1  0.607800  0.645400  0.753100  1.0  0.0723
  C  C74  1  0.708700  0.629200  0.715900  1.0  -0.0847
  C  C75  1  0.821500  0.693900  0.760300  1.0  0.1347
  C  C76  1  0.271900  0.533500  0.707800  1.0  0.1227
  C  C77  1  0.388600  0.604500  0.741500  1.0  -0.1126
  C  C78  1  0.482200  0.573300  0.713900  1.0  0.0812
  C  C79  1  0.451900  0.471700  0.650700  1.0  -0.0914
  C  C80  1  0.332300  0.407100  0.619300  1.0  0.1595
  N  N81  1  0.841200  0.272800  0.660200  1.0  -0.4734
  N  N82  1  0.242800  0.936900  0.851800  1.0  -0.4533
  N  N83  1  0.158800  0.227200  0.160200  1.0  -0.4724
  N  N84  1  0.757200  0.563100  0.351800  1.0  -0.458
  N  N85  1  0.158800  0.727200  0.339800  1.0  -0.4736
  N  N86  1  0.757200  0.063100  0.148200  1.0  -0.4589
  N  N87  1  0.841200  0.772800  0.839800  1.0  -0.4742
  N  N88  1  0.242800  0.436900  0.648200  1.0  -0.4543
  O  O89  1  0.881300  0.429200  0.504700  1.0  -0.8283
  O  O90  1  0.705300  0.438900  0.540500  1.0  -0.512
  O  O91  1  0.021100  0.219500  0.704000  1.0  -0.7172
  O  O92  1  0.938700  0.135700  0.859800  1.0  -0.684
  O  O93  1  0.060900  0.984500  0.785200  1.0  -0.5727
  O  O94  1  0.192500  0.164900  0.731800  1.0  -0.4669
  O  O95  1  0.181400  0.763100  0.987700  1.0  -0.7458
  O  O96  1  0.366300  0.761400  0.977800  1.0  -0.5819
  O  O97  1  0.118700  0.070800  0.004700  1.0  -0.8291
  O  O98  1  0.294700  0.061100  0.040500  1.0  -0.5131
  O  O99  1  0.978900  0.280500  0.204000  1.0  -0.7175
  O  O100  1  0.061300  0.364300  0.359800  1.0  -0.6841
  O  O101  1  0.939100  0.515500  0.285200  1.0  -0.5732
  O  O102  1  0.807500  0.335100  0.231800  1.0  -0.4663
  O  O103  1  0.818600  0.736900  0.487700  1.0  -0.7445
  O  O104  1  0.633700  0.738600  0.477800  1.0  -0.583
  O  O105  1  0.118700  0.570800  0.495300  1.0  -0.8276
  O  O106  1  0.294700  0.561100  0.459500  1.0  -0.5131
  O  O107  1  0.978900  0.780500  0.296000  1.0  -0.7148
  O  O108  1  0.061300  0.864300  0.140200  1.0  -0.6841
  O  O109  1  0.939100  0.015500  0.214800  1.0  -0.5737
  O  O110  1  0.807500  0.835100  0.268200  1.0  -0.4659
  O  O111  1  0.818600  0.236900  0.012300  1.0  -0.7436
  O  O112  1  0.633700  0.238600  0.022200  1.0  -0.5837
  O  O113  1  0.881300  0.929200  0.995300  1.0  -0.8274
  O  O114  1  0.705300  0.938900  0.959500  1.0  -0.512
  O  O115  1  0.021100  0.719500  0.796000  1.0  -0.7144
  O  O116  1  0.938700  0.635700  0.640200  1.0  -0.6835
  O  O117  1  0.060900  0.484500  0.714800  1.0  -0.5726
  O  O118  1  0.192500  0.664900  0.768200  1.0  -0.4665
  O  O119  1  0.181400  0.263100  0.512300  1.0  -0.7471
  O  O120  1  0.366300  0.261400  0.522200  1.0  -0.5822
