# generated using pymatgen
data_Tb2H6C21(NO4)3
_symmetry_space_group_name_H-M   'P 1'
_cell_length_a   12.13000000
_cell_length_b   12.70160000
_cell_length_c   21.81900000
_cell_angle_alpha   82.74990000
_cell_angle_beta   74.67500000
_cell_angle_gamma   61.47770000
_symmetry_Int_Tables_number   1
_chemical_formula_structural   Tb2H6C21(NO4)3
_chemical_formula_sum   'Tb8 H24 C84 N12 O48'
_cell_volume   2848.63602149
_cell_formula_units_Z   4
loop_
 _symmetry_equiv_pos_site_id
 _symmetry_equiv_pos_as_xyz
  1  'x, y, z'
loop_
 _atom_site_type_symbol
 _atom_site_label
 _atom_site_symmetry_multiplicity
 _atom_site_fract_x
 _atom_site_fract_y
 _atom_site_fract_z
 _atom_site_occupancy
 _atom_site_charge
  Tb  Tb1  1  0.768260  0.739100  0.474440  1.0  2.2863
  Tb  Tb2  1  0.492640  0.739100  0.025560  1.0  2.2852
  Tb  Tb3  1  0.231740  0.260900  0.525560  1.0  2.2821
  Tb  Tb4  1  0.507360  0.260900  0.974440  1.0  2.2839
  Tb  Tb5  1  0.787500  0.425000  0.250000  1.0  2.0948
  Tb  Tb6  1  0.212500  0.575000  0.750000  1.0  2.0959
  Tb  Tb7  1  0.247020  0.505960  0.250000  1.0  2.1081
  Tb  Tb8  1  0.752980  0.494040  0.750000  1.0  2.107
  H  H9  1  0.027700  0.870400  0.414500  1.0  0.1212
  H  H10  1  0.417500  0.702000  0.383800  1.0  0.1131
  H  H11  1  0.063600  0.040000  0.407100  1.0  0.118
  H  H12  1  0.371300  0.807200  0.475900  1.0  0.1132
  H  H13  1  0.533200  0.876000  0.162700  1.0  0.1115
  H  H14  1  0.417100  0.058200  0.345500  1.0  0.1086
  H  H15  1  0.101900  0.870400  0.085500  1.0  0.1215
  H  H16  1  0.880500  0.702000  0.116200  1.0  0.1134
  H  H17  1  0.896400  0.040000  0.092900  1.0  0.1188
  H  H18  1  0.821500  0.807200  0.024100  1.0  0.1133
  H  H19  1  0.590800  0.876000  0.337300  1.0  0.1109
  H  H20  1  0.524700  0.058200  0.154500  1.0  0.1072
  H  H21  1  0.972300  0.129600  0.585500  1.0  0.1217
  H  H22  1  0.582500  0.298000  0.616200  1.0  0.1135
  H  H23  1  0.936400  0.960000  0.592900  1.0  0.1183
  H  H24  1  0.628700  0.192800  0.524100  1.0  0.1139
  H  H25  1  0.466800  0.124000  0.837300  1.0  0.1117
  H  H26  1  0.582900  0.941800  0.654500  1.0  0.1069
  H  H27  1  0.898100  0.129600  0.914500  1.0  0.1209
  H  H28  1  0.119500  0.298000  0.883800  1.0  0.1129
  H  H29  1  0.103600  0.960000  0.907100  1.0  0.1174
  H  H30  1  0.178500  0.192800  0.975900  1.0  0.1136
  H  H31  1  0.409200  0.124000  0.662700  1.0  0.1114
  H  H32  1  0.475300  0.941800  0.845500  1.0  0.1085
  C  C33  1  0.646500  0.633000  0.149400  1.0  0.6554
  C  C34  1  0.281400  0.300200  0.360900  1.0  0.6692
  C  C35  1  0.003400  0.718400  0.347000  1.0  0.6107
  C  C36  1  0.120500  0.720600  0.360800  1.0  0.15
  C  C37  1  0.110100  0.808400  0.395400  1.0  -0.1207
  C  C38  1  0.223000  0.806000  0.402400  1.0  0.064
  C  C39  1  0.339300  0.710000  0.377300  1.0  -0.1053
  C  C40  1  0.340600  0.624800  0.342300  1.0  0.1392
  C  C41  1  0.464800  0.517800  0.306500  1.0  0.6771
  C  C42  1  0.033700  0.244600  0.455600  1.0  0.6888
  C  C43  1  0.127800  0.110400  0.459200  1.0  0.1389
  C  C44  1  0.126400  0.021200  0.430800  1.0  -0.169
  C  C45  1  0.217700  0.901400  0.437000  1.0  0.0372
  C  C46  1  0.304500  0.885400  0.471800  1.0  -0.0719
  C  C47  1  0.296800  0.980400  0.501000  1.0  0.077
  C  C48  1  0.372400  0.989400  0.547200  1.0  0.3793
  C  C49  1  0.625900  0.714600  0.200800  1.0  0.1306
  C  C50  1  0.565100  0.835800  0.198800  1.0  -0.0848
  C  C51  1  0.358900  0.218600  0.302800  1.0  0.1467
  C  C52  1  0.419300  0.097600  0.305500  1.0  -0.1147
  C  C53  1  0.720500  0.633000  0.350600  1.0  0.6579
  C  C54  1  0.418400  0.300200  0.139100  1.0  0.6696
  C  C55  1  0.278200  0.718400  0.153000  1.0  0.609
  C  C56  1  0.158900  0.720600  0.139200  1.0  0.1491
  C  C57  1  0.081500  0.808400  0.104600  1.0  -0.1196
  C  C58  1  0.971000  0.806000  0.097600  1.0  0.0636
  C  C59  1  0.950700  0.710000  0.122700  1.0  -0.1067
  C  C60  1  0.034600  0.624800  0.157700  1.0  0.1379
  C  C61  1  0.017400  0.517800  0.193500  1.0  0.6774
  C  C62  1  0.721700  0.244600  0.044400  1.0  0.6872
  C  C63  1  0.761800  0.110400  0.040800  1.0  0.1386
  C  C64  1  0.852400  0.021200  0.069200  1.0  -0.1683
  C  C65  1  0.880900  0.901400  0.063000  1.0  0.0369
  C  C66  1  0.810100  0.885400  0.028200  1.0  -0.0742
  C  C67  1  0.722800  0.980400  0.999000  1.0  0.0747
  C  C68  1  0.638200  0.989400  0.952800  1.0  0.3796
  C  C69  1  0.659500  0.714600  0.299200  1.0  0.1318
  C  C70  1  0.599100  0.835800  0.301200  1.0  -0.0854
  C  C71  1  0.422500  0.218600  0.197200  1.0  0.1456
  C  C72  1  0.483100  0.097600  0.194500  1.0  -0.115
  C  C73  1  0.353500  0.367000  0.850600  1.0  0.6581
  C  C74  1  0.718600  0.699800  0.639100  1.0  0.6682
  C  C75  1  0.996600  0.281600  0.653000  1.0  0.6099
  C  C76  1  0.879500  0.279400  0.639200  1.0  0.149
  C  C77  1  0.889900  0.191600  0.604600  1.0  -0.1198
  C  C78  1  0.777000  0.194000  0.597600  1.0  0.0632
  C  C79  1  0.660700  0.290000  0.622700  1.0  -0.1067
  C  C80  1  0.659400  0.375200  0.657700  1.0  0.1381
  C  C81  1  0.535200  0.482200  0.693500  1.0  0.68
  C  C82  1  0.966300  0.755400  0.544400  1.0  0.6891
  C  C83  1  0.872200  0.889600  0.540800  1.0  0.1388
  C  C84  1  0.873600  0.978800  0.569200  1.0  -0.1675
  C  C85  1  0.782300  0.098600  0.563000  1.0  0.0371
  C  C86  1  0.695500  0.114600  0.528200  1.0  -0.0754
  C  C87  1  0.703200  0.019600  0.499000  1.0  0.0754
  C  C88  1  0.627600  0.010600  0.452800  1.0  0.3804
  C  C89  1  0.374100  0.285400  0.799200  1.0  0.1316
  C  C90  1  0.434900  0.164200  0.801200  1.0  -0.0849
  C  C91  1  0.641100  0.781400  0.697200  1.0  0.1457
  C  C92  1  0.580700  0.902400  0.694500  1.0  -0.1152
  C  C93  1  0.279500  0.367000  0.649400  1.0  0.6592
  C  C94  1  0.581600  0.699800  0.860900  1.0  0.6696
  C  C95  1  0.721800  0.281600  0.847000  1.0  0.6113
  C  C96  1  0.841100  0.279400  0.860800  1.0  0.1498
  C  C97  1  0.918500  0.191600  0.895400  1.0  -0.1207
  C  C98  1  0.029000  0.194000  0.902400  1.0  0.0638
  C  C99  1  0.049300  0.290000  0.877300  1.0  -0.1054
  C  C100  1  0.965400  0.375200  0.842300  1.0  0.1388
  C  C101  1  0.982600  0.482200  0.806500  1.0  0.6792
  C  C102  1  0.278300  0.755400  0.955600  1.0  0.6876
  C  C103  1  0.238200  0.889600  0.959200  1.0  0.1382
  C  C104  1  0.147600  0.978800  0.930800  1.0  -0.1682
  C  C105  1  0.119100  0.098600  0.937000  1.0  0.0375
  C  C106  1  0.189900  0.114600  0.971800  1.0  -0.073
  C  C107  1  0.277200  0.019600  0.001000  1.0  0.0768
  C  C108  1  0.361800  0.010600  0.047200  1.0  0.3794
  C  C109  1  0.340500  0.285400  0.700800  1.0  0.1309
  C  C110  1  0.400900  0.164200  0.698800  1.0  -0.0847
  C  C111  1  0.577500  0.781400  0.802800  1.0  0.1466
  C  C112  1  0.516900  0.902400  0.805500  1.0  -0.114
  C  C113  1  0.549100  0.901800  0.250000  1.0  0.0854
  C  C114  1  0.484600  0.030800  0.250000  1.0  0.1113
  C  C115  1  0.450900  0.098200  0.750000  1.0  0.0852
  C  C116  1  0.515400  0.969200  0.750000  1.0  0.1109
  N  N117  1  0.234300  0.632600  0.331400  1.0  -0.3901
  N  N118  1  0.210500  0.089800  0.493900  1.0  -0.4033
  N  N119  1  0.133100  0.632600  0.168600  1.0  -0.3883
  N  N120  1  0.699700  0.089800  0.006100  1.0  -0.4056
  N  N121  1  0.765700  0.367400  0.668600  1.0  -0.389
  N  N122  1  0.789500  0.910200  0.506100  1.0  -0.4051
  N  N123  1  0.866900  0.367400  0.831400  1.0  -0.3901
  N  N124  1  0.300300  0.910200  0.993900  1.0  -0.4024
  N  N125  1  0.673500  0.653000  0.250000  1.0  -0.4235
  N  N126  1  0.358600  0.282800  0.250000  1.0  -0.4047
  N  N127  1  0.326500  0.347000  0.750000  1.0  -0.4215
  N  N128  1  0.641400  0.717200  0.750000  1.0  -0.4038
  O  O129  1  0.032000  0.649200  0.301600  1.0  -0.669
  O  O130  1  0.896000  0.778200  0.381600  1.0  -0.6992
  O  O131  1  0.447800  0.452000  0.276100  1.0  -0.6693
  O  O132  1  0.568300  0.506600  0.312600  1.0  -0.7112
  O  O133  1  0.038200  0.313800  0.489800  1.0  -0.6768
  O  O134  1  0.953500  0.275000  0.422900  1.0  -0.5716
  O  O135  1  0.399200  0.082400  0.535400  1.0  -0.5956
  O  O136  1  0.384100  0.891800  0.585000  1.0  -0.5517
  O  O137  1  0.693700  0.526000  0.158200  1.0  -0.5985
  O  O138  1  0.619200  0.689800  0.097800  1.0  -0.7352
  O  O139  1  0.219100  0.410400  0.352400  1.0  -0.6436
  O  O140  1  0.288600  0.246000  0.413400  1.0  -0.7377
  O  O141  1  0.318800  0.649200  0.198400  1.0  -0.6684
  O  O142  1  0.325800  0.778200  0.118400  1.0  -0.7008
  O  O143  1  0.100200  0.452000  0.223900  1.0  -0.6682
  O  O144  1  0.925100  0.506600  0.187400  1.0  -0.7122
  O  O145  1  0.648000  0.313800  0.010200  1.0  -0.6765
  O  O146  1  0.771500  0.275000  0.077100  1.0  -0.5722
  O  O147  1  0.518400  0.082400  0.964600  1.0  -0.5951
  O  O148  1  0.724100  0.891800  0.915000  1.0  -0.549
  O  O149  1  0.780300  0.526000  0.341800  1.0  -0.5986
  O  O150  1  0.691000  0.689800  0.402200  1.0  -0.7376
  O  O151  1  0.370500  0.410400  0.147600  1.0  -0.6438
  O  O152  1  0.465400  0.246000  0.086600  1.0  -0.7388
  O  O153  1  0.968000  0.350800  0.698400  1.0  -0.6683
  O  O154  1  0.104000  0.221800  0.618400  1.0  -0.7001
  O  O155  1  0.552200  0.548000  0.723900  1.0  -0.6693
  O  O156  1  0.431700  0.493400  0.687400  1.0  -0.7101
  O  O157  1  0.961800  0.686200  0.510200  1.0  -0.6749
  O  O158  1  0.046500  0.725000  0.577100  1.0  -0.5719
  O  O159  1  0.600800  0.917600  0.464600  1.0  -0.5949
  O  O160  1  0.615900  0.108200  0.415000  1.0  -0.5493
  O  O161  1  0.306300  0.474000  0.841800  1.0  -0.598
  O  O162  1  0.380800  0.310200  0.902200  1.0  -0.739
  O  O163  1  0.780900  0.589600  0.647600  1.0  -0.6439
  O  O164  1  0.711400  0.754000  0.586600  1.0  -0.7389
  O  O165  1  0.681200  0.350800  0.801600  1.0  -0.6687
  O  O166  1  0.674200  0.221800  0.881600  1.0  -0.6995
  O  O167  1  0.899800  0.548000  0.776100  1.0  -0.6691
  O  O168  1  0.074900  0.493400  0.812600  1.0  -0.7099
  O  O169  1  0.352000  0.686200  0.989800  1.0  -0.6753
  O  O170  1  0.228500  0.725000  0.922900  1.0  -0.5728
  O  O171  1  0.481600  0.917600  0.035400  1.0  -0.5952
  O  O172  1  0.275900  0.108200  0.085000  1.0  -0.5514
  O  O173  1  0.219700  0.474000  0.658200  1.0  -0.5974
  O  O174  1  0.309000  0.310200  0.597800  1.0  -0.737
  O  O175  1  0.629500  0.589600  0.852400  1.0  -0.643
  O  O176  1  0.534600  0.754000  0.913400  1.0  -0.737
