# generated using pymatgen
data_Ho2H6C21(NO4)3
_symmetry_space_group_name_H-M   'P 1'
_cell_length_a   12.12600000
_cell_length_b   12.67870000
_cell_length_c   21.56800000
_cell_angle_alpha   82.75870000
_cell_angle_beta   74.71700000
_cell_angle_gamma   61.43180000
_symmetry_Int_Tables_number   1
_chemical_formula_structural   Ho2H6C21(NO4)3
_chemical_formula_sum   'Ho8 H24 C84 N12 O48'
_cell_volume   2809.20160755
_cell_formula_units_Z   4
loop_
 _symmetry_equiv_pos_site_id
 _symmetry_equiv_pos_as_xyz
  1  'x, y, z'
loop_
 _atom_site_type_symbol
 _atom_site_label
 _atom_site_symmetry_multiplicity
 _atom_site_fract_x
 _atom_site_fract_y
 _atom_site_fract_z
 _atom_site_occupancy
 _atom_site_charge
  Ho  Ho1  1  0.770010  0.739180  0.474340  1.0  2.1706
  Ho  Ho2  1  0.490810  0.739180  0.025660  1.0  2.1703
  Ho  Ho3  1  0.229990  0.260820  0.525660  1.0  2.1707
  Ho  Ho4  1  0.509190  0.260820  0.974340  1.0  2.171
  Ho  Ho5  1  0.785130  0.429740  0.250000  1.0  2.0064
  Ho  Ho6  1  0.214870  0.570260  0.750000  1.0  2.009
  Ho  Ho7  1  0.246930  0.506140  0.250000  1.0  2.0825
  Ho  Ho8  1  0.753070  0.493860  0.750000  1.0  2.0784
  H  H9  1  0.028900  0.870000  0.414400  1.0  0.1221
  H  H10  1  0.420000  0.702200  0.380400  1.0  0.1207
  H  H11  1  0.064200  0.042200  0.405200  1.0  0.1198
  H  H12  1  0.366200  0.806000  0.481000  1.0  0.129
  H  H13  1  0.594700  0.878400  0.335600  1.0  0.1209
  H  H14  1  0.418200  0.060600  0.346100  1.0  0.1231
  H  H15  1  0.101100  0.870000  0.085600  1.0  0.1219
  H  H16  1  0.877800  0.702200  0.119600  1.0  0.1196
  H  H17  1  0.893600  0.042200  0.094800  1.0  0.1196
  H  H18  1  0.827800  0.806000  0.019000  1.0  0.1288
  H  H19  1  0.526900  0.878400  0.164400  1.0  0.1203
  H  H20  1  0.521200  0.060600  0.153900  1.0  0.1222
  H  H21  1  0.971100  0.130000  0.585600  1.0  0.1223
  H  H22  1  0.580000  0.297800  0.619600  1.0  0.1201
  H  H23  1  0.935800  0.957800  0.594800  1.0  0.1193
  H  H24  1  0.633800  0.194000  0.519000  1.0  0.1291
  H  H25  1  0.405300  0.121600  0.664400  1.0  0.1208
  H  H26  1  0.581800  0.939400  0.653900  1.0  0.1219
  H  H27  1  0.898900  0.130000  0.914400  1.0  0.1216
  H  H28  1  0.122200  0.297800  0.880400  1.0  0.1204
  H  H29  1  0.106400  0.957800  0.905200  1.0  0.1197
  H  H30  1  0.172200  0.194000  0.981000  1.0  0.1291
  H  H31  1  0.473100  0.121600  0.835600  1.0  0.1216
  H  H32  1  0.478800  0.939400  0.846100  1.0  0.1231
  C  C33  1  0.717300  0.637400  0.352300  1.0  0.738
  C  C34  1  0.278700  0.304600  0.361400  1.0  0.7008
  C  C35  1  0.004700  0.717000  0.347800  1.0  0.6893
  C  C36  1  0.121600  0.721000  0.359900  1.0  0.1416
  C  C37  1  0.111600  0.808800  0.394800  1.0  -0.1319
  C  C38  1  0.222800  0.808800  0.401600  1.0  0.0886
  C  C39  1  0.341300  0.710200  0.374700  1.0  -0.1272
  C  C40  1  0.342100  0.625800  0.340300  1.0  0.1483
  C  C41  1  0.462200  0.517600  0.304400  1.0  0.6959
  C  C42  1  0.028700  0.246600  0.457000  1.0  0.6553
  C  C43  1  0.126300  0.113400  0.458600  1.0  0.1414
  C  C44  1  0.126200  0.023600  0.429700  1.0  -0.1752
  C  C45  1  0.216600  0.904200  0.436000  1.0  0.0756
  C  C46  1  0.304400  0.885200  0.473400  1.0  -0.1365
  C  C47  1  0.299300  0.981400  0.498500  1.0  0.2116
  C  C48  1  0.370400  0.000000  0.541800  1.0  0.5688
  C  C49  1  0.658100  0.715800  0.299300  1.0  0.1331
  C  C50  1  0.600100  0.837800  0.300000  1.0  -0.1183
  C  C51  1  0.358600  0.222800  0.303900  1.0  0.1536
  C  C52  1  0.419400  0.101200  0.305900  1.0  -0.1288
  C  C53  1  0.645300  0.637400  0.147700  1.0  0.7365
  C  C54  1  0.416700  0.304600  0.138600  1.0  0.7012
  C  C55  1  0.278300  0.717000  0.152200  1.0  0.688
  C  C56  1  0.157400  0.721000  0.140100  1.0  0.1417
  C  C57  1  0.079600  0.808800  0.105200  1.0  -0.1305
  C  C58  1  0.968400  0.808800  0.098400  1.0  0.0891
  C  C59  1  0.948500  0.710200  0.125300  1.0  -0.1275
  C  C60  1  0.032100  0.625800  0.159700  1.0  0.1476
  C  C61  1  0.020200  0.517600  0.195600  1.0  0.6962
  C  C62  1  0.724700  0.246600  0.043000  1.0  0.6546
  C  C63  1  0.760300  0.113400  0.041400  1.0  0.1416
  C  C64  1  0.850200  0.023600  0.070300  1.0  -0.175
  C  C65  1  0.879200  0.904200  0.064000  1.0  0.0756
  C  C66  1  0.810400  0.885200  0.026600  1.0  -0.1379
  C  C67  1  0.719300  0.981400  0.001500  1.0  0.2118
  C  C68  1  0.629600  0.000000  0.958200  1.0  0.567
  C  C69  1  0.626100  0.715800  0.200700  1.0  0.1328
  C  C70  1  0.562100  0.837800  0.200000  1.0  -0.117
  C  C71  1  0.418600  0.222800  0.196100  1.0  0.1529
  C  C72  1  0.479400  0.101200  0.194100  1.0  -0.1296
  C  C73  1  0.282700  0.362600  0.647700  1.0  0.7376
  C  C74  1  0.721300  0.695400  0.638600  1.0  0.7001
  C  C75  1  0.995300  0.283000  0.652200  1.0  0.6887
  C  C76  1  0.878400  0.279000  0.640100  1.0  0.1419
  C  C77  1  0.888400  0.191200  0.605200  1.0  -0.1302
  C  C78  1  0.777200  0.191200  0.598400  1.0  0.0889
  C  C79  1  0.658700  0.289800  0.625300  1.0  -0.129
  C  C80  1  0.657900  0.374200  0.659700  1.0  0.1479
  C  C81  1  0.537800  0.482400  0.695600  1.0  0.699
  C  C82  1  0.971300  0.753400  0.543000  1.0  0.6558
  C  C83  1  0.873700  0.886600  0.541400  1.0  0.1414
  C  C84  1  0.873800  0.976400  0.570300  1.0  -0.1747
  C  C85  1  0.783400  0.095800  0.564000  1.0  0.0756
  C  C86  1  0.695600  0.114800  0.526600  1.0  -0.1367
  C  C87  1  0.700700  0.018600  0.501500  1.0  0.2117
  C  C88  1  0.629600  0.000000  0.458200  1.0  0.5701
  C  C89  1  0.341900  0.284200  0.700700  1.0  0.1331
  C  C90  1  0.399900  0.162200  0.700000  1.0  -0.1173
  C  C91  1  0.641400  0.777200  0.696100  1.0  0.1526
  C  C92  1  0.580600  0.898800  0.694100  1.0  -0.1295
  C  C93  1  0.354700  0.362600  0.852300  1.0  0.737
  C  C94  1  0.583300  0.695400  0.861400  1.0  0.7008
  C  C95  1  0.721700  0.283000  0.847800  1.0  0.6897
  C  C96  1  0.842600  0.279000  0.859900  1.0  0.1419
  C  C97  1  0.920400  0.191200  0.894800  1.0  -0.1315
  C  C98  1  0.031600  0.191200  0.901600  1.0  0.0883
  C  C99  1  0.051500  0.289800  0.874700  1.0  -0.1282
  C  C100  1  0.967900  0.374200  0.840300  1.0  0.148
  C  C101  1  0.979800  0.482400  0.804400  1.0  0.6978
  C  C102  1  0.275300  0.753400  0.957000  1.0  0.6547
  C  C103  1  0.239700  0.886600  0.958600  1.0  0.1401
  C  C104  1  0.149800  0.976400  0.929700  1.0  -0.1751
  C  C105  1  0.120800  0.095800  0.936000  1.0  0.0756
  C  C106  1  0.189600  0.114800  0.973400  1.0  -0.1346
  C  C107  1  0.280700  0.018600  0.998500  1.0  0.2107
  C  C108  1  0.370400  0.000000  0.041800  1.0  0.5712
  C  C109  1  0.373900  0.284200  0.799300  1.0  0.1332
  C  C110  1  0.437900  0.162200  0.800000  1.0  -0.1169
  C  C111  1  0.581400  0.777200  0.803900  1.0  0.1536
  C  C112  1  0.520600  0.898800  0.805900  1.0  -0.1296
  C  C113  1  0.548800  0.902400  0.250000  1.0  0.0846
  C  C114  1  0.481200  0.037600  0.250000  1.0  0.0795
  C  C115  1  0.451200  0.097600  0.750000  1.0  0.0839
  C  C116  1  0.518800  0.962400  0.750000  1.0  0.0795
  N  N117  1  0.234400  0.632800  0.330700  1.0  -0.4171
  N  N118  1  0.210800  0.089200  0.493800  1.0  -0.4832
  N  N119  1  0.132800  0.632800  0.169300  1.0  -0.4166
  N  N120  1  0.700000  0.089200  0.006200  1.0  -0.4849
  N  N121  1  0.765600  0.367200  0.669300  1.0  -0.417
  N  N122  1  0.789200  0.910800  0.506200  1.0  -0.4851
  N  N123  1  0.867200  0.367200  0.830700  1.0  -0.4178
  N  N124  1  0.300000  0.910800  0.993800  1.0  -0.4814
  N  N125  1  0.672600  0.654800  0.250000  1.0  -0.4126
  N  N126  1  0.357600  0.284800  0.250000  1.0  -0.4247
  N  N127  1  0.327400  0.345200  0.750000  1.0  -0.4133
  N  N128  1  0.642400  0.715200  0.750000  1.0  -0.4244
  O  O129  1  0.031200  0.649600  0.302000  1.0  -0.6563
  O  O130  1  0.896100  0.777000  0.381900  1.0  -0.691
  O  O131  1  0.448300  0.451400  0.274300  1.0  -0.6342
  O  O132  1  0.569200  0.509600  0.310000  1.0  -0.7593
  O  O133  1  0.041500  0.314600  0.489300  1.0  -0.7365
  O  O134  1  0.952700  0.278600  0.423000  1.0  -0.5581
  O  O135  1  0.398200  0.090600  0.533600  1.0  -0.6352
  O  O136  1  0.386700  0.906600  0.581500  1.0  -0.5227
  O  O137  1  0.778900  0.526800  0.342600  1.0  -0.6655
  O  O138  1  0.690500  0.690600  0.404100  1.0  -0.7711
  O  O139  1  0.218100  0.414000  0.352500  1.0  -0.6409
  O  O140  1  0.287700  0.250400  0.414800  1.0  -0.7595
  O  O141  1  0.319200  0.649600  0.198000  1.0  -0.6571
  O  O142  1  0.326900  0.777000  0.118100  1.0  -0.6929
  O  O143  1  0.100300  0.451400  0.225700  1.0  -0.6335
  O  O144  1  0.921200  0.509600  0.190000  1.0  -0.7601
  O  O145  1  0.643900  0.314600  0.010700  1.0  -0.7382
  O  O146  1  0.768700  0.278600  0.077000  1.0  -0.5573
  O  O147  1  0.511200  0.090600  0.966400  1.0  -0.6366
  O  O148  1  0.706700  0.906600  0.918500  1.0  -0.5231
  O  O149  1  0.694300  0.526800  0.157400  1.0  -0.6655
  O  O150  1  0.618900  0.690600  0.095900  1.0  -0.771
  O  O151  1  0.367900  0.414000  0.147500  1.0  -0.6409
  O  O152  1  0.461900  0.250400  0.085200  1.0  -0.7607
  O  O153  1  0.968800  0.350400  0.698000  1.0  -0.6568
  O  O154  1  0.103900  0.223000  0.618100  1.0  -0.6939
  O  O155  1  0.551700  0.548600  0.725700  1.0  -0.6346
  O  O156  1  0.430800  0.490400  0.690000  1.0  -0.7592
  O  O157  1  0.958500  0.685400  0.510700  1.0  -0.7403
  O  O158  1  0.047300  0.721400  0.577000  1.0  -0.5566
  O  O159  1  0.601800  0.909400  0.466400  1.0  -0.6389
  O  O160  1  0.613300  0.093400  0.418500  1.0  -0.5232
  O  O161  1  0.221100  0.473200  0.657400  1.0  -0.6654
  O  O162  1  0.309500  0.309400  0.595900  1.0  -0.7718
  O  O163  1  0.781900  0.586000  0.647500  1.0  -0.6401
  O  O164  1  0.712300  0.749600  0.585200  1.0  -0.7613
  O  O165  1  0.680800  0.350400  0.802000  1.0  -0.6561
  O  O166  1  0.673100  0.223000  0.881900  1.0  -0.6926
  O  O167  1  0.899700  0.548600  0.774300  1.0  -0.6329
  O  O168  1  0.078800  0.490400  0.810000  1.0  -0.7578
  O  O169  1  0.356100  0.685400  0.989300  1.0  -0.7391
  O  O170  1  0.231300  0.721400  0.923000  1.0  -0.5582
  O  O171  1  0.488800  0.909400  0.033600  1.0  -0.638
  O  O172  1  0.293300  0.093400  0.081500  1.0  -0.5225
  O  O173  1  0.305700  0.473200  0.842600  1.0  -0.6639
  O  O174  1  0.381100  0.309400  0.904100  1.0  -0.7718
  O  O175  1  0.632100  0.586000  0.852500  1.0  -0.6405
  O  O176  1  0.538100  0.749600  0.914800  1.0  -0.7597
