# generated using pymatgen
data_Ho2H6C21(NO4)3
_symmetry_space_group_name_H-M   'P 1'
_cell_length_a   12.12600000
_cell_length_b   12.67870000
_cell_length_c   21.56800000
_cell_angle_alpha   82.75870000
_cell_angle_beta   74.71700000
_cell_angle_gamma   61.43180000
_symmetry_Int_Tables_number   1
_chemical_formula_structural   Ho2H6C21(NO4)3
_chemical_formula_sum   'Ho8 H24 C84 N12 O48'
_cell_volume   2809.20160755
_cell_formula_units_Z   4
loop_
 _symmetry_equiv_pos_site_id
 _symmetry_equiv_pos_as_xyz
  1  'x, y, z'
loop_
 _atom_site_type_symbol
 _atom_site_label
 _atom_site_symmetry_multiplicity
 _atom_site_fract_x
 _atom_site_fract_y
 _atom_site_fract_z
 _atom_site_occupancy
 _atom_site_charge
  Ho  Ho1  1  0.769990  0.739280  0.474320  1.0  2.1776
  Ho  Ho2  1  0.490730  0.739280  0.025680  1.0  2.1772
  Ho  Ho3  1  0.230010  0.260720  0.525680  1.0  2.1786
  Ho  Ho4  1  0.509270  0.260720  0.974320  1.0  2.1791
  Ho  Ho5  1  0.785110  0.429780  0.250000  1.0  1.9591
  Ho  Ho6  1  0.214890  0.570220  0.750000  1.0  1.9601
  Ho  Ho7  1  0.246890  0.506220  0.250000  1.0  2.0779
  Ho  Ho8  1  0.753110  0.493780  0.750000  1.0  2.0726
  H  H9  1  0.029100  0.869400  0.414800  1.0  0.122
  H  H10  1  0.420000  0.701000  0.380600  1.0  0.1141
  H  H11  1  0.063700  0.042200  0.405600  1.0  0.1229
  H  H12  1  0.368100  0.807200  0.479800  1.0  0.1303
  H  H13  1  0.592700  0.878800  0.336700  1.0  0.1271
  H  H14  1  0.420300  0.059800  0.346700  1.0  0.1265
  H  H15  1  0.101500  0.869400  0.085200  1.0  0.1219
  H  H16  1  0.879000  0.701000  0.119400  1.0  0.113
  H  H17  1  0.894100  0.042200  0.094400  1.0  0.1229
  H  H18  1  0.824700  0.807200  0.020200  1.0  0.1297
  H  H19  1  0.528500  0.878800  0.163300  1.0  0.1269
  H  H20  1  0.519900  0.059800  0.153300  1.0  0.1258
  H  H21  1  0.970900  0.130600  0.585200  1.0  0.1222
  H  H22  1  0.580000  0.299000  0.619400  1.0  0.1136
  H  H23  1  0.936300  0.957800  0.594400  1.0  0.1226
  H  H24  1  0.631900  0.192800  0.520200  1.0  0.1299
  H  H25  1  0.407300  0.121200  0.663300  1.0  0.1273
  H  H26  1  0.579700  0.940200  0.653300  1.0  0.1255
  H  H27  1  0.898500  0.130600  0.914800  1.0  0.1216
  H  H28  1  0.121000  0.299000  0.880600  1.0  0.1138
  H  H29  1  0.105900  0.957800  0.905600  1.0  0.1226
  H  H30  1  0.175300  0.192800  0.979800  1.0  0.1303
  H  H31  1  0.471500  0.121200  0.836700  1.0  0.1276
  H  H32  1  0.480100  0.940200  0.846700  1.0  0.1265
  C  C33  1  0.719500  0.635000  0.352100  1.0  0.745
  C  C34  1  0.278800  0.304400  0.361300  1.0  0.7066
  C  C35  1  0.005300  0.716400  0.348000  1.0  0.685
  C  C36  1  0.122000  0.720800  0.359700  1.0  0.1402
  C  C37  1  0.111800  0.808600  0.394900  1.0  -0.1331
  C  C38  1  0.222700  0.809000  0.401500  1.0  0.0866
  C  C39  1  0.341300  0.709400  0.374600  1.0  -0.1321
  C  C40  1  0.343400  0.625200  0.340000  1.0  0.1427
  C  C41  1  0.462300  0.517400  0.304100  1.0  0.7108
  C  C42  1  0.030200  0.245600  0.456000  1.0  0.6547
  C  C43  1  0.126600  0.112800  0.458700  1.0  0.1488
  C  C44  1  0.126300  0.023400  0.429800  1.0  -0.1747
  C  C45  1  0.216600  0.904800  0.435700  1.0  0.0872
  C  C46  1  0.304800  0.886400  0.472900  1.0  -0.1442
  C  C47  1  0.299400  0.981200  0.498600  1.0  0.227
  C  C48  1  0.371700  0.002400  0.539700  1.0  0.573
  C  C49  1  0.658400  0.715200  0.299700  1.0  0.1158
  C  C50  1  0.599100  0.837800  0.300900  1.0  -0.118
  C  C51  1  0.357500  0.223000  0.304200  1.0  0.1461
  C  C52  1  0.419800  0.100400  0.306600  1.0  -0.1308
  C  C53  1  0.645500  0.635000  0.147900  1.0  0.7447
  C  C54  1  0.416800  0.304400  0.138700  1.0  0.7069
  C  C55  1  0.278300  0.716400  0.152000  1.0  0.6836
  C  C56  1  0.157200  0.720800  0.140300  1.0  0.1401
  C  C57  1  0.079600  0.808600  0.105100  1.0  -0.1315
  C  C58  1  0.968300  0.809000  0.098500  1.0  0.087
  C  C59  1  0.949300  0.709400  0.125400  1.0  -0.1318
  C  C60  1  0.031400  0.625200  0.160000  1.0  0.1422
  C  C61  1  0.020300  0.517400  0.195900  1.0  0.7102
  C  C62  1  0.724200  0.245600  0.044000  1.0  0.654
  C  C63  1  0.760600  0.112800  0.041300  1.0  0.1499
  C  C64  1  0.850300  0.023400  0.070200  1.0  -0.1748
  C  C65  1  0.878600  0.904800  0.064300  1.0  0.0874
  C  C66  1  0.808800  0.886400  0.027100  1.0  -0.1458
  C  C67  1  0.719400  0.981200  0.001400  1.0  0.2258
  C  C68  1  0.625900  0.002400  0.960300  1.0  0.5742
  C  C69  1  0.626400  0.715200  0.200300  1.0  0.1158
  C  C70  1  0.563100  0.837800  0.199100  1.0  -0.1165
  C  C71  1  0.419500  0.223000  0.195800  1.0  0.145
  C  C72  1  0.479800  0.100400  0.193400  1.0  -0.1307
  C  C73  1  0.280500  0.365000  0.647900  1.0  0.7467
  C  C74  1  0.721200  0.695600  0.638700  1.0  0.7052
  C  C75  1  0.994700  0.283600  0.652000  1.0  0.6842
  C  C76  1  0.878000  0.279200  0.640300  1.0  0.14
  C  C77  1  0.888200  0.191400  0.605100  1.0  -0.131
  C  C78  1  0.777300  0.191000  0.598500  1.0  0.0868
  C  C79  1  0.658700  0.290600  0.625400  1.0  -0.1333
  C  C80  1  0.656600  0.374800  0.660000  1.0  0.1427
  C  C81  1  0.537700  0.482600  0.695900  1.0  0.7113
  C  C82  1  0.969800  0.754400  0.544000  1.0  0.6549
  C  C83  1  0.873400  0.887200  0.541300  1.0  0.1497
  C  C84  1  0.873700  0.976600  0.570200  1.0  -0.1739
  C  C85  1  0.783400  0.095200  0.564300  1.0  0.0876
  C  C86  1  0.695200  0.113600  0.527100  1.0  -0.1468
  C  C87  1  0.700600  0.018800  0.501400  1.0  0.2263
  C  C88  1  0.628300  0.997600  0.460300  1.0  0.5732
  C  C89  1  0.341600  0.284800  0.700300  1.0  0.1158
  C  C90  1  0.400900  0.162200  0.699100  1.0  -0.1161
  C  C91  1  0.642500  0.777000  0.695800  1.0  0.145
  C  C92  1  0.580200  0.899600  0.693400  1.0  -0.13
  C  C93  1  0.354500  0.365000  0.852100  1.0  0.7448
  C  C94  1  0.583200  0.695600  0.861300  1.0  0.7065
  C  C95  1  0.721700  0.283600  0.848000  1.0  0.6853
  C  C96  1  0.842800  0.279200  0.859700  1.0  0.1401
  C  C97  1  0.920400  0.191400  0.894900  1.0  -0.1328
  C  C98  1  0.031700  0.191000  0.901500  1.0  0.0864
  C  C99  1  0.050700  0.290600  0.874600  1.0  -0.1328
  C  C100  1  0.968600  0.374800  0.840000  1.0  0.1428
  C  C101  1  0.979700  0.482600  0.804100  1.0  0.7108
  C  C102  1  0.275800  0.754400  0.956000  1.0  0.6538
  C  C103  1  0.239400  0.887200  0.958700  1.0  0.1479
  C  C104  1  0.149700  0.976600  0.929800  1.0  -0.1747
  C  C105  1  0.121400  0.095200  0.935700  1.0  0.0875
  C  C106  1  0.191200  0.113600  0.972900  1.0  -0.145
  C  C107  1  0.280600  0.018800  0.998600  1.0  0.226
  C  C108  1  0.374100  0.997600  0.039700  1.0  0.5719
  C  C109  1  0.373600  0.284800  0.799700  1.0  0.1158
  C  C110  1  0.436900  0.162200  0.800900  1.0  -0.1172
  C  C111  1  0.580500  0.777000  0.804200  1.0  0.1457
  C  C112  1  0.520200  0.899600  0.806600  1.0  -0.131
  C  C113  1  0.549100  0.901800  0.250000  1.0  0.0727
  C  C114  1  0.481500  0.037000  0.250000  1.0  0.0802
  C  C115  1  0.450900  0.098200  0.750000  1.0  0.0718
  C  C116  1  0.518500  0.963000  0.750000  1.0  0.0801
  N  N117  1  0.234600  0.632400  0.330600  1.0  -0.4185
  N  N118  1  0.211500  0.088600  0.493800  1.0  -0.4761
  N  N119  1  0.133000  0.632400  0.169400  1.0  -0.418
  N  N120  1  0.699900  0.088600  0.006200  1.0  -0.4763
  N  N121  1  0.765400  0.367600  0.669400  1.0  -0.4187
  N  N122  1  0.788500  0.911400  0.506200  1.0  -0.4757
  N  N123  1  0.867000  0.367600  0.830600  1.0  -0.4197
  N  N124  1  0.300100  0.911400  0.993800  1.0  -0.474
  N  N125  1  0.672800  0.654400  0.250000  1.0  -0.4092
  N  N126  1  0.357500  0.285000  0.250000  1.0  -0.4291
  N  N127  1  0.327200  0.345600  0.750000  1.0  -0.4085
  N  N128  1  0.642500  0.715000  0.750000  1.0  -0.4286
  O  O129  1  0.031300  0.648800  0.302100  1.0  -0.6601
  O  O130  1  0.895800  0.777200  0.382000  1.0  -0.7158
  O  O131  1  0.448100  0.451800  0.274300  1.0  -0.6254
  O  O132  1  0.569400  0.509200  0.309900  1.0  -0.7546
  O  O133  1  0.041800  0.314400  0.488800  1.0  -0.741
  O  O134  1  0.953100  0.277800  0.422600  1.0  -0.5347
  O  O135  1  0.403300  0.089400  0.531500  1.0  -0.645
  O  O136  1  0.385800  0.912400  0.580400  1.0  -0.5177
  O  O137  1  0.779700  0.526600  0.342300  1.0  -0.6377
  O  O138  1  0.691100  0.691000  0.403800  1.0  -0.7901
  O  O139  1  0.218100  0.414000  0.352400  1.0  -0.6535
  O  O140  1  0.287200  0.249600  0.414400  1.0  -0.7619
  O  O141  1  0.319900  0.648800  0.197900  1.0  -0.6609
  O  O142  1  0.327000  0.777200  0.118000  1.0  -0.7175
  O  O143  1  0.100100  0.451800  0.225700  1.0  -0.6259
  O  O144  1  0.921400  0.509200  0.190100  1.0  -0.7555
  O  O145  1  0.643800  0.314400  0.011200  1.0  -0.7422
  O  O146  1  0.769100  0.277800  0.077400  1.0  -0.532
  O  O147  1  0.507300  0.089400  0.968500  1.0  -0.646
  O  O148  1  0.701800  0.912400  0.919600  1.0  -0.5159
  O  O149  1  0.693700  0.526600  0.157700  1.0  -0.6383
  O  O150  1  0.617900  0.691000  0.096200  1.0  -0.7877
  O  O151  1  0.367900  0.414000  0.147600  1.0  -0.653
  O  O152  1  0.463200  0.249600  0.085600  1.0  -0.762
  O  O153  1  0.968700  0.351200  0.697900  1.0  -0.6607
  O  O154  1  0.104200  0.222800  0.618000  1.0  -0.7173
  O  O155  1  0.551900  0.548200  0.725700  1.0  -0.626
  O  O156  1  0.430600  0.490800  0.690100  1.0  -0.7546
  O  O157  1  0.958200  0.685600  0.511200  1.0  -0.7429
  O  O158  1  0.046900  0.722200  0.577400  1.0  -0.5321
  O  O159  1  0.596700  0.910600  0.468500  1.0  -0.6473
  O  O160  1  0.614200  0.087600  0.419600  1.0  -0.5147
  O  O161  1  0.220300  0.473400  0.657700  1.0  -0.6375
  O  O162  1  0.308900  0.309000  0.596200  1.0  -0.7871
  O  O163  1  0.781900  0.586000  0.647600  1.0  -0.6519
  O  O164  1  0.712800  0.750400  0.585600  1.0  -0.7624
  O  O165  1  0.680100  0.351200  0.802100  1.0  -0.6601
  O  O166  1  0.673000  0.222800  0.882000  1.0  -0.7162
  O  O167  1  0.899900  0.548200  0.774300  1.0  -0.6234
  O  O168  1  0.078600  0.490800  0.809900  1.0  -0.7534
  O  O169  1  0.356200  0.685600  0.988800  1.0  -0.7418
  O  O170  1  0.230900  0.722200  0.922600  1.0  -0.5351
  O  O171  1  0.492700  0.910600  0.031500  1.0  -0.6468
  O  O172  1  0.298200  0.087600  0.080400  1.0  -0.5163
  O  O173  1  0.306300  0.473400  0.842300  1.0  -0.6378
  O  O174  1  0.382100  0.309000  0.903800  1.0  -0.7897
  O  O175  1  0.632100  0.586000  0.852400  1.0  -0.6527
  O  O176  1  0.536800  0.750400  0.914400  1.0  -0.7617
