# generated using pymatgen
data_Dy2H6C21(NO4)3
_symmetry_space_group_name_H-M   'P 1'
_cell_length_a   12.10250000
_cell_length_b   12.68050000
_cell_length_c   21.69500000
_cell_angle_alpha   82.75900000
_cell_angle_beta   74.68500000
_cell_angle_gamma   61.49670000
_symmetry_Int_Tables_number   1
_chemical_formula_structural   Dy2H6C21(NO4)3
_chemical_formula_sum   'Dy8 H24 C84 N12 O48'
_cell_volume   2821.97402759
_cell_formula_units_Z   4
loop_
 _symmetry_equiv_pos_site_id
 _symmetry_equiv_pos_as_xyz
  1  'x, y, z'
loop_
 _atom_site_type_symbol
 _atom_site_label
 _atom_site_symmetry_multiplicity
 _atom_site_fract_x
 _atom_site_fract_y
 _atom_site_fract_z
 _atom_site_occupancy
 _atom_site_charge
  Dy  Dy1  1  0.508480  0.260320  0.474280  1.0  2.2865
  Dy  Dy2  1  0.231200  0.260320  0.025720  1.0  2.2866
  Dy  Dy3  1  0.491520  0.739680  0.525720  1.0  2.2867
  Dy  Dy4  1  0.768800  0.739680  0.974280  1.0  2.2866
  Dy  Dy5  1  0.753080  0.493840  0.250000  1.0  2.1254
  Dy  Dy6  1  0.246920  0.506160  0.750000  1.0  2.1271
  Dy  Dy7  1  0.213340  0.573320  0.250000  1.0  2.1878
  Dy  Dy8  1  0.786660  0.426680  0.750000  1.0  2.1843
  H  H9  1  0.899000  0.129400  0.414800  1.0  0.1235
  H  H10  1  0.121900  0.300800  0.380400  1.0  0.1259
  H  H11  1  0.104100  0.959000  0.407100  1.0  0.1253
  H  H12  1  0.169500  0.195600  0.482000  1.0  0.1264
  H  H13  1  0.474100  0.120000  0.336200  1.0  0.1374
  H  H14  1  0.473000  0.942800  0.345400  1.0  0.117
  H  H15  1  0.971600  0.129400  0.085200  1.0  0.1246
  H  H16  1  0.577300  0.300800  0.119600  1.0  0.1258
  H  H17  1  0.936900  0.959000  0.092900  1.0  0.125
  H  H18  1  0.634900  0.195600  0.018000  1.0  0.1266
  H  H19  1  0.405900  0.120000  0.163800  1.0  0.1366
  H  H20  1  0.584200  0.942800  0.154600  1.0  0.1168
  H  H21  1  0.101000  0.870600  0.585200  1.0  0.1243
  H  H22  1  0.878100  0.699200  0.619600  1.0  0.1254
  H  H23  1  0.895900  0.041000  0.592900  1.0  0.125
  H  H24  1  0.830500  0.804400  0.518000  1.0  0.1261
  H  H25  1  0.525900  0.880000  0.663800  1.0  0.1321
  H  H26  1  0.527000  0.057200  0.654600  1.0  0.1165
  H  H27  1  0.028400  0.870600  0.914800  1.0  0.124
  H  H28  1  0.422700  0.699200  0.880400  1.0  0.1261
  H  H29  1  0.063100  0.041000  0.907100  1.0  0.1254
  H  H30  1  0.365100  0.804400  0.982000  1.0  0.1265
  H  H31  1  0.594100  0.880000  0.836200  1.0  0.1327
  H  H32  1  0.415800  0.057200  0.845400  1.0  0.1166
  C  C33  1  0.352800  0.364600  0.351900  1.0  0.7536
  C  C34  1  0.582800  0.698400  0.362300  1.0  0.7126
  C  C35  1  0.722000  0.284200  0.347000  1.0  0.6846
  C  C36  1  0.842600  0.278600  0.359500  1.0  0.1424
  C  C37  1  0.919700  0.191200  0.395200  1.0  -0.1255
  C  C38  1  0.030300  0.194600  0.402100  1.0  0.0824
  C  C39  1  0.051200  0.292200  0.375000  1.0  -0.1377
  C  C40  1  0.966700  0.375400  0.340300  1.0  0.1438
  C  C41  1  0.983500  0.481000  0.306400  1.0  0.7195
  C  C42  1  0.276600  0.756800  0.456000  1.0  0.6584
  C  C43  1  0.239500  0.889000  0.458600  1.0  0.1489
  C  C44  1  0.148000  0.978000  0.430500  1.0  -0.1536
  C  C45  1  0.120700  0.097400  0.436400  1.0  0.0812
  C  C46  1  0.187900  0.116200  0.473700  1.0  -0.1564
  C  C47  1  0.282100  0.019800  0.498200  1.0  0.2065
  C  C48  1  0.383400  0.027400  0.524100  1.0  0.5866
  C  C49  1  0.374100  0.285800  0.299800  1.0  0.1198
  C  C50  1  0.438700  0.161400  0.300900  1.0  -0.1156
  C  C51  1  0.581500  0.779000  0.304100  1.0  0.1411
  C  C52  1  0.516800  0.902400  0.305600  1.0  -0.1302
  C  C53  1  0.282600  0.364600  0.148100  1.0  0.755
  C  C54  1  0.718800  0.698400  0.137700  1.0  0.7096
  C  C55  1  0.993800  0.284200  0.153000  1.0  0.6841
  C  C56  1  0.878800  0.278600  0.140500  1.0  0.1426
  C  C57  1  0.889100  0.191200  0.104800  1.0  -0.1251
  C  C58  1  0.775100  0.194600  0.097900  1.0  0.0823
  C  C59  1  0.656600  0.292200  0.125000  1.0  -0.1375
  C  C60  1  0.657900  0.375400  0.159700  1.0  0.1442
  C  C61  1  0.535500  0.481000  0.193600  1.0  0.7201
  C  C62  1  0.966600  0.756800  0.044000  1.0  0.6598
  C  C63  1  0.871500  0.889000  0.041400  1.0  0.1505
  C  C64  1  0.874000  0.978000  0.069500  1.0  -0.1533
  C  C65  1  0.781900  0.097400  0.063600  1.0  0.0812
  C  C66  1  0.695900  0.116200  0.026300  1.0  -0.1589
  C  C67  1  0.698100  0.019800  0.001800  1.0  0.2063
  C  C68  1  0.589200  0.027400  0.975900  1.0  0.587
  C  C69  1  0.340100  0.285800  0.200200  1.0  0.12
  C  C70  1  0.399900  0.161400  0.199100  1.0  -0.1153
  C  C71  1  0.639500  0.779000  0.195900  1.0  0.1398
  C  C72  1  0.580800  0.902400  0.194400  1.0  -0.1315
  C  C73  1  0.647200  0.635400  0.648100  1.0  0.7532
  C  C74  1  0.417200  0.301600  0.637700  1.0  0.711
  C  C75  1  0.278000  0.715800  0.653000  1.0  0.6834
  C  C76  1  0.157400  0.721400  0.640500  1.0  0.1427
  C  C77  1  0.080300  0.808800  0.604800  1.0  -0.1251
  C  C78  1  0.969700  0.805400  0.597900  1.0  0.083
  C  C79  1  0.948800  0.707800  0.625000  1.0  -0.1372
  C  C80  1  0.033300  0.624600  0.659700  1.0  0.1438
  C  C81  1  0.016500  0.519000  0.693600  1.0  0.7183
  C  C82  1  0.723400  0.243200  0.544000  1.0  0.6594
  C  C83  1  0.760500  0.111000  0.541400  1.0  0.1507
  C  C84  1  0.852000  0.022000  0.569500  1.0  -0.1535
  C  C85  1  0.879300  0.902600  0.563600  1.0  0.081
  C  C86  1  0.812100  0.883800  0.526300  1.0  -0.1576
  C  C87  1  0.717900  0.980200  0.501800  1.0  0.2058
  C  C88  1  0.616600  0.972600  0.475900  1.0  0.5828
  C  C89  1  0.625900  0.714200  0.700200  1.0  0.119
  C  C90  1  0.561300  0.838600  0.699100  1.0  -0.1147
  C  C91  1  0.418500  0.221000  0.695900  1.0  0.1405
  C  C92  1  0.483200  0.097600  0.694400  1.0  -0.1319
  C  C93  1  0.717400  0.635400  0.851900  1.0  0.7544
  C  C94  1  0.281200  0.301600  0.862300  1.0  0.7112
  C  C95  1  0.006200  0.715800  0.847000  1.0  0.6841
  C  C96  1  0.121200  0.721400  0.859500  1.0  0.1426
  C  C97  1  0.110900  0.808800  0.895200  1.0  -0.1255
  C  C98  1  0.224900  0.805400  0.902100  1.0  0.083
  C  C99  1  0.343400  0.707800  0.875000  1.0  -0.138
  C  C100  1  0.342100  0.624600  0.840300  1.0  0.1438
  C  C101  1  0.464500  0.519000  0.806400  1.0  0.7176
  C  C102  1  0.033400  0.243200  0.956000  1.0  0.6607
  C  C103  1  0.128500  0.111000  0.958600  1.0  0.15
  C  C104  1  0.126000  0.022000  0.930500  1.0  -0.1539
  C  C105  1  0.218100  0.902600  0.936400  1.0  0.0809
  C  C106  1  0.304100  0.883800  0.973700  1.0  -0.1553
  C  C107  1  0.301900  0.980200  0.998200  1.0  0.2075
  C  C108  1  0.410800  0.972600  0.024100  1.0  0.5825
  C  C109  1  0.659900  0.714200  0.799800  1.0  0.1206
  C  C110  1  0.600100  0.838600  0.800900  1.0  -0.1155
  C  C111  1  0.360500  0.221000  0.804100  1.0  0.1404
  C  C112  1  0.419200  0.097600  0.805600  1.0  -0.1305
  C  C113  1  0.450900  0.098200  0.250000  1.0  0.0708
  C  C114  1  0.515900  0.968200  0.250000  1.0  0.0865
  C  C115  1  0.549100  0.901800  0.750000  1.0  0.0707
  C  C116  1  0.484100  0.031800  0.750000  1.0  0.087
  N  N117  1  0.867000  0.367400  0.331600  1.0  -0.4156
  N  N118  1  0.300400  0.912000  0.493700  1.0  -0.4628
  N  N119  1  0.765600  0.367400  0.168400  1.0  -0.4153
  N  N120  1  0.787600  0.912000  0.006300  1.0  -0.4639
  N  N121  1  0.133000  0.632600  0.668400  1.0  -0.4148
  N  N122  1  0.699600  0.088000  0.506300  1.0  -0.4641
  N  N123  1  0.234400  0.632600  0.831600  1.0  -0.4152
  N  N124  1  0.212400  0.088000  0.993700  1.0  -0.4631
  N  N125  1  0.327500  0.345000  0.250000  1.0  -0.4477
  N  N126  1  0.641700  0.716600  0.250000  1.0  -0.4277
  N  N127  1  0.672500  0.655000  0.750000  1.0  -0.4466
  N  N128  1  0.358300  0.283400  0.750000  1.0  -0.4285
  O  O129  1  0.680400  0.351200  0.301700  1.0  -0.6555
  O  O130  1  0.674500  0.221800  0.381500  1.0  -0.7033
  O  O131  1  0.899900  0.548200  0.275300  1.0  -0.6882
  O  O132  1  0.076700  0.493800  0.311000  1.0  -0.7447
  O  O133  1  0.353300  0.685400  0.489800  1.0  -0.7598
  O  O134  1  0.226500  0.725000  0.423400  1.0  -0.6227
  O  O135  1  0.411100  0.945800  0.569500  1.0  -0.6352
  O  O136  1  0.431500  0.105000  0.502700  1.0  -0.6596
  O  O137  1  0.305400  0.474600  0.342200  1.0  -0.6579
  O  O138  1  0.381800  0.309800  0.402900  1.0  -0.7771
  O  O139  1  0.629300  0.588400  0.352400  1.0  -0.6685
  O  O140  1  0.535600  0.751800  0.413400  1.0  -0.7421
  O  O141  1  0.968400  0.351200  0.198300  1.0  -0.6556
  O  O142  1  0.103700  0.221800  0.118500  1.0  -0.7038
  O  O143  1  0.551900  0.548200  0.224700  1.0  -0.6891
  O  O144  1  0.429500  0.493800  0.189000  1.0  -0.7452
  O  O145  1  0.961300  0.685400  0.010200  1.0  -0.7607
  O  O146  1  0.048500  0.725000  0.076600  1.0  -0.6224
  O  O147  1  0.643100  0.945800  0.930500  1.0  -0.6342
  O  O148  1  0.463500  0.105000  0.997300  1.0  -0.6607
  O  O149  1  0.220000  0.474600  0.157800  1.0  -0.6573
  O  O150  1  0.308400  0.309800  0.097100  1.0  -0.7763
  O  O151  1  0.782300  0.588400  0.147600  1.0  -0.668
  O  O152  1  0.712600  0.751800  0.086600  1.0  -0.7421
  O  O153  1  0.319600  0.648800  0.698300  1.0  -0.6561
  O  O154  1  0.325500  0.778200  0.618500  1.0  -0.7047
  O  O155  1  0.100100  0.451800  0.724700  1.0  -0.6879
  O  O156  1  0.923300  0.506200  0.689000  1.0  -0.7507
  O  O157  1  0.646700  0.314600  0.510200  1.0  -0.7599
  O  O158  1  0.773500  0.275000  0.576600  1.0  -0.6245
  O  O159  1  0.588900  0.054200  0.430500  1.0  -0.6334
  O  O160  1  0.568500  0.895000  0.497300  1.0  -0.6612
  O  O161  1  0.694600  0.525400  0.657800  1.0  -0.6585
  O  O162  1  0.618200  0.690200  0.597100  1.0  -0.7752
  O  O163  1  0.370700  0.411600  0.647600  1.0  -0.6687
  O  O164  1  0.464400  0.248200  0.586600  1.0  -0.7422
  O  O165  1  0.031600  0.648800  0.801700  1.0  -0.6562
  O  O166  1  0.896300  0.778200  0.881500  1.0  -0.7029
  O  O167  1  0.448100  0.451800  0.775300  1.0  -0.6885
  O  O168  1  0.570500  0.506200  0.811000  1.0  -0.7487
  O  O169  1  0.038700  0.314600  0.989800  1.0  -0.7591
  O  O170  1  0.951500  0.275000  0.923400  1.0  -0.6231
  O  O171  1  0.356900  0.054200  0.069500  1.0  -0.6348
  O  O172  1  0.536500  0.895000  0.002700  1.0  -0.6596
  O  O173  1  0.780000  0.525400  0.842200  1.0  -0.6571
  O  O174  1  0.691600  0.690200  0.902900  1.0  -0.7762
  O  O175  1  0.217700  0.411600  0.852400  1.0  -0.6694
  O  O176  1  0.287400  0.248200  0.913400  1.0  -0.7423
