# generated using pymatgen
data_Dy2H6C21(NO4)3
_symmetry_space_group_name_H-M   'P 1'
_cell_length_a   12.10250000
_cell_length_b   12.68050000
_cell_length_c   21.69500000
_cell_angle_alpha   82.75900000
_cell_angle_beta   74.68500000
_cell_angle_gamma   61.49670000
_symmetry_Int_Tables_number   1
_chemical_formula_structural   Dy2H6C21(NO4)3
_chemical_formula_sum   'Dy8 H24 C84 N12 O48'
_cell_volume   2821.97402759
_cell_formula_units_Z   4
loop_
 _symmetry_equiv_pos_site_id
 _symmetry_equiv_pos_as_xyz
  1  'x, y, z'
loop_
 _atom_site_type_symbol
 _atom_site_label
 _atom_site_symmetry_multiplicity
 _atom_site_fract_x
 _atom_site_fract_y
 _atom_site_fract_z
 _atom_site_occupancy
 _atom_site_charge
  Dy  Dy1  1  0.508490  0.260340  0.474290  1.0  2.2949
  Dy  Dy2  1  0.231170  0.260340  0.025710  1.0  2.2951
  Dy  Dy3  1  0.491510  0.739660  0.525710  1.0  2.295
  Dy  Dy4  1  0.768830  0.739660  0.974290  1.0  2.295
  Dy  Dy5  1  0.753060  0.493880  0.250000  1.0  2.1246
  Dy  Dy6  1  0.246940  0.506120  0.750000  1.0  2.1264
  Dy  Dy7  1  0.213360  0.573280  0.250000  1.0  2.1993
  Dy  Dy8  1  0.786640  0.426720  0.750000  1.0  2.1974
  H  H9  1  0.900100  0.128600  0.414700  1.0  0.1279
  H  H10  1  0.120700  0.300600  0.381300  1.0  0.1249
  H  H11  1  0.106400  0.959400  0.405500  1.0  0.1228
  H  H12  1  0.168500  0.196000  0.481500  1.0  0.126
  H  H13  1  0.471400  0.120200  0.337600  1.0  0.1358
  H  H14  1  0.474700  0.942200  0.346200  1.0  0.128
  H  H15  1  0.971300  0.128600  0.085300  1.0  0.1289
  H  H16  1  0.578700  0.300600  0.118700  1.0  0.1243
  H  H17  1  0.934200  0.959400  0.094500  1.0  0.1229
  H  H18  1  0.635500  0.196000  0.018500  1.0  0.1259
  H  H19  1  0.408400  0.120200  0.162400  1.0  0.1352
  H  H20  1  0.583100  0.942200  0.153800  1.0  0.1273
  H  H21  1  0.099900  0.871400  0.585300  1.0  0.1286
  H  H22  1  0.879300  0.699400  0.618700  1.0  0.1238
  H  H23  1  0.893600  0.040600  0.594500  1.0  0.123
  H  H24  1  0.831500  0.804000  0.518500  1.0  0.1258
  H  H25  1  0.528600  0.879800  0.662400  1.0  0.1312
  H  H26  1  0.525300  0.057800  0.653800  1.0  0.1273
  H  H27  1  0.028700  0.871400  0.914700  1.0  0.1285
  H  H28  1  0.421300  0.699400  0.881300  1.0  0.1249
  H  H29  1  0.065800  0.040600  0.905500  1.0  0.123
  H  H30  1  0.364500  0.804000  0.981500  1.0  0.126
  H  H31  1  0.591600  0.879800  0.837600  1.0  0.1314
  H  H32  1  0.416900  0.057800  0.846200  1.0  0.1278
  C  C33  1  0.353600  0.362800  0.352100  1.0  0.7604
  C  C34  1  0.582300  0.699200  0.361800  1.0  0.7116
  C  C35  1  0.722100  0.284400  0.346900  1.0  0.696
  C  C36  1  0.843000  0.278200  0.359200  1.0  0.1421
  C  C37  1  0.920300  0.190600  0.395200  1.0  -0.1287
  C  C38  1  0.030200  0.195000  0.402400  1.0  0.0928
  C  C39  1  0.050400  0.292000  0.375400  1.0  -0.1309
  C  C40  1  0.967400  0.374800  0.340200  1.0  0.1444
  C  C41  1  0.983300  0.480800  0.306500  1.0  0.7182
  C  C42  1  0.275500  0.757000  0.456000  1.0  0.6647
  C  C43  1  0.239700  0.888400  0.459000  1.0  0.1467
  C  C44  1  0.149300  0.978200  0.430000  1.0  -0.173
  C  C45  1  0.120700  0.097400  0.436500  1.0  0.0803
  C  C46  1  0.187300  0.116400  0.473600  1.0  -0.16
  C  C47  1  0.280200  0.020800  0.499000  1.0  0.1967
  C  C48  1  0.379600  0.030200  0.526200  1.0  0.6059
  C  C49  1  0.373700  0.285600  0.299800  1.0  0.1326
  C  C50  1  0.437600  0.161200  0.301800  1.0  -0.1176
  C  C51  1  0.580900  0.778000  0.304000  1.0  0.1368
  C  C52  1  0.517500  0.901800  0.306300  1.0  -0.1168
  C  C53  1  0.283600  0.362800  0.147900  1.0  0.7614
  C  C54  1  0.718500  0.699200  0.138200  1.0  0.7086
  C  C55  1  0.993500  0.284400  0.153100  1.0  0.696
  C  C56  1  0.878800  0.278200  0.140800  1.0  0.1431
  C  C57  1  0.889100  0.190600  0.104800  1.0  -0.128
  C  C58  1  0.774800  0.195000  0.097600  1.0  0.0925
  C  C59  1  0.657600  0.292000  0.124600  1.0  -0.1321
  C  C60  1  0.657800  0.374800  0.159800  1.0  0.1445
  C  C61  1  0.535900  0.480800  0.193500  1.0  0.719
  C  C62  1  0.967500  0.757000  0.044000  1.0  0.6645
  C  C63  1  0.871900  0.888400  0.041000  1.0  0.1485
  C  C64  1  0.872500  0.978200  0.070000  1.0  -0.1729
  C  C65  1  0.781900  0.097400  0.063500  1.0  0.0802
  C  C66  1  0.696300  0.116400  0.026400  1.0  -0.1641
  C  C67  1  0.699000  0.020800  0.001000  1.0  0.1974
  C  C68  1  0.590200  0.030200  0.973800  1.0  0.6046
  C  C69  1  0.340700  0.285600  0.200200  1.0  0.1322
  C  C70  1  0.401200  0.161200  0.198200  1.0  -0.117
  C  C71  1  0.641100  0.778000  0.196000  1.0  0.1356
  C  C72  1  0.580700  0.901800  0.193700  1.0  -0.118
  C  C73  1  0.646400  0.637200  0.647900  1.0  0.7596
  C  C74  1  0.417700  0.300800  0.638200  1.0  0.7097
  C  C75  1  0.277900  0.715600  0.653100  1.0  0.6956
  C  C76  1  0.157000  0.721800  0.640800  1.0  0.143
  C  C77  1  0.079700  0.809400  0.604800  1.0  -0.1281
  C  C78  1  0.969800  0.805000  0.597600  1.0  0.0929
  C  C79  1  0.949600  0.708000  0.624600  1.0  -0.1319
  C  C80  1  0.032600  0.625200  0.659800  1.0  0.1442
  C  C81  1  0.016700  0.519200  0.693500  1.0  0.7172
  C  C82  1  0.724500  0.243000  0.544000  1.0  0.6638
  C  C83  1  0.760300  0.111600  0.541000  1.0  0.1489
  C  C84  1  0.850700  0.021800  0.570000  1.0  -0.1738
  C  C85  1  0.879300  0.902600  0.563500  1.0  0.0801
  C  C86  1  0.812700  0.883600  0.526400  1.0  -0.1637
  C  C87  1  0.719800  0.979200  0.501000  1.0  0.1972
  C  C88  1  0.620400  0.969800  0.473800  1.0  0.602
  C  C89  1  0.626300  0.714400  0.700200  1.0  0.132
  C  C90  1  0.562400  0.838800  0.698200  1.0  -0.1174
  C  C91  1  0.419100  0.222000  0.696000  1.0  0.1359
  C  C92  1  0.482500  0.098200  0.693700  1.0  -0.1181
  C  C93  1  0.716400  0.637200  0.852100  1.0  0.7609
  C  C94  1  0.281500  0.300800  0.861800  1.0  0.7102
  C  C95  1  0.006500  0.715600  0.846900  1.0  0.6958
  C  C96  1  0.121200  0.721800  0.859200  1.0  0.1421
  C  C97  1  0.110900  0.809400  0.895200  1.0  -0.1287
  C  C98  1  0.225200  0.805000  0.902400  1.0  0.0931
  C  C99  1  0.342400  0.708000  0.875400  1.0  -0.1311
  C  C100  1  0.342200  0.625200  0.840200  1.0  0.1448
  C  C101  1  0.464100  0.519200  0.806500  1.0  0.7166
  C  C102  1  0.032500  0.243000  0.956000  1.0  0.6645
  C  C103  1  0.128100  0.111600  0.959000  1.0  0.148
  C  C104  1  0.127500  0.021800  0.930000  1.0  -0.1737
  C  C105  1  0.218100  0.902600  0.936500  1.0  0.0801
  C  C106  1  0.303700  0.883600  0.973600  1.0  -0.1603
  C  C107  1  0.301000  0.979200  0.999000  1.0  0.1978
  C  C108  1  0.409800  0.969800  0.026200  1.0  0.6048
  C  C109  1  0.659300  0.714400  0.799800  1.0  0.1329
  C  C110  1  0.598800  0.838800  0.801800  1.0  -0.1186
  C  C111  1  0.358900  0.222000  0.804000  1.0  0.1366
  C  C112  1  0.419300  0.098200  0.806300  1.0  -0.117
  C  C113  1  0.451000  0.098000  0.250000  1.0  0.063
  C  C114  1  0.516500  0.967000  0.250000  1.0  0.0836
  C  C115  1  0.549000  0.902000  0.750000  1.0  0.0624
  C  C116  1  0.483500  0.033000  0.750000  1.0  0.0842
  N  N117  1  0.867000  0.367400  0.331500  1.0  -0.4184
  N  N118  1  0.300700  0.911600  0.493600  1.0  -0.4522
  N  N119  1  0.765600  0.367400  0.168500  1.0  -0.4174
  N  N120  1  0.787700  0.911600  0.006400  1.0  -0.4557
  N  N121  1  0.133000  0.632600  0.668500  1.0  -0.4169
  N  N122  1  0.699300  0.088400  0.506400  1.0  -0.455
  N  N123  1  0.234400  0.632600  0.831500  1.0  -0.4177
  N  N124  1  0.212300  0.088400  0.993600  1.0  -0.4522
  N  N125  1  0.327600  0.344800  0.250000  1.0  -0.4387
  N  N126  1  0.641900  0.716200  0.250000  1.0  -0.4203
  N  N127  1  0.672400  0.655200  0.750000  1.0  -0.438
  N  N128  1  0.358100  0.283800  0.750000  1.0  -0.4212
  O  O129  1  0.681000  0.350400  0.301600  1.0  -0.6512
  O  O130  1  0.674200  0.221800  0.381300  1.0  -0.7175
  O  O131  1  0.899800  0.548400  0.275300  1.0  -0.6862
  O  O132  1  0.076400  0.493800  0.310900  1.0  -0.7568
  O  O133  1  0.353000  0.685200  0.489900  1.0  -0.767
  O  O134  1  0.227500  0.725000  0.423100  1.0  -0.6055
  O  O135  1  0.396500  0.953600  0.575100  1.0  -0.6302
  O  O136  1  0.433600  0.104800  0.502000  1.0  -0.7011
  O  O137  1  0.305400  0.474600  0.342200  1.0  -0.6809
  O  O138  1  0.381800  0.309600  0.402900  1.0  -0.7647
  O  O139  1  0.629400  0.588000  0.352500  1.0  -0.6755
  O  O140  1  0.535700  0.751800  0.414100  1.0  -0.7497
  O  O141  1  0.968600  0.350400  0.198400  1.0  -0.6513
  O  O142  1  0.104000  0.221800  0.118700  1.0  -0.7174
  O  O143  1  0.551800  0.548400  0.224700  1.0  -0.6873
  O  O144  1  0.429800  0.493800  0.189100  1.0  -0.7574
  O  O145  1  0.961800  0.685200  0.010100  1.0  -0.7673
  O  O146  1  0.047500  0.725000  0.076900  1.0  -0.6046
  O  O147  1  0.649900  0.953600  0.924900  1.0  -0.6291
  O  O148  1  0.461600  0.104800  0.998000  1.0  -0.7016
  O  O149  1  0.220000  0.474600  0.157800  1.0  -0.6813
  O  O150  1  0.308600  0.309600  0.097100  1.0  -0.7656
  O  O151  1  0.782600  0.588000  0.147500  1.0  -0.6754
  O  O152  1  0.712500  0.751800  0.085900  1.0  -0.75
  O  O153  1  0.319000  0.649600  0.698400  1.0  -0.6518
  O  O154  1  0.325800  0.778200  0.618700  1.0  -0.718
  O  O155  1  0.100200  0.451600  0.724700  1.0  -0.6862
  O  O156  1  0.923600  0.506200  0.689100  1.0  -0.7607
  O  O157  1  0.647000  0.314800  0.510100  1.0  -0.7677
  O  O158  1  0.772500  0.275000  0.576900  1.0  -0.6056
  O  O159  1  0.603500  0.046400  0.424900  1.0  -0.6285
  O  O160  1  0.566400  0.895200  0.498000  1.0  -0.7017
  O  O161  1  0.694600  0.525400  0.657800  1.0  -0.6826
  O  O162  1  0.618200  0.690400  0.597100  1.0  -0.7642
  O  O163  1  0.370600  0.412000  0.647500  1.0  -0.6764
  O  O164  1  0.464300  0.248200  0.585900  1.0  -0.7501
  O  O165  1  0.031400  0.649600  0.801600  1.0  -0.6517
  O  O166  1  0.896000  0.778200  0.881300  1.0  -0.7173
  O  O167  1  0.448200  0.451600  0.775300  1.0  -0.6864
  O  O168  1  0.570200  0.506200  0.810900  1.0  -0.7589
  O  O169  1  0.038200  0.314800  0.989900  1.0  -0.767
  O  O170  1  0.952500  0.275000  0.923100  1.0  -0.6051
  O  O171  1  0.350100  0.046400  0.075100  1.0  -0.6292
  O  O172  1  0.538400  0.895200  0.002000  1.0  -0.6997
  O  O173  1  0.780000  0.525400  0.842200  1.0  -0.6801
  O  O174  1  0.691400  0.690400  0.902900  1.0  -0.7634
  O  O175  1  0.217400  0.412000  0.852500  1.0  -0.6774
  O  O176  1  0.287500  0.248200  0.914100  1.0  -0.75
