# generated using pymatgen
data_Co2H16C29O10
_symmetry_space_group_name_H-M   'P 1'
_cell_length_a   15.50940000
_cell_length_b   17.82510000
_cell_length_c   24.22100000
_cell_angle_alpha   90.00000000
_cell_angle_beta   90.00000000
_cell_angle_gamma   90.00000000
_symmetry_Int_Tables_number   1
_chemical_formula_structural   Co2H16C29O10
_chemical_formula_sum   'Co8 H64 C116 O40'
_cell_volume   6696.05545247
_cell_formula_units_Z   4
loop_
 _symmetry_equiv_pos_site_id
 _symmetry_equiv_pos_as_xyz
  1  'x, y, z'
loop_
 _atom_site_type_symbol
 _atom_site_label
 _atom_site_symmetry_multiplicity
 _atom_site_fract_x
 _atom_site_fract_y
 _atom_site_fract_z
 _atom_site_occupancy
 _atom_site_charge
  Co  Co1  1  0.195550  0.708630  0.000000  1.0  1.0627
  Co  Co2  1  0.804450  0.291370  0.000000  1.0  1.0624
  Co  Co3  1  0.304450  0.208630  0.500000  1.0  1.0635
  Co  Co4  1  0.695550  0.791370  0.500000  1.0  1.0615
  Co  Co5  1  0.606680  0.974930  0.500000  1.0  0.977
  Co  Co6  1  0.393320  0.025070  0.500000  1.0  0.9758
  Co  Co7  1  0.893320  0.474930  0.000000  1.0  0.9773
  Co  Co8  1  0.106680  0.525070  0.000000  1.0  0.9758
  H  H9  1  0.164600  0.890300  0.878600  1.0  0.1275
  H  H10  1  0.134300  0.978400  0.813800  1.0  0.1295
  H  H11  1  0.916600  0.872700  0.775900  1.0  0.124
  H  H12  1  0.948200  0.782000  0.840400  1.0  0.1313
  H  H13  1  0.882000  0.851900  0.615300  1.0  0.1284
  H  H14  1  0.982600  0.883500  0.679300  1.0  0.1306
  H  H15  1  0.846500  0.067100  0.716400  1.0  0.1324
  H  H16  1  0.751800  0.038800  0.645300  1.0  0.1376
  H  H17  1  0.835400  0.109700  0.878600  1.0  0.1277
  H  H18  1  0.865700  0.021600  0.813800  1.0  0.1298
  H  H19  1  0.083400  0.127300  0.775900  1.0  0.1241
  H  H20  1  0.051800  0.218000  0.840400  1.0  0.1319
  H  H21  1  0.118000  0.148100  0.615300  1.0  0.1287
  H  H22  1  0.017400  0.116500  0.679300  1.0  0.132
  H  H23  1  0.153500  0.932900  0.716400  1.0  0.1325
  H  H24  1  0.248200  0.961200  0.645300  1.0  0.1373
  H  H25  1  0.335400  0.390300  0.621400  1.0  0.1278
  H  H26  1  0.365700  0.478400  0.686200  1.0  0.13
  H  H27  1  0.583400  0.372700  0.724100  1.0  0.1241
  H  H28  1  0.551800  0.282000  0.659600  1.0  0.1318
  H  H29  1  0.618000  0.351900  0.884700  1.0  0.1285
  H  H30  1  0.517400  0.383500  0.820700  1.0  0.1308
  H  H31  1  0.653500  0.567100  0.783600  1.0  0.1318
  H  H32  1  0.748200  0.538800  0.854700  1.0  0.1374
  H  H33  1  0.664600  0.609700  0.621400  1.0  0.1282
  H  H34  1  0.634300  0.521600  0.686200  1.0  0.1298
  H  H35  1  0.416600  0.627300  0.724100  1.0  0.1243
  H  H36  1  0.448200  0.718000  0.659600  1.0  0.1319
  H  H37  1  0.382000  0.648100  0.884700  1.0  0.1292
  H  H38  1  0.482600  0.616500  0.820700  1.0  0.131
  H  H39  1  0.346500  0.432900  0.783600  1.0  0.1321
  H  H40  1  0.251800  0.461200  0.854700  1.0  0.137
  H  H41  1  0.835400  0.109700  0.121400  1.0  0.1277
  H  H42  1  0.865700  0.021600  0.186200  1.0  0.1298
  H  H43  1  0.083400  0.127300  0.224100  1.0  0.1242
  H  H44  1  0.051800  0.218000  0.159600  1.0  0.1319
  H  H45  1  0.118000  0.148100  0.384700  1.0  0.129
  H  H46  1  0.017400  0.116500  0.320700  1.0  0.1315
  H  H47  1  0.153500  0.932900  0.283600  1.0  0.1323
  H  H48  1  0.248200  0.961200  0.354700  1.0  0.1371
  H  H49  1  0.164600  0.890300  0.121400  1.0  0.1282
  H  H50  1  0.134300  0.978400  0.186200  1.0  0.13
  H  H51  1  0.916600  0.872700  0.224100  1.0  0.1242
  H  H52  1  0.948200  0.782000  0.159600  1.0  0.1311
  H  H53  1  0.882000  0.851900  0.384700  1.0  0.1286
  H  H54  1  0.982600  0.883500  0.320700  1.0  0.1308
  H  H55  1  0.846500  0.067100  0.283600  1.0  0.1324
  H  H56  1  0.751800  0.038800  0.354700  1.0  0.1374
  H  H57  1  0.664600  0.609700  0.378600  1.0  0.1279
  H  H58  1  0.634300  0.521600  0.313800  1.0  0.1293
  H  H59  1  0.416600  0.627300  0.275900  1.0  0.1241
  H  H60  1  0.448200  0.718000  0.340400  1.0  0.132
  H  H61  1  0.382000  0.648100  0.115300  1.0  0.129
  H  H62  1  0.482600  0.616500  0.179300  1.0  0.1315
  H  H63  1  0.346500  0.432900  0.216400  1.0  0.1322
  H  H64  1  0.251800  0.461200  0.145300  1.0  0.1369
  H  H65  1  0.335400  0.390300  0.378600  1.0  0.1275
  H  H66  1  0.365700  0.478400  0.313800  1.0  0.1301
  H  H67  1  0.583400  0.372700  0.275900  1.0  0.1239
  H  H68  1  0.551800  0.282000  0.340400  1.0  0.1318
  H  H69  1  0.618000  0.351900  0.115300  1.0  0.1281
  H  H70  1  0.517400  0.383500  0.179300  1.0  0.1306
  H  H71  1  0.653500  0.567100  0.216400  1.0  0.1319
  H  H72  1  0.748200  0.538800  0.145300  1.0  0.1377
  C  C73  1  0.078300  0.768200  0.910630  1.0  0.7354
  C  C74  1  0.059700  0.827070  0.867680  1.0  -0.1211
  C  C75  1  0.114200  0.886100  0.858000  1.0  -0.0069
  C  C76  1  0.096200  0.938700  0.818860  1.0  -0.1479
  C  C77  1  0.022200  0.935010  0.786160  1.0  0.07
  C  C78  1  0.967400  0.876300  0.796070  1.0  -0.1251
  C  C79  1  0.985800  0.822100  0.835460  1.0  -0.0139
  C  C80  1  0.743600  0.918200  0.580020  1.0  0.765
  C  C81  1  0.806300  0.939800  0.624970  1.0  -0.1152
  C  C82  1  0.875100  0.896000  0.635330  1.0  0.0061
  C  C83  1  0.934900  0.914490  0.674260  1.0  -0.164
  C  C84  1  0.926500  0.978180  0.706500  1.0  0.0839
  C  C85  1  0.855100  0.024000  0.695480  1.0  -0.1415
  C  C86  1  0.796800  0.006200  0.653730  1.0  -0.0148
  C  C87  1  0.921700  0.231800  0.910630  1.0  0.7357
  C  C88  1  0.940300  0.172930  0.867680  1.0  -0.122
  C  C89  1  0.885800  0.113900  0.858000  1.0  -0.0085
  C  C90  1  0.903800  0.061300  0.818860  1.0  -0.1482
  C  C91  1  0.977800  0.064990  0.786160  1.0  0.0701
  C  C92  1  0.032600  0.123700  0.796070  1.0  -0.128
  C  C93  1  0.014200  0.177900  0.835460  1.0  -0.0123
  C  C94  1  0.256400  0.081800  0.580020  1.0  0.7652
  C  C95  1  0.193700  0.060200  0.624970  1.0  -0.1152
  C  C96  1  0.124900  0.104000  0.635330  1.0  0.0053
  C  C97  1  0.065100  0.085510  0.674260  1.0  -0.1653
  C  C98  1  0.073500  0.021820  0.706500  1.0  0.0841
  C  C99  1  0.144900  0.976000  0.695480  1.0  -0.1418
  C  C100  1  0.203200  0.993800  0.653730  1.0  -0.0139
  C  C101  1  0.421700  0.268200  0.589370  1.0  0.7352
  C  C102  1  0.440300  0.327070  0.632320  1.0  -0.1214
  C  C103  1  0.385800  0.386100  0.642000  1.0  -0.0078
  C  C104  1  0.403800  0.438700  0.681140  1.0  -0.1488
  C  C105  1  0.477800  0.435010  0.713840  1.0  0.069
  C  C106  1  0.532600  0.376300  0.703930  1.0  -0.1269
  C  C107  1  0.514200  0.322100  0.664540  1.0  -0.0128
  C  C108  1  0.756400  0.418200  0.919980  1.0  0.7653
  C  C109  1  0.693700  0.439800  0.875030  1.0  -0.1157
  C  C110  1  0.624900  0.396000  0.864670  1.0  0.0059
  C  C111  1  0.565100  0.414490  0.825740  1.0  -0.164
  C  C112  1  0.573500  0.478180  0.793500  1.0  0.0851
  C  C113  1  0.644900  0.524000  0.804520  1.0  -0.1419
  C  C114  1  0.703200  0.506200  0.846270  1.0  -0.0123
  C  C115  1  0.578300  0.731800  0.589370  1.0  0.7353
  C  C116  1  0.559700  0.672930  0.632320  1.0  -0.1205
  C  C117  1  0.614200  0.613900  0.642000  1.0  -0.0075
  C  C118  1  0.596200  0.561300  0.681140  1.0  -0.1479
  C  C119  1  0.522200  0.564990  0.713840  1.0  0.0708
  C  C120  1  0.467400  0.623700  0.703930  1.0  -0.1235
  C  C121  1  0.485800  0.677900  0.664540  1.0  -0.014
  C  C122  1  0.243600  0.581800  0.919980  1.0  0.7653
  C  C123  1  0.306300  0.560200  0.875030  1.0  -0.1149
  C  C124  1  0.375100  0.604000  0.864670  1.0  0.0068
  C  C125  1  0.434900  0.585510  0.825740  1.0  -0.1656
  C  C126  1  0.426500  0.521820  0.793500  1.0  0.0843
  C  C127  1  0.355100  0.476000  0.804520  1.0  -0.1423
  C  C128  1  0.296800  0.493800  0.846270  1.0  -0.0136
  C  C129  1  0.921700  0.231800  0.089370  1.0  0.7356
  C  C130  1  0.940300  0.172930  0.132320  1.0  -0.1204
  C  C131  1  0.885800  0.113900  0.142000  1.0  -0.0079
  C  C132  1  0.903800  0.061300  0.181140  1.0  -0.1478
  C  C133  1  0.977800  0.064990  0.213840  1.0  0.0703
  C  C134  1  0.032600  0.123700  0.203930  1.0  -0.1267
  C  C135  1  0.014200  0.177900  0.164540  1.0  -0.0128
  C  C136  1  0.256400  0.081800  0.419980  1.0  0.7656
  C  C137  1  0.193700  0.060200  0.375030  1.0  -0.116
  C  C138  1  0.124900  0.104000  0.364670  1.0  0.0061
  C  C139  1  0.065100  0.085510  0.325740  1.0  -0.1653
  C  C140  1  0.073500  0.021820  0.293500  1.0  0.0846
  C  C141  1  0.144900  0.976000  0.304520  1.0  -0.1415
  C  C142  1  0.203200  0.993800  0.346270  1.0  -0.0132
  C  C143  1  0.078300  0.768200  0.089370  1.0  0.7348
  C  C144  1  0.059700  0.827070  0.132320  1.0  -0.1218
  C  C145  1  0.114200  0.886100  0.142000  1.0  -0.0079
  C  C146  1  0.096200  0.938700  0.181140  1.0  -0.1481
  C  C147  1  0.022200  0.935010  0.213840  1.0  0.0698
  C  C148  1  0.967400  0.876300  0.203930  1.0  -0.1246
  C  C149  1  0.985800  0.822100  0.164540  1.0  -0.0138
  C  C150  1  0.743600  0.918200  0.419980  1.0  0.765
  C  C151  1  0.806300  0.939800  0.375030  1.0  -0.1148
  C  C152  1  0.875100  0.896000  0.364670  1.0  0.0064
  C  C153  1  0.934900  0.914490  0.325740  1.0  -0.1653
  C  C154  1  0.926500  0.978180  0.293500  1.0  0.0848
  C  C155  1  0.855100  0.024000  0.304520  1.0  -0.1419
  C  C156  1  0.796800  0.006200  0.346270  1.0  -0.0146
  C  C157  1  0.578300  0.731800  0.410630  1.0  0.735
  C  C158  1  0.559700  0.672930  0.367680  1.0  -0.1219
  C  C159  1  0.614200  0.613900  0.358000  1.0  -0.0067
  C  C160  1  0.596200  0.561300  0.318860  1.0  -0.1484
  C  C161  1  0.522200  0.564990  0.286160  1.0  0.0706
  C  C162  1  0.467400  0.623700  0.296070  1.0  -0.1245
  C  C163  1  0.485800  0.677900  0.335460  1.0  -0.014
  C  C164  1  0.243600  0.581800  0.080020  1.0  0.7652
  C  C165  1  0.306300  0.560200  0.124970  1.0  -0.1151
  C  C166  1  0.375100  0.604000  0.135330  1.0  0.0052
  C  C167  1  0.434900  0.585510  0.174260  1.0  -0.1652
  C  C168  1  0.426500  0.521820  0.206500  1.0  0.0832
  C  C169  1  0.355100  0.476000  0.195480  1.0  -0.142
  C  C170  1  0.296800  0.493800  0.153730  1.0  -0.0142
  C  C171  1  0.421700  0.268200  0.410630  1.0  0.736
  C  C172  1  0.440300  0.327070  0.367680  1.0  -0.1208
  C  C173  1  0.385800  0.386100  0.358000  1.0  -0.0084
  C  C174  1  0.403800  0.438700  0.318860  1.0  -0.1483
  C  C175  1  0.477800  0.435010  0.286160  1.0  0.0694
  C  C176  1  0.532600  0.376300  0.296070  1.0  -0.1273
  C  C177  1  0.514200  0.322100  0.335460  1.0  -0.0127
  C  C178  1  0.756400  0.418200  0.080020  1.0  0.7649
  C  C179  1  0.693700  0.439800  0.124970  1.0  -0.1152
  C  C180  1  0.624900  0.396000  0.135330  1.0  0.0062
  C  C181  1  0.565100  0.414490  0.174260  1.0  -0.163
  C  C182  1  0.573500  0.478180  0.206500  1.0  0.0848
  C  C183  1  0.644900  0.524000  0.195480  1.0  -0.1415
  C  C184  1  0.703200  0.506200  0.153730  1.0  -0.0125
  C  C185  1  0.000000  0.000000  0.746320  1.0  -0.0037
  C  C186  1  0.500000  0.500000  0.753680  1.0  -0.0039
  C  C187  1  0.000000  0.000000  0.253680  1.0  -0.0039
  C  C188  1  0.500000  0.500000  0.246320  1.0  -0.0037
  O  O189  1  0.144290  0.778420  0.939580  1.0  -0.5739
  O  O190  1  0.027700  0.714310  0.915030  1.0  -0.4571
  O  O191  1  0.751750  0.853910  0.561000  1.0  -0.5877
  O  O192  1  0.688500  0.966380  0.565950  1.0  -0.6051
  O  O193  1  0.855710  0.221580  0.939580  1.0  -0.5748
  O  O194  1  0.972300  0.285690  0.915030  1.0  -0.4564
  O  O195  1  0.248250  0.146090  0.561000  1.0  -0.587
  O  O196  1  0.311500  0.033620  0.565950  1.0  -0.6046
  O  O197  1  0.355710  0.278420  0.560420  1.0  -0.5751
  O  O198  1  0.472300  0.214310  0.584970  1.0  -0.456
  O  O199  1  0.748250  0.353910  0.939000  1.0  -0.588
  O  O200  1  0.811500  0.466380  0.934050  1.0  -0.6047
  O  O201  1  0.644290  0.721580  0.560420  1.0  -0.5751
  O  O202  1  0.527700  0.785690  0.584970  1.0  -0.4547
  O  O203  1  0.251750  0.646090  0.939000  1.0  -0.5863
  O  O204  1  0.188500  0.533620  0.934050  1.0  -0.6045
  O  O205  1  0.855710  0.221580  0.060420  1.0  -0.5755
  O  O206  1  0.972300  0.285690  0.084970  1.0  -0.455
  O  O207  1  0.248250  0.146090  0.439000  1.0  -0.5867
  O  O208  1  0.311500  0.033620  0.434050  1.0  -0.6047
  O  O209  1  0.144290  0.778420  0.060420  1.0  -0.5744
  O  O210  1  0.027700  0.714310  0.084970  1.0  -0.4565
  O  O211  1  0.751750  0.853910  0.439000  1.0  -0.5875
  O  O212  1  0.688500  0.966380  0.434050  1.0  -0.6049
  O  O213  1  0.644290  0.721580  0.439580  1.0  -0.5738
  O  O214  1  0.527700  0.785690  0.415030  1.0  -0.4557
  O  O215  1  0.251750  0.646090  0.061000  1.0  -0.5865
  O  O216  1  0.188500  0.533620  0.065950  1.0  -0.6044
  O  O217  1  0.355710  0.278420  0.439580  1.0  -0.5741
  O  O218  1  0.472300  0.214310  0.415030  1.0  -0.4572
  O  O219  1  0.748250  0.353910  0.061000  1.0  -0.5883
  O  O220  1  0.811500  0.466380  0.065950  1.0  -0.605
  O  O221  1  0.077200  0.638690  0.000000  1.0  -0.6112
  O  O222  1  0.922800  0.361310  0.000000  1.0  -0.6117
  O  O223  1  0.422800  0.138690  0.500000  1.0  -0.6118
  O  O224  1  0.577200  0.861310  0.500000  1.0  -0.6111
  O  O225  1  0.500000  0.000000  0.558020  1.0  -0.6824
  O  O226  1  0.000000  0.500000  0.941980  1.0  -0.6827
  O  O227  1  0.500000  0.000000  0.441980  1.0  -0.6827
  O  O228  1  0.000000  0.500000  0.058020  1.0  -0.6824
