# generated using pymatgen
data_CsCr(CN)6
_symmetry_space_group_name_H-M   'P 1'
_cell_length_a   12.78900000
_cell_length_b   12.78900000
_cell_length_c   12.78900000
_cell_angle_alpha   90.00000000
_cell_angle_beta   90.00000000
_cell_angle_gamma   90.00000000
_symmetry_Int_Tables_number   1
_chemical_formula_structural   CsCr(CN)6
_chemical_formula_sum   'Cs4 Cr4 C24 N24'
_cell_volume   2091.74992507
_cell_formula_units_Z   4
loop_
 _symmetry_equiv_pos_site_id
 _symmetry_equiv_pos_as_xyz
  1  'x, y, z'
loop_
 _atom_site_type_symbol
 _atom_site_label
 _atom_site_symmetry_multiplicity
 _atom_site_fract_x
 _atom_site_fract_y
 _atom_site_fract_z
 _atom_site_occupancy
 _atom_site_charge
  Cs  Cs1  1  0.500000  0.500000  0.500000  1.0  0.992
  Cs  Cs2  1  0.500000  0.000000  0.000000  1.0  0.992
  Cs  Cs3  1  0.000000  0.500000  0.000000  1.0  0.992
  Cs  Cs4  1  0.000000  0.000000  0.500000  1.0  0.992
  Cr  Cr5  1  0.000000  0.500000  0.500000  1.0  0.1342
  Cr  Cr6  1  0.000000  0.000000  0.000000  1.0  0.1342
  Cr  Cr7  1  0.500000  0.000000  0.500000  1.0  0.1342
  Cr  Cr8  1  0.500000  0.500000  0.000000  1.0  0.1342
  C  C9  1  0.161200  0.500000  0.500000  1.0  0.2341
  C  C10  1  0.161200  0.000000  0.000000  1.0  0.2341
  C  C11  1  0.661200  0.500000  0.000000  1.0  0.2341
  C  C12  1  0.661200  0.000000  0.500000  1.0  0.2341
  C  C13  1  0.838800  0.500000  0.500000  1.0  0.2337
  C  C14  1  0.838800  0.000000  0.000000  1.0  0.2337
  C  C15  1  0.338800  0.500000  0.000000  1.0  0.2337
  C  C16  1  0.338800  0.000000  0.500000  1.0  0.2337
  C  C17  1  0.500000  0.161200  0.500000  1.0  0.2325
  C  C18  1  0.500000  0.661200  0.000000  1.0  0.2348
  C  C19  1  0.000000  0.161200  0.000000  1.0  0.2348
  C  C20  1  0.000000  0.661200  0.500000  1.0  0.2348
  C  C21  1  0.500000  0.838800  0.500000  1.0  0.236
  C  C22  1  0.500000  0.338800  0.000000  1.0  0.236
  C  C23  1  0.000000  0.838800  0.000000  1.0  0.236
  C  C24  1  0.000000  0.338800  0.500000  1.0  0.236
  C  C25  1  0.500000  0.500000  0.161200  1.0  0.2381
  C  C26  1  0.500000  0.000000  0.661200  1.0  0.2381
  C  C27  1  0.000000  0.500000  0.661200  1.0  0.2381
  C  C28  1  0.000000  0.000000  0.161200  1.0  0.2381
  C  C29  1  0.500000  0.500000  0.838800  1.0  0.2372
  C  C30  1  0.500000  0.000000  0.338800  1.0  0.2372
  C  C31  1  0.000000  0.500000  0.338800  1.0  0.2372
  C  C32  1  0.000000  0.000000  0.838800  1.0  0.2372
  N  N33  1  0.250800  0.500000  0.500000  1.0  -0.4245
  N  N34  1  0.250800  0.000000  0.000000  1.0  -0.4245
  N  N35  1  0.750800  0.500000  0.000000  1.0  -0.4245
  N  N36  1  0.750800  0.000000  0.500000  1.0  -0.4245
  N  N37  1  0.749200  0.500000  0.500000  1.0  -0.423
  N  N38  1  0.749200  0.000000  0.000000  1.0  -0.423
  N  N39  1  0.249200  0.500000  0.000000  1.0  -0.423
  N  N40  1  0.249200  0.000000  0.500000  1.0  -0.423
  N  N41  1  0.500000  0.250800  0.500000  1.0  -0.4247
  N  N42  1  0.500000  0.750800  0.000000  1.0  -0.4247
  N  N43  1  0.000000  0.250800  0.000000  1.0  -0.4247
  N  N44  1  0.000000  0.750800  0.500000  1.0  -0.4247
  N  N45  1  0.500000  0.749200  0.500000  1.0  -0.4235
  N  N46  1  0.500000  0.249200  0.000000  1.0  -0.4235
  N  N47  1  0.000000  0.749200  0.000000  1.0  -0.4235
  N  N48  1  0.000000  0.249200  0.500000  1.0  -0.4235
  N  N49  1  0.500000  0.500000  0.250800  1.0  -0.4227
  N  N50  1  0.500000  0.000000  0.750800  1.0  -0.4227
  N  N51  1  0.000000  0.500000  0.750800  1.0  -0.4227
  N  N52  1  0.000000  0.000000  0.250800  1.0  -0.4227
  N  N53  1  0.500000  0.500000  0.749200  1.0  -0.4213
  N  N54  1  0.500000  0.000000  0.249200  1.0  -0.4213
  N  N55  1  0.000000  0.500000  0.249200  1.0  -0.4213
  N  N56  1  0.000000  0.000000  0.749200  1.0  -0.4213
