# generated using pymatgen
data_CdH5C9(NO2)2
_symmetry_space_group_name_H-M   'P 1'
_cell_length_a   23.28600000
_cell_length_b   17.25770000
_cell_length_c   18.22210000
_cell_angle_alpha   90.00000000
_cell_angle_beta   126.66100000
_cell_angle_gamma   90.00000000
_symmetry_Int_Tables_number   1
_chemical_formula_structural   CdH5C9(NO2)2
_chemical_formula_sum   'Cd16 H80 C144 N32 O64'
_cell_volume   5874.20747284
_cell_formula_units_Z   16
loop_
 _symmetry_equiv_pos_site_id
 _symmetry_equiv_pos_as_xyz
  1  'x, y, z'
loop_
 _atom_site_type_symbol
 _atom_site_label
 _atom_site_symmetry_multiplicity
 _atom_site_fract_x
 _atom_site_fract_y
 _atom_site_fract_z
 _atom_site_occupancy
 _atom_site_charge
  Cd  Cd1  1  0.225090  0.140020  0.218350  1.0  1.0815
  Cd  Cd2  1  0.286620  0.381970  0.277870  1.0  1.0454
  Cd  Cd3  1  0.725090  0.640020  0.218350  1.0  1.0815
  Cd  Cd4  1  0.786620  0.881970  0.277870  1.0  1.0454
  Cd  Cd5  1  0.774910  0.140020  0.281650  1.0  1.0781
  Cd  Cd6  1  0.713380  0.381970  0.222130  1.0  1.0448
  Cd  Cd7  1  0.274910  0.640020  0.281650  1.0  1.0781
  Cd  Cd8  1  0.213380  0.881970  0.222130  1.0  1.0448
  Cd  Cd9  1  0.774910  0.859980  0.781650  1.0  1.0751
  Cd  Cd10  1  0.713380  0.618030  0.722130  1.0  1.0455
  Cd  Cd11  1  0.274910  0.359980  0.781650  1.0  1.0751
  Cd  Cd12  1  0.213380  0.118030  0.722130  1.0  1.0455
  Cd  Cd13  1  0.225090  0.859980  0.718350  1.0  1.0787
  Cd  Cd14  1  0.286620  0.618030  0.777870  1.0  1.0454
  Cd  Cd15  1  0.725090  0.359980  0.718350  1.0  1.0787
  Cd  Cd16  1  0.786620  0.118030  0.777870  1.0  1.0454
  H  H17  1  0.014800  0.954800  0.200000  1.0  0.0879
  H  H18  1  0.011500  0.180800  0.195000  1.0  0.1099
  H  H19  1  0.073400  0.032600  0.140800  1.0  0.1562
  H  H20  1  0.991300  0.035400  0.061200  1.0  0.1394
  H  H21  1  0.003300  0.302800  0.996200  1.0  0.1336
  H  H22  1  0.273700  0.515700  0.009800  1.0  0.1285
  H  H23  1  0.324800  0.245700  0.077300  1.0  0.1127
  H  H24  1  0.325400  0.251100  0.163700  1.0  0.1348
  H  H25  1  0.436800  0.272700  0.092300  1.0  0.1319
  H  H26  1  0.440100  0.274200  0.313800  1.0  0.0981
  H  H27  1  0.514800  0.454800  0.200000  1.0  0.0879
  H  H28  1  0.511500  0.680800  0.195000  1.0  0.1099
  H  H29  1  0.573400  0.532600  0.140800  1.0  0.1562
  H  H30  1  0.491300  0.535400  0.061200  1.0  0.1394
  H  H31  1  0.503300  0.802800  0.996200  1.0  0.1336
  H  H32  1  0.773700  0.015700  0.009800  1.0  0.1285
  H  H33  1  0.824800  0.745700  0.077300  1.0  0.1127
  H  H34  1  0.825400  0.751100  0.163700  1.0  0.1348
  H  H35  1  0.936800  0.772700  0.092300  1.0  0.1319
  H  H36  1  0.940100  0.774200  0.313800  1.0  0.0981
  H  H37  1  0.985200  0.954800  0.300000  1.0  0.0886
  H  H38  1  0.988500  0.180800  0.305000  1.0  0.109
  H  H39  1  0.926600  0.032600  0.359200  1.0  0.155
  H  H40  1  0.008700  0.035400  0.438800  1.0  0.1389
  H  H41  1  0.996700  0.302800  0.503800  1.0  0.133
  H  H42  1  0.726300  0.515700  0.490200  1.0  0.1264
  H  H43  1  0.675200  0.245700  0.422700  1.0  0.113
  H  H44  1  0.674600  0.251100  0.336300  1.0  0.1353
  H  H45  1  0.563200  0.272700  0.407700  1.0  0.1316
  H  H46  1  0.559900  0.274200  0.186200  1.0  0.0983
  H  H47  1  0.485200  0.454800  0.300000  1.0  0.0886
  H  H48  1  0.488500  0.680800  0.305000  1.0  0.109
  H  H49  1  0.426600  0.532600  0.359200  1.0  0.155
  H  H50  1  0.508700  0.535400  0.438800  1.0  0.1389
  H  H51  1  0.496700  0.802800  0.503800  1.0  0.133
  H  H52  1  0.226300  0.015700  0.490200  1.0  0.1264
  H  H53  1  0.175200  0.745700  0.422700  1.0  0.113
  H  H54  1  0.174600  0.751100  0.336300  1.0  0.1353
  H  H55  1  0.063200  0.772700  0.407700  1.0  0.1316
  H  H56  1  0.059900  0.774200  0.186200  1.0  0.0983
  H  H57  1  0.985200  0.045200  0.800000  1.0  0.0884
  H  H58  1  0.988500  0.819200  0.805000  1.0  0.1102
  H  H59  1  0.926600  0.967400  0.859200  1.0  0.1548
  H  H60  1  0.008700  0.964600  0.938800  1.0  0.1386
  H  H61  1  0.996700  0.697200  0.003800  1.0  0.1327
  H  H62  1  0.726300  0.484300  0.990200  1.0  0.1262
  H  H63  1  0.675200  0.754300  0.922700  1.0  0.1125
  H  H64  1  0.674600  0.748900  0.836300  1.0  0.134
  H  H65  1  0.563200  0.727300  0.907700  1.0  0.131
  H  H66  1  0.559900  0.725800  0.686200  1.0  0.0981
  H  H67  1  0.485200  0.545200  0.800000  1.0  0.0884
  H  H68  1  0.488500  0.319200  0.805000  1.0  0.1102
  H  H69  1  0.426600  0.467400  0.859200  1.0  0.1548
  H  H70  1  0.508700  0.464600  0.938800  1.0  0.1386
  H  H71  1  0.496700  0.197200  0.003800  1.0  0.1327
  H  H72  1  0.226300  0.984300  0.990200  1.0  0.1262
  H  H73  1  0.175200  0.254300  0.922700  1.0  0.1125
  H  H74  1  0.174600  0.248900  0.836300  1.0  0.134
  H  H75  1  0.063200  0.227300  0.907700  1.0  0.131
  H  H76  1  0.059900  0.225800  0.686200  1.0  0.0981
  H  H77  1  0.014800  0.045200  0.700000  1.0  0.088
  H  H78  1  0.011500  0.819200  0.695000  1.0  0.1106
  H  H79  1  0.073400  0.967400  0.640800  1.0  0.1561
  H  H80  1  0.991300  0.964600  0.561200  1.0  0.1393
  H  H81  1  0.003300  0.697200  0.496200  1.0  0.1327
  H  H82  1  0.273700  0.484300  0.509800  1.0  0.1272
  H  H83  1  0.324800  0.754300  0.577300  1.0  0.1127
  H  H84  1  0.325400  0.748900  0.663700  1.0  0.1337
  H  H85  1  0.436800  0.727300  0.592300  1.0  0.1317
  H  H86  1  0.440100  0.725800  0.813800  1.0  0.0976
  H  H87  1  0.514800  0.545200  0.700000  1.0  0.088
  H  H88  1  0.511500  0.319200  0.695000  1.0  0.1106
  H  H89  1  0.573400  0.467400  0.640800  1.0  0.1561
  H  H90  1  0.491300  0.464600  0.561200  1.0  0.1393
  H  H91  1  0.503300  0.197200  0.496200  1.0  0.1327
  H  H92  1  0.773700  0.984300  0.509800  1.0  0.1272
  H  H93  1  0.824800  0.254300  0.577300  1.0  0.1127
  H  H94  1  0.825400  0.248900  0.663700  1.0  0.1337
  H  H95  1  0.936800  0.227300  0.592300  1.0  0.1317
  H  H96  1  0.940100  0.225800  0.813800  1.0  0.0976
  C  C97  1  0.008100  0.002100  0.218400  1.0  -0.1362
  C  C98  1  0.007100  0.134000  0.216600  1.0  -0.0869
  C  C99  1  0.014100  0.065800  0.184800  1.0  0.1428
  C  C100  1  0.030000  0.062600  0.115100  1.0  -0.1211
  C  C101  1  0.988200  0.188400  0.016000  1.0  -0.0473
  C  C102  1  0.022700  0.258000  0.031100  1.0  -0.0926
  C  C103  1  0.092300  0.247600  0.109200  1.0  0.0946
  C  C104  1  0.280600  0.531100  0.176000  1.0  0.6622
  C  C105  1  0.156700  0.302700  0.157800  1.0  0.6685
  C  C106  1  0.296800  0.369300  0.954800  1.0  0.7087
  C  C107  1  0.297200  0.399300  0.031800  1.0  -0.0396
  C  C108  1  0.283900  0.472500  0.046400  1.0  -0.1289
  C  C109  1  0.288600  0.470700  0.127100  1.0  0.0239
  C  C110  1  0.917400  0.158900  0.936700  1.0  0.7006
  C  C111  1  0.342100  0.275700  0.131900  1.0  -0.1439
  C  C112  1  0.424300  0.276600  0.194000  1.0  0.0953
  C  C113  1  0.461600  0.274500  0.155400  1.0  -0.1221
  C  C114  1  0.464100  0.275000  0.287300  1.0  -0.0362
  C  C115  1  0.508100  0.502100  0.218400  1.0  -0.1362
  C  C116  1  0.507100  0.634000  0.216600  1.0  -0.0869
  C  C117  1  0.514100  0.565800  0.184800  1.0  0.1428
  C  C118  1  0.530000  0.562600  0.115100  1.0  -0.1211
  C  C119  1  0.488200  0.688400  0.016000  1.0  -0.0473
  C  C120  1  0.522700  0.758000  0.031100  1.0  -0.0926
  C  C121  1  0.592300  0.747600  0.109200  1.0  0.0946
  C  C122  1  0.780600  0.031100  0.176000  1.0  0.6622
  C  C123  1  0.656700  0.802700  0.157800  1.0  0.6685
  C  C124  1  0.796800  0.869300  0.954800  1.0  0.7087
  C  C125  1  0.797200  0.899300  0.031800  1.0  -0.0396
  C  C126  1  0.783900  0.972500  0.046400  1.0  -0.1289
  C  C127  1  0.788600  0.970700  0.127100  1.0  0.0239
  C  C128  1  0.417400  0.658900  0.936700  1.0  0.7006
  C  C129  1  0.842100  0.775700  0.131900  1.0  -0.1439
  C  C130  1  0.924300  0.776600  0.194000  1.0  0.0953
  C  C131  1  0.961600  0.774500  0.155400  1.0  -0.1221
  C  C132  1  0.964100  0.775000  0.287300  1.0  -0.0362
  C  C133  1  0.991900  0.002100  0.281600  1.0  -0.1362
  C  C134  1  0.992900  0.134000  0.283400  1.0  -0.0913
  C  C135  1  0.985900  0.065800  0.315200  1.0  0.1433
  C  C136  1  0.970000  0.062600  0.384900  1.0  -0.1211
  C  C137  1  0.011800  0.188400  0.484000  1.0  -0.0455
  C  C138  1  0.977300  0.258000  0.468900  1.0  -0.0907
  C  C139  1  0.907700  0.247600  0.390800  1.0  0.0965
  C  C140  1  0.719400  0.531100  0.324000  1.0  0.661
  C  C141  1  0.843300  0.302700  0.342200  1.0  0.6686
  C  C142  1  0.703200  0.369300  0.545200  1.0  0.708
  C  C143  1  0.702800  0.399300  0.468200  1.0  -0.0406
  C  C144  1  0.716100  0.472500  0.453600  1.0  -0.1283
  C  C145  1  0.711400  0.470700  0.372900  1.0  0.0226
  C  C146  1  0.082600  0.158900  0.563300  1.0  0.7027
  C  C147  1  0.657900  0.275700  0.368100  1.0  -0.1432
  C  C148  1  0.575700  0.276600  0.306000  1.0  0.096
  C  C149  1  0.538400  0.274500  0.344600  1.0  -0.121
  C  C150  1  0.535900  0.275000  0.212700  1.0  -0.0383
  C  C151  1  0.491900  0.502100  0.281600  1.0  -0.1362
  C  C152  1  0.492900  0.634000  0.283400  1.0  -0.0913
  C  C153  1  0.485900  0.565800  0.315200  1.0  0.1433
  C  C154  1  0.470000  0.562600  0.384900  1.0  -0.1211
  C  C155  1  0.511800  0.688400  0.484000  1.0  -0.0455
  C  C156  1  0.477300  0.758000  0.468900  1.0  -0.0907
  C  C157  1  0.407700  0.747600  0.390800  1.0  0.0965
  C  C158  1  0.219400  0.031100  0.324000  1.0  0.661
  C  C159  1  0.343300  0.802700  0.342200  1.0  0.6686
  C  C160  1  0.203200  0.869300  0.545200  1.0  0.708
  C  C161  1  0.202800  0.899300  0.468200  1.0  -0.0406
  C  C162  1  0.216100  0.972500  0.453600  1.0  -0.1283
  C  C163  1  0.211400  0.970700  0.372900  1.0  0.0226
  C  C164  1  0.582600  0.658900  0.563300  1.0  0.7027
  C  C165  1  0.157900  0.775700  0.368100  1.0  -0.1432
  C  C166  1  0.075700  0.776600  0.306000  1.0  0.096
  C  C167  1  0.038400  0.774500  0.344600  1.0  -0.121
  C  C168  1  0.035900  0.775000  0.212700  1.0  -0.0383
  C  C169  1  0.991900  0.997900  0.781600  1.0  -0.1366
  C  C170  1  0.992900  0.866000  0.783400  1.0  -0.0891
  C  C171  1  0.985900  0.934200  0.815200  1.0  0.1434
  C  C172  1  0.970000  0.937400  0.884900  1.0  -0.118
  C  C173  1  0.011800  0.811600  0.984000  1.0  -0.0447
  C  C174  1  0.977300  0.742000  0.968900  1.0  -0.0923
  C  C175  1  0.907700  0.752400  0.890800  1.0  0.094
  C  C176  1  0.719400  0.468900  0.824000  1.0  0.662
  C  C177  1  0.843300  0.697300  0.842200  1.0  0.6675
  C  C178  1  0.703200  0.630700  0.045200  1.0  0.7082
  C  C179  1  0.702800  0.600700  0.968200  1.0  -0.041
  C  C180  1  0.716100  0.527500  0.953600  1.0  -0.1282
  C  C181  1  0.711400  0.529300  0.872900  1.0  0.0233
  C  C182  1  0.082600  0.841100  0.063300  1.0  0.7051
  C  C183  1  0.657900  0.724300  0.868100  1.0  -0.1428
  C  C184  1  0.575700  0.723400  0.806000  1.0  0.096
  C  C185  1  0.538400  0.725500  0.844600  1.0  -0.1209
  C  C186  1  0.535900  0.725000  0.712700  1.0  -0.0374
  C  C187  1  0.491900  0.497900  0.781600  1.0  -0.1366
  C  C188  1  0.492900  0.366000  0.783400  1.0  -0.0891
  C  C189  1  0.485900  0.434200  0.815200  1.0  0.1434
  C  C190  1  0.470000  0.437400  0.884900  1.0  -0.118
  C  C191  1  0.511800  0.311600  0.984000  1.0  -0.0447
  C  C192  1  0.477300  0.242000  0.968900  1.0  -0.0923
  C  C193  1  0.407700  0.252400  0.890800  1.0  0.094
  C  C194  1  0.219400  0.968900  0.824000  1.0  0.662
  C  C195  1  0.343300  0.197300  0.842200  1.0  0.6675
  C  C196  1  0.203200  0.130700  0.045200  1.0  0.7082
  C  C197  1  0.202800  0.100700  0.968200  1.0  -0.041
  C  C198  1  0.216100  0.027500  0.953600  1.0  -0.1282
  C  C199  1  0.211400  0.029300  0.872900  1.0  0.0233
  C  C200  1  0.582600  0.341100  0.063300  1.0  0.7051
  C  C201  1  0.157900  0.224300  0.868100  1.0  -0.1428
  C  C202  1  0.075700  0.223400  0.806000  1.0  0.096
  C  C203  1  0.038400  0.225500  0.844600  1.0  -0.1209
  C  C204  1  0.035900  0.225000  0.712700  1.0  -0.0374
  C  C205  1  0.008100  0.997900  0.718400  1.0  -0.1366
  C  C206  1  0.007100  0.866000  0.716600  1.0  -0.0923
  C  C207  1  0.014100  0.934200  0.684800  1.0  0.143
  C  C208  1  0.030000  0.937400  0.615100  1.0  -0.1182
  C  C209  1  0.988200  0.811600  0.516000  1.0  -0.0465
  C  C210  1  0.022700  0.742000  0.531100  1.0  -0.0922
  C  C211  1  0.092300  0.752400  0.609200  1.0  0.0943
  C  C212  1  0.280600  0.468900  0.676000  1.0  0.6606
  C  C213  1  0.156700  0.697300  0.657800  1.0  0.6675
  C  C214  1  0.296800  0.630700  0.454800  1.0  0.7076
  C  C215  1  0.297200  0.600700  0.531800  1.0  -0.0403
  C  C216  1  0.283900  0.527500  0.546400  1.0  -0.1292
  C  C217  1  0.288600  0.529300  0.627100  1.0  0.0245
  C  C218  1  0.917400  0.841100  0.436700  1.0  0.7036
  C  C219  1  0.342100  0.724300  0.631900  1.0  -0.1434
  C  C220  1  0.424300  0.723400  0.694000  1.0  0.0946
  C  C221  1  0.461600  0.725500  0.655400  1.0  -0.1221
  C  C222  1  0.464100  0.725000  0.787300  1.0  -0.0355
  C  C223  1  0.508100  0.497900  0.718400  1.0  -0.1366
  C  C224  1  0.507100  0.366000  0.716600  1.0  -0.0923
  C  C225  1  0.514100  0.434200  0.684800  1.0  0.143
  C  C226  1  0.530000  0.437400  0.615100  1.0  -0.1182
  C  C227  1  0.488200  0.311600  0.516000  1.0  -0.0465
  C  C228  1  0.522700  0.242000  0.531100  1.0  -0.0922
  C  C229  1  0.592300  0.252400  0.609200  1.0  0.0943
  C  C230  1  0.780600  0.968900  0.676000  1.0  0.6606
  C  C231  1  0.656700  0.197300  0.657800  1.0  0.6675
  C  C232  1  0.796800  0.130700  0.454800  1.0  0.7076
  C  C233  1  0.797200  0.100700  0.531800  1.0  -0.0403
  C  C234  1  0.783900  0.027500  0.546400  1.0  -0.1292
  C  C235  1  0.788600  0.029300  0.627100  1.0  0.0245
  C  C236  1  0.417400  0.341100  0.436700  1.0  0.7036
  C  C237  1  0.842100  0.224300  0.631900  1.0  -0.1434
  C  C238  1  0.924300  0.223400  0.694000  1.0  0.0946
  C  C239  1  0.961600  0.225500  0.655400  1.0  -0.1221
  C  C240  1  0.964100  0.225000  0.787300  1.0  -0.0355
  N  N241  1  0.101700  0.176400  0.141000  1.0  -0.1974
  N  N242  1  0.039300  0.139000  0.086700  1.0  -0.0176
  N  N243  1  0.307200  0.398000  0.163200  1.0  -0.3679
  N  N244  1  0.313100  0.355800  0.105500  1.0  0.0346
  N  N245  1  0.601700  0.676400  0.141000  1.0  -0.1974
  N  N246  1  0.539300  0.639000  0.086700  1.0  -0.0176
  N  N247  1  0.807200  0.898000  0.163200  1.0  -0.3679
  N  N248  1  0.813100  0.855800  0.105500  1.0  0.0346
  N  N249  1  0.898300  0.176400  0.359000  1.0  -0.1971
  N  N250  1  0.960700  0.139000  0.413300  1.0  -0.0159
  N  N251  1  0.692800  0.398000  0.336800  1.0  -0.3654
  N  N252  1  0.686900  0.355800  0.394500  1.0  0.0348
  N  N253  1  0.398300  0.676400  0.359000  1.0  -0.1971
  N  N254  1  0.460700  0.639000  0.413300  1.0  -0.0159
  N  N255  1  0.192800  0.898000  0.336800  1.0  -0.3654
  N  N256  1  0.186900  0.855800  0.394500  1.0  0.0348
  N  N257  1  0.898300  0.823600  0.859000  1.0  -0.1969
  N  N258  1  0.960700  0.861000  0.913300  1.0  -0.0159
  N  N259  1  0.692800  0.602000  0.836800  1.0  -0.3646
  N  N260  1  0.686900  0.644200  0.894500  1.0  0.035
  N  N261  1  0.398300  0.323600  0.859000  1.0  -0.1969
  N  N262  1  0.460700  0.361000  0.913300  1.0  -0.0159
  N  N263  1  0.192800  0.102000  0.836800  1.0  -0.3646
  N  N264  1  0.186900  0.144200  0.894500  1.0  0.035
  N  N265  1  0.101700  0.823600  0.641000  1.0  -0.1974
  N  N266  1  0.039300  0.861000  0.586700  1.0  -0.0172
  N  N267  1  0.307200  0.602000  0.663200  1.0  -0.3681
  N  N268  1  0.313100  0.644200  0.605500  1.0  0.0351
  N  N269  1  0.601700  0.323600  0.641000  1.0  -0.1974
  N  N270  1  0.539300  0.361000  0.586700  1.0  -0.0172
  N  N271  1  0.807200  0.102000  0.663200  1.0  -0.3681
  N  N272  1  0.813100  0.144200  0.605500  1.0  0.0351
  O  O273  1  0.150500  0.372300  0.135000  1.0  -0.6102
  O  O274  1  0.216700  0.273300  0.222300  1.0  -0.6383
  O  O275  1  0.282900  0.511100  0.245100  1.0  -0.6677
  O  O276  1  0.271500  0.601200  0.151000  1.0  -0.6219
  O  O277  1  0.279800  0.419600  0.894100  1.0  -0.632
  O  O278  1  0.309600  0.301600  0.950000  1.0  -0.5337
  O  O279  1  0.903700  0.090300  0.919400  1.0  -0.6064
  O  O280  1  0.872900  0.211200  0.884600  1.0  -0.6444
  O  O281  1  0.650500  0.872300  0.135000  1.0  -0.6102
  O  O282  1  0.716700  0.773300  0.222300  1.0  -0.6383
  O  O283  1  0.782900  0.011100  0.245100  1.0  -0.6677
  O  O284  1  0.771500  0.101200  0.151000  1.0  -0.6219
  O  O285  1  0.779800  0.919600  0.894100  1.0  -0.632
  O  O286  1  0.809600  0.801600  0.950000  1.0  -0.5337
  O  O287  1  0.403700  0.590300  0.919400  1.0  -0.6064
  O  O288  1  0.372900  0.711200  0.884600  1.0  -0.6444
  O  O289  1  0.849500  0.372300  0.365000  1.0  -0.6113
  O  O290  1  0.783300  0.273300  0.277700  1.0  -0.6378
  O  O291  1  0.717100  0.511100  0.254900  1.0  -0.6633
  O  O292  1  0.728500  0.601200  0.349000  1.0  -0.6209
  O  O293  1  0.720200  0.419600  0.605900  1.0  -0.6325
  O  O294  1  0.690400  0.301600  0.550000  1.0  -0.5337
  O  O295  1  0.096300  0.090300  0.580600  1.0  -0.6074
  O  O296  1  0.127100  0.211200  0.615400  1.0  -0.6454
  O  O297  1  0.349500  0.872300  0.365000  1.0  -0.6113
  O  O298  1  0.283300  0.773300  0.277700  1.0  -0.6378
  O  O299  1  0.217100  0.011100  0.254900  1.0  -0.6633
  O  O300  1  0.228500  0.101200  0.349000  1.0  -0.6209
  O  O301  1  0.220200  0.919600  0.605900  1.0  -0.6325
  O  O302  1  0.190400  0.801600  0.550000  1.0  -0.5337
  O  O303  1  0.596300  0.590300  0.580600  1.0  -0.6074
  O  O304  1  0.627100  0.711200  0.615400  1.0  -0.6454
  O  O305  1  0.849500  0.627700  0.865000  1.0  -0.6133
  O  O306  1  0.783300  0.726700  0.777700  1.0  -0.6371
  O  O307  1  0.717100  0.488900  0.754900  1.0  -0.6622
  O  O308  1  0.728500  0.398800  0.849000  1.0  -0.6204
  O  O309  1  0.720200  0.580400  0.105900  1.0  -0.6319
  O  O310  1  0.690400  0.698400  0.050000  1.0  -0.5336
  O  O311  1  0.096300  0.909700  0.080600  1.0  -0.6085
  O  O312  1  0.127100  0.788800  0.115400  1.0  -0.6429
  O  O313  1  0.349500  0.127700  0.865000  1.0  -0.6133
  O  O314  1  0.283300  0.226700  0.777700  1.0  -0.6371
  O  O315  1  0.217100  0.988900  0.754900  1.0  -0.6622
  O  O316  1  0.228500  0.898800  0.849000  1.0  -0.6204
  O  O317  1  0.220200  0.080400  0.105900  1.0  -0.6319
  O  O318  1  0.190400  0.198400  0.050000  1.0  -0.5336
  O  O319  1  0.596300  0.409700  0.080600  1.0  -0.6085
  O  O320  1  0.627100  0.288800  0.115400  1.0  -0.6429
  O  O321  1  0.150500  0.627700  0.635000  1.0  -0.6117
  O  O322  1  0.216700  0.726700  0.722300  1.0  -0.6378
  O  O323  1  0.282900  0.488900  0.745100  1.0  -0.6678
  O  O324  1  0.271500  0.398800  0.651000  1.0  -0.6169
  O  O325  1  0.279800  0.580400  0.394100  1.0  -0.63
  O  O326  1  0.309600  0.698400  0.450000  1.0  -0.5341
  O  O327  1  0.903700  0.909700  0.419400  1.0  -0.6079
  O  O328  1  0.872900  0.788800  0.384600  1.0  -0.6407
  O  O329  1  0.650500  0.127700  0.635000  1.0  -0.6117
  O  O330  1  0.716700  0.226700  0.722300  1.0  -0.6378
  O  O331  1  0.782900  0.988900  0.745100  1.0  -0.6678
  O  O332  1  0.771500  0.898800  0.651000  1.0  -0.6169
  O  O333  1  0.779800  0.080400  0.394100  1.0  -0.63
  O  O334  1  0.809600  0.198400  0.450000  1.0  -0.5341
  O  O335  1  0.403700  0.409700  0.419400  1.0  -0.6079
  O  O336  1  0.372900  0.288800  0.384600  1.0  -0.6407
