# generated using pymatgen
data_Cu3H40(CN)30
_symmetry_space_group_name_H-M   'P 1'
_cell_length_a   12.48820000
_cell_length_b   13.19510000
_cell_length_c   19.75600000
_cell_angle_alpha   78.95900000
_cell_angle_beta   84.55300000
_cell_angle_gamma   63.86900000
_symmetry_Int_Tables_number   1
_chemical_formula_structural   Cu3H40(CN)30
_chemical_formula_sum   'Cu6 H80 C60 N60'
_cell_volume   2868.40706678
_cell_formula_units_Z   2
loop_
 _symmetry_equiv_pos_site_id
 _symmetry_equiv_pos_as_xyz
  1  'x, y, z'
loop_
 _atom_site_type_symbol
 _atom_site_label
 _atom_site_symmetry_multiplicity
 _atom_site_fract_x
 _atom_site_fract_y
 _atom_site_fract_z
 _atom_site_occupancy
 _atom_site_charge
  Cu  Cu1  1  0.580120  0.560200  0.209130  1.0  0.7164
  Cu  Cu2  1  0.255650  0.773570  0.248820  1.0  0.758
  Cu  Cu3  1  0.935670  0.991480  0.291750  1.0  0.7522
  Cu  Cu4  1  0.419880  0.439800  0.790870  1.0  0.7181
  Cu  Cu5  1  0.744350  0.226430  0.751180  1.0  0.7579
  Cu  Cu6  1  0.064330  0.008520  0.708250  1.0  0.7525
  H  H7  1  0.275200  0.370600  0.137500  1.0  0.0857
  H  H8  1  0.370700  0.361200  0.076400  1.0  0.0737
  H  H9  1  0.164100  0.419100  0.044800  1.0  0.0826
  H  H10  1  0.136900  0.541400  0.062500  1.0  0.0717
  H  H11  1  0.403700  0.106600  0.107500  1.0  0.0816
  H  H12  1  0.544200  0.030300  0.100000  1.0  0.0674
  H  H13  1  0.469700  0.166300  0.185500  1.0  0.0714
  H  H14  1  0.447600  0.065100  0.233900  1.0  0.068
  H  H15  1  0.430400  0.614500  0.514000  1.0  0.0567
  H  H16  1  0.571300  0.561500  0.498100  1.0  0.0666
  H  H17  1  0.109700  0.012500  0.988200  1.0  0.0622
  H  H18  1  0.983400  0.114500  0.002700  1.0  0.0584
  H  H19  1  0.931300  0.554200  0.402500  1.0  0.0783
  H  H20  1  0.070400  0.472600  0.414300  1.0  0.0786
  H  H21  1  0.079500  0.444300  0.294300  1.0  0.0771
  H  H22  1  0.013400  0.382500  0.347700  1.0  0.0622
  H  H23  1  0.253900  0.159500  0.377000  1.0  0.0829
  H  H24  1  0.148300  0.177800  0.432900  1.0  0.062
  H  H25  1  0.336500  0.104300  0.486600  1.0  0.082
  H  H26  1  0.382200  0.992800  0.451100  1.0  0.0726
  H  H27  1  0.175400  0.628400  0.146400  1.0  0.0606
  H  H28  1  0.514600  0.408500  0.132400  1.0  0.0725
  H  H29  1  0.901700  0.339100  0.058900  1.0  0.0656
  H  H30  1  0.606000  0.628900  0.043500  1.0  0.0673
  H  H31  1  0.291900  0.999000  0.197500  1.0  0.0654
  H  H32  1  0.603700  0.808500  0.118700  1.0  0.0688
  H  H33  1  0.686700  0.863100  0.191500  1.0  0.0555
  H  H34  1  0.651000  0.142500  0.254500  1.0  0.059
  H  H35  1  0.295500  0.704200  0.406500  1.0  0.0695
  H  H36  1  0.633400  0.503200  0.369500  1.0  0.0476
  H  H37  1  0.894400  0.092300  0.132400  1.0  0.0596
  H  H38  1  0.218700  0.861600  0.093300  1.0  0.063
  H  H39  1  0.885000  0.763200  0.362100  1.0  0.068
  H  H40  1  0.212300  0.549900  0.316000  1.0  0.0651
  H  H41  1  0.918300  0.652200  0.218400  1.0  0.0653
  H  H42  1  0.808900  0.419900  0.311500  1.0  0.0629
  H  H43  1  0.001600  0.120000  0.389600  1.0  0.0682
  H  H44  1  0.339600  0.928000  0.346300  1.0  0.0562
  H  H45  1  0.597200  0.164100  0.447800  1.0  0.0577
  H  H46  1  0.895700  0.879100  0.445800  1.0  0.0683
  H  H47  1  0.724800  0.629400  0.862500  1.0  0.0856
  H  H48  1  0.629300  0.638800  0.923600  1.0  0.0734
  H  H49  1  0.835900  0.580900  0.955200  1.0  0.0827
  H  H50  1  0.863100  0.458600  0.937500  1.0  0.0719
  H  H51  1  0.596300  0.893400  0.892500  1.0  0.0816
  H  H52  1  0.455800  0.969700  0.900000  1.0  0.068
  H  H53  1  0.530300  0.833700  0.814500  1.0  0.0707
  H  H54  1  0.552400  0.934900  0.766100  1.0  0.0671
  H  H55  1  0.569600  0.385500  0.486000  1.0  0.0557
  H  H56  1  0.428700  0.438500  0.501900  1.0  0.0697
  H  H57  1  0.890300  0.987500  0.011800  1.0  0.0628
  H  H58  1  0.016600  0.885500  0.997300  1.0  0.0597
  H  H59  1  0.068700  0.445800  0.597500  1.0  0.0783
  H  H60  1  0.929600  0.527400  0.585700  1.0  0.0783
  H  H61  1  0.920500  0.555700  0.705700  1.0  0.078
  H  H62  1  0.986600  0.617500  0.652300  1.0  0.0607
  H  H63  1  0.746100  0.840500  0.623000  1.0  0.0835
  H  H64  1  0.851700  0.822200  0.567100  1.0  0.0635
  H  H65  1  0.663500  0.895700  0.513400  1.0  0.0828
  H  H66  1  0.617800  0.007200  0.548900  1.0  0.0725
  H  H67  1  0.824600  0.371600  0.853600  1.0  0.0618
  H  H68  1  0.485400  0.591500  0.867600  1.0  0.0723
  H  H69  1  0.098300  0.660900  0.941100  1.0  0.0654
  H  H70  1  0.394000  0.371100  0.956500  1.0  0.0672
  H  H71  1  0.708100  0.001000  0.802500  1.0  0.0648
  H  H72  1  0.396300  0.191500  0.881300  1.0  0.067
  H  H73  1  0.313300  0.136900  0.808500  1.0  0.0561
  H  H74  1  0.349000  0.857500  0.745500  1.0  0.0581
  H  H75  1  0.704500  0.295800  0.593500  1.0  0.0696
  H  H76  1  0.366600  0.496800  0.630500  1.0  0.0477
  H  H77  1  0.105600  0.907700  0.867600  1.0  0.0599
  H  H78  1  0.781300  0.138400  0.906700  1.0  0.0631
  H  H79  1  0.115000  0.236800  0.637900  1.0  0.0671
  H  H80  1  0.787700  0.450100  0.684000  1.0  0.065
  H  H81  1  0.081700  0.347800  0.781600  1.0  0.0651
  H  H82  1  0.191100  0.580100  0.688500  1.0  0.0628
  H  H83  1  0.998400  0.880000  0.610400  1.0  0.0677
  H  H84  1  0.660400  0.072000  0.653700  1.0  0.057
  H  H85  1  0.402800  0.835900  0.552200  1.0  0.0571
  H  H86  1  0.104300  0.120900  0.554200  1.0  0.0679
  C  C87  1  0.299300  0.415600  0.098300  1.0  -0.1484
  C  C88  1  0.199700  0.472400  0.046400  1.0  -0.1516
  C  C89  1  0.259800  0.591600  0.150600  1.0  0.0842
  C  C90  1  0.443700  0.472000  0.142600  1.0  0.0743
  C  C91  1  0.827800  0.398500  0.069700  1.0  0.1091
  C  C92  1  0.667800  0.556500  0.060900  1.0  0.0805
  C  C93  1  0.474800  0.044600  0.131900  1.0  -0.0586
  C  C94  1  0.496300  0.082300  0.195000  1.0  -0.1514
  C  C95  1  0.359900  0.935000  0.185100  1.0  0.0927
  C  C96  1  0.529100  0.831100  0.142400  1.0  0.1009
  C  C97  1  0.704700  0.916700  0.208200  1.0  0.0928
  C  C98  1  0.684300  0.068300  0.242300  1.0  0.0967
  C  C99  1  0.495700  0.559900  0.488500  1.0  -0.0309
  C  C100  1  0.368000  0.663300  0.383500  1.0  0.0921
  C  C101  1  0.551300  0.554000  0.363100  1.0  0.0836
  C  C102  1  0.032200  0.030700  0.012600  1.0  -0.0141
  C  C103  1  0.972500  0.031700  0.138100  1.0  0.0846
  C  C104  1  0.148500  0.906200  0.116800  1.0  0.0879
  C  C105  1  0.010200  0.524700  0.379200  1.0  -0.092
  C  C106  1  0.008400  0.458000  0.324600  1.0  -0.1044
  C  C107  1  0.965300  0.733700  0.346000  1.0  0.0968
  C  C108  1  0.142600  0.618000  0.321000  1.0  0.1016
  C  C109  1  0.870700  0.612000  0.232200  1.0  0.114
  C  C110  1  0.811600  0.485600  0.283200  1.0  0.0722
  C  C111  1  0.219800  0.119200  0.413600  1.0  -0.099
  C  C112  1  0.311100  0.051800  0.470400  1.0  -0.0913
  C  C113  1  0.071500  0.063800  0.372000  1.0  0.0757
  C  C114  1  0.255000  0.959400  0.348600  1.0  0.1087
  C  C115  1  0.673200  0.110200  0.434700  1.0  0.1011
  C  C116  1  0.835400  0.954900  0.433900  1.0  0.0839
  C  C117  1  0.700700  0.584400  0.901700  1.0  -0.1501
  C  C118  1  0.800300  0.527600  0.953600  1.0  -0.1489
  C  C119  1  0.740200  0.408400  0.849400  1.0  0.0841
  C  C120  1  0.556300  0.528000  0.857400  1.0  0.0725
  C  C121  1  0.172200  0.601500  0.930300  1.0  0.1109
  C  C122  1  0.332200  0.443500  0.939100  1.0  0.0817
  C  C123  1  0.525200  0.955400  0.868100  1.0  -0.0605
  C  C124  1  0.503700  0.917700  0.805000  1.0  -0.1527
  C  C125  1  0.640100  0.065000  0.814900  1.0  0.0929
  C  C126  1  0.470900  0.168900  0.857600  1.0  0.1001
  C  C127  1  0.295300  0.083300  0.791800  1.0  0.0929
  C  C128  1  0.315700  0.931700  0.757700  1.0  0.0961
  C  C129  1  0.504300  0.440100  0.511500  1.0  -0.0295
  C  C130  1  0.632000  0.336700  0.616500  1.0  0.0927
  C  C131  1  0.448700  0.446000  0.636900  1.0  0.0854
  C  C132  1  0.967800  0.969300  0.987400  1.0  -0.0134
  C  C133  1  0.027500  0.968300  0.861900  1.0  0.0848
  C  C134  1  0.851500  0.093800  0.883200  1.0  0.089
  C  C135  1  0.989800  0.475300  0.620800  1.0  -0.092
  C  C136  1  0.991600  0.542000  0.675400  1.0  -0.1038
  C  C137  1  0.034700  0.266300  0.654000  1.0  0.0957
  C  C138  1  0.857400  0.382000  0.679000  1.0  0.1019
  C  C139  1  0.129300  0.388000  0.767800  1.0  0.1143
  C  C140  1  0.188400  0.514400  0.716800  1.0  0.072
  C  C141  1  0.780200  0.880800  0.586400  1.0  -0.0978
  C  C142  1  0.688900  0.948200  0.529600  1.0  -0.0923
  C  C143  1  0.928500  0.936200  0.628000  1.0  0.0777
  C  C144  1  0.745000  0.040600  0.651400  1.0  0.1097
  C  C145  1  0.326800  0.889800  0.565300  1.0  0.1018
  C  C146  1  0.164600  0.045100  0.566100  1.0  0.083
  N  N147  1  0.439200  0.551800  0.175400  1.0  -0.3026
  N  N148  1  0.321300  0.627500  0.181100  1.0  -0.2652
  N  N149  1  0.332900  0.493900  0.125600  1.0  -0.0094
  N  N150  1  0.673900  0.501800  0.124600  1.0  -0.2407
  N  N151  1  0.775800  0.399400  0.129900  1.0  -0.3164
  N  N152  1  0.237300  0.506300  0.975800  1.0  -0.0288
  N  N153  1  0.373400  0.828700  0.198800  1.0  -0.272
  N  N154  1  0.483200  0.760600  0.171100  1.0  -0.3367
  N  N155  1  0.456500  0.940300  0.150700  1.0  -0.0056
  N  N156  1  0.795100  0.995600  0.250000  1.0  -0.2273
  N  N157  1  0.809400  0.896900  0.227400  1.0  -0.3273
  N  N158  1  0.623500  0.025300  0.215300  1.0  -0.0566
  N  N159  1  0.498800  0.596700  0.303400  1.0  -0.3538
  N  N160  1  0.381400  0.667800  0.317100  1.0  -0.2296
  N  N161  1  0.472200  0.592200  0.414800  1.0  -0.0117
  N  N162  1  0.132200  0.891300  0.183600  1.0  -0.25
  N  N163  1  0.020300  0.971900  0.197400  1.0  -0.2497
  N  N164  1  0.051400  0.994000  0.085900  1.0  -0.0025
  N  N165  1  0.134500  0.721700  0.301600  1.0  -0.2659
  N  N166  1  0.019800  0.796700  0.317900  1.0  -0.2787
  N  N167  1  0.038400  0.621000  0.348900  1.0  0.0059
  N  N168  1  0.728800  0.559100  0.239300  1.0  -0.2748
  N  N169  1  0.767500  0.640200  0.205800  1.0  -0.3076
  N  N170  1  0.901400  0.517100  0.282200  1.0  -0.0291
  N  N171  1  0.189800  0.925700  0.319000  1.0  -0.2676
  N  N172  1  0.072700  0.993600  0.333900  1.0  -0.2837
  N  N173  1  0.184300  0.045500  0.383200  1.0  -0.013
  N  N174  1  0.836700  0.028200  0.379000  1.0  -0.251
  N  N175  1  0.733000  0.128500  0.378800  1.0  -0.3728
  N  N176  1  0.265000  0.996100  0.529100  1.0  -0.0072
  N  N177  1  0.560800  0.448200  0.824600  1.0  -0.303
  N  N178  1  0.678700  0.372500  0.818900  1.0  -0.2641
  N  N179  1  0.667100  0.506100  0.874400  1.0  -0.0097
  N  N180  1  0.326100  0.498200  0.875400  1.0  -0.2412
  N  N181  1  0.224200  0.600600  0.870100  1.0  -0.317
  N  N182  1  0.762700  0.493700  0.024200  1.0  -0.0284
  N  N183  1  0.626600  0.171300  0.801200  1.0  -0.2718
  N  N184  1  0.516800  0.239400  0.828900  1.0  -0.3392
  N  N185  1  0.543500  0.059700  0.849300  1.0  -0.0046
  N  N186  1  0.204900  0.004400  0.750000  1.0  -0.2268
  N  N187  1  0.190600  0.103100  0.772600  1.0  -0.328
  N  N188  1  0.376500  0.974700  0.784700  1.0  -0.0574
  N  N189  1  0.501200  0.403300  0.696600  1.0  -0.3547
  N  N190  1  0.618600  0.332200  0.682900  1.0  -0.2284
  N  N191  1  0.527800  0.407800  0.585200  1.0  -0.0125
  N  N192  1  0.867800  0.108700  0.816400  1.0  -0.2484
  N  N193  1  0.979700  0.028100  0.802600  1.0  -0.2492
  N  N194  1  0.948600  0.006000  0.914100  1.0  -0.0029
  N  N195  1  0.865500  0.278300  0.698400  1.0  -0.2649
  N  N196  1  0.980200  0.203300  0.682100  1.0  -0.2788
  N  N197  1  0.961600  0.379000  0.651100  1.0  0.0053
  N  N198  1  0.271200  0.440900  0.760700  1.0  -0.2745
  N  N199  1  0.232500  0.359800  0.794200  1.0  -0.309
  N  N200  1  0.098600  0.482900  0.717800  1.0  -0.0295
  N  N201  1  0.810200  0.074300  0.681000  1.0  -0.2681
  N  N202  1  0.927300  0.006400  0.666100  1.0  -0.2835
  N  N203  1  0.815700  0.954500  0.616800  1.0  -0.0118
  N  N204  1  0.163300  0.971800  0.621000  1.0  -0.2479
  N  N205  1  0.267000  0.871500  0.621200  1.0  -0.373
  N  N206  1  0.735000  0.003900  0.470900  1.0  -0.0075
