# generated using pymatgen
data_Co3H8C28(N2O9)2
_symmetry_space_group_name_H-M   'P 1'
_cell_length_a   10.83300000
_cell_length_b   14.17000000
_cell_length_c   14.40000000
_cell_angle_alpha   100.51900000
_cell_angle_beta   90.00000000
_cell_angle_gamma   90.00000000
_symmetry_Int_Tables_number   1
_chemical_formula_structural   Co3H8C28(N2O9)2
_chemical_formula_sum   'Co6 H16 C56 N8 O36'
_cell_volume   2173.30406058
_cell_formula_units_Z   2
loop_
 _symmetry_equiv_pos_site_id
 _symmetry_equiv_pos_as_xyz
  1  'x, y, z'
loop_
 _atom_site_type_symbol
 _atom_site_label
 _atom_site_symmetry_multiplicity
 _atom_site_fract_x
 _atom_site_fract_y
 _atom_site_fract_z
 _atom_site_occupancy
 _atom_site_charge
  Co  Co1  1  0.711440  0.820610  0.699340  1.0  1.0087
  Co  Co2  1  0.211440  0.679390  0.800660  1.0  1.0092
  Co  Co3  1  0.288560  0.179390  0.300660  1.0  1.0093
  Co  Co4  1  0.788560  0.320610  0.199340  1.0  1.0089
  Co  Co5  1  0.500000  0.500000  0.500000  1.0  1.0861
  Co  Co6  1  0.000000  0.000000  0.000000  1.0  1.0862
  H  H7  1  0.666667  0.214500  0.494600  1.0  0.1413
  H  H8  1  0.848800  0.013100  0.309700  1.0  0.1343
  H  H9  1  0.588900  0.091500  0.546100  1.0  0.1344
  H  H10  1  0.903000  0.955500  0.439400  1.0  0.1419
  H  H11  1  0.166600  0.285500  0.005400  1.0  0.1419
  H  H12  1  0.348800  0.486900  0.190300  1.0  0.1343
  H  H13  1  0.088900  0.408500  0.953900  1.0  0.1344
  H  H14  1  0.403000  0.544500  0.060600  1.0  0.1424
  H  H15  1  0.333400  0.785500  0.505400  1.0  0.1417
  H  H16  1  0.151200  0.986900  0.690300  1.0  0.1345
  H  H17  1  0.411100  0.908500  0.453900  1.0  0.1339
  H  H18  1  0.097000  0.044500  0.560600  1.0  0.1423
  H  H19  1  0.833400  0.714500  0.994600  1.0  0.1412
  H  H20  1  0.651200  0.513100  0.809700  1.0  0.1341
  H  H21  1  0.911100  0.591500  0.046100  1.0  0.134
  H  H22  1  0.597000  0.455500  0.939400  1.0  0.1419
  C  C23  1  0.721900  0.256000  0.374700  1.0  0.1504
  C  C24  1  0.709400  0.194800  0.436800  1.0  -0.0901
  C  C25  1  0.759600  0.103400  0.415000  1.0  0.0895
  C  C26  1  0.817200  0.076400  0.327700  1.0  -0.0938
  C  C27  1  0.828600  0.140600  0.268100  1.0  0.1302
  C  C28  1  0.881100  0.122000  0.170900  1.0  0.6818
  C  C29  1  0.677500  0.359100  0.387800  1.0  0.7354
  C  C30  1  0.638200  0.978200  0.606100  1.0  0.1039
  C  C31  1  0.648700  0.042200  0.544900  1.0  -0.1097
  C  C32  1  0.747100  0.034800  0.481200  1.0  0.0631
  C  C33  1  0.834600  0.962100  0.481300  1.0  -0.1052
  C  C34  1  0.818500  0.900200  0.544100  1.0  0.1435
  C  C35  1  0.898700  0.814800  0.552100  1.0  0.7122
  C  C36  1  0.540100  0.977400  0.679700  1.0  0.7165
  C  C37  1  0.221900  0.244000  0.125300  1.0  0.15
  C  C38  1  0.209400  0.305200  0.063200  1.0  -0.0888
  C  C39  1  0.259600  0.396600  0.085000  1.0  0.0896
  C  C40  1  0.317200  0.423600  0.172300  1.0  -0.0939
  C  C41  1  0.328600  0.359400  0.231900  1.0  0.1304
  C  C42  1  0.381100  0.378000  0.329100  1.0  0.6824
  C  C43  1  0.177500  0.140900  0.112200  1.0  0.7364
  C  C44  1  0.138200  0.521800  0.893900  1.0  0.1034
  C  C45  1  0.148700  0.457800  0.955100  1.0  -0.1103
  C  C46  1  0.247100  0.465200  0.018800  1.0  0.0633
  C  C47  1  0.334600  0.537900  0.018700  1.0  -0.1047
  C  C48  1  0.318500  0.599800  0.955900  1.0  0.1431
  C  C49  1  0.398700  0.685200  0.947900  1.0  0.7131
  C  C50  1  0.040100  0.522600  0.820300  1.0  0.718
  C  C51  1  0.278100  0.744000  0.625300  1.0  0.1496
  C  C52  1  0.290600  0.805200  0.563200  1.0  -0.087
  C  C53  1  0.240400  0.896600  0.585000  1.0  0.0898
  C  C54  1  0.182800  0.923600  0.672300  1.0  -0.0954
  C  C55  1  0.171400  0.859400  0.731900  1.0  0.1303
  C  C56  1  0.118900  0.878000  0.829100  1.0  0.6837
  C  C57  1  0.322500  0.640900  0.612200  1.0  0.7349
  C  C58  1  0.361800  0.021800  0.393900  1.0  0.1038
  C  C59  1  0.351300  0.957800  0.455100  1.0  -0.1095
  C  C60  1  0.252900  0.965200  0.518800  1.0  0.0637
  C  C61  1  0.165400  0.037900  0.518700  1.0  -0.1045
  C  C62  1  0.181500  0.099800  0.455900  1.0  0.1432
  C  C63  1  0.101300  0.185200  0.447900  1.0  0.7113
  C  C64  1  0.459900  0.022600  0.320300  1.0  0.7181
  C  C65  1  0.778100  0.756000  0.874700  1.0  0.1496
  C  C66  1  0.790600  0.694800  0.936800  1.0  -0.0877
  C  C67  1  0.740400  0.603400  0.915000  1.0  0.0897
  C  C68  1  0.682800  0.576400  0.827700  1.0  -0.095
  C  C69  1  0.671400  0.640600  0.768100  1.0  0.1297
  C  C70  1  0.618900  0.622000  0.670900  1.0  0.6829
  C  C71  1  0.822500  0.859100  0.887800  1.0  0.7338
  C  C72  1  0.861800  0.478200  0.106100  1.0  0.1038
  C  C73  1  0.851300  0.542200  0.044900  1.0  -0.109
  C  C74  1  0.752900  0.534800  0.981200  1.0  0.0638
  C  C75  1  0.665400  0.462100  0.981300  1.0  -0.1048
  C  C76  1  0.681500  0.400200  0.044100  1.0  0.1435
  C  C77  1  0.601300  0.314800  0.052100  1.0  0.7115
  C  C78  1  0.959900  0.477400  0.179700  1.0  0.7188
  N  N79  1  0.723000  0.908400  0.604800  1.0  -0.3284
  N  N80  1  0.779700  0.229100  0.291000  1.0  -0.3021
  N  N81  1  0.223000  0.591600  0.895200  1.0  -0.3284
  N  N82  1  0.279700  0.270900  0.209000  1.0  -0.3004
  N  N83  1  0.277000  0.091600  0.395200  1.0  -0.3286
  N  N84  1  0.220300  0.770900  0.709000  1.0  -0.3007
  N  N85  1  0.777000  0.408400  0.104800  1.0  -0.3289
  N  N86  1  0.720300  0.729100  0.791000  1.0  -0.3023
  O  O87  1  0.887800  0.196100  0.131900  1.0  -0.5634
  O  O88  1  0.912800  0.039600  0.134500  1.0  -0.5648
  O  O89  1  0.695500  0.402300  0.321400  1.0  -0.5429
  O  O90  1  0.625600  0.391200  0.463800  1.0  -0.5845
  O  O91  1  0.982800  0.794400  0.495600  1.0  -0.51
  O  O92  1  0.872100  0.770200  0.616200  1.0  -0.5505
  O  O93  1  0.458400  0.037900  0.686700  1.0  -0.5004
  O  O94  1  0.550800  0.912000  0.727000  1.0  -0.5632
  O  O95  1  0.607600  0.606200  0.449500  1.0  -0.2247
  O  O96  1  0.387800  0.303900  0.368100  1.0  -0.5627
  O  O97  1  0.412800  0.460400  0.365500  1.0  -0.5638
  O  O98  1  0.195500  0.097700  0.178600  1.0  -0.5419
  O  O99  1  0.125600  0.108800  0.036200  1.0  -0.5836
  O  O100  1  0.482800  0.705600  0.004400  1.0  -0.5093
  O  O101  1  0.372100  0.729800  0.883800  1.0  -0.5526
  O  O102  1  0.958400  0.462100  0.813300  1.0  -0.5009
  O  O103  1  0.050800  0.588000  0.773000  1.0  -0.5615
  O  O104  1  0.107600  0.893800  0.050500  1.0  -0.2257
  O  O105  1  0.112200  0.803900  0.868100  1.0  -0.562
  O  O106  1  0.087200  0.960400  0.865500  1.0  -0.5626
  O  O107  1  0.304500  0.597700  0.678600  1.0  -0.5421
  O  O108  1  0.374400  0.608800  0.536200  1.0  -0.5844
  O  O109  1  0.017200  0.205600  0.504400  1.0  -0.5088
  O  O110  1  0.127900  0.229800  0.383800  1.0  -0.5534
  O  O111  1  0.541600  0.962100  0.313300  1.0  -0.4997
  O  O112  1  0.449200  0.088000  0.273000  1.0  -0.5611
  O  O113  1  0.392400  0.393800  0.550500  1.0  -0.2289
  O  O114  1  0.612200  0.696100  0.631900  1.0  -0.5633
  O  O115  1  0.587200  0.539600  0.634500  1.0  -0.5645
  O  O116  1  0.804500  0.902300  0.821400  1.0  -0.5426
  O  O117  1  0.874400  0.891200  0.963800  1.0  -0.5854
  O  O118  1  0.517200  0.294400  0.995600  1.0  -0.5121
  O  O119  1  0.627900  0.270200  0.116200  1.0  -0.5507
  O  O120  1  0.041600  0.537900  0.186700  1.0  -0.5002
  O  O121  1  0.949200  0.412000  0.227000  1.0  -0.5634
  O  O122  1  0.892400  0.106200  0.949500  1.0  -0.2277
