# generated using pymatgen
data_Li5H58(C14N3)3
_symmetry_space_group_name_H-M   'P 1'
_cell_length_a   11.20490000
_cell_length_b   16.72600000
_cell_length_c   17.15200000
_cell_angle_alpha   64.59200000
_cell_angle_beta   80.09500000
_cell_angle_gamma   85.22500000
_symmetry_Int_Tables_number   1
_chemical_formula_structural   Li5H58(C14N3)3
_chemical_formula_sum   'Li10 H116 C84 N18'
_cell_volume   2860.14735201
_cell_formula_units_Z   2
loop_
 _symmetry_equiv_pos_site_id
 _symmetry_equiv_pos_as_xyz
  1  'x, y, z'
loop_
 _atom_site_type_symbol
 _atom_site_label
 _atom_site_symmetry_multiplicity
 _atom_site_fract_x
 _atom_site_fract_y
 _atom_site_fract_z
 _atom_site_occupancy
 _atom_site_charge
  Li  Li1  1  0.675800  0.622700  0.884700  1.0  0.8176
  Li  Li2  1  0.894500  0.661600  0.857200  1.0  0.8052
  Li  Li3  1  0.966500  0.645400  0.714200  1.0  0.8425
  Li  Li4  1  0.960600  0.807500  0.602300  1.0  0.8484
  Li  Li5  1  0.048600  0.599900  0.592700  1.0  0.8343
  Li  Li6  1  0.324200  0.377300  0.115300  1.0  0.8182
  Li  Li7  1  0.105500  0.338400  0.142800  1.0  0.8048
  Li  Li8  1  0.033500  0.354600  0.285800  1.0  0.8416
  Li  Li9  1  0.039400  0.192500  0.397700  1.0  0.8488
  Li  Li10  1  0.951400  0.400100  0.407300  1.0  0.8324
  H  H11  1  0.448900  0.714900  0.874300  1.0  0.0928
  H  H12  1  0.449100  0.667900  0.810200  1.0  0.0895
  H  H13  1  0.341300  0.649900  0.890000  1.0  0.0751
  H  H14  1  0.486900  0.628400  0.022400  1.0  0.0836
  H  H15  1  0.377500  0.565000  0.037300  1.0  0.0462
  H  H16  1  0.378200  0.494100  0.940100  1.0  0.0523
  H  H17  1  0.488000  0.510800  0.861600  1.0  0.0706
  H  H18  1  0.101900  0.710000  0.903800  1.0  0.0907
  H  H19  1  0.990000  0.711000  0.975300  1.0  0.0983
  H  H20  1  0.110100  0.655500  0.005500  1.0  0.0802
  H  H21  1  0.152300  0.572600  0.885300  1.0  0.0703
  H  H22  1  0.163100  0.528500  0.987200  1.0  0.0422
  H  H23  1  0.988600  0.533100  0.092000  1.0  0.055
  H  H24  1  0.866000  0.580800  0.057800  1.0  0.0702
  H  H25  1  0.738900  0.887000  0.594900  1.0  0.0852
  H  H26  1  0.733400  0.973900  0.505800  1.0  0.0795
  H  H27  1  0.770800  0.880500  0.503200  1.0  0.091
  H  H28  1  0.863700  0.049300  0.543900  1.0  0.0503
  H  H29  1  0.877600  0.965700  0.634100  1.0  0.0741
  H  H30  1  0.955700  0.941200  0.407800  1.0  0.0589
  H  H31  1  0.911000  0.034600  0.407900  1.0  0.0517
  H  H32  1  0.269400  0.525900  0.547200  1.0  0.0999
  H  H33  1  0.274600  0.522500  0.454800  1.0  0.0796
  H  H34  1  0.252900  0.614900  0.462200  1.0  0.0917
  H  H35  1  0.067900  0.639600  0.398700  1.0  0.0632
  H  H36  1  0.093500  0.548200  0.389500  1.0  0.0466
  H  H37  1  0.121900  0.413100  0.515500  1.0  0.0495
  H  H38  1  0.114700  0.414700  0.609000  1.0  0.0677
  H  H39  1  0.760000  0.695000  0.960000  1.0  0.3486
  H  H40  1  0.762300  0.841900  0.956700  1.0  0.1023
  H  H41  1  0.705700  0.989300  0.888200  1.0  0.093
  H  H42  1  0.617200  0.041900  0.761100  1.0  0.1067
  H  H43  1  0.589700  0.944500  0.702600  1.0  0.0903
  H  H44  1  0.646800  0.798000  0.767700  1.0  0.0896
  H  H45  1  0.848000  0.524000  0.848000  1.0  0.3424
  H  H46  1  0.698200  0.700800  0.709900  1.0  0.094
  H  H47  1  0.565600  0.691500  0.624100  1.0  0.0932
  H  H48  1  0.524300  0.556200  0.627700  1.0  0.1053
  H  H49  1  0.619100  0.429000  0.717600  1.0  0.0919
  H  H50  1  0.754600  0.435400  0.802700  1.0  0.1082
  H  H51  1  0.903000  0.785000  0.746000  1.0  0.3357
  H  H52  1  0.965700  0.882700  0.792900  1.0  0.0963
  H  H53  1  0.129300  0.952200  0.802800  1.0  0.0935
  H  H54  1  0.324800  0.920100  0.756500  1.0  0.1015
  H  H55  1  0.360000  0.818100  0.695000  1.0  0.0943
  H  H56  1  0.197400  0.746500  0.684700  1.0  0.0982
  H  H57  1  0.854000  0.694000  0.582000  1.0  0.3313
  H  H58  1  0.825900  0.759500  0.434100  1.0  0.1138
  H  H59  1  0.913100  0.836800  0.290300  1.0  0.0885
  H  H60  1  0.115600  0.876800  0.254400  1.0  0.1035
  H  H61  1  0.233600  0.836200  0.364000  1.0  0.087
  H  H62  1  0.151700  0.756600  0.509800  1.0  0.1077
  H  H63  1  0.183000  0.611000  0.683000  1.0  0.2708
  H  H64  1  0.328700  0.511600  0.754100  1.0  0.0923
  H  H65  1  0.385900  0.367200  0.832000  1.0  0.0933
  H  H66  1  0.254400  0.253000  0.869200  1.0  0.1091
  H  H67  1  0.061100  0.285000  0.827300  1.0  0.093
  H  H68  1  0.000700  0.429600  0.751500  1.0  0.095
  H  H69  1  0.551100  0.285100  0.125700  1.0  0.0926
  H  H70  1  0.550900  0.332100  0.189800  1.0  0.0892
  H  H71  1  0.658700  0.350100  0.110000  1.0  0.0744
  H  H72  1  0.513100  0.371600  0.977600  1.0  0.083
  H  H73  1  0.622500  0.435000  0.962700  1.0  0.0438
  H  H74  1  0.621800  0.505900  0.059900  1.0  0.0593
  H  H75  1  0.512000  0.489200  0.138400  1.0  0.0694
  H  H76  1  0.898100  0.290000  0.096200  1.0  0.0877
  H  H77  1  0.010000  0.289000  0.024700  1.0  0.0984
  H  H78  1  0.889900  0.344500  0.994500  1.0  0.0922
  H  H79  1  0.847700  0.427400  0.114700  1.0  0.0705
  H  H80  1  0.836900  0.471500  0.012800  1.0  0.0416
  H  H81  1  0.011400  0.466900  0.908000  1.0  0.0561
  H  H82  1  0.134000  0.419200  0.942200  1.0  0.0697
  H  H83  1  0.261100  0.113000  0.405100  1.0  0.0849
  H  H84  1  0.266600  0.026100  0.494200  1.0  0.0785
  H  H85  1  0.229200  0.119500  0.496800  1.0  0.0944
  H  H86  1  0.136300  0.950700  0.456100  1.0  0.0496
  H  H87  1  0.122400  0.034300  0.365900  1.0  0.0749
  H  H88  1  0.044300  0.058800  0.592200  1.0  0.0594
  H  H89  1  0.089000  0.965400  0.592100  1.0  0.0517
  H  H90  1  0.730600  0.474100  0.452800  1.0  0.1007
  H  H91  1  0.725400  0.477500  0.545200  1.0  0.0795
  H  H92  1  0.747100  0.385100  0.537800  1.0  0.089
  H  H93  1  0.932100  0.360400  0.601300  1.0  0.0619
  H  H94  1  0.906500  0.451800  0.610500  1.0  0.0463
  H  H95  1  0.878100  0.586900  0.484500  1.0  0.0506
  H  H96  1  0.885300  0.585300  0.391000  1.0  0.0699
  H  H97  1  0.240000  0.305000  0.040000  1.0  0.3478
  H  H98  1  0.237700  0.158100  0.043300  1.0  0.1034
  H  H99  1  0.294300  0.010700  0.111800  1.0  0.0915
  H  H100  1  0.382800  0.958100  0.238900  1.0  0.1108
  H  H101  1  0.410300  0.055500  0.297400  1.0  0.0882
  H  H102  1  0.353200  0.202000  0.232300  1.0  0.0901
  H  H103  1  0.152000  0.476000  0.152000  1.0  0.3424
  H  H104  1  0.301800  0.299200  0.290100  1.0  0.0932
  H  H105  1  0.434400  0.308500  0.375900  1.0  0.0938
  H  H106  1  0.475700  0.443800  0.372300  1.0  0.1058
  H  H107  1  0.380900  0.571000  0.282400  1.0  0.092
  H  H108  1  0.245400  0.564600  0.197300  1.0  0.1088
  H  H109  1  0.097000  0.215000  0.254000  1.0  0.3354
  H  H110  1  0.034300  0.117300  0.207100  1.0  0.0977
  H  H111  1  0.870700  0.047800  0.197200  1.0  0.093
  H  H112  1  0.675200  0.079900  0.243500  1.0  0.1018
  H  H113  1  0.640000  0.181900  0.305000  1.0  0.0939
  H  H114  1  0.802600  0.253500  0.315300  1.0  0.0983
  H  H115  1  0.146000  0.306000  0.418000  1.0  0.3272
  H  H116  1  0.174100  0.240500  0.565900  1.0  0.1138
  H  H117  1  0.086900  0.163200  0.709700  1.0  0.0894
  H  H118  1  0.884400  0.123200  0.745600  1.0  0.103
  H  H119  1  0.766400  0.163800  0.636000  1.0  0.0865
  H  H120  1  0.848300  0.243400  0.490200  1.0  0.1072
  H  H121  1  0.817000  0.389000  0.317000  1.0  0.2883
  H  H122  1  0.671300  0.488400  0.245900  1.0  0.0929
  H  H123  1  0.614100  0.632800  0.168000  1.0  0.0979
  H  H124  1  0.745600  0.747000  0.130800  1.0  0.1071
  H  H125  1  0.938900  0.715000  0.172700  1.0  0.0925
  H  H126  1  0.999300  0.570400  0.248500  1.0  0.0951
  C  C127  1  0.428300  0.660800  0.870700  1.0  -0.1361
  C  C128  1  0.465800  0.574200  0.018300  1.0  0.0017
  C  C129  1  0.466500  0.504300  0.922500  1.0  0.0287
  C  C130  1  0.056100  0.674900  0.961300  1.0  -0.1332
  C  C131  1  0.107000  0.540500  0.944700  1.0  0.0101
  C  C132  1  0.936500  0.545200  0.046900  1.0  0.009
  C  C133  1  0.776100  0.917600  0.533700  1.0  -0.1349
  C  C134  1  0.912000  0.995000  0.571500  1.0  0.0122
  C  C135  1  0.958600  0.980400  0.437300  1.0  0.015
  C  C136  1  0.236400  0.551400  0.492100  1.0  -0.1223
  C  C137  1  0.053200  0.575100  0.428700  1.0  0.0179
  C  C138  1  0.081200  0.441400  0.553400  1.0  0.0035
  C  C139  1  0.711100  0.799500  0.871700  1.0  0.4116
  C  C140  1  0.727200  0.861300  0.904900  1.0  -0.2495
  C  C141  1  0.693000  0.949800  0.863900  1.0  -0.0431
  C  C142  1  0.641000  0.981500  0.788400  1.0  -0.1963
  C  C143  1  0.625000  0.923900  0.754500  1.0  -0.0341
  C  C144  1  0.659000  0.835900  0.794000  1.0  -0.2939
  C  C145  1  0.742900  0.568900  0.766800  1.0  0.3374
  C  C146  1  0.683400  0.644700  0.711900  1.0  -0.265
  C  C147  1  0.603800  0.639200  0.660800  1.0  -0.0392
  C  C148  1  0.579300  0.559600  0.662600  1.0  -0.1872
  C  C149  1  0.635800  0.484600  0.715800  1.0  -0.0456
  C  C150  1  0.716500  0.488300  0.766900  1.0  -0.2417
  C  C151  1  0.062500  0.806000  0.737500  1.0  0.4099
  C  C152  1  0.045500  0.868500  0.772800  1.0  -0.2423
  C  C153  1  0.143300  0.910000  0.778800  1.0  -0.0508
  C  C154  1  0.258800  0.891500  0.751200  1.0  -0.1698
  C  C155  1  0.279600  0.830800  0.715300  1.0  -0.0702
  C  C156  1  0.182100  0.788500  0.709000  1.0  -0.2656
  C  C157  1  0.979400  0.748600  0.489900  1.0  0.3674
  C  C158  1  0.909300  0.774400  0.421000  1.0  -0.2427
  C  C159  1  0.961300  0.820700  0.335400  1.0  -0.0795
  C  C160  1  0.081400  0.844300  0.313700  1.0  -0.1853
  C  C161  1  0.150600  0.820300  0.378600  1.0  -0.0267
  C  C162  1  0.101400  0.772800  0.465900  1.0  -0.321
  C  C163  1  0.156900  0.488700  0.743700  1.0  0.4296
  C  C164  1  0.272700  0.465800  0.769300  1.0  -0.2663
  C  C165  1  0.307400  0.379800  0.815400  1.0  -0.0653
  C  C166  1  0.230300  0.312600  0.837300  1.0  -0.1948
  C  C167  1  0.115300  0.331800  0.812600  1.0  -0.0632
  C  C168  1  0.079700  0.417900  0.767300  1.0  -0.2738
  C  C169  1  0.571700  0.339200  0.129300  1.0  -0.1374
  C  C170  1  0.534200  0.425800  0.981700  1.0  0.0017
  C  C171  1  0.533500  0.495700  0.077500  1.0  0.0252
  C  C172  1  0.943900  0.325100  0.038700  1.0  -0.1327
  C  C173  1  0.893000  0.459500  0.055300  1.0  0.0085
  C  C174  1  0.063500  0.454800  0.953100  1.0  0.0108
  C  C175  1  0.223900  0.082400  0.466300  1.0  -0.1233
  C  C176  1  0.088000  0.005000  0.428500  1.0  0.0123
  C  C177  1  0.041400  0.019600  0.562700  1.0  0.0133
  C  C178  1  0.763600  0.448600  0.507900  1.0  -0.1251
  C  C179  1  0.946800  0.424900  0.571300  1.0  0.0185
  C  C180  1  0.918800  0.558600  0.446600  1.0  0.0034
  C  C181  1  0.288900  0.200500  0.128300  1.0  0.4127
  C  C182  1  0.272800  0.138700  0.095100  1.0  -0.2552
  C  C183  1  0.307000  0.050200  0.136100  1.0  -0.045
  C  C184  1  0.359000  0.018500  0.211600  1.0  -0.1951
  C  C185  1  0.375000  0.076100  0.245500  1.0  -0.0341
  C  C186  1  0.341000  0.164100  0.206000  1.0  -0.2937
  C  C187  1  0.257100  0.431100  0.233200  1.0  0.3476
  C  C188  1  0.316600  0.355300  0.288100  1.0  -0.2512
  C  C189  1  0.396200  0.360800  0.339200  1.0  -0.0389
  C  C190  1  0.420700  0.440400  0.337400  1.0  -0.1839
  C  C191  1  0.364200  0.515400  0.284200  1.0  -0.0445
  C  C192  1  0.283500  0.511700  0.233100  1.0  -0.2444
  C  C193  1  0.937500  0.194000  0.262500  1.0  0.4084
  C  C194  1  0.954500  0.131500  0.227200  1.0  -0.2429
  C  C195  1  0.856700  0.090000  0.221200  1.0  -0.0827
  C  C196  1  0.741200  0.108500  0.248800  1.0  -0.1718
  C  C197  1  0.720400  0.169200  0.284700  1.0  -0.0721
  C  C198  1  0.817900  0.211500  0.291000  1.0  -0.2701
  C  C199  1  0.020600  0.251400  0.510100  1.0  0.3684
  C  C200  1  0.090700  0.225600  0.579000  1.0  -0.223
  C  C201  1  0.038700  0.179300  0.664600  1.0  -0.0537
  C  C202  1  0.918600  0.155700  0.686300  1.0  -0.1817
  C  C203  1  0.849400  0.179700  0.621400  1.0  -0.0236
  C  C204  1  0.898600  0.227200  0.534100  1.0  -0.3221
  C  C205  1  0.843100  0.511300  0.256300  1.0  0.43
  C  C206  1  0.727300  0.534200  0.230700  1.0  -0.2669
  C  C207  1  0.692600  0.620200  0.184600  1.0  -0.0473
  C  C208  1  0.769700  0.687400  0.162700  1.0  -0.1925
  C  C209  1  0.884700  0.668200  0.187400  1.0  -0.0576
  C  C210  1  0.920300  0.582100  0.232700  1.0  -0.2723
  N  N211  1  0.496800  0.585500  0.927100  1.0  -0.4324
  N  N212  1  0.005300  0.596500  0.960260  1.0  -0.3919
  N  N213  1  0.903300  0.934810  0.529780  1.0  -0.4476
  N  N214  1  0.105100  0.537500  0.510000  1.0  -0.4327
  N  N215  1  0.741700  0.711200  0.909300  1.0  -1.0421
  N  N216  1  0.820100  0.576800  0.818300  1.0  -1.2293
  N  N217  1  0.967500  0.761300  0.731530  1.0  -1.2668
  N  N218  1  0.933300  0.702800  0.577300  1.0  -1.2381
  N  N219  1  0.119500  0.574400  0.697400  1.0  -1.1736
  N  N220  1  0.503200  0.414500  0.072900  1.0  -0.4314
  N  N221  1  0.994700  0.403500  0.039740  1.0  -0.3923
  N  N222  1  0.096700  0.065190  0.470220  1.0  -0.4464
  N  N223  1  0.894900  0.462500  0.490000  1.0  -0.4329
  N  N224  1  0.258300  0.288800  0.090700  1.0  -1.1
  N  N225  1  0.179900  0.423200  0.181700  1.0  -1.2317
  N  N226  1  0.032500  0.238700  0.268470  1.0  -1.2643
  N  N227  1  0.066700  0.297200  0.422700  1.0  -1.2408
  N  N228  1  0.880500  0.425600  0.302600  1.0  -1.1739
