# generated using pymatgen
data_Zn3H38C60(N3O7)2
_symmetry_space_group_name_H-M   'P 1'
_cell_length_a   28.65400000
_cell_length_b   15.03320000
_cell_length_c   16.58990000
_cell_angle_alpha   90.00000000
_cell_angle_beta   119.90400000
_cell_angle_gamma   90.00000000
_symmetry_Int_Tables_number   1
_chemical_formula_structural   Zn3H38C60(N3O7)2
_chemical_formula_sum   'Zn12 H152 C240 N24 O56'
_cell_volume   6194.84434364
_cell_formula_units_Z   4
loop_
 _symmetry_equiv_pos_site_id
 _symmetry_equiv_pos_as_xyz
  1  'x, y, z'
loop_
 _atom_site_type_symbol
 _atom_site_label
 _atom_site_symmetry_multiplicity
 _atom_site_fract_x
 _atom_site_fract_y
 _atom_site_fract_z
 _atom_site_occupancy
 _atom_site_charge
  Zn  Zn1  1  0.361240  0.197660  0.687240  1.0  0.8331
  Zn  Zn2  1  0.861240  0.697660  0.687240  1.0  0.8331
  Zn  Zn3  1  0.638760  0.197660  0.812760  1.0  0.8337
  Zn  Zn4  1  0.138760  0.697660  0.812760  1.0  0.8337
  Zn  Zn5  1  0.638760  0.802340  0.312760  1.0  0.8338
  Zn  Zn6  1  0.138760  0.302340  0.312760  1.0  0.8338
  Zn  Zn7  1  0.361240  0.802340  0.187240  1.0  0.8334
  Zn  Zn8  1  0.861240  0.302340  0.187240  1.0  0.8334
  Zn  Zn9  1  0.500000  0.286060  0.250000  1.0  0.8772
  Zn  Zn10  1  0.000000  0.786060  0.250000  1.0  0.8772
  Zn  Zn11  1  0.500000  0.713940  0.750000  1.0  0.8771
  Zn  Zn12  1  0.000000  0.213940  0.750000  1.0  0.8771
  H  H13  1  0.350900  0.160500  0.209900  1.0  0.0938
  H  H14  1  0.280400  0.115500  0.231200  1.0  0.0956
  H  H15  1  0.440300  0.205700  0.480700  1.0  0.1044
  H  H16  1  0.293000  0.929800  0.372400  1.0  0.1007
  H  H17  1  0.235100  0.827800  0.270800  1.0  0.1103
  H  H18  1  0.144000  0.870800  0.166900  1.0  0.0972
  H  H19  1  0.119100  0.018100  0.158500  1.0  0.1181
  H  H20  1  0.325700  0.009400  0.651800  1.0  0.0826
  H  H21  1  0.250200  0.926600  0.563600  1.0  0.1174
  H  H22  1  0.163300  0.151500  0.487700  1.0  0.1139
  H  H23  1  0.240800  0.229600  0.579400  1.0  0.0805
  H  H24  1  0.162500  0.872400  0.544400  1.0  0.1121
  H  H25  1  0.087100  0.791400  0.444600  1.0  0.065
  H  H26  1  0.043300  0.967700  0.250000  1.0  0.0693
  H  H27  1  0.116400  0.059300  0.344300  1.0  0.1138
  H  H28  1  0.452600  0.069600  0.748400  1.0  0.0697
  H  H29  1  0.509800  0.986300  0.874200  1.0  0.1187
  H  H30  1  0.439300  0.087600  0.009200  1.0  0.1238
  H  H31  1  0.384000  0.169800  0.878400  1.0  0.073
  H  H32  1  0.850900  0.660500  0.209900  1.0  0.0938
  H  H33  1  0.780400  0.615500  0.231200  1.0  0.0956
  H  H34  1  0.940300  0.705700  0.480700  1.0  0.1044
  H  H35  1  0.793000  0.429800  0.372400  1.0  0.1007
  H  H36  1  0.735100  0.327800  0.270800  1.0  0.1103
  H  H37  1  0.644000  0.370800  0.166900  1.0  0.0972
  H  H38  1  0.619100  0.518100  0.158500  1.0  0.1181
  H  H39  1  0.825700  0.509400  0.651800  1.0  0.0826
  H  H40  1  0.750200  0.426600  0.563600  1.0  0.1174
  H  H41  1  0.663300  0.651500  0.487700  1.0  0.1139
  H  H42  1  0.740800  0.729600  0.579400  1.0  0.0805
  H  H43  1  0.662500  0.372400  0.544400  1.0  0.1121
  H  H44  1  0.587100  0.291400  0.444600  1.0  0.065
  H  H45  1  0.543300  0.467700  0.250000  1.0  0.0693
  H  H46  1  0.616400  0.559300  0.344300  1.0  0.1138
  H  H47  1  0.952600  0.569600  0.748400  1.0  0.0697
  H  H48  1  0.009800  0.486300  0.874200  1.0  0.1187
  H  H49  1  0.939300  0.587600  0.009200  1.0  0.1238
  H  H50  1  0.884000  0.669800  0.878400  1.0  0.073
  H  H51  1  0.649100  0.160500  0.290100  1.0  0.0939
  H  H52  1  0.719600  0.115500  0.268800  1.0  0.0957
  H  H53  1  0.559700  0.205700  0.019300  1.0  0.1038
  H  H54  1  0.707000  0.929800  0.127600  1.0  0.1012
  H  H55  1  0.764900  0.827800  0.229200  1.0  0.1111
  H  H56  1  0.856000  0.870800  0.333100  1.0  0.0968
  H  H57  1  0.880900  0.018100  0.341500  1.0  0.1172
  H  H58  1  0.674300  0.009400  0.848200  1.0  0.0829
  H  H59  1  0.749800  0.926600  0.936400  1.0  0.1168
  H  H60  1  0.836700  0.151500  0.012300  1.0  0.1146
  H  H61  1  0.759200  0.229600  0.920600  1.0  0.0807
  H  H62  1  0.837500  0.872400  0.955600  1.0  0.1119
  H  H63  1  0.912900  0.791400  0.055400  1.0  0.0644
  H  H64  1  0.956700  0.967700  0.250000  1.0  0.07
  H  H65  1  0.883600  0.059300  0.155700  1.0  0.1135
  H  H66  1  0.547400  0.069600  0.751600  1.0  0.0699
  H  H67  1  0.490200  0.986300  0.625800  1.0  0.119
  H  H68  1  0.560700  0.087600  0.490800  1.0  0.1244
  H  H69  1  0.616000  0.169800  0.621600  1.0  0.0728
  H  H70  1  0.149100  0.660500  0.290100  1.0  0.0939
  H  H71  1  0.219600  0.615500  0.268800  1.0  0.0957
  H  H72  1  0.059700  0.705700  0.019300  1.0  0.1038
  H  H73  1  0.207000  0.429800  0.127600  1.0  0.1012
  H  H74  1  0.264900  0.327800  0.229200  1.0  0.1111
  H  H75  1  0.356000  0.370800  0.333100  1.0  0.0968
  H  H76  1  0.380900  0.518100  0.341500  1.0  0.1172
  H  H77  1  0.174300  0.509400  0.848200  1.0  0.0829
  H  H78  1  0.249800  0.426600  0.936400  1.0  0.1168
  H  H79  1  0.336700  0.651500  0.012300  1.0  0.1146
  H  H80  1  0.259200  0.729600  0.920600  1.0  0.0807
  H  H81  1  0.337500  0.372400  0.955600  1.0  0.1119
  H  H82  1  0.412900  0.291400  0.055400  1.0  0.0644
  H  H83  1  0.456700  0.467700  0.250000  1.0  0.07
  H  H84  1  0.383600  0.559300  0.155700  1.0  0.1135
  H  H85  1  0.047400  0.569600  0.751600  1.0  0.0699
  H  H86  1  0.990200  0.486300  0.625800  1.0  0.119
  H  H87  1  0.060700  0.587600  0.490800  1.0  0.1244
  H  H88  1  0.116000  0.669800  0.621600  1.0  0.0728
  H  H89  1  0.649100  0.839500  0.790100  1.0  0.094
  H  H90  1  0.719600  0.884500  0.768800  1.0  0.0961
  H  H91  1  0.559700  0.794300  0.519300  1.0  0.1039
  H  H92  1  0.707000  0.070200  0.627600  1.0  0.1014
  H  H93  1  0.764900  0.172200  0.729200  1.0  0.1112
  H  H94  1  0.856000  0.129200  0.833100  1.0  0.096
  H  H95  1  0.880900  0.981900  0.841500  1.0  0.1175
  H  H96  1  0.674300  0.990600  0.348200  1.0  0.0825
  H  H97  1  0.749800  0.073400  0.436400  1.0  0.1153
  H  H98  1  0.836700  0.848500  0.512300  1.0  0.1148
  H  H99  1  0.759200  0.770400  0.420600  1.0  0.0814
  H  H100  1  0.837500  0.127600  0.455600  1.0  0.112
  H  H101  1  0.912900  0.208600  0.555400  1.0  0.0647
  H  H102  1  0.956700  0.032300  0.750000  1.0  0.0691
  H  H103  1  0.883600  0.940700  0.655700  1.0  0.1134
  H  H104  1  0.547400  0.930400  0.251600  1.0  0.0702
  H  H105  1  0.490200  0.013700  0.125800  1.0  0.1193
  H  H106  1  0.560700  0.912400  0.990800  1.0  0.1242
  H  H107  1  0.616000  0.830200  0.121600  1.0  0.0727
  H  H108  1  0.149100  0.339500  0.790100  1.0  0.094
  H  H109  1  0.219600  0.384500  0.768800  1.0  0.0961
  H  H110  1  0.059700  0.294300  0.519300  1.0  0.1039
  H  H111  1  0.207000  0.570200  0.627600  1.0  0.1014
  H  H112  1  0.264900  0.672200  0.729200  1.0  0.1112
  H  H113  1  0.356000  0.629200  0.833100  1.0  0.096
  H  H114  1  0.380900  0.481900  0.841500  1.0  0.1175
  H  H115  1  0.174300  0.490600  0.348200  1.0  0.0825
  H  H116  1  0.249800  0.573400  0.436400  1.0  0.1153
  H  H117  1  0.336700  0.348500  0.512300  1.0  0.1148
  H  H118  1  0.259200  0.270400  0.420600  1.0  0.0814
  H  H119  1  0.337500  0.627600  0.455600  1.0  0.112
  H  H120  1  0.412900  0.708600  0.555400  1.0  0.0647
  H  H121  1  0.456700  0.532300  0.750000  1.0  0.0691
  H  H122  1  0.383600  0.440700  0.655700  1.0  0.1134
  H  H123  1  0.047400  0.430400  0.251600  1.0  0.0702
  H  H124  1  0.990200  0.513700  0.125800  1.0  0.1193
  H  H125  1  0.060700  0.412400  0.990800  1.0  0.1242
  H  H126  1  0.116000  0.330200  0.121600  1.0  0.0727
  H  H127  1  0.350900  0.839500  0.709900  1.0  0.0938
  H  H128  1  0.280400  0.884500  0.731200  1.0  0.0955
  H  H129  1  0.440300  0.794300  0.980700  1.0  0.1044
  H  H130  1  0.293000  0.070200  0.872400  1.0  0.1007
  H  H131  1  0.235100  0.172200  0.770800  1.0  0.1099
  H  H132  1  0.144000  0.129200  0.666900  1.0  0.0972
  H  H133  1  0.119100  0.981900  0.658500  1.0  0.1176
  H  H134  1  0.325700  0.990600  0.151800  1.0  0.0825
  H  H135  1  0.250200  0.073400  0.063600  1.0  0.1157
  H  H136  1  0.163300  0.848500  0.987700  1.0  0.1141
  H  H137  1  0.240800  0.770400  0.079400  1.0  0.0815
  H  H138  1  0.162500  0.127600  0.044400  1.0  0.1119
  H  H139  1  0.087100  0.208600  0.944600  1.0  0.0654
  H  H140  1  0.043300  0.032300  0.750000  1.0  0.0698
  H  H141  1  0.116400  0.940700  0.844300  1.0  0.1132
  H  H142  1  0.452600  0.930400  0.248400  1.0  0.0699
  H  H143  1  0.509800  0.013700  0.374200  1.0  0.1191
  H  H144  1  0.439300  0.912400  0.509200  1.0  0.1237
  H  H145  1  0.384000  0.830200  0.378400  1.0  0.0728
  H  H146  1  0.850900  0.339500  0.709900  1.0  0.0938
  H  H147  1  0.780400  0.384500  0.731200  1.0  0.0955
  H  H148  1  0.940300  0.294300  0.980700  1.0  0.1044
  H  H149  1  0.793000  0.570200  0.872400  1.0  0.1007
  H  H150  1  0.735100  0.672200  0.770800  1.0  0.1099
  H  H151  1  0.644000  0.629200  0.666900  1.0  0.0972
  H  H152  1  0.619100  0.481900  0.658500  1.0  0.1176
  H  H153  1  0.825700  0.490600  0.151800  1.0  0.0825
  H  H154  1  0.750200  0.573400  0.063600  1.0  0.1157
  H  H155  1  0.663300  0.348500  0.987700  1.0  0.1141
  H  H156  1  0.740800  0.270400  0.079400  1.0  0.0815
  H  H157  1  0.662500  0.627600  0.044400  1.0  0.1119
  H  H158  1  0.587100  0.708600  0.944600  1.0  0.0654
  H  H159  1  0.543300  0.532300  0.750000  1.0  0.0698
  H  H160  1  0.616400  0.440700  0.844300  1.0  0.1132
  H  H161  1  0.952600  0.430400  0.248400  1.0  0.0699
  H  H162  1  0.009800  0.513700  0.374200  1.0  0.1191
  H  H163  1  0.939300  0.412400  0.509200  1.0  0.1237
  H  H164  1  0.884000  0.330200  0.378400  1.0  0.0728
  C  C165  1  0.446900  0.219800  0.327100  1.0  0.6638
  C  C166  1  0.403300  0.185500  0.343200  1.0  -0.1185
  C  C167  1  0.355500  0.159100  0.269500  1.0  -0.0285
  C  C168  1  0.313500  0.130200  0.282200  1.0  -0.1824
  C  C169  1  0.321300  0.123500  0.370700  1.0  0.2865
  C  C170  1  0.369200  0.148700  0.446600  1.0  -0.0719
  C  C171  1  0.409000  0.183400  0.430800  1.0  -0.0604
  C  C172  1  0.379000  0.136600  0.544500  1.0  0.7077
  C  C173  1  0.243200  0.035300  0.324000  1.0  0.1998
  C  C174  1  0.258300  0.947000  0.328200  1.0  -0.1705
  C  C175  1  0.223900  0.886100  0.269900  1.0  -0.1458
  C  C176  1  0.169100  0.912900  0.205300  1.0  -0.1202
  C  C177  1  0.154100  0.000600  0.200900  1.0  -0.0572
  C  C178  1  0.191500  0.063400  0.260100  1.0  -0.0899
  C  C179  1  0.176000  0.159200  0.256800  1.0  0.7029
  C  C180  1  0.292700  0.038200  0.618500  1.0  0.1729
  C  C181  1  0.247500  0.988100  0.565400  1.0  -0.1684
  C  C182  1  0.197900  0.029000  0.514600  1.0  0.0842
  C  C183  1  0.196000  0.121600  0.520600  1.0  -0.1757
  C  C184  1  0.242700  0.168100  0.575500  1.0  0.1739
  C  C185  1  0.149200  0.975600  0.453800  1.0  0.0679
  C  C186  1  0.139100  0.893300  0.484700  1.0  -0.1974
  C  C187  1  0.093800  0.844800  0.424100  1.0  0.1551
  C  C188  1  0.067800  0.948800  0.309900  1.0  0.1594
  C  C189  1  0.112300  0.004500  0.366200  1.0  -0.192
  C  C190  1  0.450000  0.073400  0.802000  1.0  0.1605
  C  C191  1  0.484700  0.022800  0.877600  1.0  -0.185
  C  C192  1  0.482100  0.026600  0.958700  1.0  0.0699
  C  C193  1  0.443100  0.082800  0.956900  1.0  -0.173
  C  C194  1  0.409500  0.132300  0.877200  1.0  0.1686
  C  C195  1  0.946900  0.719800  0.327100  1.0  0.6638
  C  C196  1  0.903300  0.685500  0.343200  1.0  -0.1185
  C  C197  1  0.855500  0.659100  0.269500  1.0  -0.0285
  C  C198  1  0.813500  0.630200  0.282200  1.0  -0.1824
  C  C199  1  0.821300  0.623500  0.370700  1.0  0.2865
  C  C200  1  0.869200  0.648700  0.446600  1.0  -0.0719
  C  C201  1  0.909000  0.683400  0.430800  1.0  -0.0604
  C  C202  1  0.879000  0.636600  0.544500  1.0  0.7077
  C  C203  1  0.743200  0.535300  0.324000  1.0  0.1998
  C  C204  1  0.758300  0.447000  0.328200  1.0  -0.1705
  C  C205  1  0.723900  0.386100  0.269900  1.0  -0.1458
  C  C206  1  0.669100  0.412900  0.205300  1.0  -0.1202
  C  C207  1  0.654100  0.500600  0.200900  1.0  -0.0572
  C  C208  1  0.691500  0.563400  0.260100  1.0  -0.0899
  C  C209  1  0.676000  0.659200  0.256800  1.0  0.7029
  C  C210  1  0.792700  0.538200  0.618500  1.0  0.1729
  C  C211  1  0.747500  0.488100  0.565400  1.0  -0.1684
  C  C212  1  0.697900  0.529000  0.514600  1.0  0.0842
  C  C213  1  0.696000  0.621600  0.520600  1.0  -0.1757
  C  C214  1  0.742700  0.668100  0.575500  1.0  0.1739
  C  C215  1  0.649200  0.475600  0.453800  1.0  0.0679
  C  C216  1  0.639100  0.393300  0.484700  1.0  -0.1974
  C  C217  1  0.593800  0.344800  0.424100  1.0  0.1551
  C  C218  1  0.567800  0.448800  0.309900  1.0  0.1594
  C  C219  1  0.612300  0.504500  0.366200  1.0  -0.192
  C  C220  1  0.950000  0.573400  0.802000  1.0  0.1605
  C  C221  1  0.984700  0.522800  0.877600  1.0  -0.185
  C  C222  1  0.982100  0.526600  0.958700  1.0  0.0699
  C  C223  1  0.943100  0.582800  0.956900  1.0  -0.173
  C  C224  1  0.909500  0.632300  0.877200  1.0  0.1686
  C  C225  1  0.553100  0.219800  0.172900  1.0  0.6633
  C  C226  1  0.596700  0.185500  0.156800  1.0  -0.1177
  C  C227  1  0.644500  0.159100  0.230500  1.0  -0.0283
  C  C228  1  0.686500  0.130200  0.217800  1.0  -0.1834
  C  C229  1  0.678700  0.123500  0.129300  1.0  0.2872
  C  C230  1  0.630800  0.148700  0.053400  1.0  -0.0725
  C  C231  1  0.591000  0.183400  0.069200  1.0  -0.0601
  C  C232  1  0.621000  0.136600  0.955500  1.0  0.7074
  C  C233  1  0.756800  0.035300  0.176000  1.0  0.2016
  C  C234  1  0.741700  0.947000  0.171800  1.0  -0.1727
  C  C235  1  0.776100  0.886100  0.230100  1.0  -0.1472
  C  C236  1  0.830900  0.912900  0.294700  1.0  -0.1209
  C  C237  1  0.845900  0.000600  0.299100  1.0  -0.0573
  C  C238  1  0.808500  0.063400  0.239900  1.0  -0.0893
  C  C239  1  0.824000  0.159200  0.243200  1.0  0.7027
  C  C240  1  0.707300  0.038200  0.881500  1.0  0.1735
  C  C241  1  0.752500  0.988100  0.934600  1.0  -0.1668
  C  C242  1  0.802100  0.029000  0.985400  1.0  0.0855
  C  C243  1  0.804000  0.121600  0.979400  1.0  -0.1767
  C  C244  1  0.757300  0.168100  0.924500  1.0  0.174
  C  C245  1  0.850800  0.975600  0.046200  1.0  0.0686
  C  C246  1  0.860900  0.893300  0.015300  1.0  -0.1982
  C  C247  1  0.906200  0.844800  0.075900  1.0  0.1552
  C  C248  1  0.932200  0.948800  0.190100  1.0  0.1591
  C  C249  1  0.887700  0.004500  0.133800  1.0  -0.1919
  C  C250  1  0.550000  0.073400  0.698000  1.0  0.1589
  C  C251  1  0.515300  0.022800  0.622400  1.0  -0.1847
  C  C252  1  0.517900  0.026600  0.541300  1.0  0.0701
  C  C253  1  0.556900  0.082800  0.543100  1.0  -0.1737
  C  C254  1  0.590500  0.132300  0.622800  1.0  0.1694
  C  C255  1  0.053100  0.719800  0.172900  1.0  0.6633
  C  C256  1  0.096700  0.685500  0.156800  1.0  -0.1177
  C  C257  1  0.144500  0.659100  0.230500  1.0  -0.0283
  C  C258  1  0.186500  0.630200  0.217800  1.0  -0.1834
  C  C259  1  0.178700  0.623500  0.129300  1.0  0.2872
  C  C260  1  0.130800  0.648700  0.053400  1.0  -0.0725
  C  C261  1  0.091000  0.683400  0.069200  1.0  -0.0601
  C  C262  1  0.121000  0.636600  0.955500  1.0  0.7074
  C  C263  1  0.256800  0.535300  0.176000  1.0  0.2016
  C  C264  1  0.241700  0.447000  0.171800  1.0  -0.1727
  C  C265  1  0.276100  0.386100  0.230100  1.0  -0.1472
  C  C266  1  0.330900  0.412900  0.294700  1.0  -0.1209
  C  C267  1  0.345900  0.500600  0.299100  1.0  -0.0573
  C  C268  1  0.308500  0.563400  0.239900  1.0  -0.0893
  C  C269  1  0.324000  0.659200  0.243200  1.0  0.7027
  C  C270  1  0.207300  0.538200  0.881500  1.0  0.1735
  C  C271  1  0.252500  0.488100  0.934600  1.0  -0.1668
  C  C272  1  0.302100  0.529000  0.985400  1.0  0.0855
  C  C273  1  0.304000  0.621600  0.979400  1.0  -0.1767
  C  C274  1  0.257300  0.668100  0.924500  1.0  0.174
  C  C275  1  0.350800  0.475600  0.046200  1.0  0.0686
  C  C276  1  0.360900  0.393300  0.015300  1.0  -0.1982
  C  C277  1  0.406200  0.344800  0.075900  1.0  0.1552
  C  C278  1  0.432200  0.448800  0.190100  1.0  0.1591
  C  C279  1  0.387700  0.504500  0.133800  1.0  -0.1919
  C  C280  1  0.050000  0.573400  0.698000  1.0  0.1589
  C  C281  1  0.015300  0.522800  0.622400  1.0  -0.1847
  C  C282  1  0.017900  0.526600  0.541300  1.0  0.0701
  C  C283  1  0.056900  0.582800  0.543100  1.0  -0.1737
  C  C284  1  0.090500  0.632300  0.622800  1.0  0.1694
  C  C285  1  0.553100  0.780200  0.672900  1.0  0.6637
  C  C286  1  0.596700  0.814500  0.656800  1.0  -0.118
  C  C287  1  0.644500  0.840900  0.730500  1.0  -0.0282
  C  C288  1  0.686500  0.869800  0.717800  1.0  -0.1838
  C  C289  1  0.678700  0.876500  0.629300  1.0  0.2874
  C  C290  1  0.630800  0.851300  0.553400  1.0  -0.0723
  C  C291  1  0.591000  0.816600  0.569200  1.0  -0.0608
  C  C292  1  0.621000  0.863400  0.455500  1.0  0.7075
  C  C293  1  0.756800  0.964700  0.676000  1.0  0.2015
  C  C294  1  0.741700  0.053000  0.671800  1.0  -0.1736
  C  C295  1  0.776100  0.113900  0.730100  1.0  -0.1458
  C  C296  1  0.830900  0.087100  0.794700  1.0  -0.1203
  C  C297  1  0.845900  0.999400  0.799100  1.0  -0.0577
  C  C298  1  0.808500  0.936600  0.739900  1.0  -0.0891
  C  C299  1  0.824000  0.840800  0.743200  1.0  0.7034
  C  C300  1  0.707300  0.961800  0.381500  1.0  0.1734
  C  C301  1  0.752500  0.011900  0.434600  1.0  -0.1689
  C  C302  1  0.802100  0.971000  0.485400  1.0  0.085
  C  C303  1  0.804000  0.878400  0.479400  1.0  -0.1772
  C  C304  1  0.757300  0.831900  0.424500  1.0  0.1744
  C  C305  1  0.850800  0.024400  0.546200  1.0  0.0685
  C  C306  1  0.860900  0.106700  0.515300  1.0  -0.1987
  C  C307  1  0.906200  0.155200  0.575900  1.0  0.1552
  C  C308  1  0.932200  0.051200  0.690100  1.0  0.1596
  C  C309  1  0.887700  0.995500  0.633800  1.0  -0.1921
  C  C310  1  0.550000  0.926600  0.198000  1.0  0.1594
  C  C311  1  0.515300  0.977200  0.122400  1.0  -0.1851
  C  C312  1  0.517900  0.973400  0.041300  1.0  0.0699
  C  C313  1  0.556900  0.917200  0.043100  1.0  -0.1722
  C  C314  1  0.590500  0.867700  0.122800  1.0  0.1693
  C  C315  1  0.053100  0.280200  0.672900  1.0  0.6637
  C  C316  1  0.096700  0.314500  0.656800  1.0  -0.118
  C  C317  1  0.144500  0.340900  0.730500  1.0  -0.0282
  C  C318  1  0.186500  0.369800  0.717800  1.0  -0.1838
  C  C319  1  0.178700  0.376500  0.629300  1.0  0.2874
  C  C320  1  0.130800  0.351300  0.553400  1.0  -0.0723
  C  C321  1  0.091000  0.316600  0.569200  1.0  -0.0608
  C  C322  1  0.121000  0.363400  0.455500  1.0  0.7075
  C  C323  1  0.256800  0.464700  0.676000  1.0  0.2015
  C  C324  1  0.241700  0.553000  0.671800  1.0  -0.1736
  C  C325  1  0.276100  0.613900  0.730100  1.0  -0.1458
  C  C326  1  0.330900  0.587100  0.794700  1.0  -0.1203
  C  C327  1  0.345900  0.499400  0.799100  1.0  -0.0577
  C  C328  1  0.308500  0.436600  0.739900  1.0  -0.0891
  C  C329  1  0.324000  0.340800  0.743200  1.0  0.7034
  C  C330  1  0.207300  0.461800  0.381500  1.0  0.1734
  C  C331  1  0.252500  0.511900  0.434600  1.0  -0.1689
  C  C332  1  0.302100  0.471000  0.485400  1.0  0.085
  C  C333  1  0.304000  0.378400  0.479400  1.0  -0.1772
  C  C334  1  0.257300  0.331900  0.424500  1.0  0.1744
  C  C335  1  0.350800  0.524400  0.546200  1.0  0.0685
  C  C336  1  0.360900  0.606700  0.515300  1.0  -0.1987
  C  C337  1  0.406200  0.655200  0.575900  1.0  0.1552
  C  C338  1  0.432200  0.551200  0.690100  1.0  0.1596
  C  C339  1  0.387700  0.495500  0.633800  1.0  -0.1921
  C  C340  1  0.050000  0.426600  0.198000  1.0  0.1594
  C  C341  1  0.015300  0.477200  0.122400  1.0  -0.1851
  C  C342  1  0.017900  0.473400  0.041300  1.0  0.0699
  C  C343  1  0.056900  0.417200  0.043100  1.0  -0.1722
  C  C344  1  0.090500  0.367700  0.122800  1.0  0.1693
  C  C345  1  0.446900  0.780200  0.827100  1.0  0.664
  C  C346  1  0.403300  0.814500  0.843200  1.0  -0.1186
  C  C347  1  0.355500  0.840900  0.769500  1.0  -0.0277
  C  C348  1  0.313500  0.869800  0.782200  1.0  -0.1827
  C  C349  1  0.321300  0.876500  0.870700  1.0  0.2865
  C  C350  1  0.369200  0.851300  0.946600  1.0  -0.0717
  C  C351  1  0.409000  0.816600  0.930800  1.0  -0.0605
  C  C352  1  0.379000  0.863400  0.044500  1.0  0.708
  C  C353  1  0.243200  0.964700  0.824000  1.0  0.2001
  C  C354  1  0.258300  0.053000  0.828200  1.0  -0.1705
  C  C355  1  0.223900  0.113900  0.769900  1.0  -0.1438
  C  C356  1  0.169100  0.087100  0.705300  1.0  -0.1196
  C  C357  1  0.154100  0.999400  0.700900  1.0  -0.0572
  C  C358  1  0.191500  0.936600  0.760100  1.0  -0.0899
  C  C359  1  0.176000  0.840800  0.756800  1.0  0.703
  C  C360  1  0.292700  0.961800  0.118500  1.0  0.1731
  C  C361  1  0.247500  0.011900  0.065400  1.0  -0.1692
  C  C362  1  0.197900  0.971000  0.014600  1.0  0.0841
  C  C363  1  0.196000  0.878400  0.020600  1.0  -0.1765
  C  C364  1  0.242700  0.831900  0.075500  1.0  0.1743
  C  C365  1  0.149200  0.024400  0.953800  1.0  0.0676
  C  C366  1  0.139100  0.106700  0.984700  1.0  -0.1986
  C  C367  1  0.093800  0.155200  0.924100  1.0  0.1538
  C  C368  1  0.067800  0.051200  0.809900  1.0  0.159
  C  C369  1  0.112300  0.995500  0.866200  1.0  -0.1922
  C  C370  1  0.450000  0.926600  0.302000  1.0  0.161
  C  C371  1  0.484700  0.977200  0.377600  1.0  -0.1859
  C  C372  1  0.482100  0.973400  0.458700  1.0  0.0694
  C  C373  1  0.443100  0.917200  0.456900  1.0  -0.1743
  C  C374  1  0.409500  0.867700  0.377200  1.0  0.1701
  C  C375  1  0.946900  0.280200  0.827100  1.0  0.664
  C  C376  1  0.903300  0.314500  0.843200  1.0  -0.1186
  C  C377  1  0.855500  0.340900  0.769500  1.0  -0.0277
  C  C378  1  0.813500  0.369800  0.782200  1.0  -0.1827
  C  C379  1  0.821300  0.376500  0.870700  1.0  0.2865
  C  C380  1  0.869200  0.351300  0.946600  1.0  -0.0717
  C  C381  1  0.909000  0.316600  0.930800  1.0  -0.0605
  C  C382  1  0.879000  0.363400  0.044500  1.0  0.708
  C  C383  1  0.743200  0.464700  0.824000  1.0  0.2001
  C  C384  1  0.758300  0.553000  0.828200  1.0  -0.1705
  C  C385  1  0.723900  0.613900  0.769900  1.0  -0.1438
  C  C386  1  0.669100  0.587100  0.705300  1.0  -0.1196
  C  C387  1  0.654100  0.499400  0.700900  1.0  -0.0572
  C  C388  1  0.691500  0.436600  0.760100  1.0  -0.0899
  C  C389  1  0.676000  0.340800  0.756800  1.0  0.703
  C  C390  1  0.792700  0.461800  0.118500  1.0  0.1731
  C  C391  1  0.747500  0.511900  0.065400  1.0  -0.1692
  C  C392  1  0.697900  0.471000  0.014600  1.0  0.0841
  C  C393  1  0.696000  0.378400  0.020600  1.0  -0.1765
  C  C394  1  0.742700  0.331900  0.075500  1.0  0.1743
  C  C395  1  0.649200  0.524400  0.953800  1.0  0.0676
  C  C396  1  0.639100  0.606700  0.984700  1.0  -0.1986
  C  C397  1  0.593800  0.655200  0.924100  1.0  0.1538
  C  C398  1  0.567800  0.551200  0.809900  1.0  0.159
  C  C399  1  0.612300  0.495500  0.866200  1.0  -0.1922
  C  C400  1  0.950000  0.426600  0.302000  1.0  0.161
  C  C401  1  0.984700  0.477200  0.377600  1.0  -0.1859
  C  C402  1  0.982100  0.473400  0.458700  1.0  0.0694
  C  C403  1  0.943100  0.417200  0.456900  1.0  -0.1743
  C  C404  1  0.909500  0.367700  0.377200  1.0  0.1701
  N  N405  1  0.291340  0.127900  0.624200  1.0  -0.3561
  N  N406  1  0.412500  0.127800  0.800800  1.0  -0.3191
  N  N407  1  0.059580  0.871400  0.338100  1.0  -0.3182
  N  N408  1  0.791340  0.627900  0.624200  1.0  -0.3561
  N  N409  1  0.912500  0.627800  0.800800  1.0  -0.3191
  N  N410  1  0.559580  0.371400  0.338100  1.0  -0.3182
  N  N411  1  0.708660  0.127900  0.875800  1.0  -0.3554
  N  N412  1  0.587500  0.127800  0.699200  1.0  -0.3206
  N  N413  1  0.940420  0.871400  0.161900  1.0  -0.3169
  N  N414  1  0.208660  0.627900  0.875800  1.0  -0.3554
  N  N415  1  0.087500  0.627800  0.699200  1.0  -0.3206
  N  N416  1  0.440420  0.371400  0.161900  1.0  -0.3169
  N  N417  1  0.708660  0.872100  0.375800  1.0  -0.3561
  N  N418  1  0.587500  0.872200  0.199200  1.0  -0.3205
  N  N419  1  0.940420  0.128600  0.661900  1.0  -0.3167
  N  N420  1  0.208660  0.372100  0.375800  1.0  -0.3561
  N  N421  1  0.087500  0.372200  0.199200  1.0  -0.3205
  N  N422  1  0.440420  0.628600  0.661900  1.0  -0.3167
  N  N423  1  0.291340  0.872100  0.124200  1.0  -0.3559
  N  N424  1  0.412500  0.872200  0.300800  1.0  -0.3214
  N  N425  1  0.059580  0.128600  0.838100  1.0  -0.3183
  N  N426  1  0.791340  0.372100  0.124200  1.0  -0.3559
  N  N427  1  0.912500  0.372200  0.300800  1.0  -0.3214
  N  N428  1  0.559580  0.628600  0.838100  1.0  -0.3183
  O  O429  1  0.481700  0.272000  0.384300  1.0  -0.609
  O  O430  1  0.447200  0.200100  0.255300  1.0  -0.5796
  O  O431  1  0.151300  0.178800  0.299600  1.0  -0.5922
  O  O432  1  0.187100  0.214900  0.213800  1.0  -0.5588
  O  O433  1  0.280330  0.097000  0.387700  1.0  -0.2682
  O  O434  1  0.380200  0.207900  0.588000  1.0  -0.6087
  O  O435  1  0.384500  0.061600  0.578100  1.0  -0.5583
  O  O436  1  0.981700  0.772000  0.384300  1.0  -0.6091
  O  O437  1  0.947200  0.700100  0.255300  1.0  -0.5796
  O  O438  1  0.651300  0.678800  0.299600  1.0  -0.5922
  O  O439  1  0.687100  0.714900  0.213800  1.0  -0.5588
  O  O440  1  0.780330  0.597000  0.387700  1.0  -0.2682
  O  O441  1  0.880200  0.707900  0.588000  1.0  -0.6087
  O  O442  1  0.884500  0.561600  0.578100  1.0  -0.5583
  O  O443  1  0.518300  0.272000  0.115700  1.0  -0.6093
  O  O444  1  0.552800  0.200100  0.244700  1.0  -0.578
  O  O445  1  0.848700  0.178800  0.200400  1.0  -0.5922
  O  O446  1  0.812900  0.214900  0.286200  1.0  -0.5587
  O  O447  1  0.719670  0.097000  0.112300  1.0  -0.2666
  O  O448  1  0.619800  0.207900  0.912000  1.0  -0.6093
  O  O449  1  0.615500  0.061600  0.921900  1.0  -0.5591
  O  O450  1  0.018300  0.772000  0.115700  1.0  -0.6095
  O  O451  1  0.052800  0.700100  0.244700  1.0  -0.578
  O  O452  1  0.348700  0.678800  0.200400  1.0  -0.5922
  O  O453  1  0.312900  0.714900  0.286200  1.0  -0.5587
  O  O454  1  0.219670  0.597000  0.112300  1.0  -0.2666
  O  O455  1  0.119800  0.707900  0.912000  1.0  -0.6093
  O  O456  1  0.115500  0.561600  0.921900  1.0  -0.5591
  O  O457  1  0.518300  0.728000  0.615700  1.0  -0.6107
  O  O458  1  0.552800  0.799900  0.744700  1.0  -0.5782
  O  O459  1  0.848700  0.821200  0.700400  1.0  -0.5906
  O  O460  1  0.812900  0.785100  0.786200  1.0  -0.5582
  O  O461  1  0.719670  0.903000  0.612300  1.0  -0.2663
  O  O462  1  0.619800  0.792100  0.412000  1.0  -0.609
  O  O463  1  0.615500  0.938400  0.421900  1.0  -0.5579
  O  O464  1  0.018300  0.228000  0.615700  1.0  -0.6109
  O  O465  1  0.052800  0.299900  0.744700  1.0  -0.5782
  O  O466  1  0.348700  0.321200  0.700400  1.0  -0.5906
  O  O467  1  0.312900  0.285100  0.786200  1.0  -0.5582
  O  O468  1  0.219670  0.403000  0.612300  1.0  -0.2663
  O  O469  1  0.119800  0.292100  0.412000  1.0  -0.609
  O  O470  1  0.115500  0.438400  0.421900  1.0  -0.5579
  O  O471  1  0.481700  0.728000  0.884300  1.0  -0.6088
  O  O472  1  0.447200  0.799900  0.755300  1.0  -0.5792
  O  O473  1  0.151300  0.821200  0.799600  1.0  -0.5906
  O  O474  1  0.187100  0.785100  0.713800  1.0  -0.559
  O  O475  1  0.280330  0.903000  0.887700  1.0  -0.2682
  O  O476  1  0.380200  0.792100  0.088000  1.0  -0.6087
  O  O477  1  0.384500  0.938400  0.078100  1.0  -0.5584
  O  O478  1  0.981700  0.228000  0.884300  1.0  -0.6088
  O  O479  1  0.947200  0.299900  0.755300  1.0  -0.5792
  O  O480  1  0.651300  0.321200  0.799600  1.0  -0.5906
  O  O481  1  0.687100  0.285100  0.713800  1.0  -0.559
  O  O482  1  0.780330  0.403000  0.887700  1.0  -0.2682
  O  O483  1  0.880200  0.292100  0.088000  1.0  -0.6087
  O  O484  1  0.884500  0.438400  0.078100  1.0  -0.5584
