# generated using pymatgen
data_InH4(C3O2)4
_symmetry_space_group_name_H-M   'P 1'
_cell_length_a   29.14530000
_cell_length_b   29.14530000
_cell_length_c   16.99100000
_cell_angle_alpha   90.00000000
_cell_angle_beta   90.00000000
_cell_angle_gamma   120.00000000
_symmetry_Int_Tables_number   1
_chemical_formula_structural   InH4(C3O2)4
_chemical_formula_sum   'In18 H72 C216 O144'
_cell_volume   12499.32704559
_cell_formula_units_Z   18
loop_
 _symmetry_equiv_pos_site_id
 _symmetry_equiv_pos_as_xyz
  1  'x, y, z'
loop_
 _atom_site_type_symbol
 _atom_site_label
 _atom_site_symmetry_multiplicity
 _atom_site_fract_x
 _atom_site_fract_y
 _atom_site_fract_z
 _atom_site_occupancy
 _atom_site_charge
  In  In1  1  0.530980  0.842930  0.386510  1.0  1.4733
  In  In2  1  0.197650  0.176260  0.719850  1.0  1.4737
  In  In3  1  0.864310  0.509600  0.053180  1.0  1.4735
  In  In4  1  0.157070  0.688050  0.386510  1.0  1.4743
  In  In5  1  0.823740  0.021380  0.719850  1.0  1.4746
  In  In6  1  0.490400  0.354720  0.053180  1.0  1.4744
  In  In7  1  0.311950  0.469020  0.386510  1.0  1.4723
  In  In8  1  0.978620  0.802350  0.719850  1.0  1.4726
  In  In9  1  0.645280  0.135690  0.053180  1.0  1.4723
  In  In10  1  0.157070  0.469020  0.886510  1.0  1.473
  In  In11  1  0.823740  0.802350  0.219850  1.0  1.4734
  In  In12  1  0.490400  0.135690  0.553180  1.0  1.4732
  In  In13  1  0.311950  0.842930  0.886510  1.0  1.4734
  In  In14  1  0.978620  0.176260  0.219850  1.0  1.4737
  In  In15  1  0.645280  0.509600  0.553180  1.0  1.4736
  In  In16  1  0.530980  0.688050  0.886510  1.0  1.4741
  In  In17  1  0.197650  0.021380  0.219850  1.0  1.4744
  In  In18  1  0.864310  0.354720  0.553180  1.0  1.4741
  H  H19  1  0.662800  0.737700  0.091300  1.0  0.1265
  H  H20  1  0.665200  0.817900  0.285000  1.0  0.1307
  H  H21  1  0.540700  0.759500  0.137700  1.0  0.1271
  H  H22  1  0.406500  0.654700  0.364600  1.0  0.1321
  H  H23  1  0.329470  0.071030  0.424630  1.0  0.1265
  H  H24  1  0.331870  0.151230  0.618330  1.0  0.1307
  H  H25  1  0.207370  0.092830  0.471030  1.0  0.1271
  H  H26  1  0.073170  0.988030  0.697930  1.0  0.1321
  H  H27  1  0.996130  0.404370  0.757970  1.0  0.1265
  H  H28  1  0.998530  0.484570  0.951670  1.0  0.1307
  H  H29  1  0.874030  0.426170  0.804370  1.0  0.1271
  H  H30  1  0.739830  0.321370  0.031270  1.0  0.1321
  H  H31  1  0.262300  0.925100  0.091300  1.0  0.128
  H  H32  1  0.182100  0.847300  0.285000  1.0  0.1307
  H  H33  1  0.240500  0.781200  0.137700  1.0  0.1266
  H  H34  1  0.345300  0.751800  0.364600  1.0  0.1328
  H  H35  1  0.928970  0.258430  0.424630  1.0  0.128
  H  H36  1  0.848770  0.180630  0.618330  1.0  0.1307
  H  H37  1  0.907170  0.114530  0.471030  1.0  0.1266
  H  H38  1  0.011970  0.085130  0.697930  1.0  0.1328
  H  H39  1  0.595630  0.591770  0.757970  1.0  0.128
  H  H40  1  0.515430  0.513970  0.951670  1.0  0.1307
  H  H41  1  0.573830  0.447870  0.804370  1.0  0.1266
  H  H42  1  0.678630  0.418470  0.031270  1.0  0.1328
  H  H43  1  0.074900  0.337200  0.091300  1.0  0.1274
  H  H44  1  0.152700  0.334800  0.285000  1.0  0.1309
  H  H45  1  0.218800  0.459300  0.137700  1.0  0.1273
  H  H46  1  0.248200  0.593500  0.364600  1.0  0.1316
  H  H47  1  0.741570  0.670530  0.424630  1.0  0.1273
  H  H48  1  0.819370  0.668130  0.618330  1.0  0.1309
  H  H49  1  0.885470  0.792630  0.471030  1.0  0.1273
  H  H50  1  0.914870  0.926830  0.697930  1.0  0.1316
  H  H51  1  0.408230  0.003870  0.757970  1.0  0.1274
  H  H52  1  0.486030  0.001470  0.951670  1.0  0.1309
  H  H53  1  0.552130  0.125970  0.804370  1.0  0.1273
  H  H54  1  0.581530  0.260170  0.031270  1.0  0.1316
  H  H55  1  0.262300  0.337200  0.591300  1.0  0.1268
  H  H56  1  0.182100  0.334800  0.785000  1.0  0.131
  H  H57  1  0.240500  0.459300  0.637700  1.0  0.1275
  H  H58  1  0.345300  0.593500  0.864600  1.0  0.1316
  H  H59  1  0.928970  0.670530  0.924630  1.0  0.1268
  H  H60  1  0.848770  0.668130  0.118330  1.0  0.131
  H  H61  1  0.907170  0.792630  0.971030  1.0  0.1275
  H  H62  1  0.011970  0.926830  0.197930  1.0  0.1316
  H  H63  1  0.595630  0.003870  0.257970  1.0  0.1268
  H  H64  1  0.515430  0.001470  0.451670  1.0  0.131
  H  H65  1  0.573830  0.125970  0.304370  1.0  0.1275
  H  H66  1  0.678630  0.260170  0.531270  1.0  0.1316
  H  H67  1  0.074900  0.737700  0.591300  1.0  0.1273
  H  H68  1  0.152700  0.817900  0.785000  1.0  0.1306
  H  H69  1  0.218800  0.759500  0.637700  1.0  0.1265
  H  H70  1  0.248200  0.654700  0.864600  1.0  0.1322
  H  H71  1  0.741570  0.071030  0.924630  1.0  0.1273
  H  H72  1  0.819370  0.151230  0.118330  1.0  0.1306
  H  H73  1  0.885470  0.092830  0.971030  1.0  0.1265
  H  H74  1  0.914870  0.988030  0.197930  1.0  0.1322
  H  H75  1  0.408230  0.404370  0.257970  1.0  0.1273
  H  H76  1  0.486030  0.484570  0.451670  1.0  0.1306
  H  H77  1  0.552130  0.426170  0.304370  1.0  0.1265
  H  H78  1  0.581530  0.321370  0.531270  1.0  0.1322
  H  H79  1  0.662800  0.925100  0.591300  1.0  0.128
  H  H80  1  0.665200  0.847300  0.785000  1.0  0.1307
  H  H81  1  0.540700  0.781200  0.637700  1.0  0.1265
  H  H82  1  0.406500  0.751800  0.864600  1.0  0.133
  H  H83  1  0.329470  0.258430  0.924630  1.0  0.128
  H  H84  1  0.331870  0.180630  0.118330  1.0  0.1307
  H  H85  1  0.207370  0.114530  0.971030  1.0  0.1265
  H  H86  1  0.073170  0.085130  0.197930  1.0  0.133
  H  H87  1  0.996130  0.591770  0.257970  1.0  0.128
  H  H88  1  0.998530  0.513970  0.451670  1.0  0.1307
  H  H89  1  0.874030  0.447870  0.304370  1.0  0.1265
  H  H90  1  0.739830  0.418470  0.531270  1.0  0.133
  C  C91  1  0.598930  0.792160  0.218900  1.0  -0.15
  C  C92  1  0.647100  0.751930  0.123000  1.0  0.0634
  C  C93  1  0.438960  0.757260  0.370000  1.0  0.6576
  C  C94  1  0.648750  0.799940  0.239000  1.0  0.0544
  C  C95  1  0.673840  0.780830  0.190300  1.0  -0.1525
  C  C96  1  0.573860  0.764470  0.151000  1.0  0.0342
  C  C97  1  0.384240  0.710510  0.364000  1.0  -0.1374
  C  C98  1  0.573740  0.718600  0.026100  1.0  0.6684
  C  C99  1  0.572370  0.813070  0.271800  1.0  0.6742
  C  C100  1  0.728260  0.791640  0.207500  1.0  0.6753
  C  C101  1  0.597920  0.744270  0.103100  1.0  -0.1341
  C  C102  1  0.377290  0.659430  0.364300  1.0  0.0611
  C  C103  1  0.265600  0.125490  0.552230  1.0  -0.15
  C  C104  1  0.313770  0.085260  0.456330  1.0  0.0634
  C  C105  1  0.105630  0.090590  0.703330  1.0  0.6576
  C  C106  1  0.315420  0.133270  0.572330  1.0  0.0544
  C  C107  1  0.340510  0.114160  0.523630  1.0  -0.1526
  C  C108  1  0.240530  0.097800  0.484330  1.0  0.0342
  C  C109  1  0.050910  0.043840  0.697330  1.0  -0.1374
  C  C110  1  0.240410  0.051930  0.359430  1.0  0.6682
  C  C111  1  0.239040  0.146400  0.605130  1.0  0.6742
  C  C112  1  0.394930  0.124970  0.540830  1.0  0.6759
  C  C113  1  0.264590  0.077600  0.436430  1.0  -0.1341
  C  C114  1  0.043960  0.992760  0.697630  1.0  0.0611
  C  C115  1  0.932260  0.458830  0.885570  1.0  -0.1502
  C  C116  1  0.980430  0.418600  0.789670  1.0  0.0634
  C  C117  1  0.772290  0.423930  0.036670  1.0  0.6576
  C  C118  1  0.982080  0.466610  0.905670  1.0  0.0544
  C  C119  1  0.007170  0.447500  0.856970  1.0  -0.1525
  C  C120  1  0.907190  0.431140  0.817670  1.0  0.0342
  C  C121  1  0.717570  0.377180  0.030670  1.0  -0.1374
  C  C122  1  0.907070  0.385270  0.692770  1.0  0.6685
  C  C123  1  0.905700  0.479740  0.938470  1.0  0.6742
  C  C124  1  0.061590  0.458310  0.874170  1.0  0.6753
  C  C125  1  0.931250  0.410940  0.769770  1.0  -0.1342
  C  C126  1  0.710620  0.326100  0.030970  1.0  0.0611
  C  C127  1  0.207840  0.806770  0.218900  1.0  -0.1504
  C  C128  1  0.248070  0.895170  0.123000  1.0  0.0637
  C  C129  1  0.242740  0.681700  0.370000  1.0  0.6568
  C  C130  1  0.200060  0.848810  0.239000  1.0  0.0529
  C  C131  1  0.219170  0.893010  0.190300  1.0  -0.152
  C  C132  1  0.235530  0.809390  0.151000  1.0  0.0364
  C  C133  1  0.289490  0.673730  0.364000  1.0  -0.1372
  C  C134  1  0.281400  0.855140  0.026100  1.0  0.6701
  C  C135  1  0.186930  0.759300  0.271800  1.0  0.6749
  C  C136  1  0.208360  0.936620  0.207500  1.0  0.6789
  C  C137  1  0.255730  0.853650  0.103100  1.0  -0.1346
  C  C138  1  0.340570  0.717860  0.364300  1.0  0.0605
  C  C139  1  0.874510  0.140100  0.552230  1.0  -0.1505
  C  C140  1  0.914740  0.228500  0.456330  1.0  0.0637
  C  C141  1  0.909410  0.015030  0.703330  1.0  0.6568
  C  C142  1  0.866730  0.182140  0.572330  1.0  0.0529
  C  C143  1  0.885840  0.226340  0.523630  1.0  -0.152
  C  C144  1  0.902200  0.142720  0.484330  1.0  0.0364
  C  C145  1  0.956160  0.007060  0.697330  1.0  -0.1372
  C  C146  1  0.948070  0.188470  0.359430  1.0  0.6699
  C  C147  1  0.853600  0.092630  0.605130  1.0  0.6749
  C  C148  1  0.875030  0.269950  0.540830  1.0  0.6786
  C  C149  1  0.922400  0.186980  0.436430  1.0  -0.1346
  C  C150  1  0.007240  0.051190  0.697630  1.0  0.0605
  C  C151  1  0.541170  0.473440  0.885570  1.0  -0.1504
  C  C152  1  0.581400  0.561840  0.789670  1.0  0.0637
  C  C153  1  0.576070  0.348370  0.036670  1.0  0.6568
  C  C154  1  0.533390  0.515480  0.905670  1.0  0.0529
  C  C155  1  0.552500  0.559680  0.856970  1.0  -0.152
  C  C156  1  0.568860  0.476060  0.817670  1.0  0.0362
  C  C157  1  0.622820  0.340400  0.030670  1.0  -0.1372
  C  C158  1  0.614730  0.521810  0.692770  1.0  0.6701
  C  C159  1  0.520260  0.425970  0.938470  1.0  0.6749
  C  C160  1  0.541690  0.603290  0.874170  1.0  0.6789
  C  C161  1  0.589060  0.520320  0.769770  1.0  -0.1346
  C  C162  1  0.673900  0.384530  0.030970  1.0  0.0605
  C  C163  1  0.193230  0.401070  0.218900  1.0  -0.15
  C  C164  1  0.104830  0.352900  0.123000  1.0  0.063
  C  C165  1  0.318300  0.561040  0.370000  1.0  0.6605
  C  C166  1  0.151190  0.351250  0.239000  1.0  0.0547
  C  C167  1  0.106990  0.326160  0.190300  1.0  -0.1531
  C  C168  1  0.190610  0.426140  0.151000  1.0  0.0345
  C  C169  1  0.326270  0.615760  0.364000  1.0  -0.137
  C  C170  1  0.144860  0.426260  0.026100  1.0  0.6696
  C  C171  1  0.240700  0.427630  0.271800  1.0  0.675
  C  C172  1  0.063380  0.271740  0.207500  1.0  0.6811
  C  C173  1  0.146350  0.402080  0.103100  1.0  -0.1336
  C  C174  1  0.282140  0.622710  0.364300  1.0  0.062
  C  C175  1  0.859900  0.734400  0.552230  1.0  -0.1498
  C  C176  1  0.771500  0.686230  0.456330  1.0  0.063
  C  C177  1  0.984970  0.894370  0.703330  1.0  0.6605
  C  C178  1  0.817860  0.684580  0.572330  1.0  0.0546
  C  C179  1  0.773660  0.659490  0.523630  1.0  -0.1532
  C  C180  1  0.857280  0.759470  0.484330  1.0  0.0345
  C  C181  1  0.992940  0.949090  0.697330  1.0  -0.137
  C  C182  1  0.811530  0.759590  0.359430  1.0  0.6696
  C  C183  1  0.907370  0.760960  0.605130  1.0  0.6751
  C  C184  1  0.730050  0.605070  0.540830  1.0  0.6808
  C  C185  1  0.813020  0.735410  0.436430  1.0  -0.1336
  C  C186  1  0.948810  0.956040  0.697630  1.0  0.062
  C  C187  1  0.526560  0.067740  0.885570  1.0  -0.1498
  C  C188  1  0.438160  0.019570  0.789670  1.0  0.063
  C  C189  1  0.651630  0.227710  0.036670  1.0  0.6605
  C  C190  1  0.484520  0.017920  0.905670  1.0  0.0546
  C  C191  1  0.440320  0.992830  0.856970  1.0  -0.1531
  C  C192  1  0.523940  0.092810  0.817670  1.0  0.0347
  C  C193  1  0.659600  0.282430  0.030670  1.0  -0.1369
  C  C194  1  0.478190  0.092930  0.692770  1.0  0.6696
  C  C195  1  0.574030  0.094300  0.938470  1.0  0.675
  C  C196  1  0.396710  0.938410  0.874170  1.0  0.6811
  C  C197  1  0.479680  0.068750  0.769770  1.0  -0.1336
  C  C198  1  0.615470  0.289380  0.030970  1.0  0.062
  C  C199  1  0.207840  0.401070  0.718900  1.0  -0.1503
  C  C200  1  0.248070  0.352900  0.623000  1.0  0.0632
  C  C201  1  0.242740  0.561040  0.870000  1.0  0.661
  C  C202  1  0.200060  0.351250  0.739000  1.0  0.0538
  C  C203  1  0.219170  0.326160  0.690300  1.0  -0.153
  C  C204  1  0.235530  0.426140  0.651000  1.0  0.0348
  C  C205  1  0.289490  0.615760  0.864000  1.0  -0.1375
  C  C206  1  0.281400  0.426260  0.526100  1.0  0.6704
  C  C207  1  0.186930  0.427630  0.771800  1.0  0.6747
  C  C208  1  0.208360  0.271740  0.707500  1.0  0.6804
  C  C209  1  0.255730  0.402080  0.603100  1.0  -0.1345
  C  C210  1  0.340570  0.622710  0.864300  1.0  0.0625
  C  C211  1  0.874510  0.734400  0.052230  1.0  -0.1503
  C  C212  1  0.914740  0.686230  0.956330  1.0  0.0632
  C  C213  1  0.909410  0.894370  0.203330  1.0  0.661
  C  C214  1  0.866730  0.684580  0.072330  1.0  0.0538
  C  C215  1  0.885840  0.659490  0.023630  1.0  -0.153
  C  C216  1  0.902200  0.759470  0.984330  1.0  0.0348
  C  C217  1  0.956160  0.949090  0.197330  1.0  -0.1375
  C  C218  1  0.948070  0.759590  0.859430  1.0  0.6702
  C  C219  1  0.853600  0.760960  0.105130  1.0  0.6748
  C  C220  1  0.875030  0.605070  0.040830  1.0  0.681
  C  C221  1  0.922400  0.735410  0.936430  1.0  -0.1345
  C  C222  1  0.007240  0.956040  0.197630  1.0  0.0625
  C  C223  1  0.541170  0.067740  0.385570  1.0  -0.1505
  C  C224  1  0.581400  0.019570  0.289670  1.0  0.0632
  C  C225  1  0.576070  0.227710  0.536670  1.0  0.661
  C  C226  1  0.533390  0.017920  0.405670  1.0  0.0538
  C  C227  1  0.552500  0.992830  0.356970  1.0  -0.153
  C  C228  1  0.568860  0.092810  0.317670  1.0  0.0348
  C  C229  1  0.622820  0.282430  0.530670  1.0  -0.1375
  C  C230  1  0.614730  0.092930  0.192770  1.0  0.6704
  C  C231  1  0.520260  0.094300  0.438470  1.0  0.6747
  C  C232  1  0.541690  0.938410  0.374170  1.0  0.6804
  C  C233  1  0.589060  0.068750  0.269770  1.0  -0.1346
  C  C234  1  0.673900  0.289380  0.530970  1.0  0.0625
  C  C235  1  0.193230  0.792160  0.718900  1.0  -0.1496
  C  C236  1  0.104830  0.751930  0.623000  1.0  0.0632
  C  C237  1  0.318300  0.757260  0.870000  1.0  0.6599
  C  C238  1  0.151190  0.799940  0.739000  1.0  0.0532
  C  C239  1  0.106990  0.780830  0.690300  1.0  -0.1519
  C  C240  1  0.190610  0.764470  0.651000  1.0  0.0368
  C  C241  1  0.326270  0.710510  0.864000  1.0  -0.1373
  C  C242  1  0.144860  0.718600  0.526100  1.0  0.6684
  C  C243  1  0.240700  0.813070  0.771800  1.0  0.6747
  C  C244  1  0.063380  0.791640  0.707500  1.0  0.6751
  C  C245  1  0.146350  0.744270  0.603100  1.0  -0.1338
  C  C246  1  0.282140  0.659430  0.864300  1.0  0.0582
  C  C247  1  0.859900  0.125490  0.052230  1.0  -0.1498
  C  C248  1  0.771500  0.085260  0.956330  1.0  0.0632
  C  C249  1  0.984970  0.090590  0.203330  1.0  0.6599
  C  C250  1  0.817860  0.133270  0.072330  1.0  0.0532
  C  C251  1  0.773660  0.114160  0.023630  1.0  -0.1519
  C  C252  1  0.857280  0.097800  0.984330  1.0  0.0368
  C  C253  1  0.992940  0.043840  0.197330  1.0  -0.1373
  C  C254  1  0.811530  0.051930  0.859430  1.0  0.6682
  C  C255  1  0.907370  0.146400  0.105130  1.0  0.6746
  C  C256  1  0.730050  0.124970  0.040830  1.0  0.6748
  C  C257  1  0.813020  0.077600  0.936430  1.0  -0.1338
  C  C258  1  0.948810  0.992760  0.197630  1.0  0.0582
  C  C259  1  0.526560  0.458830  0.385570  1.0  -0.1496
  C  C260  1  0.438160  0.418600  0.289670  1.0  0.0632
  C  C261  1  0.651630  0.423930  0.536670  1.0  0.6599
  C  C262  1  0.484520  0.466610  0.405670  1.0  0.0532
  C  C263  1  0.440320  0.447500  0.356970  1.0  -0.1519
  C  C264  1  0.523940  0.431140  0.317670  1.0  0.0366
  C  C265  1  0.659600  0.377180  0.530670  1.0  -0.1373
  C  C266  1  0.478190  0.385270  0.192770  1.0  0.6685
  C  C267  1  0.574030  0.479740  0.438470  1.0  0.6747
  C  C268  1  0.396710  0.458310  0.374170  1.0  0.6751
  C  C269  1  0.479680  0.410940  0.269770  1.0  -0.1338
  C  C270  1  0.615470  0.326100  0.530970  1.0  0.0582
  C  C271  1  0.598930  0.806770  0.718900  1.0  -0.1503
  C  C272  1  0.647100  0.895170  0.623000  1.0  0.0636
  C  C273  1  0.438960  0.681700  0.870000  1.0  0.6571
  C  C274  1  0.648750  0.848810  0.739000  1.0  0.0533
  C  C275  1  0.673840  0.893010  0.690300  1.0  -0.1531
  C  C276  1  0.573860  0.809390  0.651000  1.0  0.0373
  C  C277  1  0.384240  0.673730  0.864000  1.0  -0.1372
  C  C278  1  0.573740  0.855140  0.526100  1.0  0.6696
  C  C279  1  0.572370  0.759300  0.771800  1.0  0.6749
  C  C280  1  0.728260  0.936620  0.707500  1.0  0.6762
  C  C281  1  0.597920  0.853650  0.603100  1.0  -0.1344
  C  C282  1  0.377290  0.717860  0.864300  1.0  0.0611
  C  C283  1  0.265600  0.140100  0.052230  1.0  -0.1501
  C  C284  1  0.313770  0.228500  0.956330  1.0  0.0636
  C  C285  1  0.105630  0.015030  0.203330  1.0  0.6571
  C  C286  1  0.315420  0.182140  0.072330  1.0  0.0533
  C  C287  1  0.340510  0.226340  0.023630  1.0  -0.1532
  C  C288  1  0.240530  0.142720  0.984330  1.0  0.0373
  C  C289  1  0.050910  0.007060  0.197330  1.0  -0.1372
  C  C290  1  0.240410  0.188470  0.859430  1.0  0.6696
  C  C291  1  0.239040  0.092630  0.105130  1.0  0.6749
  C  C292  1  0.394930  0.269950  0.040830  1.0  0.6759
  C  C293  1  0.264590  0.186980  0.936430  1.0  -0.1344
  C  C294  1  0.043960  0.051190  0.197630  1.0  0.0611
  C  C295  1  0.932260  0.473440  0.385570  1.0  -0.1501
  C  C296  1  0.980430  0.561840  0.289670  1.0  0.0636
  C  C297  1  0.772290  0.348370  0.536670  1.0  0.657
  C  C298  1  0.982080  0.515480  0.405670  1.0  0.0533
  C  C299  1  0.007170  0.559680  0.356970  1.0  -0.1531
  C  C300  1  0.907190  0.476060  0.317670  1.0  0.0374
  C  C301  1  0.717570  0.340400  0.530670  1.0  -0.1372
  C  C302  1  0.907070  0.521810  0.192770  1.0  0.6696
  C  C303  1  0.905700  0.425970  0.438470  1.0  0.6749
  C  C304  1  0.061590  0.603290  0.374170  1.0  0.6762
  C  C305  1  0.931250  0.520320  0.269770  1.0  -0.1344
  C  C306  1  0.710620  0.384530  0.530970  1.0  0.0611
  O  O307  1  0.591750  0.827980  0.341110  1.0  -0.5262
  O  O308  1  0.445670  0.803740  0.366700  1.0  -0.5149
  O  O309  1  0.600220  0.709990  0.977080  1.0  -0.5369
  O  O310  1  0.749340  0.774320  0.158800  1.0  -0.5155
  O  O311  1  0.477350  0.749810  0.380570  1.0  -0.5529
  O  O312  1  0.533410  0.815880  0.248410  1.0  -0.5511
  O  O313  1  0.526940  0.708170  0.010400  1.0  -0.5418
  O  O314  1  0.753230  0.818690  0.266050  1.0  -0.5723
  O  O315  1  0.258420  0.161310  0.674440  1.0  -0.5262
  O  O316  1  0.112340  0.137070  0.700030  1.0  -0.5149
  O  O317  1  0.266890  0.043320  0.310410  1.0  -0.5369
  O  O318  1  0.416010  0.107650  0.492130  1.0  -0.5152
  O  O319  1  0.144020  0.083140  0.713900  1.0  -0.5529
  O  O320  1  0.200080  0.149210  0.581740  1.0  -0.5511
  O  O321  1  0.193610  0.041500  0.343730  1.0  -0.5418
  O  O322  1  0.419900  0.152020  0.599380  1.0  -0.5709
  O  O323  1  0.925080  0.494650  0.007780  1.0  -0.5262
  O  O324  1  0.779000  0.470410  0.033370  1.0  -0.515
  O  O325  1  0.933550  0.376660  0.643750  1.0  -0.5369
  O  O326  1  0.082670  0.440990  0.825470  1.0  -0.5155
  O  O327  1  0.810680  0.416480  0.047240  1.0  -0.5529
  O  O328  1  0.866740  0.482550  0.915080  1.0  -0.5518
  O  O329  1  0.860270  0.374840  0.677070  1.0  -0.5414
  O  O330  1  0.086560  0.485360  0.932720  1.0  -0.5723
  O  O331  1  0.172020  0.763770  0.341110  1.0  -0.5281
  O  O332  1  0.196260  0.641930  0.366700  1.0  -0.51
  O  O333  1  0.290010  0.890230  0.977080  1.0  -0.535
  O  O334  1  0.225680  0.975020  0.158800  1.0  -0.5188
  O  O335  1  0.250190  0.727540  0.380570  1.0  -0.5526
  O  O336  1  0.184120  0.717530  0.248410  1.0  -0.5466
  O  O337  1  0.291830  0.818770  0.010400  1.0  -0.5421
  O  O338  1  0.181310  0.934540  0.266050  1.0  -0.5705
  O  O339  1  0.838690  0.097100  0.674440  1.0  -0.5281
  O  O340  1  0.862930  0.975260  0.700030  1.0  -0.51
  O  O341  1  0.956680  0.223560  0.310410  1.0  -0.535
  O  O342  1  0.892350  0.308350  0.492130  1.0  -0.5193
  O  O343  1  0.916860  0.060870  0.713900  1.0  -0.5527
  O  O344  1  0.850790  0.050860  0.581740  1.0  -0.5466
  O  O345  1  0.958500  0.152100  0.343730  1.0  -0.5421
  O  O346  1  0.847980  0.267870  0.599380  1.0  -0.572
  O  O347  1  0.505350  0.430440  0.007780  1.0  -0.5281
  O  O348  1  0.529590  0.308600  0.033370  1.0  -0.5098
  O  O349  1  0.623340  0.556900  0.643750  1.0  -0.5351
  O  O350  1  0.559010  0.641690  0.825470  1.0  -0.5188
  O  O351  1  0.583520  0.394210  0.047240  1.0  -0.5526
  O  O352  1  0.517450  0.384200  0.915080  1.0  -0.5472
  O  O353  1  0.625160  0.485440  0.677070  1.0  -0.5433
  O  O354  1  0.514640  0.601210  0.932720  1.0  -0.5713
  O  O355  1  0.236230  0.408250  0.341110  1.0  -0.5277
  O  O356  1  0.358070  0.554330  0.366700  1.0  -0.5115
  O  O357  1  0.109770  0.399780  0.977080  1.0  -0.5352
  O  O358  1  0.024980  0.250660  0.158800  1.0  -0.5181
  O  O359  1  0.272460  0.522650  0.380570  1.0  -0.5512
  O  O360  1  0.282470  0.466590  0.248410  1.0  -0.5511
  O  O361  1  0.181230  0.473060  0.010400  1.0  -0.5429
  O  O362  1  0.065460  0.246770  0.266050  1.0  -0.5737
  O  O363  1  0.902900  0.741580  0.674440  1.0  -0.5277
  O  O364  1  0.024740  0.887660  0.700030  1.0  -0.5115
  O  O365  1  0.776440  0.733110  0.310410  1.0  -0.5351
  O  O366  1  0.691650  0.583990  0.492130  1.0  -0.5181
  O  O367  1  0.939130  0.855980  0.713900  1.0  -0.5512
  O  O368  1  0.949140  0.799920  0.581740  1.0  -0.5511
  O  O369  1  0.847900  0.806390  0.343730  1.0  -0.5429
  O  O370  1  0.732130  0.580100  0.599380  1.0  -0.5737
  O  O371  1  0.569560  0.074920  0.007780  1.0  -0.5277
  O  O372  1  0.691400  0.221000  0.033370  1.0  -0.5115
  O  O373  1  0.443100  0.066450  0.643750  1.0  -0.5351
  O  O374  1  0.358310  0.917330  0.825470  1.0  -0.5181
  O  O375  1  0.605790  0.189320  0.047240  1.0  -0.5513
  O  O376  1  0.615800  0.133260  0.915080  1.0  -0.5504
  O  O377  1  0.514560  0.139730  0.677070  1.0  -0.5444
  O  O378  1  0.398790  0.913440  0.932720  1.0  -0.5737
  O  O379  1  0.172020  0.408250  0.841110  1.0  -0.5287
  O  O380  1  0.196260  0.554330  0.866700  1.0  -0.5093
  O  O381  1  0.290010  0.399780  0.477080  1.0  -0.5366
  O  O382  1  0.225680  0.250660  0.658800  1.0  -0.5184
  O  O383  1  0.250190  0.522650  0.880570  1.0  -0.5526
  O  O384  1  0.184120  0.466590  0.748410  1.0  -0.5515
  O  O385  1  0.291830  0.473060  0.510400  1.0  -0.5431
  O  O386  1  0.181310  0.246770  0.766050  1.0  -0.5735
  O  O387  1  0.838690  0.741580  0.174440  1.0  -0.5287
  O  O388  1  0.862930  0.887660  0.200030  1.0  -0.5093
  O  O389  1  0.956680  0.733110  0.810410  1.0  -0.5366
  O  O390  1  0.892350  0.583990  0.992130  1.0  -0.5182
  O  O391  1  0.916860  0.855980  0.213900  1.0  -0.5525
  O  O392  1  0.850790  0.799920  0.081740  1.0  -0.5515
  O  O393  1  0.958500  0.806390  0.843730  1.0  -0.5431
  O  O394  1  0.847980  0.580100  0.099380  1.0  -0.572
  O  O395  1  0.505350  0.074920  0.507780  1.0  -0.5287
  O  O396  1  0.529590  0.221000  0.533370  1.0  -0.5094
  O  O397  1  0.623340  0.066450  0.143750  1.0  -0.5366
  O  O398  1  0.559010  0.917330  0.325470  1.0  -0.5184
  O  O399  1  0.583520  0.189320  0.547240  1.0  -0.5526
  O  O400  1  0.517450  0.133260  0.415080  1.0  -0.5522
  O  O401  1  0.625160  0.139730  0.177070  1.0  -0.5428
  O  O402  1  0.514640  0.913440  0.432720  1.0  -0.5735
  O  O403  1  0.236230  0.827980  0.841110  1.0  -0.5278
  O  O404  1  0.358070  0.803740  0.866700  1.0  -0.5149
  O  O405  1  0.109770  0.709990  0.477080  1.0  -0.5367
  O  O406  1  0.024980  0.774320  0.658800  1.0  -0.5167
  O  O407  1  0.272460  0.749810  0.880570  1.0  -0.5526
  O  O408  1  0.282470  0.815880  0.748410  1.0  -0.5517
  O  O409  1  0.181230  0.708170  0.510400  1.0  -0.541
  O  O410  1  0.065460  0.818690  0.766050  1.0  -0.5718
  O  O411  1  0.902900  0.161310  0.174440  1.0  -0.5278
  O  O412  1  0.024740  0.137070  0.200030  1.0  -0.5149
  O  O413  1  0.776440  0.043320  0.810410  1.0  -0.5366
  O  O414  1  0.691650  0.107650  0.992130  1.0  -0.5172
  O  O415  1  0.939130  0.083140  0.213900  1.0  -0.5527
  O  O416  1  0.949140  0.149210  0.081740  1.0  -0.5517
  O  O417  1  0.847900  0.041500  0.843730  1.0  -0.541
  O  O418  1  0.732130  0.152020  0.099380  1.0  -0.5732
  O  O419  1  0.569560  0.494650  0.507780  1.0  -0.5278
  O  O420  1  0.691400  0.470410  0.533370  1.0  -0.5148
  O  O421  1  0.443100  0.376660  0.143750  1.0  -0.5368
  O  O422  1  0.358310  0.440990  0.325470  1.0  -0.5167
  O  O423  1  0.605790  0.416480  0.547240  1.0  -0.5526
  O  O424  1  0.615800  0.482550  0.415080  1.0  -0.5524
  O  O425  1  0.514560  0.374840  0.177070  1.0  -0.5422
  O  O426  1  0.398790  0.485360  0.432720  1.0  -0.5726
  O  O427  1  0.591750  0.763770  0.841110  1.0  -0.527
  O  O428  1  0.445670  0.641930  0.866700  1.0  -0.5102
  O  O429  1  0.600220  0.890230  0.477080  1.0  -0.537
  O  O430  1  0.749340  0.975020  0.658800  1.0  -0.5193
  O  O431  1  0.477350  0.727540  0.880570  1.0  -0.5532
  O  O432  1  0.533410  0.717530  0.748410  1.0  -0.5479
  O  O433  1  0.526940  0.818770  0.510400  1.0  -0.542
  O  O434  1  0.753230  0.934540  0.766050  1.0  -0.573
  O  O435  1  0.258420  0.097100  0.174440  1.0  -0.527
  O  O436  1  0.112340  0.975260  0.200030  1.0  -0.5102
  O  O437  1  0.266890  0.223560  0.810410  1.0  -0.5368
  O  O438  1  0.416010  0.308350  0.992130  1.0  -0.5193
  O  O439  1  0.144020  0.060870  0.213900  1.0  -0.5532
  O  O440  1  0.200080  0.050860  0.081740  1.0  -0.5479
  O  O441  1  0.193610  0.152100  0.843730  1.0  -0.542
  O  O442  1  0.419900  0.267870  0.099380  1.0  -0.573
  O  O443  1  0.925080  0.430440  0.507780  1.0  -0.527
  O  O444  1  0.779000  0.308600  0.533370  1.0  -0.5102
  O  O445  1  0.933550  0.556900  0.143750  1.0  -0.5368
  O  O446  1  0.082670  0.641690  0.325470  1.0  -0.5193
  O  O447  1  0.810680  0.394210  0.547240  1.0  -0.5532
  O  O448  1  0.866740  0.384200  0.415080  1.0  -0.5473
  O  O449  1  0.860270  0.485440  0.177070  1.0  -0.5435
  O  O450  1  0.086560  0.601210  0.432720  1.0  -0.573
