# generated using pymatgen
data_In(C3O2)4
_symmetry_space_group_name_H-M   'P 1'
_cell_length_a   20.46390000
_cell_length_b   20.46390000
_cell_length_c   20.46390000
_cell_angle_alpha   90.00000000
_cell_angle_beta   90.00000000
_cell_angle_gamma   90.00000000
_symmetry_Int_Tables_number   1
_chemical_formula_structural   In(C3O2)4
_chemical_formula_sum   'In12 C144 O96'
_cell_volume   8569.69202537
_cell_formula_units_Z   12
loop_
 _symmetry_equiv_pos_site_id
 _symmetry_equiv_pos_as_xyz
  1  'x, y, z'
loop_
 _atom_site_type_symbol
 _atom_site_label
 _atom_site_symmetry_multiplicity
 _atom_site_fract_x
 _atom_site_fract_y
 _atom_site_fract_z
 _atom_site_occupancy
 _atom_site_charge
  In  In1  1  0.000000  0.250000  0.375000  1.0  1.4592
  In  In2  1  0.500000  0.750000  0.875000  1.0  1.4592
  In  In3  1  0.000000  0.750000  0.125000  1.0  1.4592
  In  In4  1  0.500000  0.250000  0.625000  1.0  1.4592
  In  In5  1  0.375000  0.000000  0.250000  1.0  1.4592
  In  In6  1  0.875000  0.500000  0.750000  1.0  1.4592
  In  In7  1  0.125000  0.000000  0.750000  1.0  1.4592
  In  In8  1  0.625000  0.500000  0.250000  1.0  1.4592
  In  In9  1  0.250000  0.375000  0.000000  1.0  1.4592
  In  In10  1  0.750000  0.875000  0.500000  1.0  1.4592
  In  In11  1  0.750000  0.125000  0.000000  1.0  1.4592
  In  In12  1  0.250000  0.625000  0.500000  1.0  1.4592
  C  C13  1  0.846000  0.280200  0.247600  1.0  -0.0077
  C  C14  1  0.808000  0.332600  0.260400  1.0  0.0377
  C  C15  1  0.903900  0.263800  0.290200  1.0  0.6611
  C  C16  1  0.346000  0.780200  0.747600  1.0  -0.0077
  C  C17  1  0.308000  0.832600  0.760400  1.0  0.0377
  C  C18  1  0.403900  0.763800  0.790200  1.0  0.6611
  C  C19  1  0.654000  0.719800  0.747600  1.0  -0.0076
  C  C20  1  0.692000  0.667400  0.760400  1.0  0.0364
  C  C21  1  0.596100  0.736200  0.790200  1.0  0.6609
  C  C22  1  0.154000  0.219800  0.247600  1.0  -0.0076
  C  C23  1  0.192000  0.167400  0.260400  1.0  0.0364
  C  C24  1  0.096100  0.236200  0.290200  1.0  0.6609
  C  C25  1  0.154000  0.780200  0.252400  1.0  -0.0074
  C  C26  1  0.192000  0.832600  0.239600  1.0  0.0381
  C  C27  1  0.096100  0.763800  0.209800  1.0  0.6613
  C  C28  1  0.654000  0.280200  0.752400  1.0  -0.0074
  C  C29  1  0.692000  0.332600  0.739600  1.0  0.0381
  C  C30  1  0.596100  0.263800  0.709800  1.0  0.6613
  C  C31  1  0.346000  0.219800  0.752400  1.0  -0.0074
  C  C32  1  0.308000  0.167400  0.739600  1.0  0.0375
  C  C33  1  0.403900  0.236200  0.709800  1.0  0.6617
  C  C34  1  0.846000  0.719800  0.252400  1.0  -0.0074
  C  C35  1  0.808000  0.667400  0.239600  1.0  0.0375
  C  C36  1  0.903900  0.736200  0.209800  1.0  0.6617
  C  C37  1  0.247600  0.846000  0.280200  1.0  -0.0074
  C  C38  1  0.260400  0.808000  0.332600  1.0  0.0394
  C  C39  1  0.290200  0.903900  0.263800  1.0  0.6625
  C  C40  1  0.747600  0.346000  0.780200  1.0  -0.0074
  C  C41  1  0.760400  0.308000  0.832600  1.0  0.0394
  C  C42  1  0.790200  0.403900  0.763800  1.0  0.6625
  C  C43  1  0.747600  0.654000  0.719800  1.0  -0.0076
  C  C44  1  0.760400  0.692000  0.667400  1.0  0.0379
  C  C45  1  0.790200  0.596100  0.736200  1.0  0.6623
  C  C46  1  0.247600  0.154000  0.219800  1.0  -0.0076
  C  C47  1  0.260400  0.192000  0.167400  1.0  0.0379
  C  C48  1  0.290200  0.096100  0.236200  1.0  0.6623
  C  C49  1  0.252400  0.154000  0.780200  1.0  -0.0078
  C  C50  1  0.239600  0.192000  0.832600  1.0  0.0391
  C  C51  1  0.209800  0.096100  0.763800  1.0  0.6626
  C  C52  1  0.752400  0.654000  0.280200  1.0  -0.0078
  C  C53  1  0.739600  0.692000  0.332600  1.0  0.0391
  C  C54  1  0.709800  0.596100  0.263800  1.0  0.6626
  C  C55  1  0.752400  0.346000  0.219800  1.0  -0.0075
  C  C56  1  0.739600  0.308000  0.167400  1.0  0.0391
  C  C57  1  0.709800  0.403900  0.236200  1.0  0.6629
  C  C58  1  0.252400  0.846000  0.719800  1.0  -0.0075
  C  C59  1  0.239600  0.808000  0.667400  1.0  0.0391
  C  C60  1  0.209800  0.903900  0.736200  1.0  0.6629
  C  C61  1  0.280200  0.247600  0.846000  1.0  -0.0072
  C  C62  1  0.332600  0.260400  0.808000  1.0  0.0397
  C  C63  1  0.263800  0.290200  0.903900  1.0  0.6615
  C  C64  1  0.780200  0.747600  0.346000  1.0  -0.0072
  C  C65  1  0.832600  0.760400  0.308000  1.0  0.0397
  C  C66  1  0.763800  0.790200  0.403900  1.0  0.6615
  C  C67  1  0.719800  0.747600  0.654000  1.0  -0.0072
  C  C68  1  0.667400  0.760400  0.692000  1.0  0.0414
  C  C69  1  0.736200  0.790200  0.596100  1.0  0.6624
  C  C70  1  0.219800  0.247600  0.154000  1.0  -0.0072
  C  C71  1  0.167400  0.260400  0.192000  1.0  0.0414
  C  C72  1  0.236200  0.290200  0.096100  1.0  0.6624
  C  C73  1  0.780200  0.252400  0.154000  1.0  -0.0077
  C  C74  1  0.832600  0.239600  0.192000  1.0  0.0385
  C  C75  1  0.763800  0.209800  0.096100  1.0  0.6619
  C  C76  1  0.280200  0.752400  0.654000  1.0  -0.0077
  C  C77  1  0.332600  0.739600  0.692000  1.0  0.0385
  C  C78  1  0.263800  0.709800  0.596100  1.0  0.6619
  C  C79  1  0.219800  0.752400  0.346000  1.0  -0.0072
  C  C80  1  0.167400  0.739600  0.308000  1.0  0.0393
  C  C81  1  0.236200  0.709800  0.403900  1.0  0.6619
  C  C82  1  0.719800  0.252400  0.846000  1.0  -0.0072
  C  C83  1  0.667400  0.239600  0.808000  1.0  0.0393
  C  C84  1  0.736200  0.209800  0.903900  1.0  0.6619
  C  C85  1  0.530200  0.096000  0.497600  1.0  -0.0074
  C  C86  1  0.582600  0.058000  0.510400  1.0  0.0375
  C  C87  1  0.513800  0.153900  0.540200  1.0  0.6618
  C  C88  1  0.030200  0.596000  0.997600  1.0  -0.0074
  C  C89  1  0.082600  0.558000  0.010400  1.0  0.0375
  C  C90  1  0.013800  0.653900  0.040200  1.0  0.6618
  C  C91  1  0.969800  0.904000  0.997600  1.0  -0.0075
  C  C92  1  0.917400  0.942000  0.010400  1.0  0.0383
  C  C93  1  0.986200  0.846100  0.040200  1.0  0.6621
  C  C94  1  0.469800  0.404000  0.497600  1.0  -0.0075
  C  C95  1  0.417400  0.442000  0.510400  1.0  0.0383
  C  C96  1  0.486200  0.346100  0.540200  1.0  0.6621
  C  C97  1  0.030200  0.404000  0.502400  1.0  -0.0076
  C  C98  1  0.082600  0.442000  0.489600  1.0  0.0375
  C  C99  1  0.013800  0.346100  0.459800  1.0  0.662
  C  C100  1  0.530200  0.904000  0.002400  1.0  -0.0076
  C  C101  1  0.582600  0.942000  0.989600  1.0  0.0375
  C  C102  1  0.513800  0.846100  0.959800  1.0  0.662
  C  C103  1  0.469800  0.596000  0.002400  1.0  -0.0072
  C  C104  1  0.417400  0.558000  0.989600  1.0  0.0393
  C  C105  1  0.486200  0.653900  0.959800  1.0  0.6628
  C  C106  1  0.969800  0.096000  0.502400  1.0  -0.0072
  C  C107  1  0.917400  0.058000  0.489600  1.0  0.0393
  C  C108  1  0.986200  0.153900  0.459800  1.0  0.6628
  C  C109  1  0.096000  0.497600  0.530200  1.0  -0.0072
  C  C110  1  0.058000  0.510400  0.582600  1.0  0.0389
  C  C111  1  0.153900  0.540200  0.513800  1.0  0.6617
  C  C112  1  0.596000  0.997600  0.030200  1.0  -0.0072
  C  C113  1  0.558000  0.010400  0.082600  1.0  0.0389
  C  C114  1  0.653900  0.040200  0.013800  1.0  0.6617
  C  C115  1  0.904000  0.997600  0.969800  1.0  -0.0071
  C  C116  1  0.942000  0.010400  0.917400  1.0  0.0377
  C  C117  1  0.846100  0.040200  0.986200  1.0  0.6614
  C  C118  1  0.404000  0.497600  0.469800  1.0  -0.0071
  C  C119  1  0.442000  0.510400  0.417400  1.0  0.0377
  C  C120  1  0.346100  0.540200  0.486200  1.0  0.6614
  C  C121  1  0.404000  0.502400  0.030200  1.0  -0.0073
  C  C122  1  0.442000  0.489600  0.082600  1.0  0.037
  C  C123  1  0.346100  0.459800  0.013800  1.0  0.6612
  C  C124  1  0.904000  0.002400  0.530200  1.0  -0.0073
  C  C125  1  0.942000  0.989600  0.582600  1.0  0.037
  C  C126  1  0.846100  0.959800  0.513800  1.0  0.6612
  C  C127  1  0.596000  0.002400  0.469800  1.0  -0.0072
  C  C128  1  0.558000  0.989600  0.417400  1.0  0.0368
  C  C129  1  0.653900  0.959800  0.486200  1.0  0.6614
  C  C130  1  0.096000  0.502400  0.969800  1.0  -0.0072
  C  C131  1  0.058000  0.489600  0.917400  1.0  0.0368
  C  C132  1  0.153900  0.459800  0.986200  1.0  0.6614
  C  C133  1  0.497600  0.530200  0.096000  1.0  -0.0075
  C  C134  1  0.510400  0.582600  0.058000  1.0  0.0401
  C  C135  1  0.540200  0.513800  0.153900  1.0  0.6616
  C  C136  1  0.997600  0.030200  0.596000  1.0  -0.0075
  C  C137  1  0.010400  0.082600  0.558000  1.0  0.0401
  C  C138  1  0.040200  0.013800  0.653900  1.0  0.6616
  C  C139  1  0.997600  0.969800  0.904000  1.0  -0.0077
  C  C140  1  0.010400  0.917400  0.942000  1.0  0.0395
  C  C141  1  0.040200  0.986200  0.846100  1.0  0.6621
  C  C142  1  0.497600  0.469800  0.404000  1.0  -0.0077
  C  C143  1  0.510400  0.417400  0.442000  1.0  0.0395
  C  C144  1  0.540200  0.486200  0.346100  1.0  0.6621
  C  C145  1  0.502400  0.030200  0.404000  1.0  -0.0079
  C  C146  1  0.489600  0.082600  0.442000  1.0  0.0409
  C  C147  1  0.459800  0.013800  0.346100  1.0  0.6626
  C  C148  1  0.002400  0.530200  0.904000  1.0  -0.0079
  C  C149  1  0.989600  0.582600  0.942000  1.0  0.0409
  C  C150  1  0.959800  0.513800  0.846100  1.0  0.6626
  C  C151  1  0.002400  0.469800  0.596000  1.0  -0.0077
  C  C152  1  0.989600  0.417400  0.558000  1.0  0.0397
  C  C153  1  0.959800  0.486200  0.653900  1.0  0.6622
  C  C154  1  0.502400  0.969800  0.096000  1.0  -0.0077
  C  C155  1  0.489600  0.917400  0.058000  1.0  0.0397
  C  C156  1  0.459800  0.986200  0.153900  1.0  0.6622
  O  O157  1  0.917100  0.303900  0.336000  1.0  -0.5148
  O  O158  1  0.937200  0.213300  0.280700  1.0  -0.545
  O  O159  1  0.417100  0.803900  0.836000  1.0  -0.5148
  O  O160  1  0.437200  0.713300  0.780700  1.0  -0.545
  O  O161  1  0.582900  0.696100  0.836000  1.0  -0.5152
  O  O162  1  0.562800  0.786700  0.780700  1.0  -0.5434
  O  O163  1  0.082900  0.196100  0.336000  1.0  -0.5152
  O  O164  1  0.062800  0.286700  0.280700  1.0  -0.5434
  O  O165  1  0.082900  0.803900  0.164000  1.0  -0.5145
  O  O166  1  0.062800  0.713300  0.219300  1.0  -0.5437
  O  O167  1  0.582900  0.303900  0.664000  1.0  -0.5145
  O  O168  1  0.562800  0.213300  0.719300  1.0  -0.5437
  O  O169  1  0.417100  0.196100  0.664000  1.0  -0.5147
  O  O170  1  0.437200  0.286700  0.719300  1.0  -0.5445
  O  O171  1  0.917100  0.696100  0.164000  1.0  -0.5147
  O  O172  1  0.937200  0.786700  0.219300  1.0  -0.5445
  O  O173  1  0.336000  0.917100  0.303900  1.0  -0.513
  O  O174  1  0.280700  0.937200  0.213300  1.0  -0.5461
  O  O175  1  0.836000  0.417100  0.803900  1.0  -0.513
  O  O176  1  0.780700  0.437200  0.713300  1.0  -0.5461
  O  O177  1  0.836000  0.582900  0.696100  1.0  -0.5127
  O  O178  1  0.780700  0.562800  0.786700  1.0  -0.5442
  O  O179  1  0.336000  0.082900  0.196100  1.0  -0.5127
  O  O180  1  0.280700  0.062800  0.286700  1.0  -0.5442
  O  O181  1  0.164000  0.082900  0.803900  1.0  -0.5117
  O  O182  1  0.219300  0.062800  0.713300  1.0  -0.5454
  O  O183  1  0.664000  0.582900  0.303900  1.0  -0.5117
  O  O184  1  0.719300  0.562800  0.213300  1.0  -0.5454
  O  O185  1  0.664000  0.417100  0.196100  1.0  -0.5115
  O  O186  1  0.719300  0.437200  0.286700  1.0  -0.543
  O  O187  1  0.164000  0.917100  0.696100  1.0  -0.5115
  O  O188  1  0.219300  0.937200  0.786700  1.0  -0.543
  O  O189  1  0.303900  0.336000  0.917100  1.0  -0.511
  O  O190  1  0.213300  0.280700  0.937200  1.0  -0.5468
  O  O191  1  0.803900  0.836000  0.417100  1.0  -0.511
  O  O192  1  0.713300  0.780700  0.437200  1.0  -0.5468
  O  O193  1  0.696100  0.836000  0.582900  1.0  -0.5103
  O  O194  1  0.786700  0.780700  0.562800  1.0  -0.5472
  O  O195  1  0.196100  0.336000  0.082900  1.0  -0.5103
  O  O196  1  0.286700  0.280700  0.062800  1.0  -0.5472
  O  O197  1  0.803900  0.164000  0.082900  1.0  -0.5113
  O  O198  1  0.713300  0.219300  0.062800  1.0  -0.547
  O  O199  1  0.303900  0.664000  0.582900  1.0  -0.5113
  O  O200  1  0.213300  0.719300  0.562800  1.0  -0.547
  O  O201  1  0.196100  0.664000  0.417100  1.0  -0.5105
  O  O202  1  0.286700  0.719300  0.437200  1.0  -0.5483
  O  O203  1  0.696100  0.164000  0.917100  1.0  -0.5105
  O  O204  1  0.786700  0.219300  0.937200  1.0  -0.5483
  O  O205  1  0.553900  0.167100  0.586000  1.0  -0.5134
  O  O206  1  0.463300  0.187200  0.530700  1.0  -0.5457
  O  O207  1  0.053900  0.667100  0.086000  1.0  -0.5134
  O  O208  1  0.963300  0.687200  0.030700  1.0  -0.5457
  O  O209  1  0.946100  0.832900  0.086000  1.0  -0.5118
  O  O210  1  0.036700  0.812800  0.030700  1.0  -0.5473
  O  O211  1  0.446100  0.332900  0.586000  1.0  -0.5118
  O  O212  1  0.536700  0.312800  0.530700  1.0  -0.5473
  O  O213  1  0.053900  0.332900  0.414000  1.0  -0.5129
  O  O214  1  0.963300  0.312800  0.469300  1.0  -0.5452
  O  O215  1  0.553900  0.832900  0.914000  1.0  -0.5129
  O  O216  1  0.463300  0.812800  0.969300  1.0  -0.5452
  O  O217  1  0.446100  0.667100  0.914000  1.0  -0.512
  O  O218  1  0.536700  0.687200  0.969300  1.0  -0.548
  O  O219  1  0.946100  0.167100  0.414000  1.0  -0.512
  O  O220  1  0.036700  0.187200  0.469300  1.0  -0.548
  O  O221  1  0.167100  0.586000  0.553900  1.0  -0.5132
  O  O222  1  0.187200  0.530700  0.463300  1.0  -0.5462
  O  O223  1  0.667100  0.086000  0.053900  1.0  -0.5132
  O  O224  1  0.687200  0.030700  0.963300  1.0  -0.5462
  O  O225  1  0.832900  0.086000  0.946100  1.0  -0.5124
  O  O226  1  0.812800  0.030700  0.036700  1.0  -0.5428
  O  O227  1  0.332900  0.586000  0.446100  1.0  -0.5124
  O  O228  1  0.312800  0.530700  0.536700  1.0  -0.5428
  O  O229  1  0.332900  0.414000  0.053900  1.0  -0.513
  O  O230  1  0.312800  0.469300  0.963300  1.0  -0.5457
  O  O231  1  0.832900  0.914000  0.553900  1.0  -0.513
  O  O232  1  0.812800  0.969300  0.463300  1.0  -0.5457
  O  O233  1  0.667100  0.914000  0.446100  1.0  -0.5136
  O  O234  1  0.687200  0.969300  0.536700  1.0  -0.5445
  O  O235  1  0.167100  0.414000  0.946100  1.0  -0.5136
  O  O236  1  0.187200  0.469300  0.036700  1.0  -0.5445
  O  O237  1  0.586000  0.553900  0.167100  1.0  -0.5123
  O  O238  1  0.530700  0.463300  0.187200  1.0  -0.5451
  O  O239  1  0.086000  0.053900  0.667100  1.0  -0.5123
  O  O240  1  0.030700  0.963300  0.687200  1.0  -0.5451
  O  O241  1  0.086000  0.946100  0.832900  1.0  -0.5127
  O  O242  1  0.030700  0.036700  0.812800  1.0  -0.5448
  O  O243  1  0.586000  0.446100  0.332900  1.0  -0.5127
  O  O244  1  0.530700  0.536700  0.312800  1.0  -0.5448
  O  O245  1  0.414000  0.053900  0.332900  1.0  -0.5105
  O  O246  1  0.469300  0.963300  0.312800  1.0  -0.5443
  O  O247  1  0.914000  0.553900  0.832900  1.0  -0.5105
  O  O248  1  0.969300  0.463300  0.812800  1.0  -0.5443
  O  O249  1  0.914000  0.446100  0.667100  1.0  -0.5121
  O  O250  1  0.969300  0.536700  0.687200  1.0  -0.5436
  O  O251  1  0.414000  0.946100  0.167100  1.0  -0.5121
  O  O252  1  0.469300  0.036700  0.187200  1.0  -0.5436
