# generated using pymatgen
data_InH4(C3O2)4
_symmetry_space_group_name_H-M   'P 1'
_cell_length_a   29.15500000
_cell_length_b   29.15500000
_cell_length_c   17.36700000
_cell_angle_alpha   90.00000000
_cell_angle_beta   90.00000000
_cell_angle_gamma   120.00000000
_symmetry_Int_Tables_number   1
_chemical_formula_structural   InH4(C3O2)4
_chemical_formula_sum   'In18 H72 C216 O144'
_cell_volume   12784.43464909
_cell_formula_units_Z   18
loop_
 _symmetry_equiv_pos_site_id
 _symmetry_equiv_pos_as_xyz
  1  'x, y, z'
loop_
 _atom_site_type_symbol
 _atom_site_label
 _atom_site_symmetry_multiplicity
 _atom_site_fract_x
 _atom_site_fract_y
 _atom_site_fract_z
 _atom_site_occupancy
 _atom_site_charge
  In  In1  1  0.693530  0.159600  0.114510  1.0  1.4905
  In  In2  1  0.360200  0.492930  0.447840  1.0  1.4905
  In  In3  1  0.026860  0.826270  0.781180  1.0  1.4905
  In  In4  1  0.840400  0.533930  0.114510  1.0  1.4903
  In  In5  1  0.507070  0.867260  0.447840  1.0  1.4903
  In  In6  1  0.173730  0.200600  0.781180  1.0  1.4903
  In  In7  1  0.466070  0.306470  0.114510  1.0  1.491
  In  In8  1  0.132740  0.639800  0.447840  1.0  1.491
  In  In9  1  0.799400  0.973140  0.781180  1.0  1.491
  In  In10  1  0.840400  0.306470  0.614510  1.0  1.4908
  In  In11  1  0.507070  0.639800  0.947840  1.0  1.4908
  In  In12  1  0.173730  0.973140  0.281180  1.0  1.4908
  In  In13  1  0.466070  0.159600  0.614510  1.0  1.4909
  In  In14  1  0.132740  0.492930  0.947840  1.0  1.4909
  In  In15  1  0.799400  0.826270  0.281180  1.0  1.4909
  In  In16  1  0.693530  0.533930  0.614510  1.0  1.4907
  In  In17  1  0.360200  0.867260  0.947840  1.0  1.4907
  In  In18  1  0.026860  0.200600  0.281180  1.0  1.4907
  H  H19  1  0.851500  0.186600  0.216100  1.0  0.132
  H  H20  1  0.924700  0.253600  0.415100  1.0  0.1288
  H  H21  1  0.779900  0.232600  0.366200  1.0  0.1216
  H  H22  1  0.594600  0.247000  0.128800  1.0  0.1309
  H  H23  1  0.518170  0.519930  0.549430  1.0  0.132
  H  H24  1  0.591370  0.586930  0.748430  1.0  0.1288
  H  H25  1  0.446570  0.565930  0.699530  1.0  0.1216
  H  H26  1  0.261270  0.580330  0.462130  1.0  0.1309
  H  H27  1  0.184830  0.853270  0.882770  1.0  0.132
  H  H28  1  0.258030  0.920270  0.081770  1.0  0.1289
  H  H29  1  0.113230  0.899270  0.032870  1.0  0.1216
  H  H30  1  0.927930  0.913670  0.795470  1.0  0.1309
  H  H31  1  0.813400  0.664900  0.216100  1.0  0.1317
  H  H32  1  0.746400  0.671100  0.415100  1.0  0.129
  H  H33  1  0.767400  0.547300  0.366200  1.0  0.1198
  H  H34  1  0.753000  0.347600  0.128800  1.0  0.1303
  H  H35  1  0.480070  0.998230  0.549430  1.0  0.1317
  H  H36  1  0.413070  0.004430  0.748430  1.0  0.129
  H  H37  1  0.434070  0.880630  0.699530  1.0  0.1198
  H  H38  1  0.419670  0.680930  0.462130  1.0  0.1303
  H  H39  1  0.146730  0.331570  0.882770  1.0  0.1316
  H  H40  1  0.079730  0.337770  0.081770  1.0  0.1289
  H  H41  1  0.100730  0.213970  0.032870  1.0  0.1198
  H  H42  1  0.086330  0.014270  0.795470  1.0  0.1303
  H  H43  1  0.335100  0.148500  0.216100  1.0  0.1318
  H  H44  1  0.328900  0.075300  0.415100  1.0  0.13
  H  H45  1  0.452700  0.220100  0.366200  1.0  0.1201
  H  H46  1  0.652400  0.405400  0.128800  1.0  0.1307
  H  H47  1  0.001770  0.481830  0.549430  1.0  0.1318
  H  H48  1  0.995570  0.408630  0.748430  1.0  0.13
  H  H49  1  0.119370  0.553430  0.699530  1.0  0.1201
  H  H50  1  0.319070  0.738730  0.462130  1.0  0.1307
  H  H51  1  0.668430  0.815170  0.882770  1.0  0.1318
  H  H52  1  0.662230  0.741970  0.081770  1.0  0.1299
  H  H53  1  0.786030  0.886770  0.032870  1.0  0.1201
  H  H54  1  0.985730  0.072070  0.795470  1.0  0.1307
  H  H55  1  0.813400  0.148500  0.716100  1.0  0.1317
  H  H56  1  0.746400  0.075300  0.915100  1.0  0.1297
  H  H57  1  0.767400  0.220100  0.866200  1.0  0.1209
  H  H58  1  0.753000  0.405400  0.628800  1.0  0.1304
  H  H59  1  0.480070  0.481830  0.049430  1.0  0.1317
  H  H60  1  0.413070  0.408630  0.248430  1.0  0.1296
  H  H61  1  0.434070  0.553430  0.199530  1.0  0.1209
  H  H62  1  0.419670  0.738730  0.962130  1.0  0.1304
  H  H63  1  0.146730  0.815170  0.382770  1.0  0.1317
  H  H64  1  0.079730  0.741970  0.581770  1.0  0.1297
  H  H65  1  0.100730  0.886770  0.532870  1.0  0.1209
  H  H66  1  0.086330  0.072070  0.295470  1.0  0.1304
  H  H67  1  0.335100  0.186600  0.716100  1.0  0.132
  H  H68  1  0.328900  0.253600  0.915100  1.0  0.1287
  H  H69  1  0.452700  0.232600  0.866200  1.0  0.1221
  H  H70  1  0.652400  0.247000  0.628800  1.0  0.1309
  H  H71  1  0.001770  0.519930  0.049430  1.0  0.132
  H  H72  1  0.995570  0.586930  0.248430  1.0  0.1287
  H  H73  1  0.119370  0.565930  0.199530  1.0  0.1221
  H  H74  1  0.319070  0.580330  0.962130  1.0  0.1309
  H  H75  1  0.668430  0.853270  0.382770  1.0  0.132
  H  H76  1  0.662230  0.920270  0.581770  1.0  0.1287
  H  H77  1  0.786030  0.899270  0.532870  1.0  0.1221
  H  H78  1  0.985730  0.913670  0.295470  1.0  0.1309
  H  H79  1  0.851500  0.664900  0.716100  1.0  0.1315
  H  H80  1  0.924700  0.671100  0.915100  1.0  0.1291
  H  H81  1  0.779900  0.547300  0.866200  1.0  0.1202
  H  H82  1  0.594600  0.347600  0.628800  1.0  0.1304
  H  H83  1  0.518170  0.998230  0.049430  1.0  0.1315
  H  H84  1  0.591370  0.004430  0.248430  1.0  0.1291
  H  H85  1  0.446570  0.880630  0.199530  1.0  0.1202
  H  H86  1  0.261270  0.680930  0.962130  1.0  0.1304
  H  H87  1  0.184830  0.331570  0.382770  1.0  0.1315
  H  H88  1  0.258030  0.337770  0.581770  1.0  0.129
  H  H89  1  0.113230  0.213970  0.532870  1.0  0.1202
  H  H90  1  0.927930  0.014270  0.295470  1.0  0.1304
  C  C91  1  0.808800  0.207000  0.286700  1.0  -0.1182
  C  C92  1  0.851300  0.200400  0.264300  1.0  0.0367
  C  C93  1  0.893600  0.214600  0.315400  1.0  -0.1365
  C  C94  1  0.895300  0.241000  0.383100  1.0  0.0694
  C  C95  1  0.853400  0.248600  0.403400  1.0  -0.1495
  C  C96  1  0.809000  0.229300  0.352500  1.0  0.0512
  C  C97  1  0.761800  0.188500  0.230000  1.0  0.6958
  C  C98  1  0.605200  0.064900  0.128600  1.0  0.6719
  C  C99  1  0.727000  0.147000  0.978100  1.0  0.6776
  C  C100  1  0.623300  0.281300  0.127800  1.0  0.0513
  C  C101  1  0.674600  0.289900  0.127000  1.0  -0.1325
  C  C102  1  0.685100  0.244600  0.126200  1.0  0.6682
  C  C103  1  0.475470  0.540330  0.620030  1.0  -0.1182
  C  C104  1  0.517970  0.533730  0.597630  1.0  0.0367
  C  C105  1  0.560270  0.547930  0.648730  1.0  -0.1365
  C  C106  1  0.561970  0.574330  0.716430  1.0  0.0694
  C  C107  1  0.520070  0.581930  0.736730  1.0  -0.1495
  C  C108  1  0.475670  0.562630  0.685830  1.0  0.0494
  C  C109  1  0.428470  0.521830  0.563330  1.0  0.6958
  C  C110  1  0.271870  0.398230  0.461930  1.0  0.6715
  C  C111  1  0.393670  0.480330  0.311430  1.0  0.6776
  C  C112  1  0.289970  0.614630  0.461130  1.0  0.0513
  C  C113  1  0.341270  0.623230  0.460330  1.0  -0.1325
  C  C114  1  0.351770  0.577930  0.459530  1.0  0.6682
  C  C115  1  0.142130  0.873670  0.953370  1.0  -0.1182
  C  C116  1  0.184630  0.867070  0.930970  1.0  0.0368
  C  C117  1  0.226930  0.881270  0.982070  1.0  -0.1369
  C  C118  1  0.228630  0.907670  0.049770  1.0  0.0695
  C  C119  1  0.186730  0.915270  0.070070  1.0  -0.1495
  C  C120  1  0.142330  0.895970  0.019170  1.0  0.0512
  C  C121  1  0.095130  0.855170  0.896670  1.0  0.6958
  C  C122  1  0.938530  0.731570  0.795270  1.0  0.6719
  C  C123  1  0.060330  0.813670  0.644770  1.0  0.6776
  C  C124  1  0.956630  0.947970  0.794470  1.0  0.0513
  C  C125  1  0.007930  0.956570  0.793670  1.0  -0.1325
  C  C126  1  0.018430  0.911270  0.792870  1.0  0.6682
  C  C127  1  0.793000  0.601800  0.286700  1.0  -0.1186
  C  C128  1  0.799600  0.650900  0.264300  1.0  0.0369
  C  C129  1  0.785400  0.679000  0.315400  1.0  -0.1345
  C  C130  1  0.759000  0.654300  0.383100  1.0  0.0696
  C  C131  1  0.751400  0.604800  0.403400  1.0  -0.1491
  C  C132  1  0.770700  0.579700  0.352500  1.0  0.0509
  C  C133  1  0.811500  0.573300  0.230000  1.0  0.6951
  C  C134  1  0.935100  0.540300  0.128600  1.0  0.6662
  C  C135  1  0.853000  0.580000  0.978100  1.0  0.6785
  C  C136  1  0.718700  0.342000  0.127800  1.0  0.0514
  C  C137  1  0.710100  0.384700  0.127000  1.0  -0.1325
  C  C138  1  0.755400  0.440500  0.126200  1.0  0.6701
  C  C139  1  0.459670  0.935130  0.620030  1.0  -0.1186
  C  C140  1  0.466270  0.984230  0.597630  1.0  0.0368
  C  C141  1  0.452070  0.012330  0.648730  1.0  -0.1345
  C  C142  1  0.425670  0.987630  0.716430  1.0  0.0696
  C  C143  1  0.418070  0.938130  0.736730  1.0  -0.1491
  C  C144  1  0.437370  0.913030  0.685830  1.0  0.0511
  C  C145  1  0.478170  0.906630  0.563330  1.0  0.6951
  C  C146  1  0.601770  0.873630  0.461930  1.0  0.6663
  C  C147  1  0.519670  0.913330  0.311430  1.0  0.6785
  C  C148  1  0.385370  0.675330  0.461130  1.0  0.0514
  C  C149  1  0.376770  0.718030  0.460330  1.0  -0.1325
  C  C150  1  0.422070  0.773830  0.459530  1.0  0.6701
  C  C151  1  0.126330  0.268470  0.953370  1.0  -0.1186
  C  C152  1  0.132930  0.317570  0.930970  1.0  0.0356
  C  C153  1  0.118730  0.345670  0.982070  1.0  -0.1342
  C  C154  1  0.092330  0.320970  0.049770  1.0  0.0696
  C  C155  1  0.084730  0.271470  0.070070  1.0  -0.1491
  C  C156  1  0.104030  0.246370  0.019170  1.0  0.0509
  C  C157  1  0.144830  0.239970  0.896670  1.0  0.6951
  C  C158  1  0.268430  0.206970  0.795270  1.0  0.6662
  C  C159  1  0.186330  0.246670  0.644770  1.0  0.6785
  C  C160  1  0.052030  0.008670  0.794470  1.0  0.0514
  C  C161  1  0.043430  0.051370  0.793670  1.0  -0.1325
  C  C162  1  0.088730  0.107170  0.792870  1.0  0.6701
  C  C163  1  0.398200  0.191200  0.286700  1.0  -0.1181
  C  C164  1  0.349100  0.148700  0.264300  1.0  0.0382
  C  C165  1  0.321000  0.106400  0.315400  1.0  -0.1366
  C  C166  1  0.345700  0.104700  0.383100  1.0  0.0699
  C  C167  1  0.395200  0.146600  0.403400  1.0  -0.15
  C  C168  1  0.420300  0.191000  0.352500  1.0  0.0511
  C  C169  1  0.426700  0.238200  0.230000  1.0  0.6965
  C  C170  1  0.459700  0.394800  0.128600  1.0  0.6708
  C  C171  1  0.420000  0.273000  0.978100  1.0  0.6777
  C  C172  1  0.658000  0.376700  0.127800  1.0  0.0517
  C  C173  1  0.615300  0.325400  0.127000  1.0  -0.133
  C  C174  1  0.559500  0.314900  0.126200  1.0  0.6674
  C  C175  1  0.064870  0.524530  0.620030  1.0  -0.1181
  C  C176  1  0.015770  0.482030  0.597630  1.0  0.0382
  C  C177  1  0.987670  0.439730  0.648730  1.0  -0.1367
  C  C178  1  0.012370  0.438030  0.716430  1.0  0.0699
  C  C179  1  0.061870  0.479930  0.736730  1.0  -0.15
  C  C180  1  0.086970  0.524330  0.685830  1.0  0.0511
  C  C181  1  0.093370  0.571530  0.563330  1.0  0.6965
  C  C182  1  0.126370  0.728130  0.461930  1.0  0.6711
  C  C183  1  0.086670  0.606330  0.311430  1.0  0.6777
  C  C184  1  0.324670  0.710030  0.461130  1.0  0.0517
  C  C185  1  0.281970  0.658730  0.460330  1.0  -0.133
  C  C186  1  0.226170  0.648230  0.459530  1.0  0.6674
  C  C187  1  0.731530  0.857870  0.953370  1.0  -0.1181
  C  C188  1  0.682430  0.815370  0.930970  1.0  0.0382
  C  C189  1  0.654330  0.773070  0.982070  1.0  -0.1365
  C  C190  1  0.679030  0.771370  0.049770  1.0  0.07
  C  C191  1  0.728530  0.813270  0.070070  1.0  -0.15
  C  C192  1  0.753630  0.857670  0.019170  1.0  0.0511
  C  C193  1  0.760030  0.904870  0.896670  1.0  0.6965
  C  C194  1  0.793030  0.061470  0.795270  1.0  0.6708
  C  C195  1  0.753330  0.939670  0.644770  1.0  0.6777
  C  C196  1  0.991330  0.043370  0.794470  1.0  0.0517
  C  C197  1  0.948630  0.992070  0.793670  1.0  -0.133
  C  C198  1  0.892830  0.981570  0.792870  1.0  0.6674
  C  C199  1  0.793000  0.191200  0.786700  1.0  -0.1177
  C  C200  1  0.799600  0.148700  0.764300  1.0  0.0367
  C  C201  1  0.785400  0.106400  0.815400  1.0  -0.1362
  C  C202  1  0.759000  0.104700  0.883100  1.0  0.0696
  C  C203  1  0.751400  0.146600  0.903400  1.0  -0.1496
  C  C204  1  0.770700  0.191000  0.852500  1.0  0.0512
  C  C205  1  0.811500  0.238200  0.730000  1.0  0.6965
  C  C206  1  0.935100  0.394800  0.628600  1.0  0.672
  C  C207  1  0.853000  0.273000  0.478100  1.0  0.6783
  C  C208  1  0.718700  0.376700  0.627800  1.0  0.0523
  C  C209  1  0.710100  0.325400  0.627000  1.0  -0.1329
  C  C210  1  0.755400  0.314900  0.626200  1.0  0.6675
  C  C211  1  0.459670  0.524530  0.120030  1.0  -0.1177
  C  C212  1  0.466270  0.482030  0.097630  1.0  0.0367
  C  C213  1  0.452070  0.439730  0.148730  1.0  -0.1362
  C  C214  1  0.425670  0.438030  0.216430  1.0  0.0696
  C  C215  1  0.418070  0.479930  0.236730  1.0  -0.1496
  C  C216  1  0.437370  0.524330  0.185830  1.0  0.0492
  C  C217  1  0.478170  0.571530  0.063330  1.0  0.6965
  C  C218  1  0.601770  0.728130  0.961930  1.0  0.6717
  C  C219  1  0.519670  0.606330  0.811430  1.0  0.6783
  C  C220  1  0.385370  0.710030  0.961130  1.0  0.0523
  C  C221  1  0.376770  0.658730  0.960330  1.0  -0.1329
  C  C222  1  0.422070  0.648230  0.959530  1.0  0.6675
  C  C223  1  0.126330  0.857870  0.453370  1.0  -0.1176
  C  C224  1  0.132930  0.815370  0.430970  1.0  0.0368
  C  C225  1  0.118730  0.773070  0.482070  1.0  -0.1366
  C  C226  1  0.092330  0.771370  0.549770  1.0  0.0695
  C  C227  1  0.084730  0.813270  0.570070  1.0  -0.1496
  C  C228  1  0.104030  0.857670  0.519170  1.0  0.0512
  C  C229  1  0.144830  0.904870  0.396670  1.0  0.6965
  C  C230  1  0.268430  0.061470  0.295270  1.0  0.672
  C  C231  1  0.186330  0.939670  0.144770  1.0  0.6784
  C  C232  1  0.052030  0.043370  0.294470  1.0  0.0523
  C  C233  1  0.043430  0.992070  0.293670  1.0  -0.1329
  C  C234  1  0.088730  0.981570  0.292870  1.0  0.6675
  C  C235  1  0.398200  0.207000  0.786700  1.0  -0.1183
  C  C236  1  0.349100  0.200400  0.764300  1.0  0.0369
  C  C237  1  0.321000  0.214600  0.815400  1.0  -0.1364
  C  C238  1  0.345700  0.241000  0.883100  1.0  0.0688
  C  C239  1  0.395200  0.248600  0.903400  1.0  -0.1496
  C  C240  1  0.420300  0.229300  0.852500  1.0  0.0506
  C  C241  1  0.426700  0.188500  0.730000  1.0  0.6959
  C  C242  1  0.459700  0.064900  0.628600  1.0  0.6721
  C  C243  1  0.420000  0.147000  0.478100  1.0  0.6782
  C  C244  1  0.658000  0.281300  0.627800  1.0  0.0516
  C  C245  1  0.615300  0.289900  0.627000  1.0  -0.1329
  C  C246  1  0.559500  0.244600  0.626200  1.0  0.6695
  C  C247  1  0.064870  0.540330  0.120030  1.0  -0.1183
  C  C248  1  0.015770  0.533730  0.097630  1.0  0.0369
  C  C249  1  0.987670  0.547930  0.148730  1.0  -0.1364
  C  C250  1  0.012370  0.574330  0.216430  1.0  0.0688
  C  C251  1  0.061870  0.581930  0.236730  1.0  -0.1496
  C  C252  1  0.086970  0.562630  0.185830  1.0  0.0508
  C  C253  1  0.093370  0.521830  0.063330  1.0  0.6959
  C  C254  1  0.126370  0.398230  0.961930  1.0  0.6723
  C  C255  1  0.086670  0.480330  0.811430  1.0  0.6782
  C  C256  1  0.324670  0.614630  0.961130  1.0  0.0516
  C  C257  1  0.281970  0.623230  0.960330  1.0  -0.1329
  C  C258  1  0.226170  0.577930  0.959530  1.0  0.6695
  C  C259  1  0.731530  0.873670  0.453370  1.0  -0.1183
  C  C260  1  0.682430  0.867070  0.430970  1.0  0.0356
  C  C261  1  0.654330  0.881270  0.482070  1.0  -0.1362
  C  C262  1  0.679030  0.907670  0.549770  1.0  0.0688
  C  C263  1  0.728530  0.915270  0.570070  1.0  -0.1496
  C  C264  1  0.753630  0.895970  0.519170  1.0  0.0506
  C  C265  1  0.760030  0.855170  0.396670  1.0  0.6959
  C  C266  1  0.793030  0.731570  0.295270  1.0  0.6721
  C  C267  1  0.753330  0.813670  0.144770  1.0  0.6782
  C  C268  1  0.991330  0.947970  0.294470  1.0  0.0516
  C  C269  1  0.948630  0.956570  0.293670  1.0  -0.1329
  C  C270  1  0.892830  0.911270  0.292870  1.0  0.6695
  C  C271  1  0.808800  0.601800  0.786700  1.0  -0.1186
  C  C272  1  0.851300  0.650900  0.764300  1.0  0.0365
  C  C273  1  0.893600  0.679000  0.815400  1.0  -0.1344
  C  C274  1  0.895300  0.654300  0.883100  1.0  0.07
  C  C275  1  0.853400  0.604800  0.903400  1.0  -0.1496
  C  C276  1  0.809000  0.579700  0.852500  1.0  0.051
  C  C277  1  0.761800  0.573300  0.730000  1.0  0.6955
  C  C278  1  0.605200  0.540300  0.628600  1.0  0.6665
  C  C279  1  0.727000  0.580000  0.478100  1.0  0.6785
  C  C280  1  0.623300  0.342000  0.627800  1.0  0.0486
  C  C281  1  0.674600  0.384700  0.627000  1.0  -0.1327
  C  C282  1  0.685100  0.440500  0.626200  1.0  0.6693
  C  C283  1  0.475470  0.935130  0.120030  1.0  -0.1185
  C  C284  1  0.517970  0.984230  0.097630  1.0  0.0365
  C  C285  1  0.560270  0.012330  0.148730  1.0  -0.1344
  C  C286  1  0.561970  0.987630  0.216430  1.0  0.07
  C  C287  1  0.520070  0.938130  0.236730  1.0  -0.1496
  C  C288  1  0.475670  0.913030  0.185830  1.0  0.051
  C  C289  1  0.428470  0.906630  0.063330  1.0  0.6955
  C  C290  1  0.271870  0.873630  0.961930  1.0  0.6669
  C  C291  1  0.393670  0.913330  0.811430  1.0  0.6785
  C  C292  1  0.289970  0.675330  0.961130  1.0  0.0486
  C  C293  1  0.341270  0.718030  0.960330  1.0  -0.1327
  C  C294  1  0.351770  0.773830  0.959530  1.0  0.6693
  C  C295  1  0.142130  0.268470  0.453370  1.0  -0.1186
  C  C296  1  0.184630  0.317570  0.430970  1.0  0.0365
  C  C297  1  0.226930  0.345670  0.482070  1.0  -0.1345
  C  C298  1  0.228630  0.320970  0.549770  1.0  0.07
  C  C299  1  0.186730  0.271470  0.570070  1.0  -0.1496
  C  C300  1  0.142330  0.246370  0.519170  1.0  0.051
  C  C301  1  0.095130  0.239970  0.396670  1.0  0.6955
  C  C302  1  0.938530  0.206970  0.295270  1.0  0.6665
  C  C303  1  0.060330  0.246670  0.144770  1.0  0.6785
  C  C304  1  0.956630  0.008670  0.294470  1.0  0.0486
  C  C305  1  0.007930  0.051370  0.293670  1.0  -0.1327
  C  C306  1  0.018430  0.107170  0.292870  1.0  0.6693
  O  O307  1  0.722800  0.190400  0.251100  1.0  -0.5763
  O  O308  1  0.766700  0.173000  0.165300  1.0  -0.5184
  O  O309  1  0.643400  0.088300  0.177800  1.0  -0.5353
  O  O310  1  0.606500  0.088100  0.065400  1.0  -0.6088
  O  O311  1  0.718000  0.111900  0.027500  1.0  -0.5336
  O  O312  1  0.715700  0.183000  0.993600  1.0  -0.555
  O  O313  1  0.731500  0.253100  0.119600  1.0  -0.5388
  O  O314  1  0.645500  0.197800  0.127700  1.0  -0.5216
  O  O315  1  0.389470  0.523730  0.584430  1.0  -0.5763
  O  O316  1  0.433370  0.506330  0.498630  1.0  -0.5184
  O  O317  1  0.310070  0.421630  0.511130  1.0  -0.5354
  O  O318  1  0.273170  0.421430  0.398730  1.0  -0.6086
  O  O319  1  0.384670  0.445230  0.360830  1.0  -0.5337
  O  O320  1  0.382370  0.516330  0.326930  1.0  -0.555
  O  O321  1  0.398170  0.586430  0.452930  1.0  -0.5388
  O  O322  1  0.312170  0.531130  0.461030  1.0  -0.5216
  O  O323  1  0.056130  0.857070  0.917770  1.0  -0.5763
  O  O324  1  0.100030  0.839670  0.831970  1.0  -0.5184
  O  O325  1  0.976730  0.754970  0.844470  1.0  -0.5353
  O  O326  1  0.939830  0.754770  0.732070  1.0  -0.6088
  O  O327  1  0.051330  0.778570  0.694170  1.0  -0.5334
  O  O328  1  0.049030  0.849670  0.660270  1.0  -0.555
  O  O329  1  0.064830  0.919770  0.786270  1.0  -0.5388
  O  O330  1  0.978830  0.864470  0.794370  1.0  -0.5216
  O  O331  1  0.809600  0.532400  0.251100  1.0  -0.5756
  O  O332  1  0.827000  0.593700  0.165300  1.0  -0.5191
  O  O333  1  0.911700  0.555100  0.177800  1.0  -0.534
  O  O334  1  0.911900  0.518400  0.065400  1.0  -0.6097
  O  O335  1  0.888100  0.606100  0.027500  1.0  -0.535
  O  O336  1  0.817000  0.532700  0.993600  1.0  -0.5548
  O  O337  1  0.746900  0.478400  0.119600  1.0  -0.5386
  O  O338  1  0.802200  0.447700  0.127700  1.0  -0.5195
  O  O339  1  0.476270  0.865730  0.584430  1.0  -0.5756
  O  O340  1  0.493670  0.927030  0.498630  1.0  -0.5191
  O  O341  1  0.578370  0.888430  0.511130  1.0  -0.5341
  O  O342  1  0.578570  0.851730  0.398730  1.0  -0.6099
  O  O343  1  0.554770  0.939430  0.360830  1.0  -0.535
  O  O344  1  0.483670  0.866030  0.326930  1.0  -0.5547
  O  O345  1  0.413570  0.811730  0.452930  1.0  -0.5386
  O  O346  1  0.468870  0.781030  0.461030  1.0  -0.5195
  O  O347  1  0.142930  0.199070  0.917770  1.0  -0.5756
  O  O348  1  0.160330  0.260370  0.831970  1.0  -0.5191
  O  O349  1  0.245030  0.221770  0.844470  1.0  -0.534
  O  O350  1  0.245230  0.185070  0.732070  1.0  -0.6097
  O  O351  1  0.221430  0.272770  0.694170  1.0  -0.535
  O  O352  1  0.150330  0.199370  0.660270  1.0  -0.5548
  O  O353  1  0.080230  0.145070  0.786270  1.0  -0.5386
  O  O354  1  0.135530  0.114370  0.794370  1.0  -0.5195
  O  O355  1  0.467600  0.277200  0.251100  1.0  -0.5744
  O  O356  1  0.406300  0.233300  0.165300  1.0  -0.5196
  O  O357  1  0.444900  0.356600  0.177800  1.0  -0.5365
  O  O358  1  0.481600  0.393500  0.065400  1.0  -0.6096
  O  O359  1  0.393900  0.282000  0.027500  1.0  -0.5339
  O  O360  1  0.467300  0.284300  0.993600  1.0  -0.5535
  O  O361  1  0.521600  0.268500  0.119600  1.0  -0.5409
  O  O362  1  0.552300  0.354500  0.127700  1.0  -0.5202
  O  O363  1  0.134270  0.610530  0.584430  1.0  -0.5744
  O  O364  1  0.072970  0.566630  0.498630  1.0  -0.5196
  O  O365  1  0.111570  0.689930  0.511130  1.0  -0.5364
  O  O366  1  0.148270  0.726830  0.398730  1.0  -0.6095
  O  O367  1  0.060570  0.615330  0.360830  1.0  -0.5339
  O  O368  1  0.133970  0.617630  0.326930  1.0  -0.5535
  O  O369  1  0.188270  0.601830  0.452930  1.0  -0.5409
  O  O370  1  0.218970  0.687830  0.461030  1.0  -0.5202
  O  O371  1  0.800930  0.943870  0.917770  1.0  -0.5744
  O  O372  1  0.739630  0.899970  0.831970  1.0  -0.5196
  O  O373  1  0.778230  0.023270  0.844470  1.0  -0.5365
  O  O374  1  0.814930  0.060170  0.732070  1.0  -0.6096
  O  O375  1  0.727230  0.948670  0.694170  1.0  -0.5339
  O  O376  1  0.800630  0.950970  0.660270  1.0  -0.5535
  O  O377  1  0.854930  0.935170  0.786270  1.0  -0.5409
  O  O378  1  0.885630  0.021170  0.794370  1.0  -0.5202
  O  O379  1  0.809600  0.277200  0.751100  1.0  -0.5743
  O  O380  1  0.827000  0.233300  0.665300  1.0  -0.5197
  O  O381  1  0.911700  0.356600  0.677800  1.0  -0.5356
  O  O382  1  0.911900  0.393500  0.565400  1.0  -0.6101
  O  O383  1  0.888100  0.282000  0.527500  1.0  -0.5379
  O  O384  1  0.817000  0.284300  0.493600  1.0  -0.5534
  O  O385  1  0.746900  0.268500  0.619600  1.0  -0.5372
  O  O386  1  0.802200  0.354500  0.627700  1.0  -0.5185
  O  O387  1  0.476270  0.610530  0.084430  1.0  -0.5743
  O  O388  1  0.493670  0.566630  0.998630  1.0  -0.5197
  O  O389  1  0.578370  0.689930  0.011130  1.0  -0.5357
  O  O390  1  0.578570  0.726830  0.898730  1.0  -0.6099
  O  O391  1  0.554770  0.615330  0.860830  1.0  -0.5379
  O  O392  1  0.483670  0.617630  0.826930  1.0  -0.5534
  O  O393  1  0.413570  0.601830  0.952930  1.0  -0.5372
  O  O394  1  0.468870  0.687830  0.961030  1.0  -0.5186
  O  O395  1  0.142930  0.943870  0.417770  1.0  -0.5743
  O  O396  1  0.160330  0.899970  0.331970  1.0  -0.5197
  O  O397  1  0.245030  0.023270  0.344470  1.0  -0.5356
  O  O398  1  0.245230  0.060170  0.232070  1.0  -0.6101
  O  O399  1  0.221430  0.948670  0.194170  1.0  -0.5376
  O  O400  1  0.150330  0.950970  0.160270  1.0  -0.5534
  O  O401  1  0.080230  0.935170  0.286270  1.0  -0.5372
  O  O402  1  0.135530  0.021170  0.294370  1.0  -0.5185
  O  O403  1  0.467600  0.190400  0.751100  1.0  -0.5754
  O  O404  1  0.406300  0.173000  0.665300  1.0  -0.5187
  O  O405  1  0.444900  0.088300  0.677800  1.0  -0.536
  O  O406  1  0.481600  0.088100  0.565400  1.0  -0.6087
  O  O407  1  0.393900  0.111900  0.527500  1.0  -0.5341
  O  O408  1  0.467300  0.183000  0.493600  1.0  -0.5549
  O  O409  1  0.521600  0.253100  0.619600  1.0  -0.539
  O  O410  1  0.552300  0.197800  0.627700  1.0  -0.5216
  O  O411  1  0.134270  0.523730  0.084430  1.0  -0.5754
  O  O412  1  0.072970  0.506330  0.998630  1.0  -0.5187
  O  O413  1  0.111570  0.421630  0.011130  1.0  -0.5362
  O  O414  1  0.148270  0.421430  0.898730  1.0  -0.6089
  O  O415  1  0.060570  0.445230  0.860830  1.0  -0.5341
  O  O416  1  0.133970  0.516330  0.826930  1.0  -0.5548
  O  O417  1  0.188270  0.586430  0.952930  1.0  -0.539
  O  O418  1  0.218970  0.531130  0.961030  1.0  -0.5216
  O  O419  1  0.800930  0.857070  0.417770  1.0  -0.5754
  O  O420  1  0.739630  0.839670  0.331970  1.0  -0.5187
  O  O421  1  0.778230  0.754970  0.344470  1.0  -0.536
  O  O422  1  0.814930  0.754770  0.232070  1.0  -0.6087
  O  O423  1  0.727230  0.778570  0.194170  1.0  -0.5341
  O  O424  1  0.800630  0.849670  0.160270  1.0  -0.5549
  O  O425  1  0.854930  0.919770  0.286270  1.0  -0.539
  O  O426  1  0.885630  0.864470  0.294370  1.0  -0.5216
  O  O427  1  0.722800  0.532400  0.751100  1.0  -0.5753
  O  O428  1  0.766700  0.593700  0.665300  1.0  -0.5189
  O  O429  1  0.643400  0.555100  0.677800  1.0  -0.534
  O  O430  1  0.606500  0.518400  0.565400  1.0  -0.6105
  O  O431  1  0.718000  0.606100  0.527500  1.0  -0.5346
  O  O432  1  0.715700  0.532700  0.493600  1.0  -0.5545
  O  O433  1  0.731500  0.478400  0.619600  1.0  -0.5417
  O  O434  1  0.645500  0.447700  0.627700  1.0  -0.5194
  O  O435  1  0.389470  0.865730  0.084430  1.0  -0.5753
  O  O436  1  0.433370  0.927030  0.998630  1.0  -0.5189
  O  O437  1  0.310070  0.888430  0.011130  1.0  -0.5339
  O  O438  1  0.273170  0.851730  0.898730  1.0  -0.6103
  O  O439  1  0.384670  0.939430  0.860830  1.0  -0.5346
  O  O440  1  0.382370  0.866030  0.826930  1.0  -0.5545
  O  O441  1  0.398170  0.811730  0.952930  1.0  -0.5417
  O  O442  1  0.312170  0.781030  0.961030  1.0  -0.5194
  O  O443  1  0.056130  0.199070  0.417770  1.0  -0.5753
  O  O444  1  0.100030  0.260370  0.331970  1.0  -0.5189
  O  O445  1  0.976730  0.221770  0.344470  1.0  -0.534
  O  O446  1  0.939830  0.185070  0.232070  1.0  -0.6105
  O  O447  1  0.051330  0.272770  0.194170  1.0  -0.5346
  O  O448  1  0.049030  0.199370  0.160270  1.0  -0.5545
  O  O449  1  0.064830  0.145070  0.286270  1.0  -0.5417
  O  O450  1  0.978830  0.114370  0.294370  1.0  -0.5194
