# generated using pymatgen
data_Tb2H18C36(NO5)3
_symmetry_space_group_name_H-M   'P 1'
_cell_length_a   36.76800000
_cell_length_b   21.22800000
_cell_length_c   19.23800000
_cell_angle_alpha   90.00000000
_cell_angle_beta   90.00000000
_cell_angle_gamma   90.00000000
_symmetry_Int_Tables_number   1
_chemical_formula_structural   Tb2H18C36(NO5)3
_chemical_formula_sum   'Tb16 H144 C288 N24 O120'
_cell_volume   15015.47261875
_cell_formula_units_Z   8
loop_
 _symmetry_equiv_pos_site_id
 _symmetry_equiv_pos_as_xyz
  1  'x, y, z'
loop_
 _atom_site_type_symbol
 _atom_site_label
 _atom_site_symmetry_multiplicity
 _atom_site_fract_x
 _atom_site_fract_y
 _atom_site_fract_z
 _atom_site_occupancy
 _atom_site_charge
  Tb  Tb1  1  0.228530  0.824310  0.438860  1.0  2.2367
  Tb  Tb2  1  0.193200  0.329680  0.469650  1.0  2.0806
  Tb  Tb3  1  0.728530  0.324310  0.438860  1.0  2.2357
  Tb  Tb4  1  0.693200  0.829680  0.469650  1.0  2.0806
  Tb  Tb5  1  0.771470  0.824310  0.061140  1.0  2.237
  Tb  Tb6  1  0.806800  0.329680  0.030350  1.0  2.0972
  Tb  Tb7  1  0.271470  0.324310  0.061140  1.0  2.2363
  Tb  Tb8  1  0.306800  0.829680  0.030350  1.0  2.0972
  Tb  Tb9  1  0.771470  0.175690  0.561140  1.0  2.2361
  Tb  Tb10  1  0.806800  0.670320  0.530350  1.0  2.0965
  Tb  Tb11  1  0.271470  0.675690  0.561140  1.0  2.2361
  Tb  Tb12  1  0.306800  0.170320  0.530350  1.0  2.0965
  Tb  Tb13  1  0.228530  0.175690  0.938860  1.0  2.236
  Tb  Tb14  1  0.193200  0.670320  0.969650  1.0  2.0802
  Tb  Tb15  1  0.728530  0.675690  0.938860  1.0  2.236
  Tb  Tb16  1  0.693200  0.170320  0.969650  1.0  2.0802
  H  H17  1  0.999100  0.228500  0.349800  1.0  0.0979
  H  H18  1  0.054100  0.183800  0.379100  1.0  0.0997
  H  H19  1  0.014300  0.014100  0.340400  1.0  0.0963
  H  H20  1  0.958100  0.058100  0.315100  1.0  0.0998
  H  H21  1  0.147000  0.170900  0.463400  1.0  0.0988
  H  H22  1  0.229400  0.050500  0.493900  1.0  0.0983
  H  H23  1  0.134500  0.987600  0.415900  1.0  0.1056
  H  H24  1  0.854300  0.158100  0.388500  1.0  0.1074
  H  H25  1  0.787700  0.262600  0.270300  1.0  0.0936
  H  H26  1  0.883500  0.206100  0.195100  1.0  0.0974
  H  H27  1  0.471200  0.761200  0.726900  1.0  0.0856
  H  H28  1  0.470200  0.943300  0.728900  1.0  0.1483
  H  H29  1  0.366400  0.816200  0.617800  1.0  0.1008
  H  H30  1  0.293900  0.934800  0.532600  1.0  0.101
  H  H31  1  0.381800  0.002800  0.632300  1.0  0.1056
  H  H32  1  0.909300  0.105200  0.309300  1.0  0.1822
  H  H33  1  0.089300  0.132000  0.435900  1.0  0.2307
  H  H34  1  0.426900  0.935300  0.670600  1.0  0.2304
  H  H35  1  0.499100  0.728500  0.349800  1.0  0.0979
  H  H36  1  0.554100  0.683800  0.379100  1.0  0.0997
  H  H37  1  0.514300  0.514100  0.340400  1.0  0.0963
  H  H38  1  0.458100  0.558100  0.315100  1.0  0.0998
  H  H39  1  0.647000  0.670900  0.463400  1.0  0.0988
  H  H40  1  0.729400  0.550500  0.493900  1.0  0.0983
  H  H41  1  0.634500  0.487600  0.415900  1.0  0.1056
  H  H42  1  0.354300  0.658100  0.388500  1.0  0.1074
  H  H43  1  0.287700  0.762600  0.270300  1.0  0.0936
  H  H44  1  0.383500  0.706100  0.195100  1.0  0.0974
  H  H45  1  0.971200  0.261200  0.726900  1.0  0.0856
  H  H46  1  0.970200  0.443300  0.728900  1.0  0.1483
  H  H47  1  0.866400  0.316200  0.617800  1.0  0.1008
  H  H48  1  0.793900  0.434800  0.532600  1.0  0.101
  H  H49  1  0.881800  0.502800  0.632300  1.0  0.1056
  H  H50  1  0.409300  0.605200  0.309300  1.0  0.1822
  H  H51  1  0.589300  0.632000  0.435900  1.0  0.2307
  H  H52  1  0.926900  0.435300  0.670600  1.0  0.2304
  H  H53  1  0.000900  0.228500  0.150200  1.0  0.0983
  H  H54  1  0.945900  0.183800  0.120900  1.0  0.0976
  H  H55  1  0.985700  0.014100  0.159600  1.0  0.0967
  H  H56  1  0.041900  0.058100  0.184900  1.0  0.1006
  H  H57  1  0.853000  0.170900  0.036600  1.0  0.0963
  H  H58  1  0.770600  0.050500  0.006100  1.0  0.0978
  H  H59  1  0.865500  0.987600  0.084100  1.0  0.1058
  H  H60  1  0.145700  0.158100  0.111500  1.0  0.1081
  H  H61  1  0.212300  0.262600  0.229700  1.0  0.0942
  H  H62  1  0.116500  0.206100  0.304900  1.0  0.0974
  H  H63  1  0.528800  0.761200  0.773100  1.0  0.0856
  H  H64  1  0.529800  0.943300  0.771100  1.0  0.1482
  H  H65  1  0.633600  0.816200  0.882200  1.0  0.1005
  H  H66  1  0.706100  0.934800  0.967400  1.0  0.1011
  H  H67  1  0.618200  0.002800  0.867700  1.0  0.1064
  H  H68  1  0.090700  0.105200  0.190700  1.0  0.1823
  H  H69  1  0.910700  0.132000  0.064100  1.0  0.2322
  H  H70  1  0.573100  0.935300  0.829400  1.0  0.2304
  H  H71  1  0.500900  0.728500  0.150200  1.0  0.0983
  H  H72  1  0.445900  0.683800  0.120900  1.0  0.0976
  H  H73  1  0.485700  0.514100  0.159600  1.0  0.0967
  H  H74  1  0.541900  0.558100  0.184900  1.0  0.1006
  H  H75  1  0.353000  0.670900  0.036600  1.0  0.0963
  H  H76  1  0.270600  0.550500  0.006100  1.0  0.0978
  H  H77  1  0.365500  0.487600  0.084100  1.0  0.1058
  H  H78  1  0.645700  0.658100  0.111500  1.0  0.1081
  H  H79  1  0.712300  0.762600  0.229700  1.0  0.0942
  H  H80  1  0.616500  0.706100  0.304900  1.0  0.0974
  H  H81  1  0.028800  0.261200  0.773100  1.0  0.0856
  H  H82  1  0.029800  0.443300  0.771100  1.0  0.1482
  H  H83  1  0.133600  0.316200  0.882200  1.0  0.1005
  H  H84  1  0.206100  0.434800  0.967400  1.0  0.1011
  H  H85  1  0.118200  0.502800  0.867700  1.0  0.1064
  H  H86  1  0.590700  0.605200  0.190700  1.0  0.1823
  H  H87  1  0.410700  0.632000  0.064100  1.0  0.2322
  H  H88  1  0.073100  0.435300  0.829400  1.0  0.2304
  H  H89  1  0.000900  0.771500  0.650200  1.0  0.0975
  H  H90  1  0.945900  0.816200  0.620900  1.0  0.0984
  H  H91  1  0.985700  0.985900  0.659600  1.0  0.0962
  H  H92  1  0.041900  0.941900  0.684900  1.0  0.1004
  H  H93  1  0.853000  0.829100  0.536600  1.0  0.0983
  H  H94  1  0.770600  0.949500  0.506100  1.0  0.0981
  H  H95  1  0.865500  0.012400  0.584100  1.0  0.1054
  H  H96  1  0.145700  0.841900  0.611500  1.0  0.1078
  H  H97  1  0.212300  0.737400  0.729700  1.0  0.0938
  H  H98  1  0.116500  0.793900  0.804900  1.0  0.0972
  H  H99  1  0.528800  0.238800  0.273100  1.0  0.0848
  H  H100  1  0.529800  0.056700  0.271100  1.0  0.1473
  H  H101  1  0.633600  0.183800  0.382200  1.0  0.1005
  H  H102  1  0.706100  0.065200  0.467400  1.0  0.1013
  H  H103  1  0.618200  0.997200  0.367700  1.0  0.1067
  H  H104  1  0.090700  0.894800  0.690700  1.0  0.1827
  H  H105  1  0.910700  0.868000  0.564100  1.0  0.2327
  H  H106  1  0.573100  0.064700  0.329400  1.0  0.2303
  H  H107  1  0.500900  0.271500  0.650200  1.0  0.0975
  H  H108  1  0.445900  0.316200  0.620900  1.0  0.0984
  H  H109  1  0.485700  0.485900  0.659600  1.0  0.0962
  H  H110  1  0.541900  0.441900  0.684900  1.0  0.1004
  H  H111  1  0.353000  0.329100  0.536600  1.0  0.0983
  H  H112  1  0.270600  0.449500  0.506100  1.0  0.0981
  H  H113  1  0.365500  0.512400  0.584100  1.0  0.1054
  H  H114  1  0.645700  0.341900  0.611500  1.0  0.1078
  H  H115  1  0.712300  0.237400  0.729700  1.0  0.0938
  H  H116  1  0.616500  0.293900  0.804900  1.0  0.0972
  H  H117  1  0.028800  0.738800  0.273100  1.0  0.0848
  H  H118  1  0.029800  0.556700  0.271100  1.0  0.1473
  H  H119  1  0.133600  0.683800  0.382200  1.0  0.1005
  H  H120  1  0.206100  0.565200  0.467400  1.0  0.1013
  H  H121  1  0.118200  0.497200  0.367700  1.0  0.1067
  H  H122  1  0.590700  0.394800  0.690700  1.0  0.1827
  H  H123  1  0.410700  0.368000  0.564100  1.0  0.2327
  H  H124  1  0.073100  0.564700  0.329400  1.0  0.2303
  H  H125  1  0.999100  0.771500  0.849800  1.0  0.098
  H  H126  1  0.054100  0.816200  0.879100  1.0  0.0984
  H  H127  1  0.014300  0.985900  0.840400  1.0  0.0956
  H  H128  1  0.958100  0.941900  0.815100  1.0  0.101
  H  H129  1  0.147000  0.829100  0.963400  1.0  0.0963
  H  H130  1  0.229400  0.949500  0.993900  1.0  0.0982
  H  H131  1  0.134500  0.012400  0.915900  1.0  0.1064
  H  H132  1  0.854300  0.841900  0.888500  1.0  0.1074
  H  H133  1  0.787700  0.737400  0.770300  1.0  0.0935
  H  H134  1  0.883500  0.793900  0.695100  1.0  0.097
  H  H135  1  0.471200  0.238800  0.226900  1.0  0.0853
  H  H136  1  0.470200  0.056700  0.228900  1.0  0.1471
  H  H137  1  0.366400  0.183800  0.117800  1.0  0.1007
  H  H138  1  0.293900  0.065200  0.032600  1.0  0.1006
  H  H139  1  0.381800  0.997200  0.132300  1.0  0.1062
  H  H140  1  0.909300  0.894800  0.809300  1.0  0.1825
  H  H141  1  0.089300  0.868000  0.935900  1.0  0.2313
  H  H142  1  0.426900  0.064700  0.170600  1.0  0.2305
  H  H143  1  0.499100  0.271500  0.849800  1.0  0.098
  H  H144  1  0.554100  0.316200  0.879100  1.0  0.0984
  H  H145  1  0.514300  0.485900  0.840400  1.0  0.0956
  H  H146  1  0.458100  0.441900  0.815100  1.0  0.101
  H  H147  1  0.647000  0.329100  0.963400  1.0  0.0963
  H  H148  1  0.729400  0.449500  0.993900  1.0  0.0982
  H  H149  1  0.634500  0.512400  0.915900  1.0  0.1064
  H  H150  1  0.354300  0.341900  0.888500  1.0  0.1074
  H  H151  1  0.287700  0.237400  0.770300  1.0  0.0935
  H  H152  1  0.383500  0.293900  0.695100  1.0  0.097
  H  H153  1  0.971200  0.738800  0.226900  1.0  0.0853
  H  H154  1  0.970200  0.556700  0.228900  1.0  0.1471
  H  H155  1  0.866400  0.683800  0.117800  1.0  0.1007
  H  H156  1  0.793900  0.565200  0.032600  1.0  0.1006
  H  H157  1  0.881800  0.497200  0.132300  1.0  0.1062
  H  H158  1  0.409300  0.394800  0.809300  1.0  0.1825
  H  H159  1  0.589300  0.368000  0.935900  1.0  0.2313
  H  H160  1  0.926900  0.564700  0.170600  1.0  0.2305
  C  C161  1  0.972830  0.147700  0.330000  1.0  -0.142
  C  C162  1  0.001760  0.184900  0.348700  1.0  -0.0468
  C  C163  1  0.034900  0.158100  0.365700  1.0  -0.1408
  C  C164  1  0.039660  0.094940  0.363100  1.0  -0.0313
  C  C165  1  0.011150  0.057500  0.343300  1.0  -0.0612
  C  C166  1  0.977490  0.083900  0.327400  1.0  -0.1542
  C  C167  1  0.076150  0.064440  0.374900  1.0  0.5646
  C  C168  1  0.938200  0.181100  0.309000  1.0  0.5873
  C  C169  1  0.134560  0.081220  0.436470  1.0  0.2347
  C  C170  1  0.156350  0.130290  0.461050  1.0  -0.1182
  C  C171  1  0.191580  0.119140  0.481830  1.0  -0.161
  C  C172  1  0.205710  0.058390  0.479340  1.0  0.0161
  C  C173  1  0.184130  0.009760  0.455030  1.0  -0.1673
  C  C174  1  0.148600  0.020570  0.432890  1.0  -0.0825
  C  C175  1  0.214660  0.173260  0.507100  1.0  0.7527
  C  C176  1  0.198460  0.943620  0.453180  1.0  0.683
  C  C177  1  0.874040  0.177620  0.293000  1.0  0.2062
  C  C178  1  0.849180  0.178410  0.346850  1.0  -0.0647
  C  C179  1  0.816590  0.209840  0.337990  1.0  -0.174
  C  C180  1  0.809360  0.240500  0.275650  1.0  -0.0037
  C  C181  1  0.833690  0.238590  0.222260  1.0  -0.1529
  C  C182  1  0.866610  0.207200  0.231010  1.0  -0.1786
  C  C183  1  0.825600  0.271500  0.154600  1.0  0.6985
  C  C184  1  0.790570  0.213720  0.397000  1.0  0.766
  C  C185  1  0.465450  0.852400  0.721300  1.0  0.1326
  C  C186  1  0.482610  0.799400  0.735800  1.0  -0.0864
  C  C187  1  0.482040  0.905200  0.736300  1.0  -0.1507
  C  C188  1  0.427390  0.848000  0.691500  1.0  0.5074
  C  C189  1  0.379690  0.907650  0.630400  1.0  0.1851
  C  C190  1  0.358960  0.857140  0.608300  1.0  -0.088
  C  C191  1  0.326860  0.867850  0.571920  1.0  -0.1635
  C  C192  1  0.315310  0.928290  0.557220  1.0  0.013
  C  C193  1  0.335980  0.979400  0.579540  1.0  -0.1843
  C  C194  1  0.368110  0.968810  0.616700  1.0  -0.1043
  C  C195  1  0.304900  0.811260  0.549440  1.0  0.7429
  C  C196  1  0.325000  0.045750  0.563630  1.0  0.6331
  C  C197  1  0.472830  0.647700  0.330000  1.0  -0.142
  C  C198  1  0.501760  0.684900  0.348700  1.0  -0.0468
  C  C199  1  0.534900  0.658100  0.365700  1.0  -0.1408
  C  C200  1  0.539660  0.594940  0.363100  1.0  -0.0313
  C  C201  1  0.511150  0.557500  0.343300  1.0  -0.0612
  C  C202  1  0.477490  0.583900  0.327400  1.0  -0.1542
  C  C203  1  0.576150  0.564440  0.374900  1.0  0.5646
  C  C204  1  0.438200  0.681100  0.309000  1.0  0.5873
  C  C205  1  0.634560  0.581220  0.436470  1.0  0.2347
  C  C206  1  0.656350  0.630290  0.461050  1.0  -0.1182
  C  C207  1  0.691580  0.619140  0.481830  1.0  -0.161
  C  C208  1  0.705710  0.558390  0.479340  1.0  0.0161
  C  C209  1  0.684130  0.509760  0.455030  1.0  -0.1673
  C  C210  1  0.648600  0.520570  0.432890  1.0  -0.0825
  C  C211  1  0.714660  0.673260  0.507100  1.0  0.7527
  C  C212  1  0.698460  0.443620  0.453180  1.0  0.683
  C  C213  1  0.374040  0.677620  0.293000  1.0  0.2062
  C  C214  1  0.349180  0.678410  0.346850  1.0  -0.0647
  C  C215  1  0.316590  0.709840  0.337990  1.0  -0.174
  C  C216  1  0.309360  0.740500  0.275650  1.0  -0.0037
  C  C217  1  0.333690  0.738590  0.222260  1.0  -0.1529
  C  C218  1  0.366610  0.707200  0.231010  1.0  -0.1786
  C  C219  1  0.325600  0.771500  0.154600  1.0  0.6985
  C  C220  1  0.290570  0.713720  0.397000  1.0  0.766
  C  C221  1  0.965450  0.352400  0.721300  1.0  0.1326
  C  C222  1  0.982610  0.299400  0.735800  1.0  -0.0864
  C  C223  1  0.982040  0.405200  0.736300  1.0  -0.1507
  C  C224  1  0.927390  0.348000  0.691500  1.0  0.5074
  C  C225  1  0.879690  0.407650  0.630400  1.0  0.1851
  C  C226  1  0.858960  0.357140  0.608300  1.0  -0.088
  C  C227  1  0.826860  0.367850  0.571920  1.0  -0.1635
  C  C228  1  0.815310  0.428290  0.557220  1.0  0.013
  C  C229  1  0.835980  0.479400  0.579540  1.0  -0.1843
  C  C230  1  0.868110  0.468810  0.616700  1.0  -0.1043
  C  C231  1  0.804900  0.311260  0.549440  1.0  0.7429
  C  C232  1  0.825000  0.545750  0.563630  1.0  0.6331
  C  C233  1  0.027170  0.147700  0.170000  1.0  -0.1444
  C  C234  1  0.998240  0.184900  0.151300  1.0  -0.0484
  C  C235  1  0.965100  0.158100  0.134300  1.0  -0.1415
  C  C236  1  0.960340  0.094940  0.136900  1.0  -0.0357
  C  C237  1  0.988850  0.057500  0.156700  1.0  -0.0633
  C  C238  1  0.022510  0.083900  0.172600  1.0  -0.1549
  C  C239  1  0.923850  0.064440  0.125100  1.0  0.5664
  C  C240  1  0.061800  0.181100  0.191000  1.0  0.5911
  C  C241  1  0.865440  0.081220  0.063530  1.0  0.234
  C  C242  1  0.843650  0.130290  0.038950  1.0  -0.1173
  C  C243  1  0.808420  0.119140  0.018170  1.0  -0.1607
  C  C244  1  0.794290  0.058390  0.020660  1.0  0.0146
  C  C245  1  0.815870  0.009760  0.044970  1.0  -0.1674
  C  C246  1  0.851400  0.020570  0.067110  1.0  -0.0825
  C  C247  1  0.785340  0.173260  0.992900  1.0  0.7521
  C  C248  1  0.801540  0.943620  0.046820  1.0  0.6836
  C  C249  1  0.125960  0.177620  0.207000  1.0  0.2062
  C  C250  1  0.150820  0.178410  0.153150  1.0  -0.0636
  C  C251  1  0.183410  0.209840  0.162010  1.0  -0.1745
  C  C252  1  0.190640  0.240500  0.224350  1.0  -0.0037
  C  C253  1  0.166310  0.238590  0.277740  1.0  -0.1526
  C  C254  1  0.133390  0.207200  0.268990  1.0  -0.1799
  C  C255  1  0.174400  0.271500  0.345400  1.0  0.699
  C  C256  1  0.209430  0.213720  0.103000  1.0  0.7646
  C  C257  1  0.534550  0.852400  0.778700  1.0  0.135
  C  C258  1  0.517390  0.799400  0.764200  1.0  -0.0848
  C  C259  1  0.517960  0.905200  0.763700  1.0  -0.1487
  C  C260  1  0.572610  0.848000  0.808500  1.0  0.5088
  C  C261  1  0.620310  0.907650  0.869600  1.0  0.1854
  C  C262  1  0.641040  0.857140  0.891700  1.0  -0.0881
  C  C263  1  0.673140  0.867850  0.928080  1.0  -0.1627
  C  C264  1  0.684690  0.928290  0.942780  1.0  0.0127
  C  C265  1  0.664020  0.979400  0.920460  1.0  -0.1839
  C  C266  1  0.631890  0.968810  0.883300  1.0  -0.1036
  C  C267  1  0.695100  0.811260  0.950560  1.0  0.7428
  C  C268  1  0.675000  0.045750  0.936370  1.0  0.6316
  C  C269  1  0.527170  0.647700  0.170000  1.0  -0.1444
  C  C270  1  0.498240  0.684900  0.151300  1.0  -0.0484
  C  C271  1  0.465100  0.658100  0.134300  1.0  -0.1415
  C  C272  1  0.460340  0.594940  0.136900  1.0  -0.0357
  C  C273  1  0.488850  0.557500  0.156700  1.0  -0.0633
  C  C274  1  0.522510  0.583900  0.172600  1.0  -0.1549
  C  C275  1  0.423850  0.564440  0.125100  1.0  0.5664
  C  C276  1  0.561800  0.681100  0.191000  1.0  0.5911
  C  C277  1  0.365440  0.581220  0.063530  1.0  0.234
  C  C278  1  0.343650  0.630290  0.038950  1.0  -0.1173
  C  C279  1  0.308420  0.619140  0.018170  1.0  -0.1607
  C  C280  1  0.294290  0.558390  0.020660  1.0  0.0146
  C  C281  1  0.315870  0.509760  0.044970  1.0  -0.1674
  C  C282  1  0.351400  0.520570  0.067110  1.0  -0.0825
  C  C283  1  0.285340  0.673260  0.992900  1.0  0.7521
  C  C284  1  0.301540  0.443620  0.046820  1.0  0.6836
  C  C285  1  0.625960  0.677620  0.207000  1.0  0.2062
  C  C286  1  0.650820  0.678410  0.153150  1.0  -0.0636
  C  C287  1  0.683410  0.709840  0.162010  1.0  -0.1745
  C  C288  1  0.690640  0.740500  0.224350  1.0  -0.0037
  C  C289  1  0.666310  0.738590  0.277740  1.0  -0.1526
  C  C290  1  0.633390  0.707200  0.268990  1.0  -0.1799
  C  C291  1  0.674400  0.771500  0.345400  1.0  0.699
  C  C292  1  0.709430  0.713720  0.103000  1.0  0.7646
  C  C293  1  0.034550  0.352400  0.778700  1.0  0.135
  C  C294  1  0.017390  0.299400  0.764200  1.0  -0.0848
  C  C295  1  0.017960  0.405200  0.763700  1.0  -0.1487
  C  C296  1  0.072610  0.348000  0.808500  1.0  0.5088
  C  C297  1  0.120310  0.407650  0.869600  1.0  0.1854
  C  C298  1  0.141040  0.357140  0.891700  1.0  -0.0881
  C  C299  1  0.173140  0.367850  0.928080  1.0  -0.1627
  C  C300  1  0.184690  0.428290  0.942780  1.0  0.0127
  C  C301  1  0.164020  0.479400  0.920460  1.0  -0.1839
  C  C302  1  0.131890  0.468810  0.883300  1.0  -0.1036
  C  C303  1  0.195100  0.311260  0.950560  1.0  0.7428
  C  C304  1  0.175000  0.545750  0.936370  1.0  0.6316
  C  C305  1  0.027170  0.852300  0.670000  1.0  -0.1451
  C  C306  1  0.998240  0.815100  0.651300  1.0  -0.0494
  C  C307  1  0.965100  0.841900  0.634300  1.0  -0.1412
  C  C308  1  0.960340  0.905060  0.636900  1.0  -0.0344
  C  C309  1  0.988850  0.942500  0.656700  1.0  -0.0626
  C  C310  1  0.022510  0.916100  0.672600  1.0  -0.1558
  C  C311  1  0.923850  0.935560  0.625100  1.0  0.5655
  C  C312  1  0.061800  0.818900  0.691000  1.0  0.5904
  C  C313  1  0.865440  0.918780  0.563530  1.0  0.2343
  C  C314  1  0.843650  0.869710  0.538950  1.0  -0.1168
  C  C315  1  0.808420  0.880860  0.518170  1.0  -0.1616
  C  C316  1  0.794290  0.941610  0.520660  1.0  0.0147
  C  C317  1  0.815870  0.990240  0.544970  1.0  -0.1675
  C  C318  1  0.851400  0.979430  0.567110  1.0  -0.0825
  C  C319  1  0.785340  0.826740  0.492900  1.0  0.7522
  C  C320  1  0.801540  0.056380  0.546820  1.0  0.6837
  C  C321  1  0.125960  0.822380  0.707000  1.0  0.2062
  C  C322  1  0.150820  0.821590  0.653150  1.0  -0.0642
  C  C323  1  0.183410  0.790160  0.662010  1.0  -0.1745
  C  C324  1  0.190640  0.759500  0.724350  1.0  -0.004
  C  C325  1  0.166310  0.761410  0.777740  1.0  -0.1524
  C  C326  1  0.133390  0.792800  0.768990  1.0  -0.1796
  C  C327  1  0.174400  0.728500  0.845400  1.0  0.6987
  C  C328  1  0.209430  0.786280  0.603000  1.0  0.7646
  C  C329  1  0.534550  0.147600  0.278700  1.0  0.1356
  C  C330  1  0.517390  0.200600  0.264200  1.0  -0.0843
  C  C331  1  0.517960  0.094800  0.263700  1.0  -0.1518
  C  C332  1  0.572610  0.152000  0.308500  1.0  0.5092
  C  C333  1  0.620310  0.092350  0.369600  1.0  0.1854
  C  C334  1  0.641040  0.142860  0.391700  1.0  -0.0876
  C  C335  1  0.673140  0.132150  0.428080  1.0  -0.1629
  C  C336  1  0.684690  0.071710  0.442780  1.0  0.0127
  C  C337  1  0.664020  0.020600  0.420460  1.0  -0.1844
  C  C338  1  0.631890  0.031190  0.383300  1.0  -0.1039
  C  C339  1  0.695100  0.188740  0.450560  1.0  0.7422
  C  C340  1  0.675000  0.954250  0.436370  1.0  0.6325
  C  C341  1  0.527170  0.352300  0.670000  1.0  -0.1451
  C  C342  1  0.498240  0.315100  0.651300  1.0  -0.0494
  C  C343  1  0.465100  0.341900  0.634300  1.0  -0.1412
  C  C344  1  0.460340  0.405060  0.636900  1.0  -0.0344
  C  C345  1  0.488850  0.442500  0.656700  1.0  -0.0626
  C  C346  1  0.522510  0.416100  0.672600  1.0  -0.1558
  C  C347  1  0.423850  0.435560  0.625100  1.0  0.5655
  C  C348  1  0.561800  0.318900  0.691000  1.0  0.5904
  C  C349  1  0.365440  0.418780  0.563530  1.0  0.2343
  C  C350  1  0.343650  0.369710  0.538950  1.0  -0.1168
  C  C351  1  0.308420  0.380860  0.518170  1.0  -0.1616
  C  C352  1  0.294290  0.441610  0.520660  1.0  0.0147
  C  C353  1  0.315870  0.490240  0.544970  1.0  -0.1675
  C  C354  1  0.351400  0.479430  0.567110  1.0  -0.0825
  C  C355  1  0.285340  0.326740  0.492900  1.0  0.7522
  C  C356  1  0.301540  0.556380  0.546820  1.0  0.6837
  C  C357  1  0.625960  0.322380  0.707000  1.0  0.2062
  C  C358  1  0.650820  0.321590  0.653150  1.0  -0.0642
  C  C359  1  0.683410  0.290160  0.662010  1.0  -0.1745
  C  C360  1  0.690640  0.259500  0.724350  1.0  -0.004
  C  C361  1  0.666310  0.261410  0.777740  1.0  -0.1524
  C  C362  1  0.633390  0.292800  0.768990  1.0  -0.1796
  C  C363  1  0.674400  0.228500  0.845400  1.0  0.6987
  C  C364  1  0.709430  0.286280  0.603000  1.0  0.7646
  C  C365  1  0.034550  0.647600  0.278700  1.0  0.1356
  C  C366  1  0.017390  0.700600  0.264200  1.0  -0.0843
  C  C367  1  0.017960  0.594800  0.263700  1.0  -0.1518
  C  C368  1  0.072610  0.652000  0.308500  1.0  0.5092
  C  C369  1  0.120310  0.592350  0.369600  1.0  0.1854
  C  C370  1  0.141040  0.642860  0.391700  1.0  -0.0876
  C  C371  1  0.173140  0.632150  0.428080  1.0  -0.1629
  C  C372  1  0.184690  0.571710  0.442780  1.0  0.0127
  C  C373  1  0.164020  0.520600  0.420460  1.0  -0.1844
  C  C374  1  0.131890  0.531190  0.383300  1.0  -0.1039
  C  C375  1  0.195100  0.688740  0.450560  1.0  0.7422
  C  C376  1  0.175000  0.454250  0.436370  1.0  0.6325
  C  C377  1  0.972830  0.852300  0.830000  1.0  -0.1407
  C  C378  1  0.001760  0.815100  0.848700  1.0  -0.0485
  C  C379  1  0.034900  0.841900  0.865700  1.0  -0.142
  C  C380  1  0.039660  0.905060  0.863100  1.0  -0.0333
  C  C381  1  0.011150  0.942500  0.843300  1.0  -0.0622
  C  C382  1  0.977490  0.916100  0.827400  1.0  -0.1562
  C  C383  1  0.076150  0.935560  0.874900  1.0  0.5634
  C  C384  1  0.938200  0.818900  0.809000  1.0  0.5892
  C  C385  1  0.134560  0.918780  0.936470  1.0  0.2347
  C  C386  1  0.156350  0.869710  0.961050  1.0  -0.1191
  C  C387  1  0.191580  0.880860  0.981830  1.0  -0.1609
  C  C388  1  0.205710  0.941610  0.979340  1.0  0.016
  C  C389  1  0.184130  0.990240  0.955030  1.0  -0.168
  C  C390  1  0.148600  0.979430  0.932890  1.0  -0.0836
  C  C391  1  0.214660  0.826740  0.007100  1.0  0.7534
  C  C392  1  0.198460  0.056380  0.953180  1.0  0.6834
  C  C393  1  0.874040  0.822380  0.793000  1.0  0.2065
  C  C394  1  0.849180  0.821590  0.846850  1.0  -0.0655
  C  C395  1  0.816590  0.790160  0.837990  1.0  -0.174
  C  C396  1  0.809360  0.759500  0.775650  1.0  -0.0041
  C  C397  1  0.833690  0.761410  0.722260  1.0  -0.1525
  C  C398  1  0.866610  0.792800  0.731010  1.0  -0.1789
  C  C399  1  0.825600  0.728500  0.654600  1.0  0.6977
  C  C400  1  0.790570  0.786280  0.897000  1.0  0.7659
  C  C401  1  0.465450  0.147600  0.221300  1.0  0.1334
  C  C402  1  0.482610  0.200600  0.235800  1.0  -0.0828
  C  C403  1  0.482040  0.094800  0.236300  1.0  -0.1501
  C  C404  1  0.427390  0.152000  0.191500  1.0  0.5074
  C  C405  1  0.379690  0.092350  0.130400  1.0  0.1851
  C  C406  1  0.358960  0.142860  0.108300  1.0  -0.0877
  C  C407  1  0.326860  0.132150  0.071920  1.0  -0.1631
  C  C408  1  0.315310  0.071710  0.057220  1.0  0.013
  C  C409  1  0.335980  0.020600  0.079540  1.0  -0.1851
  C  C410  1  0.368110  0.031190  0.116700  1.0  -0.1043
  C  C411  1  0.304900  0.188740  0.049440  1.0  0.7422
  C  C412  1  0.325000  0.954250  0.063630  1.0  0.6334
  C  C413  1  0.472830  0.352300  0.830000  1.0  -0.1407
  C  C414  1  0.501760  0.315100  0.848700  1.0  -0.0485
  C  C415  1  0.534900  0.341900  0.865700  1.0  -0.142
  C  C416  1  0.539660  0.405060  0.863100  1.0  -0.0333
  C  C417  1  0.511150  0.442500  0.843300  1.0  -0.0622
  C  C418  1  0.477490  0.416100  0.827400  1.0  -0.1562
  C  C419  1  0.576150  0.435560  0.874900  1.0  0.5634
  C  C420  1  0.438200  0.318900  0.809000  1.0  0.5892
  C  C421  1  0.634560  0.418780  0.936470  1.0  0.2347
  C  C422  1  0.656350  0.369710  0.961050  1.0  -0.1191
  C  C423  1  0.691580  0.380860  0.981830  1.0  -0.1609
  C  C424  1  0.705710  0.441610  0.979340  1.0  0.016
  C  C425  1  0.684130  0.490240  0.955030  1.0  -0.168
  C  C426  1  0.648600  0.479430  0.932890  1.0  -0.0836
  C  C427  1  0.714660  0.326740  0.007100  1.0  0.7534
  C  C428  1  0.698460  0.556380  0.953180  1.0  0.6834
  C  C429  1  0.374040  0.322380  0.793000  1.0  0.2065
  C  C430  1  0.349180  0.321590  0.846850  1.0  -0.0655
  C  C431  1  0.316590  0.290160  0.837990  1.0  -0.174
  C  C432  1  0.309360  0.259500  0.775650  1.0  -0.0041
  C  C433  1  0.333690  0.261410  0.722260  1.0  -0.1525
  C  C434  1  0.366610  0.292800  0.731010  1.0  -0.1789
  C  C435  1  0.325600  0.228500  0.654600  1.0  0.6977
  C  C436  1  0.290570  0.286280  0.897000  1.0  0.7659
  C  C437  1  0.965450  0.647600  0.221300  1.0  0.1334
  C  C438  1  0.982610  0.700600  0.235800  1.0  -0.0828
  C  C439  1  0.982040  0.594800  0.236300  1.0  -0.1501
  C  C440  1  0.927390  0.652000  0.191500  1.0  0.5074
  C  C441  1  0.879690  0.592350  0.130400  1.0  0.1851
  C  C442  1  0.858960  0.642860  0.108300  1.0  -0.0877
  C  C443  1  0.826860  0.632150  0.071920  1.0  -0.1631
  C  C444  1  0.815310  0.571710  0.057220  1.0  0.013
  C  C445  1  0.835980  0.520600  0.079540  1.0  -0.1851
  C  C446  1  0.868110  0.531190  0.116700  1.0  -0.1043
  C  C447  1  0.804900  0.688740  0.049440  1.0  0.7422
  C  C448  1  0.825000  0.454250  0.063630  1.0  0.6334
  N  N449  1  0.908220  0.147410  0.304860  1.0  -0.3826
  N  N450  1  0.098450  0.096520  0.417280  1.0  -0.3087
  N  N451  1  0.413410  0.900190  0.665500  1.0  -0.3018
  N  N452  1  0.408220  0.647410  0.304860  1.0  -0.3826
  N  N453  1  0.598450  0.596520  0.417280  1.0  -0.3087
  N  N454  1  0.913410  0.400190  0.665500  1.0  -0.3018
  N  N455  1  0.091780  0.147410  0.195140  1.0  -0.3805
  N  N456  1  0.901550  0.096520  0.082720  1.0  -0.3085
  N  N457  1  0.586590  0.900190  0.834500  1.0  -0.3027
  N  N458  1  0.591780  0.647410  0.195140  1.0  -0.3805
  N  N459  1  0.401550  0.596520  0.082720  1.0  -0.3085
  N  N460  1  0.086590  0.400190  0.834500  1.0  -0.3027
  N  N461  1  0.091780  0.852590  0.695140  1.0  -0.3812
  N  N462  1  0.901550  0.903480  0.582720  1.0  -0.3075
  N  N463  1  0.586590  0.099810  0.334500  1.0  -0.3027
  N  N464  1  0.591780  0.352590  0.695140  1.0  -0.3812
  N  N465  1  0.401550  0.403480  0.582720  1.0  -0.3075
  N  N466  1  0.086590  0.599810  0.334500  1.0  -0.3027
  N  N467  1  0.908220  0.852590  0.804860  1.0  -0.383
  N  N468  1  0.098450  0.903480  0.917280  1.0  -0.3087
  N  N469  1  0.413410  0.099810  0.165500  1.0  -0.3021
  N  N470  1  0.408220  0.352590  0.804860  1.0  -0.383
  N  N471  1  0.598450  0.403480  0.917280  1.0  -0.3087
  N  N472  1  0.913410  0.599810  0.165500  1.0  -0.3021
  O  O473  1  0.201850  0.227200  0.503000  1.0  -0.765
  O  O474  1  0.245080  0.160670  0.531170  1.0  -0.737
  O  O475  1  0.228760  0.932930  0.479550  1.0  -0.7108
  O  O476  1  0.179810  0.900770  0.425460  1.0  -0.6914
  O  O477  1  0.848900  0.273380  0.108440  1.0  -0.6442
  O  O478  1  0.794730  0.295730  0.146290  1.0  -0.6334
  O  O479  1  0.762830  0.246860  0.386530  1.0  -0.7065
  O  O480  1  0.798100  0.184120  0.451140  1.0  -0.719
  O  O481  1  0.939140  0.237500  0.296700  1.0  -0.5175
  O  O482  1  0.083600  0.015190  0.346600  1.0  -0.4735
  O  O483  1  0.300600  0.055730  0.520490  1.0  -0.6381
  O  O484  1  0.340760  0.089840  0.592670  1.0  -0.6479
  O  O485  1  0.279270  0.820430  0.507880  1.0  -0.7719
  O  O486  1  0.313690  0.759000  0.573610  1.0  -0.661
  O  O487  1  0.411750  0.798210  0.692500  1.0  -0.4546
  O  O488  1  0.701850  0.727200  0.503000  1.0  -0.765
  O  O489  1  0.745080  0.660670  0.531170  1.0  -0.737
  O  O490  1  0.728760  0.432930  0.479550  1.0  -0.7108
  O  O491  1  0.679810  0.400770  0.425460  1.0  -0.6913
  O  O492  1  0.348900  0.773380  0.108440  1.0  -0.6442
  O  O493  1  0.294730  0.795730  0.146290  1.0  -0.6334
  O  O494  1  0.262830  0.746860  0.386530  1.0  -0.7065
  O  O495  1  0.298100  0.684120  0.451140  1.0  -0.719
  O  O496  1  0.439140  0.737500  0.296700  1.0  -0.5175
  O  O497  1  0.583600  0.515190  0.346600  1.0  -0.4735
  O  O498  1  0.800600  0.555730  0.520490  1.0  -0.6381
  O  O499  1  0.840760  0.589840  0.592670  1.0  -0.6479
  O  O500  1  0.779270  0.320430  0.507880  1.0  -0.7719
  O  O501  1  0.813690  0.259000  0.573610  1.0  -0.6611
  O  O502  1  0.911750  0.298210  0.692500  1.0  -0.4546
  O  O503  1  0.798150  0.227200  0.997000  1.0  -0.764
  O  O504  1  0.754920  0.160670  0.968830  1.0  -0.7391
  O  O505  1  0.771240  0.932930  0.020450  1.0  -0.7114
  O  O506  1  0.820190  0.900770  0.074540  1.0  -0.6899
  O  O507  1  0.151100  0.273380  0.391560  1.0  -0.6421
  O  O508  1  0.205270  0.295730  0.353710  1.0  -0.6331
  O  O509  1  0.237170  0.246860  0.113470  1.0  -0.7066
  O  O510  1  0.201900  0.184120  0.048860  1.0  -0.7178
  O  O511  1  0.060860  0.237500  0.203300  1.0  -0.5159
  O  O512  1  0.916400  0.015190  0.153400  1.0  -0.4743
  O  O513  1  0.699400  0.055730  0.979510  1.0  -0.6385
  O  O514  1  0.659240  0.089840  0.907330  1.0  -0.6497
  O  O515  1  0.720730  0.820430  0.992120  1.0  -0.7721
  O  O516  1  0.686310  0.759000  0.926390  1.0  -0.662
  O  O517  1  0.588250  0.798210  0.807500  1.0  -0.4554
  O  O518  1  0.298150  0.727200  0.997000  1.0  -0.764
  O  O519  1  0.254920  0.660670  0.968830  1.0  -0.7391
  O  O520  1  0.271240  0.432930  0.020450  1.0  -0.7114
  O  O521  1  0.320190  0.400770  0.074540  1.0  -0.6898
  O  O522  1  0.651100  0.773380  0.391560  1.0  -0.6421
  O  O523  1  0.705270  0.795730  0.353710  1.0  -0.6331
  O  O524  1  0.737170  0.746860  0.113470  1.0  -0.7066
  O  O525  1  0.701900  0.684120  0.048860  1.0  -0.7178
  O  O526  1  0.560860  0.737500  0.203300  1.0  -0.5159
  O  O527  1  0.416400  0.515190  0.153400  1.0  -0.4743
  O  O528  1  0.199400  0.555730  0.979510  1.0  -0.6385
  O  O529  1  0.159240  0.589840  0.907330  1.0  -0.6497
  O  O530  1  0.220730  0.320430  0.992120  1.0  -0.7721
  O  O531  1  0.186310  0.259000  0.926390  1.0  -0.6619
  O  O532  1  0.088250  0.298210  0.807500  1.0  -0.4554
  O  O533  1  0.798150  0.772800  0.497000  1.0  -0.7654
  O  O534  1  0.754920  0.839330  0.468830  1.0  -0.7389
  O  O535  1  0.771240  0.067070  0.520450  1.0  -0.7111
  O  O536  1  0.820190  0.099230  0.574540  1.0  -0.6886
  O  O537  1  0.151100  0.726620  0.891560  1.0  -0.6413
  O  O538  1  0.205270  0.704270  0.853710  1.0  -0.634
  O  O539  1  0.237170  0.753140  0.613470  1.0  -0.7072
  O  O540  1  0.201900  0.815880  0.548860  1.0  -0.7184
  O  O541  1  0.060860  0.762500  0.703300  1.0  -0.5165
  O  O542  1  0.916400  0.984810  0.653400  1.0  -0.4748
  O  O543  1  0.699400  0.944270  0.479510  1.0  -0.6383
  O  O544  1  0.659240  0.910160  0.407330  1.0  -0.6489
  O  O545  1  0.720730  0.179570  0.492120  1.0  -0.7716
  O  O546  1  0.686310  0.241000  0.426390  1.0  -0.6625
  O  O547  1  0.588250  0.201790  0.307500  1.0  -0.4566
  O  O548  1  0.298150  0.272800  0.497000  1.0  -0.7654
  O  O549  1  0.254920  0.339330  0.468830  1.0  -0.7389
  O  O550  1  0.271240  0.567070  0.520450  1.0  -0.7111
  O  O551  1  0.320190  0.599230  0.574540  1.0  -0.6894
  O  O552  1  0.651100  0.226620  0.891560  1.0  -0.6413
  O  O553  1  0.705270  0.204270  0.853710  1.0  -0.634
  O  O554  1  0.737170  0.253140  0.613470  1.0  -0.7072
  O  O555  1  0.701900  0.315880  0.548860  1.0  -0.7184
  O  O556  1  0.560860  0.262500  0.703300  1.0  -0.5165
  O  O557  1  0.416400  0.484810  0.653400  1.0  -0.4748
  O  O558  1  0.199400  0.444270  0.479510  1.0  -0.6383
  O  O559  1  0.159240  0.410160  0.407330  1.0  -0.6489
  O  O560  1  0.220730  0.679570  0.492120  1.0  -0.7716
  O  O561  1  0.186310  0.741000  0.426390  1.0  -0.6625
  O  O562  1  0.088250  0.701790  0.307500  1.0  -0.4566
  O  O563  1  0.201850  0.772800  0.003000  1.0  -0.7646
  O  O564  1  0.245080  0.839330  0.031170  1.0  -0.7369
  O  O565  1  0.228760  0.067070  0.979550  1.0  -0.7109
  O  O566  1  0.179810  0.099230  0.925460  1.0  -0.6939
  O  O567  1  0.848900  0.726620  0.608440  1.0  -0.6442
  O  O568  1  0.794730  0.704270  0.646290  1.0  -0.6334
  O  O569  1  0.762830  0.753140  0.886530  1.0  -0.7074
  O  O570  1  0.798100  0.815880  0.951140  1.0  -0.7198
  O  O571  1  0.939140  0.762500  0.796700  1.0  -0.5185
  O  O572  1  0.083600  0.984810  0.846600  1.0  -0.4744
  O  O573  1  0.300600  0.944270  0.020490  1.0  -0.6387
  O  O574  1  0.340760  0.910160  0.092670  1.0  -0.6485
  O  O575  1  0.279270  0.179570  0.007880  1.0  -0.7731
  O  O576  1  0.313690  0.241000  0.073610  1.0  -0.6608
  O  O577  1  0.411750  0.201790  0.192500  1.0  -0.4559
  O  O578  1  0.701850  0.272800  0.003000  1.0  -0.7646
  O  O579  1  0.745080  0.339330  0.031170  1.0  -0.7369
  O  O580  1  0.728760  0.567070  0.979550  1.0  -0.7109
  O  O581  1  0.679810  0.599230  0.925460  1.0  -0.6946
  O  O582  1  0.348900  0.226620  0.608440  1.0  -0.6442
  O  O583  1  0.294730  0.204270  0.646290  1.0  -0.6334
  O  O584  1  0.262830  0.253140  0.886530  1.0  -0.7074
  O  O585  1  0.298100  0.315880  0.951140  1.0  -0.7198
  O  O586  1  0.439140  0.262500  0.796700  1.0  -0.5185
  O  O587  1  0.583600  0.484810  0.846600  1.0  -0.4744
  O  O588  1  0.800600  0.444270  0.020490  1.0  -0.6387
  O  O589  1  0.840760  0.410160  0.092670  1.0  -0.6485
  O  O590  1  0.779270  0.679570  0.007880  1.0  -0.7731
  O  O591  1  0.813690  0.741000  0.073610  1.0  -0.6608
  O  O592  1  0.911750  0.701790  0.192500  1.0  -0.4559
