# generated using pymatgen
data_DyCd2H11C20N6Cl2O9
_symmetry_space_group_name_H-M   'P 1'
_cell_length_a   12.50870000
_cell_length_b   32.16500000
_cell_length_c   7.60220000
_cell_angle_alpha   90.00000000
_cell_angle_beta   98.83300000
_cell_angle_gamma   90.00000000
_symmetry_Int_Tables_number   1
_chemical_formula_structural   DyCd2H11C20N6Cl2O9
_chemical_formula_sum   'Dy4 Cd8 H44 C80 N24 Cl8 O36'
_cell_volume   3022.41119444
_cell_formula_units_Z   4
loop_
 _symmetry_equiv_pos_site_id
 _symmetry_equiv_pos_as_xyz
  1  'x, y, z'
loop_
 _atom_site_type_symbol
 _atom_site_label
 _atom_site_symmetry_multiplicity
 _atom_site_fract_x
 _atom_site_fract_y
 _atom_site_fract_z
 _atom_site_occupancy
 _atom_site_charge
  Dy  Dy1  1  0.971010  0.614960  0.190160  1.0  2.2334
  Dy  Dy2  1  0.471010  0.114960  0.190160  1.0  2.2334
  Dy  Dy3  1  0.971010  0.385040  0.690160  1.0  2.2324
  Dy  Dy4  1  0.471010  0.885040  0.690160  1.0  2.2324
  Cd  Cd5  1  0.472820  0.550700  0.189750  1.0  0.8736
  Cd  Cd6  1  0.076170  0.762360  0.442490  1.0  0.9314
  Cd  Cd7  1  0.972820  0.050700  0.189750  1.0  0.8736
  Cd  Cd8  1  0.576170  0.262360  0.442490  1.0  0.9314
  Cd  Cd9  1  0.472820  0.449300  0.689750  1.0  0.8749
  Cd  Cd10  1  0.076170  0.237640  0.942490  1.0  0.9322
  Cd  Cd11  1  0.972820  0.949300  0.689750  1.0  0.8749
  Cd  Cd12  1  0.576170  0.737630  0.942490  1.0  0.9322
  H  H13  1  0.746900  0.593300  0.722700  1.0  0.0997
  H  H14  1  0.213400  0.584400  0.623800  1.0  0.0845
  H  H15  1  0.754500  0.710900  0.606200  1.0  0.0637
  H  H16  1  0.187700  0.699000  0.780200  1.0  0.07
  H  H17  1  0.580400  0.709300  0.453600  1.0  0.1316
  H  H18  1  0.389600  0.580400  0.762100  1.0  0.1317
  H  H19  1  0.363200  0.699200  0.927800  1.0  0.1283
  H  H20  1  0.570000  0.588000  0.578400  1.0  0.129
  H  H21  1  0.885000  0.535900  0.023300  1.0  0.3129
  H  H22  1  0.838200  0.571900  0.007500  1.0  0.2999
  H  H23  1  0.379900  0.699500  0.435200  1.0  0.3071
  H  H24  1  0.246900  0.093300  0.722700  1.0  0.0997
  H  H25  1  0.713400  0.084400  0.623800  1.0  0.0845
  H  H26  1  0.254500  0.210900  0.606200  1.0  0.0637
  H  H27  1  0.687700  0.199000  0.780200  1.0  0.07
  H  H28  1  0.080400  0.209300  0.453600  1.0  0.1316
  H  H29  1  0.889600  0.080400  0.762100  1.0  0.1317
  H  H30  1  0.863200  0.199200  0.927800  1.0  0.1283
  H  H31  1  0.070000  0.088000  0.578400  1.0  0.129
  H  H32  1  0.385000  0.035900  0.023300  1.0  0.3129
  H  H33  1  0.338200  0.071900  0.007500  1.0  0.2999
  H  H34  1  0.879900  0.199500  0.435200  1.0  0.3071
  H  H35  1  0.746900  0.406700  0.222700  1.0  0.1001
  H  H36  1  0.213400  0.415600  0.123800  1.0  0.0847
  H  H37  1  0.754500  0.289100  0.106200  1.0  0.0636
  H  H38  1  0.187700  0.301000  0.280200  1.0  0.0698
  H  H39  1  0.580400  0.290700  0.953600  1.0  0.1309
  H  H40  1  0.389600  0.419600  0.262100  1.0  0.1306
  H  H41  1  0.363200  0.300800  0.427800  1.0  0.1289
  H  H42  1  0.570000  0.412000  0.078400  1.0  0.1295
  H  H43  1  0.885000  0.464100  0.523300  1.0  0.3107
  H  H44  1  0.838200  0.428100  0.507500  1.0  0.2994
  H  H45  1  0.379900  0.300500  0.935200  1.0  0.3077
  H  H46  1  0.246900  0.906700  0.222700  1.0  0.1001
  H  H47  1  0.713400  0.915600  0.123800  1.0  0.0847
  H  H48  1  0.254500  0.789100  0.106200  1.0  0.0636
  H  H49  1  0.687700  0.801000  0.280200  1.0  0.0698
  H  H50  1  0.080400  0.790700  0.953600  1.0  0.1309
  H  H51  1  0.889600  0.919600  0.262100  1.0  0.1306
  H  H52  1  0.863200  0.800800  0.427800  1.0  0.1289
  H  H53  1  0.070000  0.912000  0.078400  1.0  0.1295
  H  H54  1  0.385000  0.964100  0.523300  1.0  0.3107
  H  H55  1  0.338200  0.928100  0.507500  1.0  0.2994
  H  H56  1  0.879900  0.800500  0.935200  1.0  0.3077
  C  C57  1  0.296700  0.619800  0.252600  1.0  0.0434
  C  C58  1  0.651400  0.611800  0.113300  1.0  -0.0185
  C  C59  1  0.273000  0.658800  0.296500  1.0  0.0162
  C  C60  1  0.712000  0.616800  0.670700  1.0  0.1554
  C  C61  1  0.668500  0.654200  0.079500  1.0  0.0395
  C  C62  1  0.445000  0.644000  0.400300  1.0  0.3045
  C  C63  1  0.243900  0.607400  0.686900  1.0  0.1557
  C  C64  1  0.507200  0.637600  0.957200  1.0  0.3212
  C  C65  1  0.761300  0.683200  0.138000  1.0  0.7074
  C  C66  1  0.715800  0.580500  0.228700  1.0  0.7163
  C  C67  1  0.232500  0.586300  0.148500  1.0  0.6842
  C  C68  1  0.716800  0.685900  0.601600  1.0  0.1867
  C  C69  1  0.396500  0.639500  0.865700  1.0  0.0273
  C  C70  1  0.556300  0.648400  0.496000  1.0  0.0413
  C  C71  1  0.228700  0.674900  0.779500  1.0  0.1681
  C  C72  1  0.611800  0.685300  0.507300  1.0  -0.2218
  C  C73  1  0.349800  0.604600  0.769400  1.0  -0.1491
  C  C74  1  0.334600  0.675500  0.868300  1.0  -0.1526
  C  C75  1  0.606600  0.613300  0.581400  1.0  -0.1318
  C  C76  1  0.178600  0.687100  0.275400  1.0  0.7247
  C  C77  1  0.796700  0.119800  0.252600  1.0  0.0434
  C  C78  1  0.151400  0.111800  0.113300  1.0  -0.0185
  C  C79  1  0.773000  0.158800  0.296500  1.0  0.0162
  C  C80  1  0.212000  0.116800  0.670700  1.0  0.1555
  C  C81  1  0.168500  0.154200  0.079500  1.0  0.0395
  C  C82  1  0.945000  0.144000  0.400300  1.0  0.3045
  C  C83  1  0.743900  0.107400  0.686900  1.0  0.1557
  C  C84  1  0.007200  0.137600  0.957200  1.0  0.3212
  C  C85  1  0.261300  0.183200  0.138000  1.0  0.7074
  C  C86  1  0.215800  0.080500  0.228700  1.0  0.7163
  C  C87  1  0.732500  0.086300  0.148500  1.0  0.6842
  C  C88  1  0.216800  0.185900  0.601600  1.0  0.1866
  C  C89  1  0.896500  0.139500  0.865700  1.0  0.0273
  C  C90  1  0.056300  0.148400  0.496000  1.0  0.0413
  C  C91  1  0.728700  0.174900  0.779500  1.0  0.1681
  C  C92  1  0.111800  0.185300  0.507300  1.0  -0.2218
  C  C93  1  0.849800  0.104600  0.769400  1.0  -0.1491
  C  C94  1  0.834600  0.175500  0.868300  1.0  -0.1526
  C  C95  1  0.106600  0.113300  0.581400  1.0  -0.1318
  C  C96  1  0.678600  0.187100  0.275400  1.0  0.7247
  C  C97  1  0.296700  0.380200  0.752600  1.0  0.0447
  C  C98  1  0.651400  0.388200  0.613300  1.0  -0.0187
  C  C99  1  0.273000  0.341200  0.796500  1.0  0.0164
  C  C100  1  0.712000  0.383200  0.170700  1.0  0.1561
  C  C101  1  0.668500  0.345800  0.579500  1.0  0.0396
  C  C102  1  0.445000  0.356000  0.900300  1.0  0.3046
  C  C103  1  0.243900  0.392600  0.186900  1.0  0.1555
  C  C104  1  0.507200  0.362400  0.457200  1.0  0.3213
  C  C105  1  0.761300  0.316800  0.638000  1.0  0.7089
  C  C106  1  0.715800  0.419500  0.728700  1.0  0.7182
  C  C107  1  0.232500  0.413700  0.648500  1.0  0.6864
  C  C108  1  0.716800  0.314100  0.101600  1.0  0.1866
  C  C109  1  0.396500  0.360500  0.365700  1.0  0.0271
  C  C110  1  0.556300  0.351600  0.996000  1.0  0.041
  C  C111  1  0.228700  0.325100  0.279500  1.0  0.1682
  C  C112  1  0.611800  0.314700  0.007300  1.0  -0.2225
  C  C113  1  0.349800  0.395400  0.269400  1.0  -0.1492
  C  C114  1  0.334600  0.324500  0.368300  1.0  -0.1534
  C  C115  1  0.606600  0.386700  0.081400  1.0  -0.1331
  C  C116  1  0.178600  0.312900  0.775400  1.0  0.7247
  C  C117  1  0.796700  0.880200  0.752600  1.0  0.0447
  C  C118  1  0.151400  0.888200  0.613300  1.0  -0.0187
  C  C119  1  0.773000  0.841200  0.796500  1.0  0.0164
  C  C120  1  0.212000  0.883200  0.170700  1.0  0.1561
  C  C121  1  0.168500  0.845800  0.579500  1.0  0.0396
  C  C122  1  0.945000  0.856000  0.900300  1.0  0.3046
  C  C123  1  0.743900  0.892600  0.186900  1.0  0.1555
  C  C124  1  0.007200  0.862400  0.457200  1.0  0.3213
  C  C125  1  0.261300  0.816800  0.638000  1.0  0.7089
  C  C126  1  0.215800  0.919500  0.728700  1.0  0.7182
  C  C127  1  0.732500  0.913700  0.648500  1.0  0.6864
  C  C128  1  0.216800  0.814100  0.101600  1.0  0.1866
  C  C129  1  0.896500  0.860500  0.365700  1.0  0.0271
  C  C130  1  0.056300  0.851600  0.996000  1.0  0.041
  C  C131  1  0.728700  0.825100  0.279500  1.0  0.1682
  C  C132  1  0.111800  0.814700  0.007300  1.0  -0.2225
  C  C133  1  0.849800  0.895400  0.269400  1.0  -0.1492
  C  C134  1  0.834600  0.824500  0.368300  1.0  -0.1534
  C  C135  1  0.106600  0.886700  0.081400  1.0  -0.1331
  C  C136  1  0.678600  0.812900  0.775400  1.0  0.7247
  N  N137  1  0.549000  0.601900  0.035800  1.0  -0.4587
  N  N138  1  0.576800  0.668490  0.981700  1.0  -0.3021
  N  N139  1  0.765700  0.654100  0.683500  1.0  -0.3991
  N  N140  1  0.182200  0.641500  0.692800  1.0  -0.4443
  N  N141  1  0.370100  0.674900  0.391400  1.0  -0.2685
  N  N142  1  0.403600  0.610100  0.317200  1.0  -0.4397
  N  N143  1  0.049000  0.101900  0.035800  1.0  -0.4587
  N  N144  1  0.076800  0.168490  0.981700  1.0  -0.3021
  N  N145  1  0.265700  0.154100  0.683500  1.0  -0.3991
  N  N146  1  0.682200  0.141500  0.692800  1.0  -0.4443
  N  N147  1  0.870100  0.174900  0.391400  1.0  -0.2685
  N  N148  1  0.903600  0.110100  0.317200  1.0  -0.4397
  N  N149  1  0.549000  0.398100  0.535800  1.0  -0.4634
  N  N150  1  0.576800  0.331510  0.481700  1.0  -0.302
  N  N151  1  0.765700  0.345900  0.183500  1.0  -0.3989
  N  N152  1  0.182200  0.358500  0.192800  1.0  -0.445
  N  N153  1  0.370100  0.325100  0.891400  1.0  -0.268
  N  N154  1  0.403600  0.389900  0.817200  1.0  -0.4419
  N  N155  1  0.049000  0.898100  0.535800  1.0  -0.4634
  N  N156  1  0.076800  0.831510  0.481700  1.0  -0.302
  N  N157  1  0.265700  0.845900  0.183500  1.0  -0.3989
  N  N158  1  0.682200  0.858500  0.192800  1.0  -0.445
  N  N159  1  0.870100  0.825100  0.891400  1.0  -0.268
  N  N160  1  0.903600  0.889900  0.817200  1.0  -0.4419
  Cl  Cl161  1  0.974050  0.733340  0.663600  1.0  -0.5396
  Cl  Cl162  1  0.458750  0.487450  0.988600  1.0  -0.5289
  Cl  Cl163  1  0.474050  0.233340  0.663600  1.0  -0.5396
  Cl  Cl164  1  0.958750  0.987450  0.988600  1.0  -0.5289
  Cl  Cl165  1  0.974050  0.266660  0.163600  1.0  -0.5414
  Cl  Cl166  1  0.458750  0.512550  0.488600  1.0  -0.5294
  Cl  Cl167  1  0.474050  0.766660  0.163600  1.0  -0.5414
  Cl  Cl168  1  0.958750  0.012550  0.488600  1.0  -0.5294
  O  O169  1  0.132900  0.591300  0.098800  1.0  -0.7242
  O  O170  1  0.816000  0.584180  0.275600  1.0  -0.602
  O  O171  1  0.661900  0.549280  0.273200  1.0  -0.6359
  O  O172  1  0.740800  0.721350  0.126800  1.0  -0.6085
  O  O173  1  0.904200  0.562010  0.985400  1.0  -0.7806
  O  O174  1  0.196100  0.722950  0.334300  1.0  -0.5912
  O  O175  1  0.852900  0.668500  0.194500  1.0  -0.7205
  O  O176  1  0.087600  0.673350  0.208000  1.0  -0.7289
  O  O177  1  0.283000  0.554000  0.112400  1.0  -0.6374
  O  O178  1  0.632900  0.091300  0.098800  1.0  -0.7242
  O  O179  1  0.316000  0.084180  0.275600  1.0  -0.602
  O  O180  1  0.161900  0.049280  0.273200  1.0  -0.6359
  O  O181  1  0.240800  0.221350  0.126800  1.0  -0.6085
  O  O182  1  0.404200  0.062010  0.985400  1.0  -0.7806
  O  O183  1  0.696100  0.222950  0.334300  1.0  -0.5912
  O  O184  1  0.352900  0.168500  0.194500  1.0  -0.7205
  O  O185  1  0.587600  0.173350  0.208000  1.0  -0.7289
  O  O186  1  0.783000  0.054000  0.112400  1.0  -0.6374
  O  O187  1  0.132900  0.408700  0.598800  1.0  -0.7257
  O  O188  1  0.816000  0.415820  0.775600  1.0  -0.6017
  O  O189  1  0.661900  0.450720  0.773200  1.0  -0.6355
  O  O190  1  0.740800  0.278650  0.626800  1.0  -0.6083
  O  O191  1  0.904200  0.437990  0.485400  1.0  -0.7812
  O  O192  1  0.196100  0.277050  0.834300  1.0  -0.5911
  O  O193  1  0.852900  0.331500  0.694500  1.0  -0.7204
  O  O194  1  0.087600  0.326650  0.708000  1.0  -0.729
  O  O195  1  0.283000  0.446000  0.612400  1.0  -0.6398
  O  O196  1  0.632900  0.908700  0.598800  1.0  -0.7257
  O  O197  1  0.316000  0.915820  0.775600  1.0  -0.6017
  O  O198  1  0.161900  0.950720  0.773200  1.0  -0.6355
  O  O199  1  0.240800  0.778650  0.626800  1.0  -0.6083
  O  O200  1  0.404200  0.937990  0.485400  1.0  -0.7812
  O  O201  1  0.696100  0.777050  0.834300  1.0  -0.5911
  O  O202  1  0.352900  0.831500  0.694500  1.0  -0.7204
  O  O203  1  0.587600  0.826650  0.708000  1.0  -0.729
  O  O204  1  0.783000  0.946000  0.612400  1.0  -0.6398
