# generated using pymatgen
data_TbCd2H11C20N6Cl2O9
_symmetry_space_group_name_H-M   'P 1'
_cell_length_a   12.52470000
_cell_length_b   32.21840000
_cell_length_c   7.61010000
_cell_angle_alpha   90.00000000
_cell_angle_beta   98.85600000
_cell_angle_gamma   90.00000000
_symmetry_Int_Tables_number   1
_chemical_formula_structural   TbCd2H11C20N6Cl2O9
_chemical_formula_sum   'Tb4 Cd8 H44 C80 N24 Cl8 O36'
_cell_volume   3034.26189441
_cell_formula_units_Z   4
loop_
 _symmetry_equiv_pos_site_id
 _symmetry_equiv_pos_as_xyz
  1  'x, y, z'
loop_
 _atom_site_type_symbol
 _atom_site_label
 _atom_site_symmetry_multiplicity
 _atom_site_fract_x
 _atom_site_fract_y
 _atom_site_fract_z
 _atom_site_occupancy
 _atom_site_charge
  Tb  Tb1  1  0.971320  0.615010  0.189950  1.0  2.2308
  Tb  Tb2  1  0.471320  0.115010  0.189950  1.0  2.2308
  Tb  Tb3  1  0.971320  0.384990  0.689950  1.0  2.2303
  Tb  Tb4  1  0.471320  0.884990  0.689950  1.0  2.2303
  Cd  Cd5  1  0.472130  0.550560  0.189830  1.0  0.8449
  Cd  Cd6  1  0.075740  0.762390  0.443720  1.0  0.8689
  Cd  Cd7  1  0.972130  0.050560  0.189830  1.0  0.8449
  Cd  Cd8  1  0.575740  0.262390  0.443720  1.0  0.8689
  Cd  Cd9  1  0.472130  0.449440  0.689830  1.0  0.8462
  Cd  Cd10  1  0.075740  0.237610  0.943720  1.0  0.8694
  Cd  Cd11  1  0.972130  0.949440  0.689830  1.0  0.8462
  Cd  Cd12  1  0.575740  0.737610  0.943720  1.0  0.8694
  H  H13  1  0.745900  0.593200  0.715200  1.0  0.095
  H  H14  1  0.212300  0.585600  0.618900  1.0  0.0866
  H  H15  1  0.749900  0.711700  0.613400  1.0  0.0871
  H  H16  1  0.185400  0.698200  0.788000  1.0  0.0871
  H  H17  1  0.578700  0.708900  0.444400  1.0  0.1385
  H  H18  1  0.388500  0.579700  0.765600  1.0  0.1385
  H  H19  1  0.362300  0.698900  0.919300  1.0  0.1246
  H  H20  1  0.569100  0.588000  0.588200  1.0  0.1461
  H  H21  1  0.883900  0.536300  0.020900  1.0  0.3294
  H  H22  1  0.837200  0.572300  0.005100  1.0  0.3189
  H  H23  1  0.378600  0.698700  0.434000  1.0  0.2943
  H  H24  1  0.245900  0.093200  0.715200  1.0  0.095
  H  H25  1  0.712300  0.085600  0.618900  1.0  0.0866
  H  H26  1  0.249900  0.211700  0.613400  1.0  0.0871
  H  H27  1  0.685400  0.198200  0.788000  1.0  0.0871
  H  H28  1  0.078700  0.208900  0.444400  1.0  0.1385
  H  H29  1  0.888500  0.079700  0.765600  1.0  0.1385
  H  H30  1  0.862300  0.198900  0.919300  1.0  0.1246
  H  H31  1  0.069100  0.088000  0.588200  1.0  0.1461
  H  H32  1  0.383900  0.036300  0.020900  1.0  0.3294
  H  H33  1  0.337200  0.072300  0.005100  1.0  0.3189
  H  H34  1  0.878600  0.198700  0.434000  1.0  0.2943
  H  H35  1  0.745900  0.406800  0.215200  1.0  0.0956
  H  H36  1  0.212300  0.414400  0.118900  1.0  0.0856
  H  H37  1  0.749900  0.288300  0.113400  1.0  0.0871
  H  H38  1  0.185400  0.301800  0.288000  1.0  0.0867
  H  H39  1  0.578700  0.291100  0.944400  1.0  0.1374
  H  H40  1  0.388500  0.420300  0.265600  1.0  0.1374
  H  H41  1  0.362300  0.301100  0.419300  1.0  0.1249
  H  H42  1  0.569100  0.412000  0.088200  1.0  0.1466
  H  H43  1  0.883900  0.463700  0.520900  1.0  0.328
  H  H44  1  0.837200  0.427700  0.505100  1.0  0.319
  H  H45  1  0.378600  0.301300  0.934000  1.0  0.2932
  H  H46  1  0.245900  0.906800  0.215200  1.0  0.0956
  H  H47  1  0.712300  0.914400  0.118900  1.0  0.0856
  H  H48  1  0.249900  0.788300  0.113400  1.0  0.0871
  H  H49  1  0.685400  0.801800  0.288000  1.0  0.0867
  H  H50  1  0.078700  0.791100  0.944400  1.0  0.1374
  H  H51  1  0.888500  0.920300  0.265600  1.0  0.1374
  H  H52  1  0.862300  0.801100  0.419300  1.0  0.1249
  H  H53  1  0.069100  0.912000  0.088200  1.0  0.1466
  H  H54  1  0.383900  0.963700  0.520900  1.0  0.328
  H  H55  1  0.337200  0.927700  0.505100  1.0  0.319
  H  H56  1  0.878600  0.801300  0.934000  1.0  0.2932
  C  C57  1  0.296300  0.619500  0.253700  1.0  0.0064
  C  C58  1  0.650000  0.611900  0.115700  1.0  0.0116
  C  C59  1  0.273500  0.659700  0.296900  1.0  -0.0643
  C  C60  1  0.710100  0.616800  0.666667  1.0  0.1883
  C  C61  1  0.667200  0.653600  0.081400  1.0  -0.0089
  C  C62  1  0.443300  0.644400  0.400500  1.0  0.3622
  C  C63  1  0.243200  0.608100  0.684200  1.0  0.1749
  C  C64  1  0.506800  0.637100  0.960500  1.0  0.3587
  C  C65  1  0.758200  0.683000  0.139000  1.0  0.7085
  C  C66  1  0.714800  0.580800  0.227800  1.0  0.7177
  C  C67  1  0.230300  0.586000  0.144700  1.0  0.7049
  C  C68  1  0.713500  0.686500  0.601500  1.0  0.1689
  C  C69  1  0.397500  0.639400  0.865600  1.0  0.0087
  C  C70  1  0.555100  0.648200  0.495300  1.0  0.0396
  C  C71  1  0.227500  0.674600  0.780600  1.0  0.1709
  C  C72  1  0.609600  0.685400  0.502700  1.0  -0.1885
  C  C73  1  0.350100  0.604300  0.770500  1.0  -0.159
  C  C74  1  0.333200  0.674800  0.863700  1.0  -0.085
  C  C75  1  0.606100  0.613000  0.585300  1.0  -0.1176
  C  C76  1  0.175600  0.686900  0.272700  1.0  0.6518
  C  C77  1  0.796300  0.119500  0.253700  1.0  0.0064
  C  C78  1  0.150000  0.111900  0.115700  1.0  0.0116
  C  C79  1  0.773500  0.159700  0.296900  1.0  -0.0643
  C  C80  1  0.210100  0.116800  0.666667  1.0  0.1883
  C  C81  1  0.167200  0.153600  0.081400  1.0  -0.0089
  C  C82  1  0.943300  0.144400  0.400500  1.0  0.3622
  C  C83  1  0.743200  0.108100  0.684200  1.0  0.1749
  C  C84  1  0.006800  0.137100  0.960500  1.0  0.3587
  C  C85  1  0.258200  0.183000  0.139000  1.0  0.7085
  C  C86  1  0.214800  0.080800  0.227800  1.0  0.7177
  C  C87  1  0.730300  0.086000  0.144700  1.0  0.7049
  C  C88  1  0.213500  0.186500  0.601500  1.0  0.1689
  C  C89  1  0.897500  0.139400  0.865600  1.0  0.0087
  C  C90  1  0.055100  0.148200  0.495300  1.0  0.0396
  C  C91  1  0.727500  0.174600  0.780600  1.0  0.1709
  C  C92  1  0.109600  0.185400  0.502700  1.0  -0.1885
  C  C93  1  0.850100  0.104300  0.770500  1.0  -0.159
  C  C94  1  0.833200  0.174800  0.863700  1.0  -0.085
  C  C95  1  0.106100  0.113000  0.585300  1.0  -0.1176
  C  C96  1  0.675600  0.186900  0.272700  1.0  0.6518
  C  C97  1  0.296300  0.380500  0.753700  1.0  0.0058
  C  C98  1  0.650000  0.388100  0.615700  1.0  0.0122
  C  C99  1  0.273500  0.340300  0.796900  1.0  -0.0648
  C  C100  1  0.710100  0.383200  0.166700  1.0  0.1884
  C  C101  1  0.667200  0.346400  0.581400  1.0  -0.009
  C  C102  1  0.443300  0.355600  0.900500  1.0  0.3626
  C  C103  1  0.243200  0.391900  0.184200  1.0  0.1742
  C  C104  1  0.506800  0.362900  0.460500  1.0  0.3585
  C  C105  1  0.758200  0.317000  0.639000  1.0  0.7099
  C  C106  1  0.714800  0.419200  0.727800  1.0  0.7189
  C  C107  1  0.230300  0.414000  0.644700  1.0  0.7074
  C  C108  1  0.713500  0.313500  0.101500  1.0  0.1685
  C  C109  1  0.397500  0.360600  0.365600  1.0  0.0086
  C  C110  1  0.555100  0.351800  0.995300  1.0  0.0396
  C  C111  1  0.227500  0.325400  0.280600  1.0  0.1708
  C  C112  1  0.609600  0.314600  0.002700  1.0  -0.1871
  C  C113  1  0.350100  0.395700  0.270500  1.0  -0.1592
  C  C114  1  0.333200  0.325200  0.363700  1.0  -0.086
  C  C115  1  0.606100  0.387000  0.085300  1.0  -0.1187
  C  C116  1  0.175600  0.313100  0.772700  1.0  0.6524
  C  C117  1  0.796300  0.880500  0.753700  1.0  0.0058
  C  C118  1  0.150000  0.888100  0.615700  1.0  0.0122
  C  C119  1  0.773500  0.840300  0.796900  1.0  -0.0648
  C  C120  1  0.210100  0.883200  0.166700  1.0  0.1884
  C  C121  1  0.167200  0.846400  0.581400  1.0  -0.009
  C  C122  1  0.943300  0.855600  0.900500  1.0  0.3626
  C  C123  1  0.743200  0.891900  0.184200  1.0  0.1742
  C  C124  1  0.006800  0.862900  0.460500  1.0  0.3585
  C  C125  1  0.258200  0.817000  0.639000  1.0  0.7099
  C  C126  1  0.214800  0.919200  0.727800  1.0  0.7189
  C  C127  1  0.730300  0.914000  0.644700  1.0  0.7074
  C  C128  1  0.213500  0.813500  0.101500  1.0  0.1685
  C  C129  1  0.897500  0.860600  0.365600  1.0  0.0086
  C  C130  1  0.055100  0.851800  0.995300  1.0  0.0396
  C  C131  1  0.727500  0.825400  0.280600  1.0  0.1708
  C  C132  1  0.109600  0.814600  0.002700  1.0  -0.1871
  C  C133  1  0.850100  0.895700  0.270500  1.0  -0.1592
  C  C134  1  0.833200  0.825200  0.363700  1.0  -0.086
  C  C135  1  0.106100  0.887000  0.085300  1.0  -0.1187
  C  C136  1  0.675600  0.813100  0.772700  1.0  0.6524
  N  N137  1  0.548400  0.602100  0.037800  1.0  -0.4572
  N  N138  1  0.575300  0.668900  0.983000  1.0  -0.4227
  N  N139  1  0.763200  0.652800  0.680200  1.0  -0.4383
  N  N140  1  0.183500  0.641900  0.690100  1.0  -0.4125
  N  N141  1  0.368600  0.674200  0.389700  1.0  -0.2216
  N  N142  1  0.402600  0.610300  0.317500  1.0  -0.429
  N  N143  1  0.048400  0.102100  0.037800  1.0  -0.4572
  N  N144  1  0.075300  0.168900  0.983000  1.0  -0.4227
  N  N145  1  0.263200  0.152800  0.680200  1.0  -0.4383
  N  N146  1  0.683500  0.141900  0.690100  1.0  -0.4125
  N  N147  1  0.868600  0.174200  0.389700  1.0  -0.2216
  N  N148  1  0.902600  0.110300  0.317500  1.0  -0.429
  N  N149  1  0.548400  0.397900  0.537800  1.0  -0.4592
  N  N150  1  0.575300  0.331100  0.483000  1.0  -0.424
  N  N151  1  0.763200  0.347200  0.180200  1.0  -0.4383
  N  N152  1  0.183500  0.358100  0.190100  1.0  -0.4132
  N  N153  1  0.368600  0.325800  0.889700  1.0  -0.2208
  N  N154  1  0.402600  0.389700  0.817500  1.0  -0.4307
  N  N155  1  0.048400  0.897900  0.537800  1.0  -0.4592
  N  N156  1  0.075300  0.831100  0.483000  1.0  -0.424
  N  N157  1  0.263200  0.847200  0.180200  1.0  -0.4383
  N  N158  1  0.683500  0.858100  0.190100  1.0  -0.4132
  N  N159  1  0.868600  0.825800  0.889700  1.0  -0.2208
  N  N160  1  0.902600  0.889700  0.817500  1.0  -0.4307
  Cl  Cl161  1  0.972500  0.733190  0.664300  1.0  -0.5437
  Cl  Cl162  1  0.457800  0.487240  0.988800  1.0  -0.5197
  Cl  Cl163  1  0.472500  0.233190  0.664300  1.0  -0.5437
  Cl  Cl164  1  0.957800  0.987240  0.988800  1.0  -0.5197
  Cl  Cl165  1  0.972500  0.266810  0.164300  1.0  -0.5451
  Cl  Cl166  1  0.457800  0.512760  0.488800  1.0  -0.5202
  Cl  Cl167  1  0.472500  0.766810  0.164300  1.0  -0.5451
  Cl  Cl168  1  0.957800  0.012760  0.488800  1.0  -0.5202
  O  O169  1  0.131600  0.591600  0.096900  1.0  -0.7125
  O  O170  1  0.814700  0.583900  0.276000  1.0  -0.5962
  O  O171  1  0.661500  0.549100  0.272800  1.0  -0.6284
  O  O172  1  0.739400  0.721300  0.126000  1.0  -0.6113
  O  O173  1  0.903100  0.562500  0.982900  1.0  -0.7737
  O  O174  1  0.195600  0.723300  0.332600  1.0  -0.6083
  O  O175  1  0.851200  0.668800  0.199100  1.0  -0.7383
  O  O176  1  0.086800  0.674000  0.204800  1.0  -0.6844
  O  O177  1  0.281800  0.554100  0.108200  1.0  -0.6359
  O  O178  1  0.631600  0.091600  0.096900  1.0  -0.7125
  O  O179  1  0.314700  0.083900  0.276000  1.0  -0.5962
  O  O180  1  0.161500  0.049100  0.272800  1.0  -0.6284
  O  O181  1  0.239400  0.221300  0.126000  1.0  -0.6113
  O  O182  1  0.403100  0.062500  0.982900  1.0  -0.7737
  O  O183  1  0.695600  0.223300  0.332600  1.0  -0.6083
  O  O184  1  0.351200  0.168800  0.199100  1.0  -0.7383
  O  O185  1  0.586800  0.174000  0.204800  1.0  -0.6844
  O  O186  1  0.781800  0.054100  0.108200  1.0  -0.6359
  O  O187  1  0.131600  0.408400  0.596900  1.0  -0.7151
  O  O188  1  0.814700  0.416100  0.776000  1.0  -0.5959
  O  O189  1  0.661500  0.450900  0.772800  1.0  -0.6302
  O  O190  1  0.739400  0.278700  0.626000  1.0  -0.6114
  O  O191  1  0.903100  0.437500  0.482900  1.0  -0.7741
  O  O192  1  0.195600  0.276700  0.832600  1.0  -0.6076
  O  O193  1  0.851200  0.331200  0.699100  1.0  -0.7385
  O  O194  1  0.086800  0.326000  0.704800  1.0  -0.6846
  O  O195  1  0.281800  0.445900  0.608200  1.0  -0.6385
  O  O196  1  0.631600  0.908400  0.596900  1.0  -0.7151
  O  O197  1  0.314700  0.916100  0.776000  1.0  -0.5959
  O  O198  1  0.161500  0.950900  0.772800  1.0  -0.6302
  O  O199  1  0.239400  0.778700  0.626000  1.0  -0.6114
  O  O200  1  0.403100  0.937500  0.482900  1.0  -0.7741
  O  O201  1  0.695600  0.776700  0.832600  1.0  -0.6076
  O  O202  1  0.351200  0.831200  0.699100  1.0  -0.7385
  O  O203  1  0.586800  0.826000  0.704800  1.0  -0.6846
  O  O204  1  0.781800  0.945900  0.608200  1.0  -0.6385
