# generated using pymatgen
data_Co3H12(C11O5)2
_symmetry_space_group_name_H-M   'P 1'
_cell_length_a   10.84710000
_cell_length_b   6.33890000
_cell_length_c   16.88390000
_cell_angle_alpha   90.00000000
_cell_angle_beta   105.59200000
_cell_angle_gamma   90.00000000
_symmetry_Int_Tables_number   1
_chemical_formula_structural   Co3H12(C11O5)2
_chemical_formula_sum   'Co6 H24 C44 O20'
_cell_volume   1118.19317545
_cell_formula_units_Z   2
loop_
 _symmetry_equiv_pos_site_id
 _symmetry_equiv_pos_as_xyz
  1  'x, y, z'
loop_
 _atom_site_type_symbol
 _atom_site_label
 _atom_site_symmetry_multiplicity
 _atom_site_fract_x
 _atom_site_fract_y
 _atom_site_fract_z
 _atom_site_occupancy
 _atom_site_charge
  Co  Co1  1  0.034190  0.503060  0.416050  1.0  1.0663
  Co  Co2  1  0.965810  0.003060  0.083950  1.0  1.0564
  Co  Co3  1  0.965810  0.496940  0.583950  1.0  1.0568
  Co  Co4  1  0.034190  0.996940  0.916050  1.0  1.0665
  Co  Co5  1  0.000000  0.000000  0.500000  1.0  1.1173
  Co  Co6  1  0.000000  0.500000  0.000000  1.0  1.1175
  H  H7  1  0.715100  0.390400  0.199700  1.0  0.1163
  H  H8  1  0.354800  0.385100  0.068000  1.0  0.1027
  H  H9  1  0.697800  0.826700  0.302600  1.0  0.1042
  H  H10  1  0.526500  0.736800  0.195100  1.0  0.1073
  H  H11  1  0.450400  0.968100  0.088800  1.0  0.1185
  H  H12  1  0.880000  0.684000  0.461000  1.0  0.4354
  H  H13  1  0.284900  0.890400  0.300300  1.0  0.1164
  H  H14  1  0.645200  0.885100  0.432000  1.0  0.1024
  H  H15  1  0.302200  0.326700  0.197400  1.0  0.1037
  H  H16  1  0.473500  0.236800  0.304900  1.0  0.1066
  H  H17  1  0.549600  0.468100  0.411200  1.0  0.1187
  H  H18  1  0.120000  0.184000  0.039000  1.0  0.4341
  H  H19  1  0.284900  0.609600  0.800300  1.0  0.1161
  H  H20  1  0.645200  0.614900  0.932000  1.0  0.1025
  H  H21  1  0.302200  0.173300  0.697400  1.0  0.1037
  H  H22  1  0.473500  0.263200  0.804900  1.0  0.1066
  H  H23  1  0.549600  0.031900  0.911200  1.0  0.1184
  H  H24  1  0.120000  0.316000  0.539000  1.0  0.4342
  H  H25  1  0.715100  0.109600  0.699700  1.0  0.116
  H  H26  1  0.354800  0.114900  0.568000  1.0  0.1027
  H  H27  1  0.697800  0.673300  0.802600  1.0  0.1034
  H  H28  1  0.526500  0.763200  0.695100  1.0  0.1075
  H  H29  1  0.450400  0.531900  0.588800  1.0  0.1186
  H  H30  1  0.880000  0.816000  0.961000  1.0  0.436
  C  C31  1  0.677900  0.258000  0.198800  1.0  -0.0772
  C  C32  1  0.831000  0.185800  0.336000  1.0  0.6721
  C  C33  1  0.536600  0.346800  0.061900  1.0  0.0295
  C  C34  1  0.413600  0.432100  0.040800  1.0  -0.0786
  C  C35  1  0.577500  0.199700  0.131900  1.0  0.0054
  C  C36  1  0.666667  0.923400  0.260600  1.0  -0.0349
  C  C37  1  0.723200  0.119400  0.264500  1.0  -0.1888
  C  C38  1  0.564900  0.868200  0.195700  1.0  -0.0866
  C  C39  1  0.520000  0.005600  0.132100  1.0  -0.1157
  C  C40  1  0.377000  0.583100  0.981100  1.0  -0.1044
  C  C41  1  0.242800  0.672100  0.964400  1.0  0.6832
  C  C42  1  0.322100  0.758000  0.301200  1.0  -0.0758
  C  C43  1  0.169000  0.685800  0.164000  1.0  0.6724
  C  C44  1  0.463400  0.846800  0.438100  1.0  0.0281
  C  C45  1  0.586400  0.932100  0.459200  1.0  -0.0777
  C  C46  1  0.422500  0.699700  0.368100  1.0  0.004
  C  C47  1  0.333400  0.423400  0.239400  1.0  -0.0317
  C  C48  1  0.276800  0.619400  0.235500  1.0  -0.1892
  C  C49  1  0.435100  0.368200  0.304300  1.0  -0.0873
  C  C50  1  0.480000  0.505600  0.367900  1.0  -0.1152
  C  C51  1  0.623000  0.083100  0.518900  1.0  -0.1024
  C  C52  1  0.757200  0.172100  0.535600  1.0  0.6838
  C  C53  1  0.322100  0.742000  0.801200  1.0  -0.0758
  C  C54  1  0.169000  0.814200  0.664000  1.0  0.6718
  C  C55  1  0.463400  0.653200  0.938100  1.0  0.0283
  C  C56  1  0.586400  0.567900  0.959200  1.0  -0.0777
  C  C57  1  0.422500  0.800300  0.868100  1.0  0.0039
  C  C58  1  0.333400  0.076600  0.739400  1.0  -0.0319
  C  C59  1  0.276800  0.880600  0.735500  1.0  -0.189
  C  C60  1  0.435100  0.131800  0.804300  1.0  -0.0854
  C  C61  1  0.480000  0.994400  0.867900  1.0  -0.1156
  C  C62  1  0.623000  0.416900  0.018900  1.0  -0.1021
  C  C63  1  0.757200  0.327900  0.035600  1.0  0.6834
  C  C64  1  0.677900  0.242000  0.698800  1.0  -0.0767
  C  C65  1  0.831000  0.314200  0.836000  1.0  0.672
  C  C66  1  0.536600  0.153200  0.561900  1.0  0.0297
  C  C67  1  0.413600  0.067900  0.540800  1.0  -0.0787
  C  C68  1  0.577500  0.300300  0.631900  1.0  0.0054
  C  C69  1  0.666667  0.576600  0.760600  1.0  -0.0359
  C  C70  1  0.723200  0.380600  0.764500  1.0  -0.1887
  C  C71  1  0.564900  0.631800  0.695700  1.0  -0.085
  C  C72  1  0.520000  0.494400  0.632100  1.0  -0.1161
  C  C73  1  0.377000  0.916900  0.481100  1.0  -0.1041
  C  C74  1  0.242800  0.827900  0.464400  1.0  0.6831
  O  O75  1  0.944600  0.689700  0.483300  1.0  -0.9484
  O  O76  1  0.859900  0.374000  0.345200  1.0  -0.5799
  O  O77  1  0.884900  0.037200  0.381900  1.0  -0.6034
  O  O78  1  0.156300  0.533400  0.952300  1.0  -0.6114
  O  O79  1  0.224500  0.861800  0.965800  1.0  -0.5691
  O  O80  1  0.055400  0.189700  0.016700  1.0  -0.9468
  O  O81  1  0.140100  0.874000  0.154800  1.0  -0.5796
  O  O82  1  0.115100  0.537200  0.118100  1.0  -0.6041
  O  O83  1  0.843700  0.033400  0.547700  1.0  -0.6107
  O  O84  1  0.775500  0.361800  0.534200  1.0  -0.5667
  O  O85  1  0.055400  0.310300  0.516700  1.0  -0.9469
  O  O86  1  0.140100  0.626000  0.654800  1.0  -0.5796
  O  O87  1  0.115100  0.962800  0.618100  1.0  -0.6046
  O  O88  1  0.843700  0.466600  0.047700  1.0  -0.6113
  O  O89  1  0.775500  0.138200  0.034200  1.0  -0.5661
  O  O90  1  0.944600  0.810300  0.983300  1.0  -0.9488
  O  O91  1  0.859900  0.126000  0.845200  1.0  -0.5801
  O  O92  1  0.884900  0.462800  0.881900  1.0  -0.6041
  O  O93  1  0.156300  0.966600  0.452300  1.0  -0.6115
  O  O94  1  0.224500  0.638200  0.465800  1.0  -0.5673
