# generated using pymatgen
data_MnBH12C13(N4O)2
_symmetry_space_group_name_H-M   'P 1'
_cell_length_a   8.99700000
_cell_length_b   10.51630000
_cell_length_c   10.68600000
_cell_angle_alpha   98.00800000
_cell_angle_beta   97.43600000
_cell_angle_gamma   111.11000000
_symmetry_Int_Tables_number   1
_chemical_formula_structural   MnBH12C13(N4O)2
_chemical_formula_sum   'Mn2 B2 H24 C26 N16 O4'
_cell_volume   916.18838050
_cell_formula_units_Z   2
loop_
 _symmetry_equiv_pos_site_id
 _symmetry_equiv_pos_as_xyz
  1  'x, y, z'
loop_
 _atom_site_type_symbol
 _atom_site_label
 _atom_site_symmetry_multiplicity
 _atom_site_fract_x
 _atom_site_fract_y
 _atom_site_fract_z
 _atom_site_occupancy
 _atom_site_charge
  Mn  Mn1  1  0.201710  0.746050  0.185880  1.0  1.026
  Mn  Mn2  1  0.798290  0.253950  0.814120  1.0  1.029
  B  B3  1  0.864000  0.105400  0.309900  1.0  0.5197
  B  B4  1  0.136000  0.894600  0.690100  1.0  0.5201
  H  H5  1  0.545500  0.963900  0.168100  1.0  0.0768
  H  H6  1  0.782900  0.896300  0.472500  1.0  0.0996
  H  H7  1  0.870200  0.089200  0.044400  1.0  0.0799
  H  H8  1  0.934700  0.861800  0.275700  1.0  0.0825
  H  H9  1  0.500900  0.728600  0.425500  1.0  0.0914
  H  H10  1  0.336600  0.109400  0.193400  1.0  0.0934
  H  H11  1  0.693400  0.291200  0.284600  1.0  0.1161
  H  H12  1  0.613700  0.320700  0.066300  1.0  0.1016
  H  H13  1  0.178500  0.249300  0.246600  1.0  0.1262
  H  H14  1  0.704500  0.140200  0.511600  1.0  0.0788
  H  H15  1  0.150900  0.343000  0.465200  1.0  0.1218
  H  H16  1  0.116000  0.446200  0.673600  1.0  0.0932
  H  H17  1  0.454500  0.036100  0.831900  1.0  0.0772
  H  H18  1  0.217100  0.103700  0.527500  1.0  0.1003
  H  H19  1  0.129800  0.910800  0.955600  1.0  0.0804
  H  H20  1  0.065300  0.138200  0.724300  1.0  0.0834
  H  H21  1  0.499100  0.271400  0.574500  1.0  0.0923
  H  H22  1  0.663400  0.890600  0.806600  1.0  0.0937
  H  H23  1  0.306600  0.708800  0.715400  1.0  0.1157
  H  H24  1  0.386300  0.679300  0.933700  1.0  0.102
  H  H25  1  0.821500  0.750700  0.753400  1.0  0.1282
  H  H26  1  0.295500  0.859800  0.488400  1.0  0.0784
  H  H27  1  0.849100  0.657000  0.534800  1.0  0.1207
  H  H28  1  0.884000  0.553800  0.326400  1.0  0.093
  C  C29  1  0.569100  0.926400  0.238300  1.0  0.1854
  C  C30  1  0.932500  0.529700  0.989500  1.0  0.6287
  C  C31  1  0.701500  0.890200  0.405900  1.0  -0.1106
  C  C32  1  0.816700  0.143600  0.076700  1.0  0.1846
  C  C33  1  0.015400  0.940700  0.262000  1.0  0.1681
  C  C34  1  0.544900  0.797400  0.379400  1.0  0.0133
  C  C35  1  0.235500  0.076500  0.216700  1.0  0.0019
  C  C36  1  0.719800  0.254500  0.210400  1.0  -0.143
  C  C37  1  0.675800  0.270300  0.089000  1.0  -0.0119
  C  C38  1  0.148400  0.154900  0.246500  1.0  -0.1365
  C  C39  1  0.811500  0.203600  0.526400  1.0  0.1775
  C  C40  1  0.056900  0.314300  0.499400  1.0  -0.1107
  C  C41  1  0.036800  0.371200  0.615000  1.0  0.014
  C  C42  1  0.430900  0.073600  0.761700  1.0  0.185
  C  C43  1  0.067500  0.470300  0.010500  1.0  0.6293
  C  C44  1  0.298500  0.109800  0.594100  1.0  -0.1122
  C  C45  1  0.183300  0.856400  0.923300  1.0  0.1854
  C  C46  1  0.984600  0.059300  0.738000  1.0  0.1682
  C  C47  1  0.455100  0.202600  0.620600  1.0  0.0131
  C  C48  1  0.764500  0.923500  0.783300  1.0  0.0012
  C  C49  1  0.280200  0.745500  0.789600  1.0  -0.1433
  C  C50  1  0.324200  0.729700  0.911000  1.0  -0.0114
  C  C51  1  0.851600  0.845100  0.753500  1.0  -0.1362
  C  C52  1  0.188500  0.796400  0.473600  1.0  0.1769
  C  C53  1  0.943100  0.685700  0.500600  1.0  -0.1093
  C  C54  1  0.963200  0.628800  0.385000  1.0  0.014
  N  N55  1  0.461300  0.821200  0.273130  1.0  -0.4046
  N  N56  1  0.811200  0.173450  0.202930  1.0  -0.1455
  N  N57  1  0.717500  0.974000  0.315170  1.0  -0.1942
  N  N58  1  0.910800  0.205500  0.441800  1.0  -0.2084
  N  N59  1  0.007100  0.068000  0.276520  1.0  -0.191
  N  N60  1  0.150800  0.941000  0.226210  1.0  -0.4063
  N  N61  1  0.880900  0.300500  0.632370  1.0  -0.4302
  N  N62  1  0.737500  0.200300  0.004250  1.0  -0.4115
  N  N63  1  0.538700  0.178800  0.726870  1.0  -0.4073
  N  N64  1  0.188800  0.826550  0.797070  1.0  -0.1464
  N  N65  1  0.282500  0.026000  0.684830  1.0  -0.1947
  N  N66  1  0.089200  0.794500  0.558200  1.0  -0.2079
  N  N67  1  0.992900  0.932000  0.723480  1.0  -0.1895
  N  N68  1  0.849200  0.059000  0.773790  1.0  -0.4062
  N  N69  1  0.119100  0.699500  0.367630  1.0  -0.4261
  N  N70  1  0.262500  0.799700  0.995750  1.0  -0.4119
  O  O71  1  0.949570  0.636100  0.069210  1.0  -0.5884
  O  O72  1  0.818660  0.466770  0.894720  1.0  -0.5921
  O  O73  1  0.050430  0.363900  0.930790  1.0  -0.5889
  O  O74  1  0.181340  0.533230  0.105280  1.0  -0.5916
