# generated using pymatgen
data_CdBH12C13(N4O)2
_symmetry_space_group_name_H-M   'P 1'
_cell_length_a   9.01620000
_cell_length_b   10.74790000
_cell_length_c   10.80680000
_cell_angle_alpha   97.57000000
_cell_angle_beta   97.70800000
_cell_angle_gamma   110.10000000
_symmetry_Int_Tables_number   1
_chemical_formula_structural   CdBH12C13(N4O)2
_chemical_formula_sum   'Cd2 B2 H24 C26 N16 O4'
_cell_volume   956.60772805
_cell_formula_units_Z   2
loop_
 _symmetry_equiv_pos_site_id
 _symmetry_equiv_pos_as_xyz
  1  'x, y, z'
loop_
 _atom_site_type_symbol
 _atom_site_label
 _atom_site_symmetry_multiplicity
 _atom_site_fract_x
 _atom_site_fract_y
 _atom_site_fract_z
 _atom_site_occupancy
 _atom_site_charge
  Cd  Cd1  1  0.705690  0.248140  0.687750  1.0  0.9573
  Cd  Cd2  1  0.294310  0.751860  0.312250  1.0  0.9586
  B  B3  1  0.363000  0.607100  0.808600  1.0  0.5034
  B  B4  1  0.637000  0.392900  0.191400  1.0  0.5036
  H  H5  1  0.017800  0.241600  0.930900  1.0  0.0882
  H  H6  1  0.292200  0.405700  0.971900  1.0  0.086
  H  H7  1  0.046700  0.465500  0.671500  1.0  0.0744
  H  H8  1  0.194400  0.790600  0.786100  1.0  0.1221
  H  H9  1  0.364900  0.590600  0.547300  1.0  0.075
  H  H10  1  0.433500  0.368400  0.769300  1.0  0.0694
  H  H11  1  0.642200  0.837500  0.959300  1.0  0.1053
  H  H12  1  0.111600  0.819400  0.569300  1.0  0.09
  H  H13  1  0.677100  0.744000  0.752100  1.0  0.1095
  H  H14  1  0.208400  0.639100  0.011200  1.0  0.0729
  H  H15  1  0.834500  0.608100  0.698600  1.0  0.0931
  H  H16  1  0.599000  0.932000  0.160000  1.0  0.2642
  H  H17  1  0.982200  0.758400  0.069100  1.0  0.0887
  H  H18  1  0.707800  0.594300  0.028100  1.0  0.0864
  H  H19  1  0.953300  0.534500  0.328500  1.0  0.075
  H  H20  1  0.805600  0.209400  0.213900  1.0  0.1226
  H  H21  1  0.635100  0.409400  0.452700  1.0  0.0759
  H  H22  1  0.566500  0.631600  0.230700  1.0  0.0702
  H  H23  1  0.357800  0.162500  0.040700  1.0  0.1045
  H  H24  1  0.888400  0.180600  0.430700  1.0  0.0903
  H  H25  1  0.322900  0.256000  0.247900  1.0  0.1106
  H  H26  1  0.791600  0.360900  0.988800  1.0  0.0729
  H  H27  1  0.165500  0.391900  0.301400  1.0  0.0926
  H  H28  1  0.401000  0.068000  0.840000  1.0  0.2655
  C  C29  1  0.058100  0.307200  0.883300  1.0  -0.0082
  C  C30  1  0.209400  0.398400  0.906600  1.0  -0.1147
  C  C31  1  0.073800  0.430200  0.741500  1.0  0.1721
  C  C32  1  0.218900  0.753700  0.712400  1.0  -0.1428
  C  C33  1  0.312100  0.644500  0.579600  1.0  0.1971
  C  C34  1  0.514100  0.445500  0.758200  1.0  0.1826
  C  C35  1  0.549700  0.809100  0.993800  1.0  -0.1358
  C  C36  1  0.567900  0.971000  0.511600  1.0  0.6023
  C  C37  1  0.174000  0.769700  0.591700  1.0  -0.0022
  C  C38  1  0.646400  0.651700  0.749600  1.0  -0.1296
  C  C39  1  0.312900  0.701600  0.023500  1.0  0.1738
  C  C40  1  0.733000  0.576100  0.719200  1.0  -0.0096
  C  C41  1  0.529900  0.863800  0.106600  1.0  0.0472
  C  C42  1  0.941900  0.692800  0.116700  1.0  -0.0089
  C  C43  1  0.790600  0.601600  0.093400  1.0  -0.1162
  C  C44  1  0.926200  0.569800  0.258500  1.0  0.1746
  C  C45  1  0.781100  0.246300  0.287600  1.0  -0.1431
  C  C46  1  0.687900  0.355500  0.420400  1.0  0.1964
  C  C47  1  0.485900  0.554500  0.241800  1.0  0.1826
  C  C48  1  0.450300  0.190900  0.006200  1.0  -0.1345
  C  C49  1  0.432100  0.029000  0.488400  1.0  0.6026
  C  C50  1  0.826000  0.230300  0.408300  1.0  -0.0006
  C  C51  1  0.353600  0.348300  0.250400  1.0  -0.13
  C  C52  1  0.687100  0.298400  0.976500  1.0  0.1736
  C  C53  1  0.267000  0.423900  0.280800  1.0  -0.0101
  C  C54  1  0.470100  0.136200  0.893400  1.0  0.0466
  N  N55  1  0.973200  0.327100  0.777700  1.0  -0.3858
  N  N56  1  0.219900  0.479200  0.816700  1.0  -0.2037
  N  N57  1  0.307400  0.672300  0.703600  1.0  -0.1232
  N  N58  1  0.408700  0.703500  0.938600  1.0  -0.2022
  N  N59  1  0.505000  0.569000  0.776300  1.0  -0.198
  N  N60  1  0.234300  0.701600  0.508300  1.0  -0.3906
  N  N61  1  0.647400  0.444500  0.723500  1.0  -0.3918
  N  N62  1  0.380400  0.796400  0.125900  1.0  -0.4051
  N  N63  1  0.026800  0.672900  0.222300  1.0  -0.3867
  N  N64  1  0.780100  0.520800  0.183300  1.0  -0.2038
  N  N65  1  0.692600  0.327700  0.296400  1.0  -0.1233
  N  N66  1  0.591300  0.296500  0.061400  1.0  -0.202
  N  N67  1  0.495000  0.431000  0.223700  1.0  -0.1986
  N  N68  1  0.765700  0.298400  0.491700  1.0  -0.3907
  N  N69  1  0.352600  0.555500  0.276500  1.0  -0.3929
  N  N70  1  0.619600  0.203600  0.874100  1.0  -0.4013
  O  O71  1  0.680200  0.029300  0.604500  1.0  -0.6076
  O  O72  1  0.555100  0.868700  0.433500  1.0  -0.6386
  O  O73  1  0.319800  0.970700  0.395500  1.0  -0.6073
  O  O74  1  0.444900  0.131300  0.566500  1.0  -0.6397
