# generated using pymatgen
data_ZnBH12C13(N4O)2
_symmetry_space_group_name_H-M   'P 1'
_cell_length_a   8.86490000
_cell_length_b   10.55650000
_cell_length_c   10.63100000
_cell_angle_alpha   99.98600000
_cell_angle_beta   110.23300000
_cell_angle_gamma   97.81900000
_symmetry_Int_Tables_number   1
_chemical_formula_structural   ZnBH12C13(N4O)2
_chemical_formula_sum   'Zn2 B2 H24 C26 N16 O4'
_cell_volume   898.42101199
_cell_formula_units_Z   2
loop_
 _symmetry_equiv_pos_site_id
 _symmetry_equiv_pos_as_xyz
  1  'x, y, z'
loop_
 _atom_site_type_symbol
 _atom_site_label
 _atom_site_symmetry_multiplicity
 _atom_site_fract_x
 _atom_site_fract_y
 _atom_site_fract_z
 _atom_site_occupancy
 _atom_site_charge
  Zn  Zn1  1  0.797700  0.321940  0.248780  1.0  0.7867
  Zn  Zn2  1  0.202300  0.678060  0.751220  1.0  0.7866
  B  B3  1  0.137400  0.187800  0.896100  1.0  0.5227
  B  B4  1  0.862600  0.812200  0.103900  1.0  0.5222
  H  H5  1  0.461300  0.336300  0.031100  1.0  0.0911
  H  H6  1  0.218400  0.036300  0.108600  1.0  0.1067
  H  H7  1  0.118900  0.453900  0.904300  1.0  0.0817
  H  H8  1  0.072600  0.241800  0.142300  1.0  0.0879
  H  H9  1  0.296700  0.978000  0.873600  1.0  0.0829
  H  H10  1  0.654000  0.293300  0.895800  1.0  0.1
  H  H11  1  0.507100  0.087500  0.269200  1.0  0.111
  H  H12  1  0.809600  0.230300  0.753500  1.0  0.1149
  H  H13  1  0.380200  0.427700  0.673300  1.0  0.1124
  H  H14  1  0.311300  0.208500  0.711900  1.0  0.1242
  H  H15  1  0.896200  0.810000  0.552400  1.0  0.0972
  H  H16  1  0.857300  0.023700  0.652300  1.0  0.1094
  H  H17  1  0.538700  0.663700  0.968900  1.0  0.0927
  H  H18  1  0.781600  0.963700  0.891400  1.0  0.1072
  H  H19  1  0.881100  0.546100  0.095700  1.0  0.0821
  H  H20  1  0.927400  0.758200  0.857700  1.0  0.0873
  H  H21  1  0.703300  0.022000  0.126400  1.0  0.0828
  H  H22  1  0.346000  0.706700  0.104200  1.0  0.0979
  H  H23  1  0.492900  0.912500  0.730800  1.0  0.1101
  H  H24  1  0.190400  0.769700  0.246500  1.0  0.1162
  H  H25  1  0.619800  0.572300  0.326700  1.0  0.1135
  H  H26  1  0.688700  0.791500  0.288100  1.0  0.1237
  H  H27  1  0.103800  0.190000  0.447600  1.0  0.0964
  H  H28  1  0.142700  0.976300  0.347700  1.0  0.1106
  C  C29  1  0.437300  0.267800  0.070300  1.0  0.1746
  C  C30  1  0.301700  0.102300  0.111900  1.0  -0.1175
  C  C31  1  0.174900  0.420300  0.851000  1.0  0.1937
  C  C32  1  0.929600  0.488100  0.526900  1.0  0.6434
  C  C33  1  0.987600  0.246300  0.063000  1.0  0.1914
  C  C34  1  0.191700  0.962600  0.806000  1.0  0.1777
  C  C35  1  0.758400  0.274900  0.928000  1.0  0.0054
  C  C36  1  0.462100  0.131400  0.201100  1.0  0.017
  C  C37  1  0.844100  0.239500  0.848300  1.0  -0.1056
  C  C38  1  0.318500  0.405700  0.724400  1.0  0.0104
  C  C39  1  0.280500  0.283900  0.745600  1.0  -0.1291
  C  C40  1  0.972400  0.870500  0.630600  1.0  0.0081
  C  C41  1  0.950800  0.989300  0.684900  1.0  -0.1159
  C  C42  1  0.562700  0.732200  0.929700  1.0  0.1749
  C  C43  1  0.698300  0.897700  0.888100  1.0  -0.1157
  C  C44  1  0.825100  0.579700  0.149000  1.0  0.194
  C  C45  1  0.070400  0.511900  0.473100  1.0  0.6423
  C  C46  1  0.012400  0.753700  0.937000  1.0  0.1923
  C  C47  1  0.808300  0.037400  0.194000  1.0  0.1766
  C  C48  1  0.241600  0.725100  0.072000  1.0  0.0056
  C  C49  1  0.537900  0.868600  0.798900  1.0  0.0177
  C  C50  1  0.155900  0.760500  0.151700  1.0  -0.1042
  C  C51  1  0.681500  0.594300  0.275600  1.0  0.0106
  C  C52  1  0.719500  0.716100  0.254400  1.0  -0.1286
  C  C53  1  0.027600  0.129500  0.369400  1.0  0.0077
  C  C54  1  0.049200  0.010700  0.315100  1.0  -0.1157
  N  N55  1  0.187700  0.293200  0.826500  1.0  -0.141
  N  N56  1  0.286300  0.189800  0.026800  1.0  -0.1856
  N  N57  1  0.547400  0.236900  0.174200  1.0  -0.4033
  N  N58  1  0.093300  0.050100  0.797600  1.0  -0.2106
  N  N59  1  0.992500  0.219700  0.934700  1.0  -0.2028
  N  N60  1  0.124100  0.853300  0.708800  1.0  -0.4013
  N  N61  1  0.849300  0.279300  0.062800  1.0  -0.3974
  N  N62  1  0.250300  0.491900  0.791400  1.0  -0.3976
  N  N63  1  0.812300  0.706800  0.173500  1.0  -0.1401
  N  N64  1  0.713700  0.810200  0.973200  1.0  -0.1863
  N  N65  1  0.452600  0.763100  0.825800  1.0  -0.404
  N  N66  1  0.906700  0.949900  0.202400  1.0  -0.2092
  N  N67  1  0.007500  0.780300  0.065300  1.0  -0.2027
  N  N68  1  0.875900  0.146700  0.291200  1.0  -0.4035
  N  N69  1  0.150700  0.720700  0.937200  1.0  -0.3968
  N  N70  1  0.749700  0.508100  0.208600  1.0  -0.3977
  O  O71  1  0.809900  0.395100  0.455300  1.0  -0.5637
  O  O72  1  0.947100  0.564400  0.637800  1.0  -0.58
  O  O73  1  0.190100  0.604900  0.544700  1.0  -0.5649
  O  O74  1  0.052900  0.435600  0.362200  1.0  -0.5805
