# generated using pymatgen
data_ZnBH12C13(N4O)2
_symmetry_space_group_name_H-M   'P 1'
_cell_length_a   8.80170000
_cell_length_b   10.66740000
_cell_length_c   10.94220000
_cell_angle_alpha   103.15700000
_cell_angle_beta   108.19300000
_cell_angle_gamma   97.41000000
_symmetry_Int_Tables_number   1
_chemical_formula_structural   ZnBH12C13(N4O)2
_chemical_formula_sum   'Zn2 B2 H24 C26 N16 O4'
_cell_volume   927.91223603
_cell_formula_units_Z   2
loop_
 _symmetry_equiv_pos_site_id
 _symmetry_equiv_pos_as_xyz
  1  'x, y, z'
loop_
 _atom_site_type_symbol
 _atom_site_label
 _atom_site_symmetry_multiplicity
 _atom_site_fract_x
 _atom_site_fract_y
 _atom_site_fract_z
 _atom_site_occupancy
 _atom_site_charge
  Zn  Zn1  1  0.798820  0.836720  0.245550  1.0  0.7699
  Zn  Zn2  1  0.201180  0.163280  0.754450  1.0  0.7716
  B  B3  1  0.144300  0.685700  0.898200  1.0  0.5055
  B  B4  1  0.855700  0.314300  0.101800  1.0  0.5053
  H  H5  1  0.466700  0.836300  0.024100  1.0  0.099
  H  H6  1  0.315000  0.695700  0.713000  1.0  0.1265
  H  H7  1  0.119100  0.947900  0.903400  1.0  0.079
  H  H8  1  0.371100  0.906800  0.666200  1.0  0.1034
  H  H9  1  0.288600  0.465800  0.890700  1.0  0.0833
  H  H10  1  0.083000  0.767400  0.140400  1.0  0.0871
  H  H11  1  0.503100  0.615500  0.268400  1.0  0.1124
  H  H12  1  0.653400  0.776400  0.901400  1.0  0.104
  H  H13  1  0.220800  0.556700  0.112300  1.0  0.0997
  H  H14  1  0.890100  0.523900  0.645900  1.0  0.1087
  H  H15  1  0.811800  0.703300  0.762500  1.0  0.1173
  H  H16  1  0.923800  0.303000  0.556600  1.0  0.0935
  H  H17  1  0.533300  0.163700  0.975900  1.0  0.1001
  H  H18  1  0.685000  0.304300  0.287000  1.0  0.1261
  H  H19  1  0.880900  0.052100  0.096600  1.0  0.0792
  H  H20  1  0.628900  0.093200  0.333800  1.0  0.1052
  H  H21  1  0.711400  0.534200  0.109300  1.0  0.0835
  H  H22  1  0.917000  0.232600  0.859600  1.0  0.0873
  H  H23  1  0.496900  0.384500  0.731600  1.0  0.1105
  H  H24  1  0.346600  0.223600  0.098600  1.0  0.1024
  H  H25  1  0.779200  0.443300  0.887700  1.0  0.0991
  H  H26  1  0.109900  0.476100  0.354100  1.0  0.1091
  H  H27  1  0.188200  0.296700  0.237500  1.0  0.1174
  H  H28  1  0.076200  0.697000  0.443400  1.0  0.0927
  C  C29  1  0.072600  0.010500  0.474200  1.0  0.6313
  C  C30  1  0.440800  0.773500  0.065200  1.0  0.1723
  C  C31  1  0.281400  0.771600  0.745500  1.0  -0.1181
  C  C32  1  0.174600  0.911300  0.849300  1.0  0.1757
  C  C33  1  0.312600  0.888900  0.720100  1.0  -0.0012
  C  C34  1  0.192800  0.452900  0.817900  1.0  0.1859
  C  C35  1  0.994900  0.759600  0.063100  1.0  0.1845
  C  C36  1  0.460900  0.652700  0.199400  1.0  0.0029
  C  C37  1  0.760400  0.765200  0.932800  1.0  -0.0006
  C  C38  1  0.304600  0.619900  0.113000  1.0  -0.1017
  C  C39  1  0.975300  0.486100  0.685100  1.0  -0.1222
  C  C40  1  0.847500  0.724100  0.855600  1.0  -0.1192
  C  C41  1  0.994400  0.363800  0.636100  1.0  0.0148
  C  C42  1  0.927400  0.989500  0.525800  1.0  0.6311
  C  C43  1  0.559200  0.226500  0.934800  1.0  0.1729
  C  C44  1  0.718600  0.228400  0.254500  1.0  -0.1167
  C  C45  1  0.825400  0.088700  0.150700  1.0  0.1762
  C  C46  1  0.687400  0.111100  0.279900  1.0  -0.0021
  C  C47  1  0.807200  0.547100  0.182100  1.0  0.1859
  C  C48  1  0.005100  0.240400  0.936900  1.0  0.1843
  C  C49  1  0.539100  0.347300  0.800600  1.0  0.0035
  C  C50  1  0.239600  0.234800  0.067200  1.0  -0.0021
  C  C51  1  0.695400  0.380100  0.887000  1.0  -0.1015
  C  C52  1  0.024700  0.513900  0.314900  1.0  -0.1214
  C  C53  1  0.152500  0.275900  0.144400  1.0  -0.1189
  C  C54  1  0.005600  0.636200  0.363900  1.0  0.0142
  N  N55  1  0.547600  0.750400  0.168600  1.0  -0.3945
  N  N56  1  0.104600  0.545100  0.803400  1.0  -0.1849
  N  N57  1  0.291100  0.696700  0.025800  1.0  -0.1797
  N  N58  1  0.191500  0.785400  0.827700  1.0  -0.1437
  N  N59  1  0.997900  0.718400  0.938500  1.0  -0.1857
  N  N60  1  0.132100  0.342700  0.720300  1.0  -0.3877
  N  N61  1  0.853800  0.787600  0.064000  1.0  -0.3938
  N  N62  1  0.244400  0.977000  0.786100  1.0  -0.3846
  N  N63  1  0.452400  0.249600  0.831400  1.0  -0.3934
  N  N64  1  0.895400  0.454900  0.196600  1.0  -0.1825
  N  N65  1  0.708900  0.303300  0.974200  1.0  -0.1806
  N  N66  1  0.808500  0.214600  0.172300  1.0  -0.1436
  N  N67  1  0.002100  0.281600  0.061500  1.0  -0.186
  N  N68  1  0.867900  0.657300  0.279700  1.0  -0.3889
  N  N69  1  0.146200  0.212400  0.936000  1.0  -0.3936
  N  N70  1  0.755600  0.023000  0.213900  1.0  -0.385
  O  O71  1  0.053100  0.943100  0.359600  1.0  -0.5723
  O  O72  1  0.198600  0.094500  0.554500  1.0  -0.5681
  O  O73  1  0.946900  0.056900  0.640400  1.0  -0.5722
  O  O74  1  0.801400  0.905500  0.445500  1.0  -0.5675
