# generated using pymatgen
data_CuH7C5NO4
_symmetry_space_group_name_H-M   'P 1'
_cell_length_a   7.22550000
_cell_length_b   10.30530000
_cell_length_c   11.04990000
_cell_angle_alpha   90.00000000
_cell_angle_beta   90.00000000
_cell_angle_gamma   90.00000000
_symmetry_Int_Tables_number   1
_chemical_formula_structural   CuH7C5NO4
_chemical_formula_sum   'Cu4 H28 C20 N4 O16'
_cell_volume   822.78599781
_cell_formula_units_Z   4
loop_
 _symmetry_equiv_pos_site_id
 _symmetry_equiv_pos_as_xyz
  1  'x, y, z'
loop_
 _atom_site_type_symbol
 _atom_site_label
 _atom_site_symmetry_multiplicity
 _atom_site_fract_x
 _atom_site_fract_y
 _atom_site_fract_z
 _atom_site_occupancy
 _atom_site_charge
  Cu  Cu1  1  0.100660  0.933200  0.529340  1.0  0.8317
  Cu  Cu2  1  0.399340  0.066800  0.029340  1.0  0.8297
  Cu  Cu3  1  0.899340  0.433200  0.970660  1.0  0.8331
  Cu  Cu4  1  0.600660  0.566800  0.470660  1.0  0.831
  H  H5  1  0.162000  0.728000  0.278800  1.0  0.1138
  H  H6  1  0.214600  0.949500  0.302100  1.0  0.3227
  H  H7  1  0.300600  0.850100  0.373500  1.0  0.3214
  H  H8  1  0.900800  0.760100  0.169500  1.0  0.0939
  H  H9  1  0.008600  0.879200  0.154100  1.0  0.1051
  H  H10  1  0.712300  0.868800  0.311300  1.0  0.1308
  H  H11  1  0.835500  0.005700  0.306300  1.0  0.117
  H  H12  1  0.338000  0.272000  0.778800  1.0  0.1118
  H  H13  1  0.285400  0.050500  0.802100  1.0  0.3244
  H  H14  1  0.199400  0.149900  0.873500  1.0  0.3205
  H  H15  1  0.599200  0.239900  0.669500  1.0  0.0958
  H  H16  1  0.491400  0.120800  0.654100  1.0  0.109
  H  H17  1  0.787700  0.131200  0.811300  1.0  0.1305
  H  H18  1  0.664500  0.994300  0.806300  1.0  0.1175
  H  H19  1  0.838000  0.228000  0.221200  1.0  0.1108
  H  H20  1  0.785400  0.449500  0.197900  1.0  0.3222
  H  H21  1  0.699400  0.350100  0.126500  1.0  0.3203
  H  H22  1  0.099200  0.260100  0.330500  1.0  0.0942
  H  H23  1  0.991400  0.379200  0.345900  1.0  0.1016
  H  H24  1  0.287700  0.368800  0.188700  1.0  0.1304
  H  H25  1  0.164500  0.505700  0.193700  1.0  0.1174
  H  H26  1  0.662000  0.772000  0.721200  1.0  0.1116
  H  H27  1  0.714600  0.550500  0.697900  1.0  0.3262
  H  H28  1  0.800600  0.649900  0.626500  1.0  0.3223
  H  H29  1  0.400800  0.739900  0.830500  1.0  0.0929
  H  H30  1  0.508600  0.620800  0.845900  1.0  0.102
  H  H31  1  0.212300  0.631200  0.688700  1.0  0.1304
  H  H32  1  0.335500  0.494300  0.693700  1.0  0.1173
  C  C33  1  0.971900  0.715300  0.409800  1.0  0.6375
  C  C34  1  0.078900  0.784300  0.311000  1.0  0.0454
  C  C35  1  0.949100  0.831200  0.213300  1.0  -0.1108
  C  C36  1  0.793200  0.918600  0.256900  1.0  -0.3333
  C  C37  1  0.672600  0.969100  0.154900  1.0  0.6877
  C  C38  1  0.528100  0.284700  0.909800  1.0  0.6366
  C  C39  1  0.421100  0.215700  0.811000  1.0  0.0447
  C  C40  1  0.550900  0.168800  0.713300  1.0  -0.1119
  C  C41  1  0.706800  0.081400  0.756900  1.0  -0.3336
  C  C42  1  0.827400  0.030900  0.654900  1.0  0.6879
  C  C43  1  0.028100  0.215300  0.090200  1.0  0.6364
  C  C44  1  0.921100  0.284300  0.189000  1.0  0.0457
  C  C45  1  0.050900  0.331200  0.286700  1.0  -0.1091
  C  C46  1  0.206800  0.418600  0.243100  1.0  -0.3339
  C  C47  1  0.327400  0.469100  0.345100  1.0  0.6873
  C  C48  1  0.471900  0.784700  0.590200  1.0  0.6366
  C  C49  1  0.578900  0.715700  0.689000  1.0  0.047
  C  C50  1  0.449100  0.668800  0.786700  1.0  -0.1092
  C  C51  1  0.293200  0.581400  0.743100  1.0  -0.3337
  C  C52  1  0.172600  0.530900  0.845100  1.0  0.6863
  N  N53  1  0.190000  0.891600  0.362500  1.0  -0.6762
  N  N54  1  0.310000  0.108400  0.862500  1.0  -0.6773
  N  N55  1  0.810000  0.391600  0.137500  1.0  -0.6785
  N  N56  1  0.690000  0.608400  0.637500  1.0  -0.678
  O  O57  1  0.980100  0.762100  0.517000  1.0  -0.557
  O  O58  1  0.875900  0.620600  0.380500  1.0  -0.578
  O  O59  1  0.525300  0.029000  0.184600  1.0  -0.566
  O  O60  1  0.713800  0.949100  0.047100  1.0  -0.5842
  O  O61  1  0.519900  0.237900  0.017000  1.0  -0.5568
  O  O62  1  0.624100  0.379400  0.880500  1.0  -0.5767
  O  O63  1  0.974700  0.971000  0.684600  1.0  -0.5658
  O  O64  1  0.786200  0.050900  0.547100  1.0  -0.5813
  O  O65  1  0.019900  0.262100  0.983000  1.0  -0.5583
  O  O66  1  0.124100  0.120600  0.119500  1.0  -0.5774
  O  O67  1  0.474700  0.529000  0.315400  1.0  -0.5659
  O  O68  1  0.286200  0.449100  0.452900  1.0  -0.5821
  O  O69  1  0.480100  0.737900  0.483000  1.0  -0.5584
  O  O70  1  0.375900  0.879400  0.619500  1.0  -0.5771
  O  O71  1  0.025300  0.471000  0.815400  1.0  -0.5657
  O  O72  1  0.213800  0.550900  0.952900  1.0  -0.5822
