# generated using pymatgen
data_CuH7C5NO4
_symmetry_space_group_name_H-M   'P 1'
_cell_length_a   7.23200000
_cell_length_b   10.31100000
_cell_length_c   11.05800000
_cell_angle_alpha   90.00000000
_cell_angle_beta   90.00000000
_cell_angle_gamma   90.00000000
_symmetry_Int_Tables_number   1
_chemical_formula_structural   CuH7C5NO4
_chemical_formula_sum   'Cu4 H28 C20 N4 O16'
_cell_volume   824.58568282
_cell_formula_units_Z   4
loop_
 _symmetry_equiv_pos_site_id
 _symmetry_equiv_pos_as_xyz
  1  'x, y, z'
loop_
 _atom_site_type_symbol
 _atom_site_label
 _atom_site_symmetry_multiplicity
 _atom_site_fract_x
 _atom_site_fract_y
 _atom_site_fract_z
 _atom_site_occupancy
 _atom_site_charge
  Cu  Cu1  1  0.399690  0.566840  0.529130  1.0  0.8169
  Cu  Cu2  1  0.100310  0.433160  0.029130  1.0  0.8165
  Cu  Cu3  1  0.600310  0.066840  0.970870  1.0  0.8185
  Cu  Cu4  1  0.899690  0.933160  0.470870  1.0  0.8185
  H  H5  1  0.165800  0.221400  0.773900  1.0  0.101
  H  H6  1  0.310400  0.367200  0.866100  1.0  0.3403
  H  H7  1  0.181900  0.461500  0.815400  1.0  0.3306
  H  H8  1  0.020300  0.379900  0.651800  1.0  0.0915
  H  H9  1  0.896300  0.257100  0.670900  1.0  0.0988
  H  H10  1  0.844300  0.491000  0.800700  1.0  0.1101
  H  H11  1  0.716400  0.368800  0.812900  1.0  0.1268
  H  H12  1  0.334200  0.778600  0.273900  1.0  0.1006
  H  H13  1  0.189600  0.632800  0.366100  1.0  0.3404
  H  H14  1  0.318100  0.538500  0.315400  1.0  0.3327
  H  H15  1  0.479700  0.620100  0.151800  1.0  0.0925
  H  H16  1  0.603700  0.742900  0.170900  1.0  0.0997
  H  H17  1  0.655700  0.509000  0.300700  1.0  0.1106
  H  H18  1  0.783600  0.631200  0.312900  1.0  0.126
  H  H19  1  0.834200  0.721400  0.726100  1.0  0.1005
  H  H20  1  0.689600  0.867200  0.633900  1.0  0.3408
  H  H21  1  0.818100  0.961500  0.684600  1.0  0.3309
  H  H22  1  0.979700  0.879900  0.848200  1.0  0.0921
  H  H23  1  0.103700  0.757100  0.829100  1.0  0.0992
  H  H24  1  0.155700  0.991000  0.699300  1.0  0.1105
  H  H25  1  0.283600  0.868800  0.687100  1.0  0.1261
  H  H26  1  0.665800  0.278600  0.226100  1.0  0.1014
  H  H27  1  0.810400  0.132800  0.133900  1.0  0.3411
  H  H28  1  0.681900  0.038500  0.184600  1.0  0.332
  H  H29  1  0.520300  0.120100  0.348200  1.0  0.0921
  H  H30  1  0.396300  0.242900  0.329100  1.0  0.0984
  H  H31  1  0.344300  0.009000  0.199300  1.0  0.1098
  H  H32  1  0.216400  0.131200  0.187100  1.0  0.1268
  C  C33  1  0.970400  0.215000  0.911600  1.0  0.625
  C  C34  1  0.080500  0.284300  0.809900  1.0  0.034
  C  C35  1  0.949400  0.331800  0.711300  1.0  -0.127
  C  C36  1  0.792400  0.418000  0.757000  1.0  -0.3194
  C  C37  1  0.672500  0.468000  0.654900  1.0  0.6881
  C  C38  1  0.529600  0.785000  0.411600  1.0  0.6238
  C  C39  1  0.419500  0.715700  0.309900  1.0  0.0343
  C  C40  1  0.550600  0.668200  0.211300  1.0  -0.1274
  C  C41  1  0.707600  0.582000  0.257000  1.0  -0.3186
  C  C42  1  0.827500  0.532000  0.154900  1.0  0.687
  C  C43  1  0.029600  0.715000  0.588400  1.0  0.625
  C  C44  1  0.919500  0.784300  0.690100  1.0  0.0346
  C  C45  1  0.050600  0.831800  0.788700  1.0  -0.1269
  C  C46  1  0.207600  0.918000  0.743000  1.0  -0.3204
  C  C47  1  0.327500  0.968000  0.845100  1.0  0.6875
  C  C48  1  0.470400  0.285000  0.088400  1.0  0.6251
  C  C49  1  0.580500  0.215700  0.190100  1.0  0.0349
  C  C50  1  0.449400  0.168200  0.288700  1.0  -0.1278
  C  C51  1  0.292400  0.082000  0.243000  1.0  -0.3206
  C  C52  1  0.172500  0.032000  0.345100  1.0  0.6874
  N  N53  1  0.190700  0.390800  0.862700  1.0  -0.6607
  N  N54  1  0.309300  0.609200  0.362700  1.0  -0.6608
  N  N55  1  0.809300  0.890800  0.637300  1.0  -0.6607
  N  N56  1  0.690700  0.109200  0.137300  1.0  -0.6604
  O  O57  1  0.874500  0.121000  0.880900  1.0  -0.5698
  O  O58  1  0.981600  0.261900  0.016900  1.0  -0.5387
  O  O59  1  0.714800  0.449400  0.546100  1.0  -0.5831
  O  O60  1  0.524100  0.528500  0.683800  1.0  -0.566
  O  O61  1  0.625500  0.879000  0.380900  1.0  -0.5695
  O  O62  1  0.518400  0.738100  0.516900  1.0  -0.5384
  O  O63  1  0.785200  0.550600  0.046100  1.0  -0.582
  O  O64  1  0.975900  0.471500  0.183800  1.0  -0.566
  O  O65  1  0.125500  0.621000  0.619100  1.0  -0.5717
  O  O66  1  0.018400  0.761900  0.483100  1.0  -0.5396
  O  O67  1  0.285200  0.949400  0.953900  1.0  -0.5815
  O  O68  1  0.475900  0.028500  0.816200  1.0  -0.5658
  O  O69  1  0.374500  0.379000  0.119100  1.0  -0.5716
  O  O70  1  0.481600  0.238100  0.983100  1.0  -0.5395
  O  O71  1  0.214800  0.050600  0.453900  1.0  -0.5811
  O  O72  1  0.024100  0.971500  0.316200  1.0  -0.5658
