# generated using pymatgen
data_CuH7C5NO4
_symmetry_space_group_name_H-M   'P 1'
_cell_length_a   7.23800000
_cell_length_b   10.35000000
_cell_length_c   11.08400000
_cell_angle_alpha   90.00000000
_cell_angle_beta   90.00000000
_cell_angle_gamma   90.00000000
_symmetry_Int_Tables_number   1
_chemical_formula_structural   CuH7C5NO4
_chemical_formula_sum   'Cu4 H28 C20 N4 O16'
_cell_volume   830.33901720
_cell_formula_units_Z   4
loop_
 _symmetry_equiv_pos_site_id
 _symmetry_equiv_pos_as_xyz
  1  'x, y, z'
loop_
 _atom_site_type_symbol
 _atom_site_label
 _atom_site_symmetry_multiplicity
 _atom_site_fract_x
 _atom_site_fract_y
 _atom_site_fract_z
 _atom_site_occupancy
 _atom_site_charge
  Cu  Cu1  1  0.649700  0.816680  0.720670  1.0  0.8001
  Cu  Cu2  1  0.350300  0.683320  0.220670  1.0  0.8009
  Cu  Cu3  1  0.149700  0.183320  0.779330  1.0  0.7996
  Cu  Cu4  1  0.850300  0.316680  0.279330  1.0  0.7985
  H  H5  1  0.583000  0.022000  0.972000  1.0  0.1032
  H  H6  1  0.839000  0.981000  0.081000  1.0  0.1012
  H  H7  1  0.741000  0.862000  0.103000  1.0  0.0866
  H  H8  1  0.039000  0.893000  0.937000  1.0  0.1357
  H  H9  1  0.908000  0.741000  0.954000  1.0  0.1156
  H  H10  1  0.476000  0.861000  0.865000  1.0  0.301
  H  H11  1  0.574000  0.782000  0.946000  1.0  0.2978
  H  H12  1  0.417000  0.478000  0.472000  1.0  0.1041
  H  H13  1  0.161000  0.519000  0.581000  1.0  0.0985
  H  H14  1  0.259000  0.638000  0.603000  1.0  0.0872
  H  H15  1  0.961000  0.607000  0.437000  1.0  0.136
  H  H16  1  0.092000  0.759000  0.454000  1.0  0.1163
  H  H17  1  0.524000  0.639000  0.365000  1.0  0.3027
  H  H18  1  0.426000  0.718000  0.446000  1.0  0.2929
  H  H19  1  0.083000  0.978000  0.528000  1.0  0.1025
  H  H20  1  0.339000  0.019000  0.419000  1.0  0.0998
  H  H21  1  0.241000  0.138000  0.397000  1.0  0.0868
  H  H22  1  0.539000  0.107000  0.563000  1.0  0.1356
  H  H23  1  0.408000  0.259000  0.546000  1.0  0.1166
  H  H24  1  0.976000  0.139000  0.635000  1.0  0.3016
  H  H25  1  0.074000  0.218000  0.554000  1.0  0.294
  H  H26  1  0.917000  0.522000  0.028000  1.0  0.1043
  H  H27  1  0.661000  0.481000  0.919000  1.0  0.1022
  H  H28  1  0.759000  0.362000  0.897000  1.0  0.0865
  H  H29  1  0.461000  0.393000  0.063000  1.0  0.135
  H  H30  1  0.592000  0.241000  0.046000  1.0  0.1164
  H  H31  1  0.024000  0.361000  0.135000  1.0  0.3027
  H  H32  1  0.926000  0.282000  0.054000  1.0  0.2964
  C  C33  1  0.778000  0.034000  0.840500  1.0  0.6257
  C  C34  1  0.669900  0.966100  0.938900  1.0  0.0457
  C  C35  1  0.801500  0.917600  0.037000  1.0  -0.1036
  C  C36  1  0.957300  0.832600  0.993300  1.0  -0.356
  C  C37  1  0.075600  0.782900  0.095400  1.0  0.6923
  C  C38  1  0.222000  0.466000  0.340500  1.0  0.6258
  C  C39  1  0.330100  0.533900  0.438900  1.0  0.0461
  C  C40  1  0.198500  0.582400  0.537000  1.0  -0.1041
  C  C41  1  0.042700  0.667400  0.493300  1.0  -0.3563
  C  C42  1  0.924400  0.717100  0.595400  1.0  0.6919
  C  C43  1  0.278000  0.966000  0.659500  1.0  0.6275
  C  C44  1  0.169900  0.033900  0.561100  1.0  0.0434
  C  C45  1  0.301500  0.082400  0.463000  1.0  -0.1048
  C  C46  1  0.457300  0.167400  0.506700  1.0  -0.3556
  C  C47  1  0.575600  0.217100  0.404600  1.0  0.6918
  C  C48  1  0.722000  0.534000  0.159500  1.0  0.6265
  C  C49  1  0.830100  0.466100  0.061100  1.0  0.0454
  C  C50  1  0.698500  0.417600  0.963000  1.0  -0.1055
  C  C51  1  0.542700  0.332600  0.006700  1.0  -0.356
  C  C52  1  0.424400  0.282900  0.904600  1.0  0.6915
  N  N53  1  0.560200  0.858300  0.886700  1.0  -0.5947
  N  N54  1  0.439800  0.641700  0.386700  1.0  -0.5945
  N  N55  1  0.060200  0.141700  0.613300  1.0  -0.5955
  N  N56  1  0.939800  0.358300  0.113300  1.0  -0.5954
  O  O57  1  0.768300  0.987200  0.733400  1.0  -0.5318
  O  O58  1  0.874100  0.128600  0.869000  1.0  -0.5694
  O  O59  1  0.224900  0.721400  0.065900  1.0  -0.5704
  O  O60  1  0.035600  0.800600  0.203100  1.0  -0.5738
  O  O61  1  0.231700  0.512800  0.233400  1.0  -0.5321
  O  O62  1  0.125900  0.371400  0.369000  1.0  -0.5696
  O  O63  1  0.775100  0.778600  0.565900  1.0  -0.5711
  O  O64  1  0.964400  0.699400  0.703100  1.0  -0.5757
  O  O65  1  0.268300  0.012800  0.766600  1.0  -0.5316
  O  O66  1  0.374100  0.871400  0.631000  1.0  -0.5697
  O  O67  1  0.724900  0.278600  0.434100  1.0  -0.5709
  O  O68  1  0.535600  0.199400  0.296900  1.0  -0.576
  O  O69  1  0.731700  0.487200  0.266600  1.0  -0.5319
  O  O70  1  0.625900  0.628600  0.131000  1.0  -0.5696
  O  O71  1  0.275100  0.221400  0.934100  1.0  -0.5709
  O  O72  1  0.464400  0.300600  0.796900  1.0  -0.5758
