# generated using pymatgen
data_CuH14(C11N6)2
_symmetry_space_group_name_H-M   'P 1'
_cell_length_a   8.98100000
_cell_length_b   16.00150000
_cell_length_c   16.00150000
_cell_angle_alpha   63.41670000
_cell_angle_beta   79.21720000
_cell_angle_gamma   100.78300000
_symmetry_Int_Tables_number   1
_chemical_formula_structural   CuH14(C11N6)2
_chemical_formula_sum   'Cu3 H42 C66 N36'
_cell_volume   1921.77581109
_cell_formula_units_Z   3
loop_
 _symmetry_equiv_pos_site_id
 _symmetry_equiv_pos_as_xyz
  1  'x, y, z'
loop_
 _atom_site_type_symbol
 _atom_site_label
 _atom_site_symmetry_multiplicity
 _atom_site_fract_x
 _atom_site_fract_y
 _atom_site_fract_z
 _atom_site_occupancy
 _atom_site_charge
  Cu  Cu1  1  0.000000  0.000000  0.500000  1.0  0.793
  Cu  Cu2  1  0.500000  0.500000  0.500000  1.0  0.793
  Cu  Cu3  1  0.000000  0.500000  0.000000  1.0  0.793
  H  H4  1  0.327900  0.227600  0.638200  1.0  0.0762
  H  H5  1  0.088300  0.118200  0.741800  1.0  0.0702
  H  H6  1  0.911700  0.331700  0.699100  1.0  0.0809
  H  H7  1  0.903000  0.639100  0.627900  1.0  0.1133
  H  H8  1  0.851400  0.778900  0.615300  1.0  0.0711
  H  H9  1  0.216900  0.944900  0.381400  1.0  0.0762
  H  H10  1  0.285500  0.811000  0.390600  1.0  0.1233
  H  H11  1  0.966100  0.638200  0.134200  1.0  0.074
  H  H12  1  0.830100  0.741800  0.140000  1.0  0.0726
  H  H13  1  0.610800  0.699100  0.969200  1.0  0.0796
  H  H14  1  0.530900  0.627900  0.733000  1.0  0.1123
  H  H15  1  0.466700  0.615300  0.605800  1.0  0.0711
  H  H16  1  0.598300  0.381400  0.673700  1.0  0.0749
  H  H17  1  0.676100  0.390600  0.798400  1.0  0.1225
  H  H18  1  0.100300  0.134200  0.227600  1.0  0.0754
  H  H19  1  0.970100  0.140000  0.118200  1.0  0.0723
  H  H20  1  0.580000  0.969200  0.331700  1.0  0.0811
  H  H21  1  0.263900  0.733000  0.639100  1.0  0.1127
  H  H22  1  0.072500  0.605800  0.778900  1.0  0.0702
  H  H23  1  0.272000  0.673700  0.944900  1.0  0.0752
  H  H24  1  0.474500  0.798400  0.811000  1.0  0.1231
  H  H25  1  0.672100  0.772400  0.361800  1.0  0.0755
  H  H26  1  0.911700  0.881800  0.258200  1.0  0.0694
  H  H27  1  0.088300  0.668300  0.300900  1.0  0.0813
  H  H28  1  0.097000  0.360900  0.372100  1.0  0.1136
  H  H29  1  0.148600  0.221100  0.384700  1.0  0.0706
  H  H30  1  0.783100  0.055100  0.618600  1.0  0.0763
  H  H31  1  0.714500  0.189000  0.609400  1.0  0.1231
  H  H32  1  0.033900  0.361800  0.865800  1.0  0.074
  H  H33  1  0.169900  0.258200  0.860000  1.0  0.073
  H  H34  1  0.389200  0.300900  0.030800  1.0  0.0803
  H  H35  1  0.469100  0.372100  0.267000  1.0  0.1126
  H  H36  1  0.533300  0.384700  0.394200  1.0  0.0714
  H  H37  1  0.401700  0.618600  0.326300  1.0  0.0743
  H  H38  1  0.323900  0.609400  0.201600  1.0  0.1227
  H  H39  1  0.899700  0.865800  0.772400  1.0  0.076
  H  H40  1  0.029900  0.860000  0.881800  1.0  0.073
  H  H41  1  0.420000  0.030800  0.668300  1.0  0.0819
  H  H42  1  0.736100  0.267000  0.360900  1.0  0.1124
  H  H43  1  0.927500  0.394200  0.221100  1.0  0.0708
  H  H44  1  0.728000  0.326300  0.055100  1.0  0.0756
  H  H45  1  0.525500  0.201600  0.189000  1.0  0.1222
  C  C46  1  0.243200  0.250700  0.650200  1.0  0.1271
  C  C47  1  0.098900  0.185000  0.712300  1.0  0.1431
  C  C48  1  0.997290  0.309080  0.687610  1.0  0.1481
  C  C49  1  0.140320  0.375380  0.626320  1.0  0.175
  C  C50  1  0.169880  0.482090  0.577750  1.0  0.2729
  C  C51  1  0.156560  0.623160  0.527180  1.0  0.3399
  C  C52  1  0.105370  0.709800  0.513590  1.0  -0.0171
  C  C53  1  0.971190  0.700710  0.578840  1.0  -0.1823
  C  C54  1  0.940220  0.785230  0.569670  1.0  0.186
  C  C55  1  0.155370  0.882680  0.432970  1.0  0.1697
  C  C56  1  0.197060  0.802760  0.437680  1.0  -0.1699
  C  C57  1  0.893400  0.650200  0.099100  1.0  0.1277
  C  C58  1  0.811200  0.712300  0.102700  1.0  0.1417
  C  C59  1  0.684900  0.687610  0.003310  1.0  0.1465
  C  C60  1  0.766640  0.626320  0.998300  1.0  0.1753
  C  C61  1  0.747630  0.577750  0.940160  1.0  0.2732
  C  C62  1  0.683740  0.527180  0.849660  1.0  0.3414
  C  C63  1  0.618960  0.513590  0.776610  1.0  -0.0112
  C  C64  1  0.550030  0.578840  0.720450  1.0  -0.1797
  C  C65  1  0.509890  0.569670  0.645100  1.0  0.187
  C  C66  1  0.588340  0.432970  0.684350  1.0  0.169
  C  C67  1  0.634740  0.437680  0.759560  1.0  -0.1716
  C  C68  1  0.992500  0.099100  0.250700  1.0  0.1304
  C  C69  1  0.913900  0.102700  0.185000  1.0  0.147
  C  C70  1  0.688210  0.003310  0.309080  1.0  0.149
  C  C71  1  0.764940  0.998300  0.375380  1.0  0.1778
  C  C72  1  0.687790  0.940160  0.482090  1.0  0.2738
  C  C73  1  0.533400  0.849660  0.623160  1.0  0.3402
  C  C74  1  0.395570  0.776610  0.709800  1.0  -0.0147
  C  C75  1  0.270480  0.720450  0.700710  1.0  -0.1783
  C  C76  1  0.154990  0.645100  0.785230  1.0  0.1855
  C  C77  1  0.272690  0.684350  0.882680  1.0  0.1705
  C  C78  1  0.394300  0.759560  0.802760  1.0  -0.1699
  C  C79  1  0.756800  0.749300  0.349800  1.0  0.1259
  C  C80  1  0.901100  0.815000  0.287700  1.0  0.1423
  C  C81  1  0.002710  0.690920  0.312390  1.0  0.1459
  C  C82  1  0.859680  0.624620  0.373680  1.0  0.1751
  C  C83  1  0.830120  0.517910  0.422250  1.0  0.2732
  C  C84  1  0.843440  0.376840  0.472820  1.0  0.3403
  C  C85  1  0.894630  0.290200  0.486410  1.0  -0.0181
  C  C86  1  0.028810  0.299290  0.421160  1.0  -0.1815
  C  C87  1  0.059780  0.214770  0.430330  1.0  0.1857
  C  C88  1  0.844630  0.117320  0.567030  1.0  0.1699
  C  C89  1  0.802940  0.197240  0.562320  1.0  -0.1684
  C  C90  1  0.106600  0.349800  0.900900  1.0  0.1267
  C  C91  1  0.188800  0.287700  0.897300  1.0  0.1432
  C  C92  1  0.315100  0.312390  0.996690  1.0  0.1479
  C  C93  1  0.233360  0.373680  0.001700  1.0  0.176
  C  C94  1  0.252370  0.422250  0.059840  1.0  0.2736
  C  C95  1  0.316260  0.472820  0.150340  1.0  0.3394
  C  C96  1  0.381040  0.486410  0.223390  1.0  -0.012
  C  C97  1  0.449970  0.421160  0.279550  1.0  -0.18
  C  C98  1  0.490110  0.430330  0.354900  1.0  0.1876
  C  C99  1  0.411660  0.567030  0.315650  1.0  0.1691
  C  C100  1  0.365260  0.562320  0.240440  1.0  -0.1705
  C  C101  1  0.007500  0.900900  0.749300  1.0  0.1277
  C  C102  1  0.086100  0.897300  0.815000  1.0  0.1458
  C  C103  1  0.311790  0.996690  0.690920  1.0  0.1475
  C  C104  1  0.235060  0.001700  0.624620  1.0  0.1787
  C  C105  1  0.312210  0.059840  0.517910  1.0  0.2733
  C  C106  1  0.466600  0.150340  0.376840  1.0  0.3408
  C  C107  1  0.604430  0.223390  0.290200  1.0  -0.0159
  C  C108  1  0.729520  0.279550  0.299290  1.0  -0.1765
  C  C109  1  0.845010  0.354900  0.214770  1.0  0.1859
  C  C110  1  0.727310  0.315650  0.117320  1.0  0.1701
  C  C111  1  0.605700  0.240440  0.197240  1.0  -0.1688
  N  N112  1  0.266840  0.346860  0.606140  1.0  -0.3802
  N  N113  1  0.974070  0.211940  0.732430  1.0  -0.3921
  N  N114  1  0.313530  0.542240  0.516850  1.0  -0.2574
  N  N115  1  0.307210  0.636300  0.482270  1.0  -0.3903
  N  N116  1  0.064360  0.528940  0.588060  1.0  -0.4573
  N  N117  1  0.030850  0.875190  0.499040  1.0  -0.3254
  N  N118  1  0.872980  0.606140  0.047000  1.0  -0.3797
  N  N119  1  0.706500  0.732430  0.055630  1.0  -0.3922
  N  N120  1  0.830380  0.516850  0.940910  1.0  -0.2578
  N  N121  1  0.789480  0.482270  0.881430  1.0  -0.389
  N  N122  1  0.652420  0.588060  0.883000  1.0  -0.4572
  N  N123  1  0.529890  0.499040  0.625770  1.0  -0.3263
  N  N124  1  0.919980  0.047000  0.346860  1.0  -0.3786
  N  N125  1  0.762130  0.055630  0.211940  1.0  -0.4072
  N  N126  1  0.771290  0.940910  0.542240  1.0  -0.2585
  N  N127  1  0.670910  0.881430  0.636300  1.0  -0.3877
  N  N128  1  0.535420  0.883000  0.528940  1.0  -0.46
  N  N129  1  0.155660  0.625770  0.875190  1.0  -0.3247
  N  N130  1  0.733160  0.653140  0.393860  1.0  -0.3805
  N  N131  1  0.025930  0.788060  0.267570  1.0  -0.3937
  N  N132  1  0.686470  0.457760  0.483150  1.0  -0.257
  N  N133  1  0.692790  0.363700  0.517730  1.0  -0.3902
  N  N134  1  0.935640  0.471060  0.411940  1.0  -0.4581
  N  N135  1  0.969150  0.124810  0.500960  1.0  -0.3243
  N  N136  1  0.127020  0.393860  0.953000  1.0  -0.38
  N  N137  1  0.293500  0.267570  0.944370  1.0  -0.3894
  N  N138  1  0.169620  0.483150  0.059090  1.0  -0.2573
  N  N139  1  0.210520  0.517730  0.118570  1.0  -0.3909
  N  N140  1  0.347580  0.411940  0.117000  1.0  -0.4568
  N  N141  1  0.470110  0.500960  0.374230  1.0  -0.3247
  N  N142  1  0.080020  0.953000  0.653140  1.0  -0.3793
  N  N143  1  0.237870  0.944370  0.788060  1.0  -0.4094
  N  N144  1  0.228710  0.059090  0.457760  1.0  -0.2583
  N  N145  1  0.329090  0.118570  0.363700  1.0  -0.3854
  N  N146  1  0.464580  0.117000  0.471060  1.0  -0.4597
  N  N147  1  0.844340  0.374230  0.124810  1.0  -0.3245
