# generated using pymatgen
data_Cu2H10C19N4O7
_symmetry_space_group_name_H-M   'P 1'
_cell_length_a   10.77200000
_cell_length_b   21.75240000
_cell_length_c   9.85780000
_cell_angle_alpha   90.00000000
_cell_angle_beta   111.72800000
_cell_angle_gamma   90.00000000
_symmetry_Int_Tables_number   1
_chemical_formula_structural   Cu2H10C19N4O7
_chemical_formula_sum   'Cu8 H40 C76 N16 O28'
_cell_volume   2145.73800779
_cell_formula_units_Z   4
loop_
 _symmetry_equiv_pos_site_id
 _symmetry_equiv_pos_as_xyz
  1  'x, y, z'
loop_
 _atom_site_type_symbol
 _atom_site_label
 _atom_site_symmetry_multiplicity
 _atom_site_fract_x
 _atom_site_fract_y
 _atom_site_fract_z
 _atom_site_occupancy
 _atom_site_charge
  Cu  Cu1  1  0.963440  0.110050  0.563820  1.0  0.6236
  Cu  Cu2  1  0.508150  0.865880  0.004030  1.0  0.758
  Cu  Cu3  1  0.036560  0.610050  0.936180  1.0  0.6251
  Cu  Cu4  1  0.491850  0.365880  0.495970  1.0  0.7576
  Cu  Cu5  1  0.036560  0.889950  0.436180  1.0  0.6258
  Cu  Cu6  1  0.491850  0.134120  0.995970  1.0  0.7563
  Cu  Cu7  1  0.963440  0.389950  0.063820  1.0  0.6226
  Cu  Cu8  1  0.508150  0.634120  0.504030  1.0  0.7565
  H  H9  1  0.765600  0.137900  0.280300  1.0  0.0732
  H  H10  1  0.013800  0.997500  0.147500  1.0  0.1148
  H  H11  1  0.064300  0.022700  0.387400  1.0  0.081
  H  H12  1  0.838100  0.046900  0.966300  1.0  0.1057
  H  H13  1  0.294000  0.232600  0.805000  1.0  0.1065
  H  H14  1  0.306900  0.308400  0.648600  1.0  0.0883
  H  H15  1  0.661500  0.251600  0.688400  1.0  0.0977
  H  H16  1  0.697100  0.017200  0.692200  1.0  0.0992
  H  H17  1  0.431500  0.145800  0.475400  1.0  0.1028
  H  H18  1  0.333800  0.020000  0.718100  1.0  0.0988
  H  H19  1  0.234400  0.637900  0.219700  1.0  0.0741
  H  H20  1  0.986200  0.497500  0.352500  1.0  0.115
  H  H21  1  0.935700  0.522700  0.112600  1.0  0.0809
  H  H22  1  0.161900  0.546900  0.533700  1.0  0.1052
  H  H23  1  0.706000  0.732600  0.695000  1.0  0.1066
  H  H24  1  0.693100  0.808400  0.851400  1.0  0.0882
  H  H25  1  0.338500  0.751600  0.811600  1.0  0.0976
  H  H26  1  0.302900  0.517200  0.807800  1.0  0.0989
  H  H27  1  0.568500  0.645800  0.024600  1.0  0.1027
  H  H28  1  0.666200  0.520000  0.781900  1.0  0.0988
  H  H29  1  0.234400  0.862100  0.719700  1.0  0.0743
  H  H30  1  0.986200  0.002500  0.852500  1.0  0.1147
  H  H31  1  0.935700  0.977300  0.612600  1.0  0.081
  H  H32  1  0.161900  0.953100  0.033700  1.0  0.1054
  H  H33  1  0.706000  0.767400  0.195000  1.0  0.1065
  H  H34  1  0.693100  0.691600  0.351400  1.0  0.0887
  H  H35  1  0.338500  0.748400  0.311600  1.0  0.0978
  H  H36  1  0.302900  0.982800  0.307800  1.0  0.0986
  H  H37  1  0.568500  0.854200  0.524600  1.0  0.1029
  H  H38  1  0.666200  0.980000  0.281900  1.0  0.0986
  H  H39  1  0.765600  0.362100  0.780300  1.0  0.0739
  H  H40  1  0.013800  0.502500  0.647500  1.0  0.1148
  H  H41  1  0.064300  0.477300  0.887400  1.0  0.0808
  H  H42  1  0.838100  0.453100  0.466300  1.0  0.1059
  H  H43  1  0.294000  0.267400  0.305000  1.0  0.1061
  H  H44  1  0.306900  0.191600  0.148600  1.0  0.0878
  H  H45  1  0.661500  0.248400  0.188400  1.0  0.0978
  H  H46  1  0.697100  0.482800  0.192200  1.0  0.0984
  H  H47  1  0.431500  0.354200  0.975400  1.0  0.1026
  H  H48  1  0.333800  0.480000  0.218100  1.0  0.0987
  C  C49  1  0.817800  0.110530  0.252100  1.0  0.1718
  C  C50  1  0.785500  0.100150  0.104300  1.0  0.2233
  C  C51  1  0.963600  0.027040  0.172400  1.0  -0.1304
  C  C52  1  0.992500  0.041890  0.315800  1.0  0.1428
  C  C53  1  0.858700  0.056430  0.064200  1.0  -0.0893
  C  C54  1  0.371000  0.236640  0.784100  1.0  0.1317
  C  C55  1  0.378500  0.281640  0.688700  1.0  0.1603
  C  C56  1  0.586500  0.249010  0.713500  1.0  0.1565
  C  C57  1  0.582600  0.204860  0.813700  1.0  0.1227
  C  C58  1  0.698900  0.164270  0.897100  1.0  0.5681
  C  C59  1  0.685200  0.116020  0.530800  1.0  0.6635
  C  C60  1  0.580400  0.086390  0.576600  1.0  -0.1696
  C  C61  1  0.613100  0.035080  0.667300  1.0  -0.0052
  C  C62  1  0.454300  0.111950  0.537200  1.0  0.0135
  C  C63  1  0.227000  0.117800  0.547800  1.0  0.6518
  C  C64  1  0.360800  0.087260  0.589600  1.0  -0.1403
  C  C65  1  0.395400  0.036400  0.682300  1.0  0.0228
  C  C66  1  0.521400  0.010210  0.721300  1.0  -0.1314
  C  C67  1  0.565200  0.956860  0.824800  1.0  0.6745
  C  C68  1  0.182200  0.610530  0.247900  1.0  0.1723
  C  C69  1  0.214500  0.600150  0.395700  1.0  0.2235
  C  C70  1  0.036400  0.527040  0.327600  1.0  -0.1305
  C  C71  1  0.007500  0.541890  0.184200  1.0  0.1424
  C  C72  1  0.141300  0.556430  0.435800  1.0  -0.0884
  C  C73  1  0.629000  0.736640  0.715900  1.0  0.1316
  C  C74  1  0.621500  0.781640  0.811300  1.0  0.1604
  C  C75  1  0.413500  0.749010  0.786500  1.0  0.1577
  C  C76  1  0.417400  0.704860  0.686300  1.0  0.1216
  C  C77  1  0.301100  0.664270  0.602900  1.0  0.5668
  C  C78  1  0.314800  0.616020  0.969200  1.0  0.6638
  C  C79  1  0.419600  0.586390  0.923400  1.0  -0.1706
  C  C80  1  0.386900  0.535080  0.832700  1.0  -0.0037
  C  C81  1  0.545700  0.611950  0.962800  1.0  0.0134
  C  C82  1  0.773000  0.617800  0.952200  1.0  0.6523
  C  C83  1  0.639200  0.587260  0.910400  1.0  -0.1404
  C  C84  1  0.604600  0.536400  0.817700  1.0  0.0217
  C  C85  1  0.478600  0.510210  0.778700  1.0  -0.1324
  C  C86  1  0.434800  0.456860  0.675200  1.0  0.6753
  C  C87  1  0.182200  0.889470  0.747900  1.0  0.1733
  C  C88  1  0.214500  0.899850  0.895700  1.0  0.2233
  C  C89  1  0.036400  0.972960  0.827600  1.0  -0.1299
  C  C90  1  0.007500  0.958110  0.684200  1.0  0.142
  C  C91  1  0.141300  0.943570  0.935800  1.0  -0.0885
  C  C92  1  0.629000  0.763360  0.215900  1.0  0.1322
  C  C93  1  0.621500  0.718360  0.311300  1.0  0.16
  C  C94  1  0.413500  0.750990  0.286500  1.0  0.1578
  C  C95  1  0.417400  0.795140  0.186300  1.0  0.1211
  C  C96  1  0.301100  0.835730  0.102900  1.0  0.5668
  C  C97  1  0.314800  0.883980  0.469200  1.0  0.6631
  C  C98  1  0.419600  0.913610  0.423400  1.0  -0.1701
  C  C99  1  0.386900  0.964920  0.332700  1.0  -0.0033
  C  C100  1  0.545700  0.888050  0.462800  1.0  0.0134
  C  C101  1  0.773000  0.882200  0.452200  1.0  0.653
  C  C102  1  0.639200  0.912740  0.410400  1.0  -0.1402
  C  C103  1  0.604600  0.963600  0.317700  1.0  0.0215
  C  C104  1  0.478600  0.989790  0.278700  1.0  -0.1308
  C  C105  1  0.434800  0.043140  0.175200  1.0  0.6758
  C  C106  1  0.817800  0.389470  0.752100  1.0  0.1738
  C  C107  1  0.785500  0.399850  0.604300  1.0  0.2228
  C  C108  1  0.963600  0.472960  0.672400  1.0  -0.1302
  C  C109  1  0.992500  0.458110  0.815800  1.0  0.1424
  C  C110  1  0.858700  0.443570  0.564200  1.0  -0.0897
  C  C111  1  0.371000  0.263360  0.284100  1.0  0.1314
  C  C112  1  0.378500  0.218360  0.188700  1.0  0.1602
  C  C113  1  0.586500  0.250990  0.213500  1.0  0.156
  C  C114  1  0.582600  0.295140  0.313700  1.0  0.1223
  C  C115  1  0.698900  0.335730  0.397100  1.0  0.5683
  C  C116  1  0.685200  0.383980  0.030800  1.0  0.6631
  C  C117  1  0.580400  0.413610  0.076600  1.0  -0.1697
  C  C118  1  0.613100  0.464920  0.167300  1.0  -0.0048
  C  C119  1  0.454300  0.388050  0.037200  1.0  0.0144
  C  C120  1  0.227000  0.382200  0.047800  1.0  0.6517
  C  C121  1  0.360800  0.412740  0.089600  1.0  -0.1401
  C  C122  1  0.395400  0.463600  0.182300  1.0  0.0224
  C  C123  1  0.521400  0.489790  0.221300  1.0  -0.1312
  C  C124  1  0.565200  0.543140  0.324800  1.0  0.6745
  N  N125  1  0.920500  0.083200  0.356300  1.0  -0.3143
  N  N126  1  0.678500  0.134080  0.003900  1.0  -0.4001
  N  N127  1  0.473900  0.198940  0.846300  1.0  -0.2993
  N  N128  1  0.485100  0.287840  0.652400  1.0  -0.3519
  N  N129  1  0.079500  0.583200  0.143700  1.0  -0.3173
  N  N130  1  0.321500  0.634080  0.496100  1.0  -0.399
  N  N131  1  0.526100  0.698940  0.653700  1.0  -0.299
  N  N132  1  0.514900  0.787840  0.847600  1.0  -0.3523
  N  N133  1  0.079500  0.916800  0.643700  1.0  -0.3185
  N  N134  1  0.321500  0.865920  0.996100  1.0  -0.399
  N  N135  1  0.526100  0.801060  0.153700  1.0  -0.2997
  N  N136  1  0.514900  0.712160  0.347600  1.0  -0.3522
  N  N137  1  0.920500  0.416800  0.856300  1.0  -0.3138
  N  N138  1  0.678500  0.365920  0.503900  1.0  -0.3999
  N  N139  1  0.473900  0.301060  0.346300  1.0  -0.2999
  N  N140  1  0.485100  0.212160  0.152400  1.0  -0.3532
  O  O141  1  0.789660  0.083480  0.554500  1.0  -0.6056
  O  O142  1  0.666910  0.168450  0.479200  1.0  -0.5627
  O  O143  1  0.155270  0.100780  0.621150  1.0  -0.6332
  O  O144  1  0.194200  0.156440  0.450800  1.0  -0.5454
  O  O145  1  0.477500  0.933730  0.868200  1.0  -0.5946
  O  O146  1  0.683100  0.939680  0.862500  1.0  -0.5628
  O  O147  1  0.799620  0.165480  0.865100  1.0  -0.5193
  O  O148  1  0.210340  0.583480  0.945500  1.0  -0.605
  O  O149  1  0.333090  0.668450  0.020800  1.0  -0.5651
  O  O150  1  0.844730  0.600780  0.878850  1.0  -0.6315
  O  O151  1  0.805800  0.656440  0.049200  1.0  -0.5459
  O  O152  1  0.522500  0.433730  0.631800  1.0  -0.5942
  O  O153  1  0.316900  0.439680  0.637500  1.0  -0.5616
  O  O154  1  0.200380  0.665480  0.634900  1.0  -0.5171
  O  O155  1  0.210340  0.916520  0.445500  1.0  -0.6046
  O  O156  1  0.333090  0.831550  0.520800  1.0  -0.5638
  O  O157  1  0.844730  0.899220  0.378850  1.0  -0.63
  O  O158  1  0.805800  0.843560  0.549200  1.0  -0.544
  O  O159  1  0.522500  0.066270  0.131800  1.0  -0.5938
  O  O160  1  0.316900  0.060320  0.137500  1.0  -0.5614
  O  O161  1  0.200380  0.834520  0.134900  1.0  -0.5168
  O  O162  1  0.789660  0.416520  0.054500  1.0  -0.6049
  O  O163  1  0.666910  0.331550  0.979200  1.0  -0.5629
  O  O164  1  0.155270  0.399220  0.121150  1.0  -0.6316
  O  O165  1  0.194200  0.343560  0.950800  1.0  -0.5446
  O  O166  1  0.477500  0.566270  0.368200  1.0  -0.5948
  O  O167  1  0.683100  0.560320  0.362500  1.0  -0.5624
  O  O168  1  0.799620  0.334520  0.365100  1.0  -0.52
