# generated using pymatgen
data_Ag3H12(C2N5)2
_symmetry_space_group_name_H-M   'P 1'
_cell_length_a   29.63370000
_cell_length_b   29.63370000
_cell_length_c   3.49130000
_cell_angle_alpha   90.00000000
_cell_angle_beta   90.00000000
_cell_angle_gamma   90.00000000
_symmetry_Int_Tables_number   1
_chemical_formula_structural   Ag3H12(C2N5)2
_chemical_formula_sum   'Ag24 H96 C32 N80'
_cell_volume   3065.90665619
_cell_formula_units_Z   8
loop_
 _symmetry_equiv_pos_site_id
 _symmetry_equiv_pos_as_xyz
  1  'x, y, z'
loop_
 _atom_site_type_symbol
 _atom_site_label
 _atom_site_symmetry_multiplicity
 _atom_site_fract_x
 _atom_site_fract_y
 _atom_site_fract_z
 _atom_site_occupancy
 _atom_site_charge
  Ag  Ag1  1  0.438680  0.311320  0.125000  1.0  0.2027
  Ag  Ag2  1  0.061320  0.688680  0.625000  1.0  0.2026
  Ag  Ag3  1  0.938680  0.188680  0.375000  1.0  0.2038
  Ag  Ag4  1  0.561320  0.811320  0.875000  1.0  0.2009
  Ag  Ag5  1  0.061320  0.311320  0.375000  1.0  0.2009
  Ag  Ag6  1  0.438680  0.688680  0.875000  1.0  0.2038
  Ag  Ag7  1  0.561320  0.188680  0.125000  1.0  0.2026
  Ag  Ag8  1  0.938680  0.811320  0.625000  1.0  0.2027
  Ag  Ag9  1  0.561320  0.688680  0.875000  1.0  0.2028
  Ag  Ag10  1  0.938680  0.311320  0.375000  1.0  0.2026
  Ag  Ag11  1  0.061320  0.811320  0.625000  1.0  0.201
  Ag  Ag12  1  0.438680  0.188680  0.125000  1.0  0.2037
  Ag  Ag13  1  0.938680  0.688680  0.625000  1.0  0.2037
  Ag  Ag14  1  0.561320  0.311320  0.125000  1.0  0.201
  Ag  Ag15  1  0.438680  0.811320  0.875000  1.0  0.2026
  Ag  Ag16  1  0.061320  0.188680  0.375000  1.0  0.2028
  Ag  Ag17  1  0.250000  0.250000  0.750000  1.0  0.2384
  Ag  Ag18  1  0.250000  0.750000  0.250000  1.0  0.2384
  Ag  Ag19  1  0.000000  0.000000  0.000000  1.0  0.2384
  Ag  Ag20  1  0.500000  0.500000  0.500000  1.0  0.2384
  Ag  Ag21  1  0.500000  0.000000  0.500000  1.0  0.2384
  Ag  Ag22  1  0.000000  0.500000  0.000000  1.0  0.2384
  Ag  Ag23  1  0.750000  0.250000  0.750000  1.0  0.2384
  Ag  Ag24  1  0.750000  0.750000  0.250000  1.0  0.2384
  H  H25  1  0.348100  0.351300  0.402000  1.0  0.1885
  H  H26  1  0.303100  0.337800  0.553000  1.0  0.2272
  H  H27  1  0.332600  0.315000  0.467900  1.0  0.2162
  H  H28  1  0.848100  0.851300  0.902000  1.0  0.1885
  H  H29  1  0.803100  0.837800  0.053000  1.0  0.2272
  H  H30  1  0.832600  0.815000  0.967900  1.0  0.2162
  H  H31  1  0.151900  0.648700  0.902000  1.0  0.186
  H  H32  1  0.196900  0.662200  0.053000  1.0  0.2263
  H  H33  1  0.167400  0.685000  0.967900  1.0  0.2148
  H  H34  1  0.651900  0.148700  0.402000  1.0  0.186
  H  H35  1  0.696900  0.162200  0.553000  1.0  0.2263
  H  H36  1  0.667400  0.185000  0.467900  1.0  0.2148
  H  H37  1  0.898700  0.098100  0.652000  1.0  0.19
  H  H38  1  0.912200  0.053100  0.803000  1.0  0.2237
  H  H39  1  0.935000  0.082600  0.717900  1.0  0.2176
  H  H40  1  0.398700  0.598100  0.152000  1.0  0.19
  H  H41  1  0.412200  0.553100  0.303000  1.0  0.2237
  H  H42  1  0.435000  0.582600  0.217900  1.0  0.2176
  H  H43  1  0.601300  0.901900  0.152000  1.0  0.1873
  H  H44  1  0.587800  0.946900  0.303000  1.0  0.2244
  H  H45  1  0.565000  0.917400  0.217900  1.0  0.2158
  H  H46  1  0.101300  0.401900  0.652000  1.0  0.1873
  H  H47  1  0.087800  0.446900  0.803000  1.0  0.2244
  H  H48  1  0.065000  0.417400  0.717900  1.0  0.2158
  H  H49  1  0.151900  0.351300  0.098000  1.0  0.1891
  H  H50  1  0.196900  0.337800  0.947000  1.0  0.2229
  H  H51  1  0.167400  0.315000  0.032100  1.0  0.2143
  H  H52  1  0.651900  0.851300  0.598000  1.0  0.1891
  H  H53  1  0.696900  0.837800  0.447000  1.0  0.2229
  H  H54  1  0.667400  0.815000  0.532100  1.0  0.2143
  H  H55  1  0.348100  0.648700  0.598000  1.0  0.184
  H  H56  1  0.303100  0.662200  0.447000  1.0  0.2269
  H  H57  1  0.332600  0.685000  0.532100  1.0  0.2156
  H  H58  1  0.848100  0.148700  0.098000  1.0  0.184
  H  H59  1  0.803100  0.162200  0.947000  1.0  0.2269
  H  H60  1  0.832600  0.185000  0.032100  1.0  0.2156
  H  H61  1  0.601300  0.098100  0.848000  1.0  0.1907
  H  H62  1  0.587800  0.053100  0.697000  1.0  0.2228
  H  H63  1  0.565000  0.082600  0.782100  1.0  0.2155
  H  H64  1  0.101300  0.598100  0.348000  1.0  0.1907
  H  H65  1  0.087800  0.553100  0.197000  1.0  0.2228
  H  H66  1  0.065000  0.582600  0.282100  1.0  0.2155
  H  H67  1  0.898700  0.901900  0.348000  1.0  0.1898
  H  H68  1  0.912200  0.946900  0.197000  1.0  0.2275
  H  H69  1  0.935000  0.917400  0.282100  1.0  0.2173
  H  H70  1  0.398700  0.401900  0.848000  1.0  0.1898
  H  H71  1  0.412200  0.446900  0.697000  1.0  0.2275
  H  H72  1  0.435000  0.417400  0.782100  1.0  0.2173
  H  H73  1  0.651900  0.648700  0.598000  1.0  0.1851
  H  H74  1  0.696900  0.662200  0.447000  1.0  0.2249
  H  H75  1  0.667400  0.685000  0.532100  1.0  0.2148
  H  H76  1  0.151900  0.148700  0.098000  1.0  0.1851
  H  H77  1  0.196900  0.162200  0.947000  1.0  0.2249
  H  H78  1  0.167400  0.185000  0.032100  1.0  0.2148
  H  H79  1  0.848100  0.351300  0.098000  1.0  0.1895
  H  H80  1  0.803100  0.337800  0.947000  1.0  0.2267
  H  H81  1  0.832600  0.315000  0.032100  1.0  0.2161
  H  H82  1  0.348100  0.851300  0.598000  1.0  0.1895
  H  H83  1  0.303100  0.837800  0.447000  1.0  0.2267
  H  H84  1  0.332600  0.815000  0.532100  1.0  0.2161
  H  H85  1  0.101300  0.901900  0.348000  1.0  0.1878
  H  H86  1  0.087800  0.946900  0.197000  1.0  0.2245
  H  H87  1  0.065000  0.917400  0.282100  1.0  0.2157
  H  H88  1  0.601300  0.401900  0.848000  1.0  0.1878
  H  H89  1  0.587800  0.446900  0.697000  1.0  0.2245
  H  H90  1  0.565000  0.417400  0.782100  1.0  0.2157
  H  H91  1  0.398700  0.098100  0.848000  1.0  0.1908
  H  H92  1  0.412200  0.053100  0.697000  1.0  0.2241
  H  H93  1  0.435000  0.082600  0.782100  1.0  0.2174
  H  H94  1  0.898700  0.598100  0.348000  1.0  0.1908
  H  H95  1  0.912200  0.553100  0.197000  1.0  0.2241
  H  H96  1  0.935000  0.582600  0.282100  1.0  0.2174
  H  H97  1  0.848100  0.648700  0.902000  1.0  0.1839
  H  H98  1  0.803100  0.662200  0.053000  1.0  0.2271
  H  H99  1  0.832600  0.685000  0.967900  1.0  0.2157
  H  H100  1  0.348100  0.148700  0.402000  1.0  0.1839
  H  H101  1  0.303100  0.162200  0.553000  1.0  0.2271
  H  H102  1  0.332600  0.185000  0.467900  1.0  0.2157
  H  H103  1  0.651900  0.351300  0.402000  1.0  0.1897
  H  H104  1  0.696900  0.337800  0.553000  1.0  0.2239
  H  H105  1  0.667400  0.315000  0.467900  1.0  0.2145
  H  H106  1  0.151900  0.851300  0.902000  1.0  0.1897
  H  H107  1  0.196900  0.837800  0.053000  1.0  0.2239
  H  H108  1  0.167400  0.815000  0.967900  1.0  0.2145
  H  H109  1  0.398700  0.901900  0.152000  1.0  0.1901
  H  H110  1  0.412200  0.946900  0.303000  1.0  0.2267
  H  H111  1  0.435000  0.917400  0.217900  1.0  0.2175
  H  H112  1  0.898700  0.401900  0.652000  1.0  0.1901
  H  H113  1  0.912200  0.446900  0.803000  1.0  0.2267
  H  H114  1  0.935000  0.417400  0.717900  1.0  0.2175
  H  H115  1  0.101300  0.098100  0.652000  1.0  0.1889
  H  H116  1  0.087800  0.053100  0.803000  1.0  0.2233
  H  H117  1  0.065000  0.082600  0.717900  1.0  0.2155
  H  H118  1  0.601300  0.598100  0.152000  1.0  0.1889
  H  H119  1  0.587800  0.553100  0.303000  1.0  0.2233
  H  H120  1  0.565000  0.582600  0.217900  1.0  0.2155
  C  C121  1  0.341730  0.285200  0.440500  1.0  0.0773
  C  C122  1  0.841730  0.785200  0.940500  1.0  0.0773
  C  C123  1  0.158270  0.714800  0.940500  1.0  0.0846
  C  C124  1  0.658270  0.214800  0.440500  1.0  0.0846
  C  C125  1  0.964800  0.091730  0.690500  1.0  0.0831
  C  C126  1  0.464800  0.591730  0.190500  1.0  0.0831
  C  C127  1  0.535200  0.908270  0.190500  1.0  0.0922
  C  C128  1  0.035200  0.408270  0.690500  1.0  0.0922
  C  C129  1  0.158270  0.285200  0.059500  1.0  0.0806
  C  C130  1  0.658270  0.785200  0.559500  1.0  0.0806
  C  C131  1  0.341730  0.714800  0.559500  1.0  0.0804
  C  C132  1  0.841730  0.214800  0.059500  1.0  0.0804
  C  C133  1  0.535200  0.091730  0.809500  1.0  0.0906
  C  C134  1  0.035200  0.591730  0.309500  1.0  0.0906
  C  C135  1  0.964800  0.908270  0.309500  1.0  0.0845
  C  C136  1  0.464800  0.408270  0.809500  1.0  0.0845
  C  C137  1  0.658270  0.714800  0.559500  1.0  0.0829
  C  C138  1  0.158270  0.214800  0.059500  1.0  0.0829
  C  C139  1  0.841730  0.285200  0.059500  1.0  0.0755
  C  C140  1  0.341730  0.785200  0.559500  1.0  0.0755
  C  C141  1  0.035200  0.908270  0.309500  1.0  0.0905
  C  C142  1  0.535200  0.408270  0.809500  1.0  0.0905
  C  C143  1  0.464800  0.091730  0.809500  1.0  0.0815
  C  C144  1  0.964800  0.591730  0.309500  1.0  0.0815
  C  C145  1  0.841730  0.714800  0.940500  1.0  0.0787
  C  C146  1  0.341730  0.214800  0.440500  1.0  0.0787
  C  C147  1  0.658270  0.285200  0.440500  1.0  0.0793
  C  C148  1  0.158270  0.785200  0.940500  1.0  0.0793
  C  C149  1  0.464800  0.908270  0.190500  1.0  0.0831
  C  C150  1  0.964800  0.408270  0.690500  1.0  0.0831
  C  C151  1  0.035200  0.091730  0.690500  1.0  0.0895
  C  C152  1  0.535200  0.591730  0.190500  1.0  0.0895
  N  N153  1  0.381990  0.273180  0.311900  1.0  -0.3411
  N  N154  1  0.329400  0.330600  0.469000  1.0  -0.3359
  N  N155  1  0.881990  0.773180  0.811900  1.0  -0.3411
  N  N156  1  0.829400  0.830600  0.969000  1.0  -0.3359
  N  N157  1  0.118010  0.726820  0.811900  1.0  -0.3425
  N  N158  1  0.170600  0.669400  0.969000  1.0  -0.3359
  N  N159  1  0.618010  0.226820  0.311900  1.0  -0.3425
  N  N160  1  0.670600  0.169400  0.469000  1.0  -0.3359
  N  N161  1  0.976820  0.131990  0.561900  1.0  -0.3479
  N  N162  1  0.919400  0.079400  0.719000  1.0  -0.3382
  N  N163  1  0.476820  0.631990  0.061900  1.0  -0.3479
  N  N164  1  0.419400  0.579400  0.219000  1.0  -0.3382
  N  N165  1  0.523180  0.868010  0.061900  1.0  -0.3442
  N  N166  1  0.580600  0.920600  0.219000  1.0  -0.3332
  N  N167  1  0.023180  0.368010  0.561900  1.0  -0.3442
  N  N168  1  0.080600  0.420600  0.719000  1.0  -0.3332
  N  N169  1  0.118010  0.273180  0.188100  1.0  -0.3409
  N  N170  1  0.170600  0.330600  0.031000  1.0  -0.3374
  N  N171  1  0.618010  0.773180  0.688100  1.0  -0.3409
  N  N172  1  0.670600  0.830600  0.531000  1.0  -0.3374
  N  N173  1  0.381990  0.726820  0.688100  1.0  -0.3402
  N  N174  1  0.329400  0.669400  0.531000  1.0  -0.338
  N  N175  1  0.881990  0.226820  0.188100  1.0  -0.3402
  N  N176  1  0.829400  0.169400  0.031000  1.0  -0.338
  N  N177  1  0.523180  0.131990  0.938100  1.0  -0.346
  N  N178  1  0.580600  0.079400  0.781000  1.0  -0.336
  N  N179  1  0.023180  0.631990  0.438100  1.0  -0.346
  N  N180  1  0.080600  0.579400  0.281000  1.0  -0.336
  N  N181  1  0.976820  0.868010  0.438100  1.0  -0.3445
  N  N182  1  0.919400  0.920600  0.281000  1.0  -0.3389
  N  N183  1  0.476820  0.368010  0.938100  1.0  -0.3445
  N  N184  1  0.419400  0.420600  0.781000  1.0  -0.3389
  N  N185  1  0.618010  0.726820  0.688100  1.0  -0.3413
  N  N186  1  0.670600  0.669400  0.531000  1.0  -0.3361
  N  N187  1  0.118010  0.226820  0.188100  1.0  -0.3413
  N  N188  1  0.170600  0.169400  0.031000  1.0  -0.3361
  N  N189  1  0.881990  0.273180  0.188100  1.0  -0.3401
  N  N190  1  0.829400  0.330600  0.031000  1.0  -0.3362
  N  N191  1  0.381990  0.773180  0.688100  1.0  -0.3401
  N  N192  1  0.329400  0.830600  0.531000  1.0  -0.3362
  N  N193  1  0.023180  0.868010  0.438100  1.0  -0.3439
  N  N194  1  0.080600  0.920600  0.281000  1.0  -0.3335
  N  N195  1  0.523180  0.368010  0.938100  1.0  -0.3439
  N  N196  1  0.580600  0.420600  0.781000  1.0  -0.3335
  N  N197  1  0.476820  0.131990  0.938100  1.0  -0.3469
  N  N198  1  0.419400  0.079400  0.781000  1.0  -0.3384
  N  N199  1  0.976820  0.631990  0.438100  1.0  -0.3469
  N  N200  1  0.919400  0.579400  0.281000  1.0  -0.3384
  N  N201  1  0.881990  0.726820  0.811900  1.0  -0.341
  N  N202  1  0.829400  0.669400  0.969000  1.0  -0.3378
  N  N203  1  0.381990  0.226820  0.311900  1.0  -0.341
  N  N204  1  0.329400  0.169400  0.469000  1.0  -0.3378
  N  N205  1  0.618010  0.273180  0.311900  1.0  -0.3423
  N  N206  1  0.670600  0.330600  0.469000  1.0  -0.3372
  N  N207  1  0.118010  0.773180  0.811900  1.0  -0.3423
  N  N208  1  0.170600  0.830600  0.969000  1.0  -0.3372
  N  N209  1  0.476820  0.868010  0.061900  1.0  -0.3454
  N  N210  1  0.419400  0.920600  0.219000  1.0  -0.3384
  N  N211  1  0.976820  0.368010  0.561900  1.0  -0.3454
  N  N212  1  0.919400  0.420600  0.719000  1.0  -0.3384
  N  N213  1  0.023180  0.131990  0.561900  1.0  -0.3466
  N  N214  1  0.080600  0.079400  0.719000  1.0  -0.3359
  N  N215  1  0.523180  0.631990  0.061900  1.0  -0.3466
  N  N216  1  0.580600  0.579400  0.219000  1.0  -0.3359
  N  N217  1  0.315780  0.250000  0.526200  1.0  -0.3894
  N  N218  1  0.184220  0.750000  0.026200  1.0  -0.3842
  N  N219  1  0.000000  0.065780  0.776200  1.0  -0.3866
  N  N220  1  0.500000  0.565780  0.276200  1.0  -0.3866
  N  N221  1  0.500000  0.934220  0.276200  1.0  -0.3886
  N  N222  1  0.000000  0.434220  0.776200  1.0  -0.3886
  N  N223  1  0.184220  0.250000  0.973800  1.0  -0.3837
  N  N224  1  0.315780  0.750000  0.473800  1.0  -0.3887
  N  N225  1  0.815780  0.250000  0.973800  1.0  -0.3887
  N  N226  1  0.500000  0.065780  0.723800  1.0  -0.3859
  N  N227  1  0.000000  0.565780  0.223800  1.0  -0.3859
  N  N228  1  0.000000  0.934220  0.223800  1.0  -0.3878
  N  N229  1  0.500000  0.434220  0.723800  1.0  -0.3878
  N  N230  1  0.684220  0.750000  0.473800  1.0  -0.3837
  N  N231  1  0.815780  0.750000  0.026200  1.0  -0.3894
  N  N232  1  0.684220  0.250000  0.526200  1.0  -0.3842
