# generated using pymatgen
data_Ag3H12(C2N5)2
_symmetry_space_group_name_H-M   'P 1'
_cell_length_a   19.45500000
_cell_length_b   19.45500000
_cell_length_c   3.53390000
_cell_angle_alpha   90.00000000
_cell_angle_beta   90.00000000
_cell_angle_gamma   90.00000000
_symmetry_Int_Tables_number   1
_chemical_formula_structural   Ag3H12(C2N5)2
_chemical_formula_sum   'Ag12 H48 C16 N40'
_cell_volume   1337.57063665
_cell_formula_units_Z   4
loop_
 _symmetry_equiv_pos_site_id
 _symmetry_equiv_pos_as_xyz
  1  'x, y, z'
loop_
 _atom_site_type_symbol
 _atom_site_label
 _atom_site_symmetry_multiplicity
 _atom_site_fract_x
 _atom_site_fract_y
 _atom_site_fract_z
 _atom_site_occupancy
 _atom_site_charge
  Ag  Ag1  1  0.375070  0.455330  0.997600  1.0  0.2921
  Ag  Ag2  1  0.624930  0.544670  0.997600  1.0  0.2879
  Ag  Ag3  1  0.455330  0.624930  0.002400  1.0  0.2807
  Ag  Ag4  1  0.544670  0.375070  0.002400  1.0  0.2829
  Ag  Ag5  1  0.875070  0.044670  0.497600  1.0  0.2893
  Ag  Ag6  1  0.124930  0.955330  0.497600  1.0  0.2895
  Ag  Ag7  1  0.955330  0.875070  0.502400  1.0  0.2832
  Ag  Ag8  1  0.044670  0.124930  0.502400  1.0  0.2811
  Ag  Ag9  1  0.166100  0.666100  0.750000  1.0  0.2169
  Ag  Ag10  1  0.833900  0.333900  0.750000  1.0  0.2167
  Ag  Ag11  1  0.666100  0.833900  0.250000  1.0  0.218
  Ag  Ag12  1  0.333900  0.166100  0.250000  1.0  0.2161
  H  H13  1  0.173100  0.509600  0.509200  1.0  0.2739
  H  H14  1  0.221500  0.460400  0.326800  1.0  0.1881
  H  H15  1  0.297500  0.752500  0.466300  1.0  0.1049
  H  H16  1  0.366300  0.734100  0.312800  1.0  0.1243
  H  H17  1  0.226400  0.521800  0.367700  1.0  0.1978
  H  H18  1  0.313600  0.696400  0.416000  1.0  0.2037
  H  H19  1  0.826900  0.490400  0.509200  1.0  0.2729
  H  H20  1  0.778500  0.539600  0.326800  1.0  0.1937
  H  H21  1  0.702500  0.247500  0.466300  1.0  0.1002
  H  H22  1  0.633700  0.265900  0.312800  1.0  0.1231
  H  H23  1  0.773600  0.478200  0.367700  1.0  0.1965
  H  H24  1  0.686400  0.303600  0.416000  1.0  0.2074
  H  H25  1  0.509600  0.826900  0.490800  1.0  0.2747
  H  H26  1  0.460400  0.778500  0.673200  1.0  0.1839
  H  H27  1  0.752500  0.702500  0.533700  1.0  0.1037
  H  H28  1  0.734100  0.633700  0.687200  1.0  0.122
  H  H29  1  0.521800  0.773600  0.632300  1.0  0.1967
  H  H30  1  0.696400  0.686400  0.584000  1.0  0.205
  H  H31  1  0.490400  0.173100  0.490800  1.0  0.2688
  H  H32  1  0.539600  0.221500  0.673200  1.0  0.1839
  H  H33  1  0.247500  0.297500  0.533700  1.0  0.103
  H  H34  1  0.265900  0.366300  0.687200  1.0  0.1224
  H  H35  1  0.478200  0.226400  0.632300  1.0  0.1938
  H  H36  1  0.303600  0.313600  0.584000  1.0  0.2054
  H  H37  1  0.673100  0.990400  0.009200  1.0  0.2747
  H  H38  1  0.721500  0.039600  0.826800  1.0  0.1936
  H  H39  1  0.797500  0.747500  0.966300  1.0  0.1003
  H  H40  1  0.866300  0.765900  0.812800  1.0  0.125
  H  H41  1  0.726400  0.978200  0.867700  1.0  0.1975
  H  H42  1  0.813600  0.803600  0.916000  1.0  0.2059
  H  H43  1  0.326900  0.009600  0.009200  1.0  0.2725
  H  H44  1  0.278500  0.960400  0.826800  1.0  0.1881
  H  H45  1  0.202500  0.252500  0.966300  1.0  0.1042
  H  H46  1  0.133700  0.234100  0.812800  1.0  0.1226
  H  H47  1  0.273600  0.021800  0.867700  1.0  0.1974
  H  H48  1  0.186400  0.196400  0.916000  1.0  0.2062
  H  H49  1  0.009600  0.673100  0.990800  1.0  0.2679
  H  H50  1  0.960400  0.721500  0.173200  1.0  0.183
  H  H51  1  0.252500  0.797500  0.033700  1.0  0.1024
  H  H52  1  0.234100  0.866300  0.187200  1.0  0.1216
  H  H53  1  0.021800  0.726400  0.132300  1.0  0.1965
  H  H54  1  0.196400  0.813600  0.084000  1.0  0.205
  H  H55  1  0.990400  0.326900  0.990800  1.0  0.2751
  H  H56  1  0.039600  0.278500  0.173200  1.0  0.1836
  H  H57  1  0.747500  0.202500  0.033700  1.0  0.1042
  H  H58  1  0.765900  0.133700  0.187200  1.0  0.1198
  H  H59  1  0.978200  0.273600  0.132300  1.0  0.1945
  H  H60  1  0.803600  0.186400  0.084000  1.0  0.2058
  C  C61  1  0.260400  0.555200  0.350000  1.0  0.0787
  C  C62  1  0.305500  0.650100  0.370000  1.0  0.091
  C  C63  1  0.739600  0.444800  0.350000  1.0  0.082
  C  C64  1  0.694500  0.349900  0.370000  1.0  0.0904
  C  C65  1  0.555200  0.739600  0.650000  1.0  0.0787
  C  C66  1  0.650100  0.694500  0.630000  1.0  0.0957
  C  C67  1  0.444800  0.260400  0.650000  1.0  0.082
  C  C68  1  0.349900  0.305500  0.630000  1.0  0.0916
  C  C69  1  0.760400  0.944800  0.850000  1.0  0.079
  C  C70  1  0.805500  0.849900  0.870000  1.0  0.0904
  C  C71  1  0.239600  0.055200  0.850000  1.0  0.083
  C  C72  1  0.194500  0.150100  0.870000  1.0  0.0902
  C  C73  1  0.055200  0.760400  0.150000  1.0  0.078
  C  C74  1  0.150100  0.805500  0.130000  1.0  0.0949
  C  C75  1  0.944800  0.239600  0.150000  1.0  0.0821
  C  C76  1  0.849900  0.194500  0.130000  1.0  0.0928
  N  N77  1  0.324600  0.541100  0.212000  1.0  -0.4055
  N  N78  1  0.354100  0.605800  0.193000  1.0  -0.3333
  N  N79  1  0.249800  0.619700  0.458000  1.0  -0.3462
  N  N80  1  0.212000  0.501000  0.400000  1.0  -0.317
  N  N81  1  0.326000  0.722000  0.385000  1.0  -0.2518
  N  N82  1  0.675400  0.458900  0.212000  1.0  -0.4066
  N  N83  1  0.645900  0.394200  0.193000  1.0  -0.3373
  N  N84  1  0.750200  0.380300  0.458000  1.0  -0.3412
  N  N85  1  0.788000  0.499000  0.400000  1.0  -0.3116
  N  N86  1  0.674000  0.278000  0.385000  1.0  -0.2553
  N  N87  1  0.541100  0.675400  0.788000  1.0  -0.4085
  N  N88  1  0.605800  0.645900  0.807000  1.0  -0.3314
  N  N89  1  0.619700  0.750200  0.542000  1.0  -0.3424
  N  N90  1  0.501000  0.788000  0.600000  1.0  -0.3168
  N  N91  1  0.722000  0.674000  0.615000  1.0  -0.2522
  N  N92  1  0.458900  0.324600  0.788000  1.0  -0.4084
  N  N93  1  0.394200  0.354100  0.807000  1.0  -0.3326
  N  N94  1  0.380300  0.249800  0.542000  1.0  -0.3428
  N  N95  1  0.499000  0.212000  0.600000  1.0  -0.3158
  N  N96  1  0.278000  0.326000  0.615000  1.0  -0.2545
  N  N97  1  0.824600  0.958900  0.712000  1.0  -0.405
  N  N98  1  0.854100  0.894200  0.693000  1.0  -0.3368
  N  N99  1  0.749800  0.880300  0.958000  1.0  -0.3456
  N  N100  1  0.712000  0.999000  0.900000  1.0  -0.3164
  N  N101  1  0.826000  0.778000  0.885000  1.0  -0.253
  N  N102  1  0.175400  0.041100  0.712000  1.0  -0.408
  N  N103  1  0.145900  0.105800  0.693000  1.0  -0.3359
  N  N104  1  0.250200  0.119700  0.958000  1.0  -0.342
  N  N105  1  0.288000  0.001000  0.900000  1.0  -0.3141
  N  N106  1  0.174000  0.222000  0.885000  1.0  -0.2533
  N  N107  1  0.041100  0.824600  0.288000  1.0  -0.409
  N  N108  1  0.105800  0.854100  0.307000  1.0  -0.3346
  N  N109  1  0.119700  0.749800  0.042000  1.0  -0.3421
  N  N110  1  0.001000  0.712000  0.100000  1.0  -0.3173
  N  N111  1  0.222000  0.826000  0.115000  1.0  -0.2526
  N  N112  1  0.958900  0.175400  0.288000  1.0  -0.408
  N  N113  1  0.894200  0.145900  0.307000  1.0  -0.3317
  N  N114  1  0.880300  0.250200  0.042000  1.0  -0.3426
  N  N115  1  0.999000  0.288000  0.100000  1.0  -0.3156
  N  N116  1  0.778000  0.174000  0.115000  1.0  -0.2567
