# generated using pymatgen
data_CuH6(C3N2)2
_symmetry_space_group_name_H-M   'P 1'
_cell_length_a   5.38700000
_cell_length_b   16.01210000
_cell_length_c   16.01210000
_cell_angle_alpha   61.24040000
_cell_angle_beta   83.56110000
_cell_angle_gamma   96.43890000
_symmetry_Int_Tables_number   1
_chemical_formula_structural   CuH6(C3N2)2
_chemical_formula_sum   'Cu6 H36 C36 N24'
_cell_volume   1181.07589876
_cell_formula_units_Z   6
loop_
 _symmetry_equiv_pos_site_id
 _symmetry_equiv_pos_as_xyz
  1  'x, y, z'
loop_
 _atom_site_type_symbol
 _atom_site_label
 _atom_site_symmetry_multiplicity
 _atom_site_fract_x
 _atom_site_fract_y
 _atom_site_fract_z
 _atom_site_occupancy
 _atom_site_charge
  Cu  Cu1  1  0.816540  0.214080  0.572260  1.0  0.6485
  Cu  Cu2  1  0.388800  0.572260  0.213660  1.0  0.6485
  Cu  Cu3  1  0.602460  0.213660  0.214080  1.0  0.6481
  Cu  Cu4  1  0.183460  0.785920  0.427740  1.0  0.6484
  Cu  Cu5  1  0.611200  0.427740  0.786340  1.0  0.6489
  Cu  Cu6  1  0.397540  0.786340  0.785920  1.0  0.6486
  H  H7  1  0.591930  0.023570  0.578560  1.0  0.1071
  H  H8  1  0.970100  0.058740  0.789860  1.0  0.1052
  H  H9  1  0.772300  0.882410  0.872780  1.0  0.1029
  H  H10  1  0.516970  0.255580  0.401160  1.0  0.108
  H  H11  1  0.109060  0.083440  0.491460  1.0  0.1089
  H  H12  1  0.007080  0.076340  0.346170  1.0  0.0988
  H  H13  1  0.170480  0.578560  0.397870  1.0  0.1077
  H  H14  1  0.759960  0.789860  0.151400  1.0  0.1064
  H  H15  1  0.645080  0.872780  0.244800  1.0  0.1025
  H  H16  1  0.918130  0.401160  0.343250  1.0  0.1067
  H  H17  1  0.600530  0.491460  0.425090  1.0  0.1091
  H  H18  1  0.353260  0.346170  0.577490  1.0  0.0985
  H  H19  1  0.568350  0.397870  0.023570  1.0  0.1075
  H  H20  1  0.911360  0.151400  0.058740  1.0  0.1081
  H  H21  1  0.889880  0.244800  0.882410  1.0  0.1015
  H  H22  1  0.261390  0.343250  0.255580  1.0  0.108
  H  H23  1  0.025620  0.425090  0.083440  1.0  0.1095
  H  H24  1  0.930740  0.577490  0.076340  1.0  0.0994
  H  H25  1  0.408070  0.976430  0.421440  1.0  0.1074
  H  H26  1  0.029900  0.941260  0.210140  1.0  0.1051
  H  H27  1  0.227700  0.117590  0.127220  1.0  0.1015
  H  H28  1  0.483030  0.744420  0.598840  1.0  0.1088
  H  H29  1  0.890940  0.916560  0.508540  1.0  0.1081
  H  H30  1  0.992920  0.923660  0.653830  1.0  0.0984
  H  H31  1  0.829520  0.421440  0.602130  1.0  0.1076
  H  H32  1  0.240040  0.210140  0.848600  1.0  0.1066
  H  H33  1  0.354920  0.127220  0.755200  1.0  0.102
  H  H34  1  0.081870  0.598840  0.656750  1.0  0.1068
  H  H35  1  0.399470  0.508540  0.574910  1.0  0.1093
  H  H36  1  0.646740  0.653830  0.422510  1.0  0.0992
  H  H37  1  0.431650  0.602130  0.976430  1.0  0.1072
  H  H38  1  0.088640  0.848600  0.941260  1.0  0.1078
  H  H39  1  0.110120  0.755200  0.117590  1.0  0.1018
  H  H40  1  0.738610  0.656750  0.744420  1.0  0.1082
  H  H41  1  0.974380  0.574910  0.916560  1.0  0.1093
  H  H42  1  0.069260  0.422510  0.923660  1.0  0.0996
  C  C43  1  0.647260  0.004930  0.651350  1.0  0.1534
  C  C44  1  0.853770  0.029590  0.750980  1.0  -0.0419
  C  C45  1  0.735900  0.934760  0.797960  1.0  -0.047
  C  C46  1  0.665590  0.210960  0.398890  1.0  0.1135
  C  C47  1  0.960200  0.123920  0.451920  1.0  -0.0501
  C  C48  1  0.909370  0.122000  0.371490  1.0  -0.0487
  C  C49  1  0.298610  0.651350  0.343720  1.0  0.1531
  C  C50  1  0.604750  0.750980  0.219430  1.0  -0.0449
  C  C51  1  0.533860  0.797960  0.267280  1.0  -0.0491
  C  C52  1  0.064480  0.398890  0.390150  1.0  0.1141
  C  C53  1  0.412120  0.451920  0.424160  1.0  -0.0514
  C  C54  1  0.280860  0.371490  0.506510  1.0  -0.0468
  C  C55  1  0.642330  0.343720  0.004930  1.0  0.152
  C  C56  1  0.824180  0.219430  0.029590  1.0  -0.046
  C  C57  1  0.801140  0.267280  0.934760  1.0  -0.048
  C  C58  1  0.454630  0.390150  0.210960  1.0  0.1138
  C  C59  1  0.836280  0.424160  0.123920  1.0  -0.0507
  C  C60  1  0.787370  0.506510  0.122000  1.0  -0.048
  C  C61  1  0.352740  0.995070  0.348650  1.0  0.1517
  C  C62  1  0.146230  0.970410  0.249020  1.0  -0.0426
  C  C63  1  0.264100  0.065240  0.202040  1.0  -0.0492
  C  C64  1  0.334410  0.789040  0.601110  1.0  0.1136
  C  C65  1  0.039800  0.876080  0.548080  1.0  -0.0509
  C  C66  1  0.090630  0.878000  0.628510  1.0  -0.0487
  C  C67  1  0.701390  0.348650  0.656280  1.0  0.1516
  C  C68  1  0.395250  0.249020  0.780570  1.0  -0.0443
  C  C69  1  0.466140  0.202040  0.732720  1.0  -0.0486
  C  C70  1  0.935520  0.601110  0.609850  1.0  0.1149
  C  C71  1  0.587880  0.548080  0.575840  1.0  -0.0526
  C  C72  1  0.719140  0.628510  0.493490  1.0  -0.0463
  C  C73  1  0.357670  0.656280  0.995070  1.0  0.1512
  C  C74  1  0.175820  0.780570  0.970410  1.0  -0.0449
  C  C75  1  0.198860  0.732720  0.065240  1.0  -0.047
  C  C76  1  0.545370  0.609850  0.789040  1.0  0.1135
  C  C77  1  0.163720  0.575840  0.876080  1.0  -0.0515
  C  C78  1  0.212630  0.493490  0.878000  1.0  -0.0489
  N  N79  1  0.802230  0.072630  0.659740  1.0  -0.3444
  N  N80  1  0.587320  0.922520  0.739760  1.0  -0.3617
  N  N81  1  0.808710  0.178610  0.469080  1.0  -0.3253
  N  N82  1  0.737780  0.180180  0.335740  1.0  -0.3247
  N  N83  1  0.461970  0.659740  0.267630  1.0  -0.3443
  N  N84  1  0.327080  0.739760  0.337720  1.0  -0.3616
  N  N85  1  0.277790  0.469080  0.352310  1.0  -0.3244
  N  N86  1  0.073520  0.335740  0.484080  1.0  -0.3243
  N  N87  1  0.729600  0.267630  0.072630  1.0  -0.3463
  N  N88  1  0.664800  0.337720  0.922520  1.0  -0.3613
  N  N89  1  0.630100  0.352310  0.178610  1.0  -0.324
  N  N90  1  0.557600  0.484080  0.180180  1.0  -0.3259
  N  N91  1  0.197770  0.927370  0.340260  1.0  -0.3449
  N  N92  1  0.412680  0.077480  0.260240  1.0  -0.3599
  N  N93  1  0.191290  0.821390  0.530920  1.0  -0.3248
  N  N94  1  0.262220  0.819820  0.664260  1.0  -0.3245
  N  N95  1  0.538030  0.340260  0.732370  1.0  -0.3445
  N  N96  1  0.672920  0.260240  0.662280  1.0  -0.3619
  N  N97  1  0.722210  0.530920  0.647690  1.0  -0.3237
  N  N98  1  0.926480  0.664260  0.515920  1.0  -0.3243
  N  N99  1  0.270400  0.732370  0.927370  1.0  -0.3461
  N  N100  1  0.335200  0.662280  0.077480  1.0  -0.3588
  N  N101  1  0.369900  0.647690  0.821390  1.0  -0.3247
  N  N102  1  0.442400  0.515920  0.819820  1.0  -0.3235
