# generated using pymatgen
data_Co3H46C70(N4O7)2
_symmetry_space_group_name_H-M   'P 1'
_cell_length_a   9.35210000
_cell_length_b   11.34710000
_cell_length_c   18.80780000
_cell_angle_alpha   79.46000000
_cell_angle_beta   79.46200000
_cell_angle_gamma   66.51200000
_symmetry_Int_Tables_number   1
_chemical_formula_structural   Co3H46C70(N4O7)2
_chemical_formula_sum   'Co3 H46 C70 N8 O14'
_cell_volume   1786.17536309
_cell_formula_units_Z   1
loop_
 _symmetry_equiv_pos_site_id
 _symmetry_equiv_pos_as_xyz
  1  'x, y, z'
loop_
 _atom_site_type_symbol
 _atom_site_label
 _atom_site_symmetry_multiplicity
 _atom_site_fract_x
 _atom_site_fract_y
 _atom_site_fract_z
 _atom_site_occupancy
 _atom_site_charge
  Co  Co1  1  0.605360  0.810470  0.718080  1.0  0.7238
  Co  Co2  1  0.394640  0.189530  0.281920  1.0  0.7272
  Co  Co3  1  0.000000  0.000000  0.000000  1.0  0.9167
  H  H4  1  0.575200  0.569400  0.194200  1.0  0.1148
  H  H5  1  0.482200  0.541900  0.317400  1.0  0.1223
  H  H6  1  0.099500  0.855400  0.286300  1.0  0.1044
  H  H7  1  0.450800  0.744800  0.392400  1.0  0.1187
  H  H8  1  0.524500  0.765400  0.499500  1.0  0.0856
  H  H9  1  0.206000  0.634800  0.616600  1.0  0.0933
  H  H10  1  0.133600  0.610300  0.511000  1.0  0.1256
  H  H11  1  0.773300  0.865900  0.998200  1.0  0.0805
  H  H12  1  0.768000  0.666800  0.000500  1.0  0.1208
  H  H13  1  0.231400  0.518000  0.995600  1.0  0.1289
  H  H14  1  0.223600  0.720000  0.995600  1.0  0.0819
  H  H15  1  0.662400  0.881200  0.551600  1.0  0.0739
  H  H16  1  0.819600  0.951600  0.462800  1.0  0.1149
  H  H17  1  0.034400  0.984200  0.616100  1.0  0.1187
  H  H18  1  0.871700  0.910400  0.701300  1.0  0.0872
  H  H19  1  0.350300  0.009500  0.625100  1.0  0.0682
  H  H20  1  0.151600  0.207100  0.622300  1.0  0.1192
  H  H21  1  0.268600  0.250200  0.806400  1.0  0.1158
  H  H22  1  0.472300  0.057100  0.799300  1.0  0.0759
  H  H23  1  0.992400  0.376000  0.825400  1.0  0.1171
  H  H24  1  0.784700  0.570500  0.824400  1.0  0.0762
  H  H25  1  0.836800  0.622000  0.613600  1.0  0.0752
  H  H26  1  0.048000  0.437000  0.608000  1.0  0.1128
  H  H27  1  0.424800  0.430600  0.805800  1.0  0.1158
  H  H28  1  0.517800  0.458100  0.682600  1.0  0.1221
  H  H29  1  0.900500  0.144600  0.713700  1.0  0.1049
  H  H30  1  0.549200  0.255200  0.607600  1.0  0.1189
  H  H31  1  0.475500  0.234600  0.500500  1.0  0.0847
  H  H32  1  0.794000  0.365200  0.383400  1.0  0.0934
  H  H33  1  0.866400  0.389700  0.489000  1.0  0.1254
  H  H34  1  0.226700  0.134100  0.001800  1.0  0.08
  H  H35  1  0.232000  0.333200  0.999500  1.0  0.1199
  H  H36  1  0.768600  0.482000  0.004400  1.0  0.1298
  H  H37  1  0.776400  0.280000  0.004400  1.0  0.0827
  H  H38  1  0.337600  0.118800  0.448400  1.0  0.074
  H  H39  1  0.180400  0.048400  0.537200  1.0  0.1153
  H  H40  1  0.965600  0.015800  0.383900  1.0  0.1185
  H  H41  1  0.128300  0.089600  0.298700  1.0  0.0875
  H  H42  1  0.649700  0.990500  0.374900  1.0  0.0672
  H  H43  1  0.848400  0.792900  0.377700  1.0  0.1186
  H  H44  1  0.731400  0.749800  0.193600  1.0  0.1163
  H  H45  1  0.527700  0.942900  0.200700  1.0  0.0758
  H  H46  1  0.007600  0.624000  0.174600  1.0  0.1169
  H  H47  1  0.215300  0.429500  0.175600  1.0  0.0763
  H  H48  1  0.163200  0.378000  0.386400  1.0  0.0737
  H  H49  1  0.952000  0.563000  0.392000  1.0  0.1124
  C  C50  1  0.244100  0.816100  0.192800  1.0  -0.0983
  C  C51  1  0.390700  0.729900  0.165200  1.0  -0.0812
  C  C52  1  0.478300  0.627700  0.212200  1.0  -0.0555
  C  C53  1  0.423300  0.611100  0.286300  1.0  -0.1838
  C  C54  1  0.284000  0.696500  0.311800  1.0  0.2383
  C  C55  1  0.195100  0.797600  0.266900  1.0  -0.1606
  C  C56  1  0.131000  0.921200  0.145000  1.0  0.681
  C  C57  1  0.461000  0.743500  0.086300  1.0  0.6427
  C  C58  1  0.283000  0.678800  0.442400  1.0  0.3149
  C  C59  1  0.400900  0.723400  0.437500  1.0  -0.2501
  C  C60  1  0.444000  0.735800  0.502000  1.0  0.0103
  C  C61  1  0.371600  0.705700  0.569200  1.0  -0.1856
  C  C62  1  0.255100  0.657700  0.571700  1.0  0.0244
  C  C63  1  0.210900  0.643400  0.508700  1.0  -0.2518
  C  C64  1  0.405900  0.731400  0.638800  1.0  0.6615
  C  C65  1  0.867500  0.794400  0.998400  1.0  0.1765
  C  C66  1  0.863700  0.674400  0.999600  1.0  -0.1782
  C  C67  1  0.998800  0.565600  0.999300  1.0  0.0913
  C  C68  1  0.135000  0.587300  0.996900  1.0  -0.1858
  C  C69  1  0.129500  0.709700  0.996600  1.0  0.1925
  C  C70  1  0.740400  0.900600  0.565400  1.0  0.163
  C  C71  1  0.834000  0.944200  0.511300  1.0  -0.1917
  C  C72  1  0.947900  0.976900  0.528200  1.0  0.089
  C  C73  1  0.959500  0.962900  0.601000  1.0  -0.1912
  C  C74  1  0.860800  0.917500  0.652400  1.0  0.1817
  C  C75  1  0.334100  0.058900  0.662400  1.0  0.1828
  C  C76  1  0.212700  0.177800  0.660500  1.0  -0.2087
  C  C77  1  0.181400  0.254000  0.715300  1.0  0.1052
  C  C78  1  0.282700  0.203700  0.768100  1.0  -0.1942
  C  C79  1  0.403700  0.085800  0.764100  1.0  0.1786
  C  C80  1  0.997400  0.457500  0.653600  1.0  -0.1714
  C  C81  1  0.048300  0.380400  0.717300  1.0  0.1091
  C  C82  1  0.964600  0.425000  0.781100  1.0  -0.1814
  C  C83  1  0.838900  0.542800  0.780000  1.0  0.1712
  C  C84  1  0.869900  0.572900  0.657100  1.0  0.1818
  C  C85  1  0.755900  0.183900  0.807200  1.0  -0.0974
  C  C86  1  0.609300  0.270100  0.834800  1.0  -0.0796
  C  C87  1  0.521700  0.372300  0.787800  1.0  -0.0536
  C  C88  1  0.576700  0.388900  0.713700  1.0  -0.1852
  C  C89  1  0.716000  0.303500  0.688200  1.0  0.2375
  C  C90  1  0.804900  0.202400  0.733100  1.0  -0.1591
  C  C91  1  0.869000  0.078800  0.855000  1.0  0.6798
  C  C92  1  0.539000  0.256500  0.913700  1.0  0.6429
  C  C93  1  0.717000  0.321200  0.557600  1.0  0.3146
  C  C94  1  0.599100  0.276600  0.562500  1.0  -0.2513
  C  C95  1  0.556000  0.264200  0.498000  1.0  0.0102
  C  C96  1  0.628400  0.294300  0.430800  1.0  -0.1877
  C  C97  1  0.744900  0.342300  0.428300  1.0  0.0225
  C  C98  1  0.789100  0.356600  0.491300  1.0  -0.2532
  C  C99  1  0.594100  0.268600  0.361200  1.0  0.6632
  C  C100  1  0.132500  0.205600  0.001600  1.0  0.1765
  C  C101  1  0.136300  0.325600  0.000400  1.0  -0.1777
  C  C102  1  0.001200  0.434400  0.000700  1.0  0.0903
  C  C103  1  0.865000  0.412700  0.003100  1.0  -0.186
  C  C104  1  0.870500  0.290300  0.003400  1.0  0.1927
  C  C105  1  0.259600  0.099400  0.434600  1.0  0.1629
  C  C106  1  0.166000  0.055800  0.488700  1.0  -0.1929
  C  C107  1  0.052100  0.023100  0.471800  1.0  0.0892
  C  C108  1  0.040500  0.037100  0.399000  1.0  -0.1918
  C  C109  1  0.139200  0.082500  0.347600  1.0  0.1822
  C  C110  1  0.665900  0.941100  0.337600  1.0  0.1837
  C  C111  1  0.787300  0.822200  0.339500  1.0  -0.2076
  C  C112  1  0.818600  0.746000  0.284700  1.0  0.1044
  C  C113  1  0.717300  0.796300  0.231900  1.0  -0.195
  C  C114  1  0.596300  0.914200  0.235900  1.0  0.1791
  C  C115  1  0.002600  0.542500  0.346400  1.0  -0.1709
  C  C116  1  0.951700  0.619600  0.282700  1.0  0.1069
  C  C117  1  0.035400  0.575000  0.218900  1.0  -0.1822
  C  C118  1  0.161100  0.457200  0.220000  1.0  0.1719
  C  C119  1  0.130100  0.427100  0.342900  1.0  0.1822
  N  N120  1  0.429600  0.009800  0.713450  1.0  -0.3495
  N  N121  1  0.791300  0.618300  0.719420  1.0  -0.3502
  N  N122  1  0.753400  0.884000  0.636020  1.0  -0.3316
  N  N123  1  0.999100  0.813800  0.997650  1.0  -0.3592
  N  N124  1  0.570400  0.990200  0.286550  1.0  -0.3481
  N  N125  1  0.208700  0.381700  0.280580  1.0  -0.3509
  N  N126  1  0.246600  0.116000  0.363980  1.0  -0.332
  N  N127  1  0.000900  0.186200  0.002350  1.0  -0.3598
  O  O128  1  0.155000  0.913100  0.079060  1.0  -0.5828
  O  O129  1  0.013500  0.004000  0.176830  1.0  -0.6088
  O  O130  1  0.500100  0.837300  0.064700  1.0  -0.5526
  O  O131  1  0.483500  0.653700  0.050860  1.0  -0.5466
  O  O132  1  0.216300  0.674200  0.383710  1.0  -0.2714
  O  O133  1  0.516300  0.771000  0.634630  1.0  -0.5952
  O  O134  1  0.321400  0.713400  0.696100  1.0  -0.5916
  O  O135  1  0.845000  0.086900  0.920940  1.0  -0.5832
  O  O136  1  0.986500  0.996000  0.823170  1.0  -0.6084
  O  O137  1  0.499900  0.162700  0.935300  1.0  -0.5509
  O  O138  1  0.516500  0.346300  0.949140  1.0  -0.5467
  O  O139  1  0.783700  0.325800  0.616290  1.0  -0.2709
  O  O140  1  0.483700  0.229000  0.365370  1.0  -0.5948
  O  O141  1  0.678600  0.286600  0.303900  1.0  -0.592
