# generated using pymatgen
data_Mn3H4(C5O4)4
_symmetry_space_group_name_H-M   'P 1'
_cell_length_a   19.10350000
_cell_length_b   9.54300000
_cell_length_c   17.67080000
_cell_angle_alpha   90.00000000
_cell_angle_beta   90.00000000
_cell_angle_gamma   90.00000000
_symmetry_Int_Tables_number   1
_chemical_formula_structural   Mn3H4(C5O4)4
_chemical_formula_sum   'Mn12 H16 C80 O64'
_cell_volume   3221.46990160
_cell_formula_units_Z   4
loop_
 _symmetry_equiv_pos_site_id
 _symmetry_equiv_pos_as_xyz
  1  'x, y, z'
loop_
 _atom_site_type_symbol
 _atom_site_label
 _atom_site_symmetry_multiplicity
 _atom_site_fract_x
 _atom_site_fract_y
 _atom_site_fract_z
 _atom_site_occupancy
 _atom_site_charge
  Mn  Mn1  1  0.257210  0.266400  0.195740  1.0  1.1816
  Mn  Mn2  1  0.242790  0.233600  0.695740  1.0  1.1845
  Mn  Mn3  1  0.742790  0.266400  0.304260  1.0  1.1845
  Mn  Mn4  1  0.757210  0.233600  0.804260  1.0  1.1815
  Mn  Mn5  1  0.742790  0.733600  0.804260  1.0  1.1846
  Mn  Mn6  1  0.757210  0.766400  0.304260  1.0  1.1817
  Mn  Mn7  1  0.257210  0.733600  0.695740  1.0  1.1814
  Mn  Mn8  1  0.242790  0.766400  0.195740  1.0  1.1844
  Mn  Mn9  1  0.500000  0.428230  0.750000  1.0  1.0382
  Mn  Mn10  1  0.000000  0.071770  0.250000  1.0  1.0393
  Mn  Mn11  1  0.500000  0.571770  0.250000  1.0  1.0393
  Mn  Mn12  1  0.000000  0.928230  0.750000  1.0  1.0382
  H  H13  1  0.229900  0.959100  0.944900  1.0  0.124
  H  H14  1  0.403100  0.293900  0.935200  1.0  0.1354
  H  H15  1  0.270100  0.540900  0.444900  1.0  0.1242
  H  H16  1  0.096900  0.206100  0.435200  1.0  0.1359
  H  H17  1  0.770100  0.959100  0.555100  1.0  0.1244
  H  H18  1  0.596900  0.293900  0.564800  1.0  0.1361
  H  H19  1  0.729900  0.540900  0.055100  1.0  0.1243
  H  H20  1  0.903100  0.206100  0.064800  1.0  0.1357
  H  H21  1  0.770100  0.040900  0.055100  1.0  0.1243
  H  H22  1  0.596900  0.706100  0.064800  1.0  0.1358
  H  H23  1  0.729900  0.459100  0.555100  1.0  0.1241
  H  H24  1  0.903100  0.793900  0.564800  1.0  0.1354
  H  H25  1  0.229900  0.040900  0.444900  1.0  0.1242
  H  H26  1  0.403100  0.706100  0.435200  1.0  0.1358
  H  H27  1  0.270100  0.459100  0.944900  1.0  0.1243
  H  H28  1  0.096900  0.793900  0.935200  1.0  0.1361
  C  C29  1  0.374770  0.253500  0.076690  1.0  0.7239
  C  C30  1  0.341750  0.187300  0.007680  1.0  -0.1311
  C  C31  1  0.289010  0.085400  0.010350  1.0  -0.035
  C  C32  1  0.264420  0.027600  0.942900  1.0  -0.0207
  C  C33  1  0.290060  0.069400  0.872500  1.0  -0.0508
  C  C34  1  0.343520  0.170400  0.869700  1.0  -0.0916
  C  C35  1  0.367870  0.226800  0.937150  1.0  0.0246
  C  C36  1  0.256310  0.031900  0.083040  1.0  0.7856
  C  C37  1  0.259150  0.999600  0.802740  1.0  0.751
  C  C38  1  0.377720  0.219700  0.797240  1.0  0.7609
  C  C39  1  0.125230  0.246500  0.576690  1.0  0.7222
  C  C40  1  0.158250  0.312700  0.507680  1.0  -0.129
  C  C41  1  0.210990  0.414600  0.510350  1.0  -0.0348
  C  C42  1  0.235580  0.472400  0.442900  1.0  -0.0203
  C  C43  1  0.209940  0.430600  0.372500  1.0  -0.051
  C  C44  1  0.156480  0.329600  0.369700  1.0  -0.0904
  C  C45  1  0.132130  0.273200  0.437150  1.0  0.024
  C  C46  1  0.243690  0.468100  0.583040  1.0  0.7862
  C  C47  1  0.240850  0.500400  0.302740  1.0  0.7503
  C  C48  1  0.122280  0.280300  0.297240  1.0  0.7607
  C  C49  1  0.625230  0.253500  0.423310  1.0  0.7231
  C  C50  1  0.658250  0.187300  0.492320  1.0  -0.1296
  C  C51  1  0.710990  0.085400  0.489650  1.0  -0.0352
  C  C52  1  0.735580  0.027600  0.557100  1.0  -0.0204
  C  C53  1  0.709940  0.069400  0.627500  1.0  -0.0498
  C  C54  1  0.656480  0.170400  0.630300  1.0  -0.0895
  C  C55  1  0.632130  0.226800  0.562850  1.0  0.0244
  C  C56  1  0.743690  0.031900  0.416960  1.0  0.785
  C  C57  1  0.740850  0.999600  0.697260  1.0  0.7504
  C  C58  1  0.622280  0.219700  0.702760  1.0  0.7597
  C  C59  1  0.874770  0.246500  0.923310  1.0  0.7237
  C  C60  1  0.841750  0.312700  0.992320  1.0  -0.1302
  C  C61  1  0.789010  0.414600  0.989650  1.0  -0.0354
  C  C62  1  0.764420  0.472400  0.057100  1.0  -0.0203
  C  C63  1  0.790060  0.430600  0.127500  1.0  -0.0502
  C  C64  1  0.843520  0.329600  0.130300  1.0  -0.0907
  C  C65  1  0.867870  0.273200  0.062850  1.0  0.0256
  C  C66  1  0.756310  0.468100  0.916960  1.0  0.7859
  C  C67  1  0.759150  0.500400  0.197260  1.0  0.7509
  C  C68  1  0.877720  0.280300  0.202760  1.0  0.7613
  C  C69  1  0.625230  0.746500  0.923310  1.0  0.7228
  C  C70  1  0.658250  0.812700  0.992320  1.0  -0.1296
  C  C71  1  0.710990  0.914600  0.989650  1.0  -0.0353
  C  C72  1  0.735580  0.972400  0.057100  1.0  -0.0201
  C  C73  1  0.709940  0.930600  0.127500  1.0  -0.0502
  C  C74  1  0.656480  0.829600  0.130300  1.0  -0.0895
  C  C75  1  0.632130  0.773200  0.062850  1.0  0.0247
  C  C76  1  0.743690  0.968100  0.916960  1.0  0.7857
  C  C77  1  0.740850  0.000400  0.197260  1.0  0.7505
  C  C78  1  0.622280  0.780300  0.202760  1.0  0.7593
  C  C79  1  0.874770  0.753500  0.423310  1.0  0.7237
  C  C80  1  0.841750  0.687300  0.492320  1.0  -0.1299
  C  C81  1  0.789010  0.585400  0.489650  1.0  -0.0353
  C  C82  1  0.764420  0.527600  0.557100  1.0  -0.0205
  C  C83  1  0.790060  0.569400  0.627500  1.0  -0.0498
  C  C84  1  0.843520  0.670400  0.630300  1.0  -0.0908
  C  C85  1  0.867870  0.726800  0.562850  1.0  0.0255
  C  C86  1  0.756310  0.531900  0.416960  1.0  0.7851
  C  C87  1  0.759150  0.499600  0.697260  1.0  0.7512
  C  C88  1  0.877720  0.719700  0.702760  1.0  0.7613
  C  C89  1  0.374770  0.746500  0.576690  1.0  0.7238
  C  C90  1  0.341750  0.812700  0.507680  1.0  -0.1311
  C  C91  1  0.289010  0.914600  0.510350  1.0  -0.0351
  C  C92  1  0.264420  0.972400  0.442900  1.0  -0.0205
  C  C93  1  0.290060  0.930600  0.372500  1.0  -0.051
  C  C94  1  0.343520  0.829600  0.369700  1.0  -0.0912
  C  C95  1  0.367870  0.773200  0.437150  1.0  0.0246
  C  C96  1  0.256310  0.968100  0.583040  1.0  0.7863
  C  C97  1  0.259150  0.000400  0.302740  1.0  0.7509
  C  C98  1  0.377720  0.780300  0.297240  1.0  0.7609
  C  C99  1  0.125230  0.753500  0.076690  1.0  0.7223
  C  C100  1  0.158250  0.687300  0.007680  1.0  -0.1293
  C  C101  1  0.210990  0.585400  0.010350  1.0  -0.0347
  C  C102  1  0.235580  0.527600  0.942900  1.0  -0.0206
  C  C103  1  0.209940  0.569400  0.872500  1.0  -0.0509
  C  C104  1  0.156480  0.670400  0.869700  1.0  -0.0904
  C  C105  1  0.132130  0.726800  0.937150  1.0  0.0237
  C  C106  1  0.243690  0.531900  0.083040  1.0  0.7856
  C  C107  1  0.240850  0.499600  0.802740  1.0  0.7499
  C  C108  1  0.122280  0.719700  0.797240  1.0  0.7609
  O  O109  1  0.423260  0.336900  0.065950  1.0  -0.4841
  O  O110  1  0.352840  0.217930  0.141500  1.0  -0.6164
  O  O111  1  0.213270  0.108930  0.116780  1.0  -0.6151
  O  O112  1  0.271940  0.908910  0.101580  1.0  -0.6229
  O  O113  1  0.208920  0.060730  0.769840  1.0  -0.5657
  O  O114  1  0.283750  0.883280  0.785310  1.0  -0.5712
  O  O115  1  0.346860  0.200670  0.735160  1.0  -0.6103
  O  O116  1  0.436430  0.276100  0.804320  1.0  -0.5939
  O  O117  1  0.076740  0.163100  0.565950  1.0  -0.4835
  O  O118  1  0.147160  0.282070  0.641500  1.0  -0.6184
  O  O119  1  0.286730  0.391070  0.616780  1.0  -0.6166
  O  O120  1  0.228060  0.591090  0.601580  1.0  -0.6231
  O  O121  1  0.291080  0.439270  0.269840  1.0  -0.5653
  O  O122  1  0.216250  0.616720  0.285310  1.0  -0.5689
  O  O123  1  0.153140  0.299330  0.235160  1.0  -0.6106
  O  O124  1  0.063570  0.223900  0.304320  1.0  -0.598
  O  O125  1  0.576740  0.336900  0.434050  1.0  -0.4833
  O  O126  1  0.647160  0.217930  0.358500  1.0  -0.6163
  O  O127  1  0.786730  0.108930  0.383220  1.0  -0.6154
  O  O128  1  0.728060  0.908910  0.398420  1.0  -0.6228
  O  O129  1  0.791080  0.060730  0.730160  1.0  -0.5647
  O  O130  1  0.716250  0.883280  0.714690  1.0  -0.5705
  O  O131  1  0.653140  0.200670  0.764840  1.0  -0.6115
  O  O132  1  0.563570  0.276100  0.695680  1.0  -0.5976
  O  O133  1  0.923260  0.163100  0.934050  1.0  -0.4818
  O  O134  1  0.852840  0.282070  0.858500  1.0  -0.6159
  O  O135  1  0.713270  0.391070  0.883220  1.0  -0.6158
  O  O136  1  0.771940  0.591090  0.898420  1.0  -0.6228
  O  O137  1  0.708920  0.439270  0.230160  1.0  -0.5649
  O  O138  1  0.783750  0.616720  0.214690  1.0  -0.5706
  O  O139  1  0.846860  0.299330  0.264840  1.0  -0.6109
  O  O140  1  0.936430  0.223900  0.195680  1.0  -0.5942
  O  O141  1  0.576740  0.663100  0.934050  1.0  -0.4828
  O  O142  1  0.647160  0.782070  0.858500  1.0  -0.6158
  O  O143  1  0.786730  0.891070  0.883220  1.0  -0.6164
  O  O144  1  0.728060  0.091090  0.898420  1.0  -0.6231
  O  O145  1  0.791080  0.939270  0.230160  1.0  -0.5648
  O  O146  1  0.716250  0.116720  0.214690  1.0  -0.569
  O  O147  1  0.653140  0.799330  0.264840  1.0  -0.6115
  O  O148  1  0.563570  0.723900  0.195680  1.0  -0.5974
  O  O149  1  0.923260  0.836900  0.434050  1.0  -0.483
  O  O150  1  0.852840  0.717930  0.358500  1.0  -0.6162
  O  O151  1  0.713270  0.608930  0.383220  1.0  -0.6149
  O  O152  1  0.771940  0.408910  0.398420  1.0  -0.6232
  O  O153  1  0.708920  0.560730  0.730160  1.0  -0.565
  O  O154  1  0.783750  0.383280  0.714690  1.0  -0.5714
  O  O155  1  0.846860  0.700670  0.764840  1.0  -0.611
  O  O156  1  0.936430  0.776100  0.695680  1.0  -0.5934
  O  O157  1  0.423260  0.663100  0.565950  1.0  -0.4824
  O  O158  1  0.352840  0.782070  0.641500  1.0  -0.6165
  O  O159  1  0.213270  0.891070  0.616780  1.0  -0.6161
  O  O160  1  0.271940  0.091090  0.601580  1.0  -0.623
  O  O161  1  0.208920  0.939270  0.269840  1.0  -0.5656
  O  O162  1  0.283750  0.116720  0.285310  1.0  -0.5703
  O  O163  1  0.346860  0.799330  0.235160  1.0  -0.61
  O  O164  1  0.436430  0.723900  0.304320  1.0  -0.5947
  O  O165  1  0.076740  0.836900  0.065950  1.0  -0.4847
  O  O166  1  0.147160  0.717930  0.141500  1.0  -0.6178
  O  O167  1  0.286730  0.608930  0.116780  1.0  -0.6157
  O  O168  1  0.228060  0.408910  0.101580  1.0  -0.6222
  O  O169  1  0.291080  0.560730  0.769840  1.0  -0.5652
  O  O170  1  0.216250  0.383280  0.785310  1.0  -0.5703
  O  O171  1  0.153140  0.700670  0.735160  1.0  -0.6108
  O  O172  1  0.063570  0.776100  0.804320  1.0  -0.598
