# generated using pymatgen
data_Tb2H12C15(NO2)6
_symmetry_space_group_name_H-M   'P 1'
_cell_length_a   10.54840000
_cell_length_b   10.54840000
_cell_length_c   14.72430000
_cell_angle_alpha   90.57040000
_cell_angle_beta   90.57040000
_cell_angle_gamma   105.63500000
_symmetry_Int_Tables_number   1
_chemical_formula_structural   Tb2H12C15(NO2)6
_chemical_formula_sum   'Tb4 H24 C30 N12 O24'
_cell_volume   1577.51807870
_cell_formula_units_Z   2
loop_
 _symmetry_equiv_pos_site_id
 _symmetry_equiv_pos_as_xyz
  1  'x, y, z'
loop_
 _atom_site_type_symbol
 _atom_site_label
 _atom_site_symmetry_multiplicity
 _atom_site_fract_x
 _atom_site_fract_y
 _atom_site_fract_z
 _atom_site_occupancy
 _atom_site_charge
  Tb  Tb1  1  0.572500  0.674720  0.557540  1.0  2.2483
  Tb  Tb2  1  0.825280  0.927500  0.942460  1.0  2.2474
  Tb  Tb3  1  0.427500  0.325280  0.442460  1.0  2.2468
  Tb  Tb4  1  0.174720  0.072500  0.057540  1.0  2.2479
  H  H5  1  0.789000  0.559800  0.287300  1.0  0.1073
  H  H6  1  0.645200  0.552600  0.254700  1.0  0.1124
  H  H7  1  0.321000  0.613600  0.247900  1.0  0.1277
  H  H8  1  0.205400  0.641200  0.303600  1.0  0.1161
  H  H9  1  0.324200  0.962000  0.341200  1.0  0.1155
  H  H10  1  0.196300  0.845500  0.331400  1.0  0.1154
  H  H11  1  0.940200  0.711000  0.212700  1.0  0.1056
  H  H12  1  0.947400  0.854800  0.245300  1.0  0.1128
  H  H13  1  0.886400  0.179000  0.252100  1.0  0.1265
  H  H14  1  0.858800  0.294600  0.196400  1.0  0.1171
  H  H15  1  0.538000  0.175800  0.158800  1.0  0.1172
  H  H16  1  0.654500  0.303700  0.168600  1.0  0.1149
  H  H17  1  0.211000  0.440200  0.712700  1.0  0.107
  H  H18  1  0.354800  0.447400  0.745300  1.0  0.1128
  H  H19  1  0.679000  0.386400  0.752100  1.0  0.1273
  H  H20  1  0.794600  0.358800  0.696400  1.0  0.1149
  H  H21  1  0.675800  0.038000  0.658800  1.0  0.1159
  H  H22  1  0.803700  0.154500  0.668600  1.0  0.1154
  H  H23  1  0.059800  0.289000  0.787300  1.0  0.1066
  H  H24  1  0.052600  0.145200  0.754700  1.0  0.1125
  H  H25  1  0.113600  0.821000  0.747900  1.0  0.1269
  H  H26  1  0.141200  0.705400  0.803600  1.0  0.1168
  H  H27  1  0.462000  0.824200  0.841200  1.0  0.1147
  H  H28  1  0.345500  0.696300  0.831400  1.0  0.1155
  C  C29  1  0.485800  0.845600  0.269200  1.0  0.5655
  C  C30  1  0.719900  0.604500  0.289600  1.0  -0.2073
  C  C31  1  0.679400  0.615200  0.388400  1.0  0.7551
  C  C32  1  0.300300  0.658500  0.301300  1.0  -0.2031
  C  C33  1  0.347100  0.599700  0.385100  1.0  0.7751
  C  C34  1  0.277500  0.890300  0.301600  1.0  -0.1965
  C  C35  1  0.243200  0.947200  0.214000  1.0  0.7239
  C  C36  1  0.654400  0.014200  0.230800  1.0  0.5659
  C  C37  1  0.895500  0.780100  0.210400  1.0  -0.2044
  C  C38  1  0.884800  0.820600  0.111600  1.0  0.7555
  C  C39  1  0.841500  0.199700  0.198700  1.0  -0.2051
  C  C40  1  0.900300  0.152900  0.114900  1.0  0.7721
  C  C41  1  0.609700  0.222500  0.198400  1.0  -0.1967
  C  C42  1  0.552800  0.256800  0.286000  1.0  0.7246
  C  C43  1  0.514200  0.154400  0.730800  1.0  0.5655
  C  C44  1  0.280100  0.395500  0.710400  1.0  -0.2075
  C  C45  1  0.320600  0.384800  0.611600  1.0  0.7557
  C  C46  1  0.699700  0.341500  0.698700  1.0  -0.2045
  C  C47  1  0.652900  0.400300  0.614900  1.0  0.7729
  C  C48  1  0.722500  0.109700  0.698400  1.0  -0.1964
  C  C49  1  0.756800  0.052800  0.786000  1.0  0.7249
  C  C50  1  0.345600  0.985800  0.769200  1.0  0.5666
  C  C51  1  0.104500  0.219900  0.789600  1.0  -0.2042
  C  C52  1  0.115200  0.179400  0.888400  1.0  0.7543
  C  C53  1  0.158500  0.800300  0.801300  1.0  -0.2045
  C  C54  1  0.099700  0.847100  0.885100  1.0  0.7723
  C  C55  1  0.390300  0.777500  0.801600  1.0  -0.1973
  C  C56  1  0.447200  0.743200  0.714000  1.0  0.7244
  C  C57  1  0.685600  0.814400  0.250000  1.0  0.5725
  C  C58  1  0.314400  0.185600  0.750000  1.0  0.5715
  N  N59  1  0.558980  0.759820  0.269000  1.0  -0.6424
  N  N60  1  0.356950  0.798850  0.291000  1.0  -0.0983
  N  N61  1  0.740180  0.941020  0.231000  1.0  -0.639
  N  N62  1  0.701150  0.143050  0.209000  1.0  -0.0987
  N  N63  1  0.441020  0.240180  0.731000  1.0  -0.6412
  N  N64  1  0.643050  0.201150  0.709000  1.0  -0.0976
  N  N65  1  0.259820  0.058980  0.769000  1.0  -0.6405
  N  N66  1  0.298850  0.856950  0.791000  1.0  -0.0983
  N  N67  1  0.526500  0.973500  0.250000  1.0  -0.6556
  N  N68  1  0.766400  0.733600  0.250000  1.0  -0.1171
  N  N69  1  0.473500  0.026500  0.750000  1.0  -0.6567
  N  N70  1  0.233600  0.266400  0.750000  1.0  -0.1209
  O  O71  1  0.735280  0.712840  0.435960  1.0  -0.6733
  O  O72  1  0.589320  0.523480  0.420600  1.0  -0.8221
  O  O73  1  0.408220  0.675460  0.446340  1.0  -0.7309
  O  O74  1  0.318160  0.475500  0.385430  1.0  -0.7352
  O  O75  1  0.203550  0.050930  0.219840  1.0  -0.7021
  O  O76  1  0.248640  0.895540  0.138190  1.0  -0.6473
  O  O77  1  0.787160  0.764720  0.064040  1.0  -0.6767
  O  O78  1  0.976520  0.910680  0.079400  1.0  -0.82
  O  O79  1  0.824540  0.091780  0.053660  1.0  -0.7259
  O  O80  1  0.024500  0.181840  0.114570  1.0  -0.741
  O  O81  1  0.449070  0.296450  0.280160  1.0  -0.7007
  O  O82  1  0.604460  0.251360  0.361810  1.0  -0.6482
  O  O83  1  0.264720  0.287160  0.564040  1.0  -0.6791
  O  O84  1  0.410680  0.476520  0.579400  1.0  -0.823
  O  O85  1  0.591780  0.324540  0.553660  1.0  -0.7289
  O  O86  1  0.681840  0.524500  0.614570  1.0  -0.7391
  O  O87  1  0.796450  0.949070  0.780160  1.0  -0.6991
  O  O88  1  0.751360  0.104460  0.861810  1.0  -0.6517
  O  O89  1  0.212840  0.235280  0.935960  1.0  -0.6756
  O  O90  1  0.023480  0.089320  0.920600  1.0  -0.8218
  O  O91  1  0.175460  0.908220  0.946340  1.0  -0.7263
  O  O92  1  0.975500  0.818160  0.885430  1.0  -0.7373
  O  O93  1  0.550930  0.703550  0.719840  1.0  -0.6984
  O  O94  1  0.395540  0.748640  0.638190  1.0  -0.6462
