# generated using pymatgen
data_Eu2H12C15(NO2)6
_symmetry_space_group_name_H-M   'P 1'
_cell_length_a   10.57510000
_cell_length_b   10.57510000
_cell_length_c   14.80130000
_cell_angle_alpha   90.60700000
_cell_angle_beta   90.60700000
_cell_angle_gamma   105.77300000
_symmetry_Int_Tables_number   1
_chemical_formula_structural   Eu2H12C15(NO2)6
_chemical_formula_sum   'Eu4 H24 C30 N12 O24'
_cell_volume   1592.69718879
_cell_formula_units_Z   2
loop_
 _symmetry_equiv_pos_site_id
 _symmetry_equiv_pos_as_xyz
  1  'x, y, z'
loop_
 _atom_site_type_symbol
 _atom_site_label
 _atom_site_symmetry_multiplicity
 _atom_site_fract_x
 _atom_site_fract_y
 _atom_site_fract_z
 _atom_site_occupancy
 _atom_site_charge
  Eu  Eu1  1  0.572870  0.675710  0.557280  1.0  2.1491
  Eu  Eu2  1  0.824290  0.927130  0.942720  1.0  2.1478
  Eu  Eu3  1  0.427130  0.324290  0.442720  1.0  2.148
  Eu  Eu4  1  0.175710  0.072870  0.057280  1.0  2.1492
  H  H5  1  0.326500  0.960500  0.340100  1.0  0.117
  H  H6  1  0.199000  0.843800  0.331300  1.0  0.1126
  H  H7  1  0.322800  0.612800  0.248500  1.0  0.1307
  H  H8  1  0.206700  0.640900  0.302300  1.0  0.1176
  H  H9  1  0.785900  0.558100  0.287000  1.0  0.116
  H  H10  1  0.642500  0.553900  0.256000  1.0  0.1166
  H  H11  1  0.539500  0.173500  0.159900  1.0  0.1186
  H  H12  1  0.656200  0.301000  0.168700  1.0  0.1116
  H  H13  1  0.887200  0.177200  0.251500  1.0  0.13
  H  H14  1  0.859100  0.293300  0.197700  1.0  0.1185
  H  H15  1  0.941900  0.714100  0.213000  1.0  0.1144
  H  H16  1  0.946100  0.857500  0.244000  1.0  0.1165
  H  H17  1  0.673500  0.039500  0.659900  1.0  0.1168
  H  H18  1  0.801000  0.156200  0.668700  1.0  0.1113
  H  H19  1  0.677200  0.387200  0.751500  1.0  0.1302
  H  H20  1  0.793300  0.359100  0.697700  1.0  0.1176
  H  H21  1  0.214100  0.441900  0.713000  1.0  0.1153
  H  H22  1  0.357500  0.446100  0.744000  1.0  0.1168
  H  H23  1  0.460500  0.826500  0.840100  1.0  0.1158
  H  H24  1  0.343800  0.699000  0.831300  1.0  0.1119
  H  H25  1  0.112800  0.822800  0.748500  1.0  0.1296
  H  H26  1  0.140900  0.706700  0.802300  1.0  0.1184
  H  H27  1  0.058100  0.285900  0.787000  1.0  0.1158
  H  H28  1  0.053900  0.142500  0.756000  1.0  0.1164
  C  C29  1  0.486200  0.844400  0.269100  1.0  0.5972
  C  C30  1  0.279200  0.888600  0.300900  1.0  -0.2228
  C  C31  1  0.242700  0.945900  0.213800  1.0  0.7476
  C  C32  1  0.301500  0.658300  0.301000  1.0  -0.2001
  C  C33  1  0.346300  0.599900  0.385600  1.0  0.7831
  C  C34  1  0.718500  0.604500  0.290300  1.0  -0.196
  C  C35  1  0.680500  0.614500  0.388700  1.0  0.7437
  C  C36  1  0.655600  0.013800  0.230900  1.0  0.5988
  C  C37  1  0.611400  0.220800  0.199100  1.0  -0.2218
  C  C38  1  0.554100  0.257300  0.286200  1.0  0.7477
  C  C39  1  0.841700  0.198500  0.199000  1.0  -0.2021
  C  C40  1  0.900100  0.153700  0.114400  1.0  0.7778
  C  C41  1  0.895500  0.781500  0.209700  1.0  -0.1931
  C  C42  1  0.885500  0.819500  0.111300  1.0  0.7456
  C  C43  1  0.513800  0.155600  0.730900  1.0  0.5973
  C  C44  1  0.720800  0.111400  0.699100  1.0  -0.2232
  C  C45  1  0.757300  0.054100  0.786200  1.0  0.7482
  C  C46  1  0.698500  0.341700  0.699000  1.0  -0.2018
  C  C47  1  0.653700  0.400100  0.614400  1.0  0.7795
  C  C48  1  0.281500  0.395500  0.709700  1.0  -0.1965
  C  C49  1  0.319500  0.385500  0.611300  1.0  0.7462
  C  C50  1  0.344400  0.986200  0.769100  1.0  0.5996
  C  C51  1  0.388600  0.779200  0.800900  1.0  -0.2247
  C  C52  1  0.445900  0.742700  0.713800  1.0  0.7463
  C  C53  1  0.158300  0.801500  0.801000  1.0  -0.2019
  C  C54  1  0.099900  0.846300  0.885600  1.0  0.7797
  C  C55  1  0.104500  0.218500  0.790300  1.0  -0.1926
  C  C56  1  0.114500  0.180500  0.888700  1.0  0.7439
  C  C57  1  0.685700  0.814300  0.250000  1.0  0.4558
  C  C58  1  0.314300  0.185700  0.750000  1.0  0.4552
  N  N59  1  0.558800  0.759600  0.269200  1.0  -0.623
  N  N60  1  0.358000  0.798400  0.289700  1.0  -0.0708
  N  N61  1  0.740400  0.941200  0.230800  1.0  -0.6203
  N  N62  1  0.701600  0.142000  0.210300  1.0  -0.0712
  N  N63  1  0.441200  0.240400  0.730800  1.0  -0.6225
  N  N64  1  0.642000  0.201600  0.710300  1.0  -0.0702
  N  N65  1  0.259600  0.058800  0.769200  1.0  -0.6208
  N  N66  1  0.298400  0.858000  0.789700  1.0  -0.0709
  N  N67  1  0.527900  0.972100  0.250000  1.0  -0.6402
  N  N68  1  0.767100  0.732900  0.250000  1.0  -0.1432
  N  N69  1  0.472100  0.027900  0.750000  1.0  -0.6418
  N  N70  1  0.232900  0.267100  0.750000  1.0  -0.1455
  O  O71  1  0.205000  0.050800  0.219900  1.0  -0.6781
  O  O72  1  0.250500  0.894500  0.137700  1.0  -0.6461
  O  O73  1  0.317300  0.475500  0.384700  1.0  -0.7214
  O  O74  1  0.407000  0.676400  0.445800  1.0  -0.6991
  O  O75  1  0.590100  0.522900  0.421000  1.0  -0.8216
  O  O76  1  0.737800  0.713400  0.435300  1.0  -0.6851
  O  O77  1  0.449200  0.295000  0.280100  1.0  -0.6775
  O  O78  1  0.605500  0.249500  0.362300  1.0  -0.6489
  O  O79  1  0.024500  0.182700  0.115300  1.0  -0.727
  O  O80  1  0.823600  0.093000  0.054200  1.0  -0.6936
  O  O81  1  0.977100  0.909900  0.079000  1.0  -0.8189
  O  O82  1  0.786600  0.762200  0.064700  1.0  -0.6864
  O  O83  1  0.795000  0.949200  0.780100  1.0  -0.6752
  O  O84  1  0.749500  0.105500  0.862300  1.0  -0.6499
  O  O85  1  0.682700  0.524500  0.615300  1.0  -0.7237
  O  O86  1  0.593000  0.323600  0.554200  1.0  -0.6969
  O  O87  1  0.409900  0.477100  0.579000  1.0  -0.821
  O  O88  1  0.262200  0.286600  0.564700  1.0  -0.6886
  O  O89  1  0.550800  0.705000  0.719900  1.0  -0.6758
  O  O90  1  0.394500  0.750500  0.637700  1.0  -0.646
  O  O91  1  0.975500  0.817300  0.884700  1.0  -0.7229
  O  O92  1  0.176400  0.907000  0.945800  1.0  -0.6947
  O  O93  1  0.022900  0.090100  0.921000  1.0  -0.8202
  O  O94  1  0.213400  0.237800  0.935300  1.0  -0.6874
