# generated using pymatgen
data_Cd3H4(C5O4)4
_symmetry_space_group_name_H-M   'P 1'
_cell_length_a   20.74500000
_cell_length_b   8.32550000
_cell_length_c   17.34350000
_cell_angle_alpha   90.00000000
_cell_angle_beta   90.00000000
_cell_angle_gamma   90.00000000
_symmetry_Int_Tables_number   1
_chemical_formula_structural   Cd3H4(C5O4)4
_chemical_formula_sum   'Cd12 H16 C80 O64'
_cell_volume   2995.43920039
_cell_formula_units_Z   4
loop_
 _symmetry_equiv_pos_site_id
 _symmetry_equiv_pos_as_xyz
  1  'x, y, z'
loop_
 _atom_site_type_symbol
 _atom_site_label
 _atom_site_symmetry_multiplicity
 _atom_site_fract_x
 _atom_site_fract_y
 _atom_site_fract_z
 _atom_site_occupancy
 _atom_site_charge
  Cd  Cd1  1  0.500000  0.000000  0.250000  1.0  1.0406
  Cd  Cd2  1  0.000000  0.500000  0.750000  1.0  1.0406
  Cd  Cd3  1  0.500000  0.000000  0.750000  1.0  1.0406
  Cd  Cd4  1  0.000000  0.500000  0.250000  1.0  1.0406
  Cd  Cd5  1  0.202490  0.500000  0.250000  1.0  0.9993
  Cd  Cd6  1  0.797510  0.500000  0.250000  1.0  0.9995
  Cd  Cd7  1  0.297510  0.000000  0.750000  1.0  0.9995
  Cd  Cd8  1  0.702490  0.000000  0.750000  1.0  0.9993
  Cd  Cd9  1  0.797510  0.500000  0.750000  1.0  0.9999
  Cd  Cd10  1  0.202490  0.500000  0.750000  1.0  0.9996
  Cd  Cd11  1  0.702490  0.000000  0.250000  1.0  0.9996
  Cd  Cd12  1  0.297510  0.000000  0.250000  1.0  0.9999
  H  H13  1  0.439900  0.053000  0.500000  1.0  0.1571
  H  H14  1  0.262800  0.388100  0.500000  1.0  0.1479
  H  H15  1  0.939900  0.553000  0.000000  1.0  0.1571
  H  H16  1  0.762800  0.888100  0.000000  1.0  0.1479
  H  H17  1  0.560100  0.947000  0.500000  1.0  0.1571
  H  H18  1  0.737200  0.611900  0.500000  1.0  0.1477
  H  H19  1  0.060100  0.447000  0.000000  1.0  0.1571
  H  H20  1  0.237200  0.111900  0.000000  1.0  0.1477
  H  H21  1  0.060100  0.553000  0.500000  1.0  0.1571
  H  H22  1  0.237200  0.888100  0.500000  1.0  0.1475
  H  H23  1  0.560100  0.053000  0.000000  1.0  0.1571
  H  H24  1  0.737200  0.388100  0.000000  1.0  0.1475
  H  H25  1  0.939900  0.447000  0.500000  1.0  0.1569
  H  H26  1  0.762800  0.111900  0.500000  1.0  0.1479
  H  H27  1  0.439900  0.947000  0.000000  1.0  0.1569
  H  H28  1  0.262800  0.611900  0.000000  1.0  0.1479
  C  C29  1  0.410900  0.101300  0.359900  1.0  0.7497
  C  C30  1  0.376490  0.163800  0.429800  1.0  0.0089
  C  C31  1  0.322460  0.265200  0.429600  1.0  -0.0699
  C  C32  1  0.294440  0.323200  0.354600  1.0  0.7488
  C  C33  1  0.910900  0.601300  0.859900  1.0  0.7497
  C  C34  1  0.876490  0.663800  0.929800  1.0  0.0089
  C  C35  1  0.822460  0.765200  0.929600  1.0  -0.0699
  C  C36  1  0.794440  0.823200  0.854600  1.0  0.7488
  C  C37  1  0.589100  0.898700  0.359900  1.0  0.753
  C  C38  1  0.623510  0.836200  0.429800  1.0  0.0084
  C  C39  1  0.677540  0.734800  0.429600  1.0  -0.0712
  C  C40  1  0.705560  0.676800  0.354600  1.0  0.7478
  C  C41  1  0.089100  0.398700  0.859900  1.0  0.753
  C  C42  1  0.123510  0.336200  0.929800  1.0  0.0084
  C  C43  1  0.177540  0.234800  0.929600  1.0  -0.0712
  C  C44  1  0.205560  0.176800  0.854600  1.0  0.7478
  C  C45  1  0.089100  0.601300  0.640100  1.0  0.7536
  C  C46  1  0.123510  0.663800  0.570200  1.0  0.0096
  C  C47  1  0.177540  0.765200  0.570400  1.0  -0.0702
  C  C48  1  0.205560  0.823200  0.645400  1.0  0.7489
  C  C49  1  0.589100  0.101300  0.140100  1.0  0.7536
  C  C50  1  0.623510  0.163800  0.070200  1.0  0.0096
  C  C51  1  0.677540  0.265200  0.070400  1.0  -0.0702
  C  C52  1  0.705560  0.323200  0.145400  1.0  0.7489
  C  C53  1  0.910900  0.398700  0.640100  1.0  0.7519
  C  C54  1  0.876490  0.336200  0.570200  1.0  0.0097
  C  C55  1  0.822460  0.234800  0.570400  1.0  -0.0716
  C  C56  1  0.794440  0.176800  0.645400  1.0  0.7495
  C  C57  1  0.410900  0.898700  0.140100  1.0  0.7519
  C  C58  1  0.376490  0.836200  0.070200  1.0  0.0097
  C  C59  1  0.322460  0.734800  0.070400  1.0  -0.0716
  C  C60  1  0.294440  0.676800  0.145400  1.0  0.7495
  C  C61  1  0.589100  0.898700  0.640100  1.0  0.7544
  C  C62  1  0.623510  0.836200  0.570200  1.0  0.0099
  C  C63  1  0.677540  0.734800  0.570400  1.0  -0.0716
  C  C64  1  0.705560  0.676800  0.645400  1.0  0.7495
  C  C65  1  0.089100  0.398700  0.140100  1.0  0.7544
  C  C66  1  0.123510  0.336200  0.070200  1.0  0.0099
  C  C67  1  0.177540  0.234800  0.070400  1.0  -0.0716
  C  C68  1  0.205560  0.176800  0.145400  1.0  0.7495
  C  C69  1  0.410900  0.101300  0.640100  1.0  0.751
  C  C70  1  0.376490  0.163800  0.570200  1.0  0.0097
  C  C71  1  0.322460  0.265200  0.570400  1.0  -0.0706
  C  C72  1  0.294440  0.323200  0.645400  1.0  0.7489
  C  C73  1  0.910900  0.601300  0.140100  1.0  0.751
  C  C74  1  0.876490  0.663800  0.070200  1.0  0.0097
  C  C75  1  0.822460  0.765200  0.070400  1.0  -0.0706
  C  C76  1  0.794440  0.823200  0.145400  1.0  0.7489
  C  C77  1  0.910900  0.398700  0.359900  1.0  0.7503
  C  C78  1  0.876490  0.336200  0.429800  1.0  0.0088
  C  C79  1  0.822460  0.234800  0.429600  1.0  -0.0716
  C  C80  1  0.794440  0.176800  0.354600  1.0  0.7482
  C  C81  1  0.410900  0.898700  0.859900  1.0  0.7503
  C  C82  1  0.376490  0.836200  0.929800  1.0  0.0088
  C  C83  1  0.322460  0.734800  0.929600  1.0  -0.0716
  C  C84  1  0.294440  0.676800  0.854600  1.0  0.7482
  C  C85  1  0.089100  0.601300  0.359900  1.0  0.7525
  C  C86  1  0.123510  0.663800  0.429800  1.0  0.0083
  C  C87  1  0.177540  0.765200  0.429600  1.0  -0.0702
  C  C88  1  0.205560  0.823200  0.354600  1.0  0.7486
  C  C89  1  0.589100  0.101300  0.859900  1.0  0.7525
  C  C90  1  0.623510  0.163800  0.929800  1.0  0.0083
  C  C91  1  0.677540  0.265200  0.929600  1.0  -0.0702
  C  C92  1  0.705560  0.323200  0.854600  1.0  0.7486
  C  C93  1  0.403200  0.117100  0.500000  1.0  -0.0508
  C  C94  1  0.297400  0.316900  0.500000  1.0  0.0646
  C  C95  1  0.903200  0.617100  0.000000  1.0  -0.0508
  C  C96  1  0.797400  0.816900  0.000000  1.0  0.0646
  C  C97  1  0.596800  0.882900  0.500000  1.0  -0.0513
  C  C98  1  0.702600  0.683100  0.500000  1.0  0.0644
  C  C99  1  0.096800  0.382900  0.000000  1.0  -0.0513
  C  C100  1  0.202600  0.183100  0.000000  1.0  0.0644
  C  C101  1  0.096800  0.617100  0.500000  1.0  -0.0516
  C  C102  1  0.202600  0.816900  0.500000  1.0  0.065
  C  C103  1  0.596800  0.117100  0.000000  1.0  -0.0516
  C  C104  1  0.702600  0.316900  0.000000  1.0  0.065
  C  C105  1  0.903200  0.382900  0.500000  1.0  -0.0505
  C  C106  1  0.797400  0.183100  0.500000  1.0  0.0638
  C  C107  1  0.403200  0.882900  0.000000  1.0  -0.0505
  C  C108  1  0.297400  0.683100  0.000000  1.0  0.0638
  O  O109  1  0.460040  0.175700  0.338230  1.0  -0.5264
  O  O110  1  0.392830  0.969200  0.330700  1.0  -0.6602
  O  O111  1  0.313630  0.261600  0.293010  1.0  -0.6205
  O  O112  1  0.254460  0.435300  0.357860  1.0  -0.5508
  O  O113  1  0.960040  0.675700  0.838230  1.0  -0.5264
  O  O114  1  0.892830  0.469200  0.830700  1.0  -0.6602
  O  O115  1  0.813630  0.761600  0.793010  1.0  -0.6205
  O  O116  1  0.754460  0.935300  0.857860  1.0  -0.5508
  O  O117  1  0.539960  0.824300  0.338230  1.0  -0.527
  O  O118  1  0.607170  0.030800  0.330700  1.0  -0.6604
  O  O119  1  0.686370  0.738400  0.293010  1.0  -0.6208
  O  O120  1  0.745540  0.564700  0.357860  1.0  -0.5491
  O  O121  1  0.039960  0.324300  0.838230  1.0  -0.527
  O  O122  1  0.107170  0.530800  0.830700  1.0  -0.6604
  O  O123  1  0.186370  0.238400  0.793010  1.0  -0.6208
  O  O124  1  0.245540  0.064700  0.857860  1.0  -0.5491
  O  O125  1  0.039960  0.675700  0.661770  1.0  -0.5254
  O  O126  1  0.107170  0.469200  0.669300  1.0  -0.6598
  O  O127  1  0.186370  0.761600  0.706990  1.0  -0.6229
  O  O128  1  0.245540  0.935300  0.642140  1.0  -0.5503
  O  O129  1  0.539960  0.175700  0.161770  1.0  -0.5254
  O  O130  1  0.607170  0.969200  0.169300  1.0  -0.6598
  O  O131  1  0.686370  0.261600  0.206990  1.0  -0.6229
  O  O132  1  0.745540  0.435300  0.142140  1.0  -0.5503
  O  O133  1  0.960040  0.324300  0.661770  1.0  -0.5261
  O  O134  1  0.892830  0.530800  0.669300  1.0  -0.661
  O  O135  1  0.813630  0.238400  0.706990  1.0  -0.6212
  O  O136  1  0.754460  0.064700  0.642140  1.0  -0.5506
  O  O137  1  0.460040  0.824300  0.161770  1.0  -0.5261
  O  O138  1  0.392830  0.030800  0.169300  1.0  -0.661
  O  O139  1  0.313630  0.738400  0.206990  1.0  -0.6212
  O  O140  1  0.254460  0.564700  0.142140  1.0  -0.5506
  O  O141  1  0.539960  0.824300  0.661770  1.0  -0.5267
  O  O142  1  0.607170  0.030800  0.669300  1.0  -0.6608
  O  O143  1  0.686370  0.738400  0.706990  1.0  -0.6221
  O  O144  1  0.745540  0.564700  0.642140  1.0  -0.5494
  O  O145  1  0.039960  0.324300  0.161770  1.0  -0.5267
  O  O146  1  0.107170  0.530800  0.169300  1.0  -0.6608
  O  O147  1  0.186370  0.238400  0.206990  1.0  -0.6221
  O  O148  1  0.245540  0.064700  0.142140  1.0  -0.5494
  O  O149  1  0.460040  0.175700  0.661770  1.0  -0.5266
  O  O150  1  0.392830  0.969200  0.669300  1.0  -0.6604
  O  O151  1  0.313630  0.261600  0.706990  1.0  -0.6219
  O  O152  1  0.254460  0.435300  0.642140  1.0  -0.5512
  O  O153  1  0.960040  0.675700  0.161770  1.0  -0.5266
  O  O154  1  0.892830  0.469200  0.169300  1.0  -0.6604
  O  O155  1  0.813630  0.761600  0.206990  1.0  -0.6219
  O  O156  1  0.754460  0.935300  0.142140  1.0  -0.5512
  O  O157  1  0.960040  0.324300  0.338230  1.0  -0.5264
  O  O158  1  0.892830  0.530800  0.330700  1.0  -0.6608
  O  O159  1  0.813630  0.238400  0.293010  1.0  -0.6205
  O  O160  1  0.754460  0.064700  0.357860  1.0  -0.5503
  O  O161  1  0.460040  0.824300  0.838230  1.0  -0.5264
  O  O162  1  0.392830  0.030800  0.830700  1.0  -0.6608
  O  O163  1  0.313630  0.738400  0.793010  1.0  -0.6205
  O  O164  1  0.254460  0.564700  0.857860  1.0  -0.5503
  O  O165  1  0.039960  0.675700  0.338230  1.0  -0.5252
  O  O166  1  0.107170  0.469200  0.330700  1.0  -0.6596
  O  O167  1  0.186370  0.761600  0.293010  1.0  -0.6207
  O  O168  1  0.245540  0.935300  0.357860  1.0  -0.55
  O  O169  1  0.539960  0.175700  0.838230  1.0  -0.5252
  O  O170  1  0.607170  0.969200  0.830700  1.0  -0.6596
  O  O171  1  0.686370  0.261600  0.793010  1.0  -0.6207
  O  O172  1  0.745540  0.435300  0.857860  1.0  -0.55
