# generated using pymatgen
data_Dy2H12C15(NO2)6
_symmetry_space_group_name_H-M   'P 1'
_cell_length_a   10.56210000
_cell_length_b   10.56210000
_cell_length_c   14.80200000
_cell_angle_alpha   90.59680000
_cell_angle_beta   90.59680000
_cell_angle_gamma   105.76100000
_symmetry_Int_Tables_number   1
_chemical_formula_structural   Dy2H12C15(NO2)6
_chemical_formula_sum   'Dy4 H24 C30 N12 O24'
_cell_volume   1588.96110941
_cell_formula_units_Z   2
loop_
 _symmetry_equiv_pos_site_id
 _symmetry_equiv_pos_as_xyz
  1  'x, y, z'
loop_
 _atom_site_type_symbol
 _atom_site_label
 _atom_site_symmetry_multiplicity
 _atom_site_fract_x
 _atom_site_fract_y
 _atom_site_fract_z
 _atom_site_occupancy
 _atom_site_charge
  Dy  Dy1  1  0.823570  0.426730  0.442910  1.0  2.2848
  Dy  Dy2  1  0.573270  0.176430  0.057090  1.0  2.2857
  Dy  Dy3  1  0.176430  0.573270  0.557090  1.0  2.2855
  Dy  Dy4  1  0.426730  0.823570  0.942910  1.0  2.2849
  H  H5  1  0.947000  0.353400  0.745600  1.0  0.1122
  H  H6  1  0.939000  0.209200  0.713600  1.0  0.1071
  H  H7  1  0.861100  0.793300  0.699900  1.0  0.1256
  H  H8  1  0.887700  0.675300  0.752800  1.0  0.1368
  H  H9  1  0.656400  0.802000  0.670100  1.0  0.1184
  H  H10  1  0.539900  0.674100  0.659900  1.0  0.1191
  H  H11  1  0.646600  0.053000  0.754400  1.0  0.1112
  H  H12  1  0.790800  0.061000  0.786400  1.0  0.1092
  H  H13  1  0.206700  0.138900  0.800100  1.0  0.1236
  H  H14  1  0.324700  0.112300  0.747200  1.0  0.1385
  H  H15  1  0.198000  0.343600  0.829900  1.0  0.1192
  H  H16  1  0.325900  0.460100  0.840100  1.0  0.1174
  H  H17  1  0.053000  0.646600  0.254400  1.0  0.1119
  H  H18  1  0.061000  0.790800  0.286400  1.0  0.1101
  H  H19  1  0.138900  0.206700  0.300100  1.0  0.1258
  H  H20  1  0.112300  0.324700  0.247200  1.0  0.1378
  H  H21  1  0.343600  0.198000  0.329900  1.0  0.1188
  H  H22  1  0.460100  0.325900  0.340100  1.0  0.1165
  H  H23  1  0.353400  0.947000  0.245600  1.0  0.1124
  H  H24  1  0.209200  0.939000  0.213600  1.0  0.11
  H  H25  1  0.793300  0.861100  0.199900  1.0  0.1224
  H  H26  1  0.675300  0.887700  0.252800  1.0  0.1378
  H  H27  1  0.802000  0.656400  0.170100  1.0  0.1187
  H  H28  1  0.674100  0.539900  0.159900  1.0  0.1171
  C  C29  1  0.655000  0.513600  0.731500  1.0  0.5897
  C  C30  1  0.894800  0.278400  0.711100  1.0  -0.2037
  C  C31  1  0.882700  0.318500  0.611400  1.0  0.7699
  C  C32  1  0.842800  0.698200  0.700600  1.0  -0.2382
  C  C33  1  0.898000  0.653200  0.616500  1.0  0.815
  C  C34  1  0.611300  0.720900  0.699600  1.0  -0.197
  C  C35  1  0.554100  0.754700  0.786000  1.0  0.7118
  C  C36  1  0.486400  0.345000  0.768500  1.0  0.5888
  C  C37  1  0.721600  0.105200  0.788900  1.0  -0.2048
  C  C38  1  0.681500  0.117300  0.888600  1.0  0.7696
  C  C39  1  0.301800  0.157200  0.799400  1.0  -0.2357
  C  C40  1  0.346800  0.102000  0.883500  1.0  0.8193
  C  C41  1  0.279100  0.388700  0.800400  1.0  -0.1974
  C  C42  1  0.245300  0.445900  0.714000  1.0  0.7117
  C  C43  1  0.345000  0.486400  0.268500  1.0  0.5903
  C  C44  1  0.105200  0.721600  0.288900  1.0  -0.2039
  C  C45  1  0.117300  0.681500  0.388600  1.0  0.7697
  C  C46  1  0.157200  0.301800  0.299400  1.0  -0.2376
  C  C47  1  0.102000  0.346800  0.383500  1.0  0.8177
  C  C48  1  0.388700  0.279100  0.300400  1.0  -0.1981
  C  C49  1  0.445900  0.245300  0.214000  1.0  0.7122
  C  C50  1  0.513600  0.655000  0.231500  1.0  0.5886
  C  C51  1  0.278400  0.894800  0.211100  1.0  -0.2051
  C  C52  1  0.318500  0.882700  0.111400  1.0  0.7695
  C  C53  1  0.698200  0.842800  0.200600  1.0  -0.2369
  C  C54  1  0.653200  0.898000  0.116500  1.0  0.8149
  C  C55  1  0.720900  0.611300  0.199600  1.0  -0.1972
  C  C56  1  0.754700  0.554100  0.286000  1.0  0.7114
  C  C57  1  0.687300  0.312700  0.750000  1.0  0.5753
  C  C58  1  0.312700  0.687300  0.250000  1.0  0.5744
  N  N59  1  0.742000  0.440400  0.730800  1.0  -0.6606
  N  N60  1  0.702100  0.641900  0.710500  1.0  -0.0782
  N  N61  1  0.559600  0.258000  0.769200  1.0  -0.663
  N  N62  1  0.358100  0.297900  0.789500  1.0  -0.0772
  N  N63  1  0.258000  0.559600  0.269200  1.0  -0.6614
  N  N64  1  0.297900  0.358100  0.289500  1.0  -0.0773
  N  N65  1  0.440400  0.742000  0.230800  1.0  -0.6626
  N  N66  1  0.641900  0.702100  0.210500  1.0  -0.0767
  N  N67  1  0.527500  0.472500  0.750000  1.0  -0.6341
  N  N68  1  0.766900  0.233100  0.750000  1.0  -0.0429
  N  N69  1  0.472500  0.527500  0.250000  1.0  -0.635
  N  N70  1  0.233100  0.766900  0.250000  1.0  -0.0476
  O  O71  1  0.975300  0.409100  0.580100  1.0  -0.8632
  O  O72  1  0.787900  0.260500  0.565100  1.0  -0.6869
  O  O73  1  0.023500  0.682100  0.615100  1.0  -0.7476
  O  O74  1  0.823600  0.594200  0.554300  1.0  -0.7456
  O  O75  1  0.451500  0.795300  0.779200  1.0  -0.7523
  O  O76  1  0.604000  0.749400  0.860700  1.0  -0.6706
  O  O77  1  0.590900  0.024700  0.919900  1.0  -0.866
  O  O78  1  0.739500  0.212100  0.934900  1.0  -0.6779
  O  O79  1  0.317900  0.976500  0.884900  1.0  -0.7428
  O  O80  1  0.405800  0.176400  0.945700  1.0  -0.7518
  O  O81  1  0.204700  0.548500  0.720800  1.0  -0.7511
  O  O82  1  0.250600  0.396000  0.639300  1.0  -0.6707
  O  O83  1  0.024700  0.590900  0.419900  1.0  -0.8641
  O  O84  1  0.212100  0.739500  0.434900  1.0  -0.6822
  O  O85  1  0.976500  0.317900  0.384900  1.0  -0.7365
  O  O86  1  0.176400  0.405800  0.445700  1.0  -0.7475
  O  O87  1  0.548500  0.204700  0.220800  1.0  -0.7506
  O  O88  1  0.396000  0.250600  0.139300  1.0  -0.6698
  O  O89  1  0.409100  0.975300  0.080100  1.0  -0.8658
  O  O90  1  0.260500  0.787900  0.065100  1.0  -0.6907
  O  O91  1  0.682100  0.023500  0.115100  1.0  -0.7427
  O  O92  1  0.594200  0.823600  0.054300  1.0  -0.7503
  O  O93  1  0.795300  0.451500  0.279200  1.0  -0.7471
  O  O94  1  0.749400  0.604000  0.360700  1.0  -0.6722
