# generated using pymatgen
data_AgH14(C5N2)2
_symmetry_space_group_name_H-M   'P 1'
_cell_length_a   13.02200000
_cell_length_b   18.75500000
_cell_length_c   13.40300000
_cell_angle_alpha   90.00000000
_cell_angle_beta   107.72000000
_cell_angle_gamma   90.00000000
_symmetry_Int_Tables_number   1
_chemical_formula_structural   AgH14(C5N2)2
_chemical_formula_sum   'Ag8 H112 C80 N32'
_cell_volume   3118.07798448
_cell_formula_units_Z   8
loop_
 _symmetry_equiv_pos_site_id
 _symmetry_equiv_pos_as_xyz
  1  'x, y, z'
loop_
 _atom_site_type_symbol
 _atom_site_label
 _atom_site_symmetry_multiplicity
 _atom_site_fract_x
 _atom_site_fract_y
 _atom_site_fract_z
 _atom_site_occupancy
 _atom_site_charge
  Ag  Ag1  1  0.002130  0.015810  0.880260  1.0  0.224
  Ag  Ag2  1  0.997870  0.015810  0.619740  1.0  0.222
  Ag  Ag3  1  0.497870  0.484190  0.119740  1.0  0.2215
  Ag  Ag4  1  0.502130  0.484190  0.380260  1.0  0.2238
  Ag  Ag5  1  0.502130  0.515810  0.880260  1.0  0.224
  Ag  Ag6  1  0.497870  0.515810  0.619740  1.0  0.222
  Ag  Ag7  1  0.997870  0.984190  0.119740  1.0  0.2215
  Ag  Ag8  1  0.002130  0.984190  0.380260  1.0  0.2238
  H  H9  1  0.257800  0.993900  0.686500  1.0  0.0902
  H  H10  1  0.104700  0.162500  0.741000  1.0  0.0717
  H  H11  1  0.293700  0.175400  0.844500  1.0  0.1167
  H  H12  1  0.445200  0.056800  0.906800  1.0  0.0639
  H  H13  1  0.447900  0.015000  0.806000  1.0  0.0594
  H  H14  1  0.523500  0.163600  0.675400  1.0  0.069
  H  H15  1  0.425700  0.110700  0.647600  1.0  0.0516
  H  H16  1  0.919500  0.863600  0.659300  1.0  0.084
  H  H17  1  0.723200  0.017900  0.525800  1.0  0.0917
  H  H18  1  0.612600  0.916900  0.544600  1.0  0.1036
  H  H19  1  0.788000  0.768700  0.678800  1.0  0.0646
  H  H20  1  0.666100  0.790200  0.650900  1.0  0.0636
  H  H21  1  0.859700  0.731000  0.526000  1.0  0.0602
  H  H22  1  0.810900  0.799800  0.463000  1.0  0.0524
  H  H23  1  0.742200  0.993900  0.813500  1.0  0.0903
  H  H24  1  0.895300  0.162500  0.759000  1.0  0.0711
  H  H25  1  0.706300  0.175400  0.655500  1.0  0.1171
  H  H26  1  0.554800  0.056800  0.593200  1.0  0.0629
  H  H27  1  0.552100  0.015000  0.694000  1.0  0.0607
  H  H28  1  0.476500  0.163600  0.824600  1.0  0.0684
  H  H29  1  0.574300  0.110700  0.852400  1.0  0.0538
  H  H30  1  0.080500  0.863600  0.840700  1.0  0.0832
  H  H31  1  0.276800  0.017900  0.974200  1.0  0.0924
  H  H32  1  0.387400  0.916900  0.955400  1.0  0.1032
  H  H33  1  0.212000  0.768700  0.821200  1.0  0.0641
  H  H34  1  0.333900  0.790200  0.849100  1.0  0.0631
  H  H35  1  0.140300  0.731000  0.974000  1.0  0.0567
  H  H36  1  0.189100  0.799800  0.037000  1.0  0.0516
  H  H37  1  0.242200  0.506100  0.313500  1.0  0.0889
  H  H38  1  0.395300  0.337500  0.259000  1.0  0.0711
  H  H39  1  0.206300  0.324600  0.155500  1.0  0.1162
  H  H40  1  0.054800  0.443200  0.093200  1.0  0.0634
  H  H41  1  0.052100  0.485000  0.194000  1.0  0.059
  H  H42  1  0.976500  0.336400  0.324600  1.0  0.0694
  H  H43  1  0.074300  0.389300  0.352400  1.0  0.054
  H  H44  1  0.580500  0.636400  0.340700  1.0  0.0828
  H  H45  1  0.776800  0.482100  0.474200  1.0  0.0925
  H  H46  1  0.887400  0.583100  0.455400  1.0  0.1034
  H  H47  1  0.712000  0.731300  0.321200  1.0  0.0637
  H  H48  1  0.833900  0.709800  0.349100  1.0  0.0634
  H  H49  1  0.640300  0.769000  0.474000  1.0  0.0566
  H  H50  1  0.689100  0.700200  0.537000  1.0  0.0504
  H  H51  1  0.757800  0.506100  0.186500  1.0  0.0891
  H  H52  1  0.604700  0.337500  0.241000  1.0  0.0712
  H  H53  1  0.793700  0.324600  0.344500  1.0  0.1164
  H  H54  1  0.945200  0.443200  0.406800  1.0  0.0635
  H  H55  1  0.947900  0.485000  0.306000  1.0  0.0591
  H  H56  1  0.023500  0.336400  0.175400  1.0  0.0693
  H  H57  1  0.925700  0.389300  0.147600  1.0  0.0517
  H  H58  1  0.419500  0.636400  0.159300  1.0  0.0838
  H  H59  1  0.223200  0.482100  0.025800  1.0  0.0916
  H  H60  1  0.112600  0.583100  0.044600  1.0  0.1039
  H  H61  1  0.288000  0.731300  0.178800  1.0  0.0649
  H  H62  1  0.166100  0.709800  0.150900  1.0  0.0638
  H  H63  1  0.359700  0.769000  0.026000  1.0  0.0606
  H  H64  1  0.310900  0.700200  0.963000  1.0  0.0526
  H  H65  1  0.757800  0.493900  0.686500  1.0  0.0902
  H  H66  1  0.604700  0.662500  0.741000  1.0  0.0717
  H  H67  1  0.793700  0.675400  0.844500  1.0  0.1176
  H  H68  1  0.945200  0.556800  0.906800  1.0  0.0639
  H  H69  1  0.947900  0.515000  0.806000  1.0  0.0594
  H  H70  1  0.023500  0.663600  0.675400  1.0  0.069
  H  H71  1  0.925700  0.610700  0.647600  1.0  0.0533
  H  H72  1  0.419500  0.363600  0.659300  1.0  0.084
  H  H73  1  0.223200  0.517900  0.525800  1.0  0.0917
  H  H74  1  0.112600  0.416900  0.544600  1.0  0.1036
  H  H75  1  0.288000  0.268700  0.678800  1.0  0.0646
  H  H76  1  0.166100  0.290200  0.650900  1.0  0.0636
  H  H77  1  0.359700  0.231000  0.526000  1.0  0.0602
  H  H78  1  0.310900  0.299800  0.463000  1.0  0.0524
  H  H79  1  0.242200  0.493900  0.813500  1.0  0.0903
  H  H80  1  0.395300  0.662500  0.759000  1.0  0.0711
  H  H81  1  0.206300  0.675400  0.655500  1.0  0.1177
  H  H82  1  0.054800  0.556800  0.593200  1.0  0.063
  H  H83  1  0.052100  0.515000  0.694000  1.0  0.0607
  H  H84  1  0.976500  0.663600  0.824600  1.0  0.0684
  H  H85  1  0.074300  0.610700  0.852400  1.0  0.0555
  H  H86  1  0.580500  0.363600  0.840700  1.0  0.0832
  H  H87  1  0.776800  0.517900  0.974200  1.0  0.0924
  H  H88  1  0.887400  0.416900  0.955400  1.0  0.1032
  H  H89  1  0.712000  0.268700  0.821200  1.0  0.0641
  H  H90  1  0.833900  0.290200  0.849100  1.0  0.0631
  H  H91  1  0.640300  0.231000  0.974000  1.0  0.0567
  H  H92  1  0.689100  0.299800  0.037000  1.0  0.0516
  H  H93  1  0.742200  0.006100  0.313500  1.0  0.0889
  H  H94  1  0.895300  0.837500  0.259000  1.0  0.071
  H  H95  1  0.706300  0.824600  0.155500  1.0  0.1171
  H  H96  1  0.554800  0.943200  0.093200  1.0  0.0635
  H  H97  1  0.552100  0.985000  0.194000  1.0  0.059
  H  H98  1  0.476500  0.836400  0.324600  1.0  0.0694
  H  H99  1  0.574300  0.889300  0.352400  1.0  0.0557
  H  H100  1  0.080500  0.136400  0.340700  1.0  0.0828
  H  H101  1  0.276800  0.982100  0.474200  1.0  0.0925
  H  H102  1  0.387400  0.083100  0.455400  1.0  0.1034
  H  H103  1  0.212000  0.231300  0.321200  1.0  0.0637
  H  H104  1  0.333900  0.209800  0.349100  1.0  0.0634
  H  H105  1  0.140300  0.269000  0.474000  1.0  0.0566
  H  H106  1  0.189100  0.200200  0.537000  1.0  0.0504
  H  H107  1  0.257800  0.006100  0.186500  1.0  0.0891
  H  H108  1  0.104700  0.837500  0.241000  1.0  0.0713
  H  H109  1  0.293700  0.824600  0.344500  1.0  0.1167
  H  H110  1  0.445200  0.943200  0.406800  1.0  0.0636
  H  H111  1  0.447900  0.985000  0.306000  1.0  0.0591
  H  H112  1  0.523500  0.836400  0.175400  1.0  0.0693
  H  H113  1  0.425700  0.889300  0.147600  1.0  0.0534
  H  H114  1  0.919500  0.136400  0.159300  1.0  0.0838
  H  H115  1  0.723200  0.982100  0.025800  1.0  0.0916
  H  H116  1  0.612600  0.083100  0.044600  1.0  0.1039
  H  H117  1  0.788000  0.231300  0.178800  1.0  0.0649
  H  H118  1  0.666100  0.209800  0.150900  1.0  0.0638
  H  H119  1  0.859700  0.269000  0.026000  1.0  0.0606
  H  H120  1  0.810900  0.200200  0.963000  1.0  0.0526
  C  C121  1  0.242900  0.037200  0.712700  1.0  0.113
  C  C122  1  0.159400  0.130200  0.742900  1.0  0.0011
  C  C123  1  0.263300  0.137600  0.800600  1.0  -0.1866
  C  C124  1  0.431000  0.060500  0.831600  1.0  -0.0277
  C  C125  1  0.500800  0.117500  0.807900  1.0  -0.164
  C  C126  1  0.857100  0.889700  0.628800  1.0  0.0983
  C  C127  1  0.749100  0.974100  0.555500  1.0  -0.0039
  C  C128  1  0.687600  0.918500  0.565500  1.0  -0.1704
  C  C129  1  0.728800  0.791200  0.626200  1.0  -0.0471
  C  C130  1  0.704400  0.749400  0.523900  1.0  -0.1719
  C  C131  1  0.757100  0.037200  0.787300  1.0  0.1129
  C  C132  1  0.840600  0.130200  0.757100  1.0  0.0033
  C  C133  1  0.736700  0.137600  0.699400  1.0  -0.185
  C  C134  1  0.569000  0.060500  0.668400  1.0  -0.028
  C  C135  1  0.499200  0.117500  0.692100  1.0  -0.1621
  C  C136  1  0.142900  0.889700  0.871200  1.0  0.0965
  C  C137  1  0.250900  0.974100  0.944500  1.0  -0.003
  C  C138  1  0.312400  0.918500  0.934500  1.0  -0.1698
  C  C139  1  0.271200  0.791200  0.873800  1.0  -0.0462
  C  C140  1  0.295600  0.749400  0.976100  1.0  -0.1727
  C  C141  1  0.257100  0.462800  0.287300  1.0  0.1132
  C  C142  1  0.340600  0.369800  0.257100  1.0  0.0026
  C  C143  1  0.236700  0.362400  0.199400  1.0  -0.1852
  C  C144  1  0.069000  0.439500  0.168400  1.0  -0.0278
  C  C145  1  0.999200  0.382500  0.192100  1.0  -0.1624
  C  C146  1  0.642900  0.610300  0.371200  1.0  0.0963
  C  C147  1  0.750900  0.525900  0.444500  1.0  -0.0035
  C  C148  1  0.812400  0.581500  0.434500  1.0  -0.1699
  C  C149  1  0.771200  0.708800  0.373800  1.0  -0.0466
  C  C150  1  0.795600  0.750600  0.476100  1.0  -0.1739
  C  C151  1  0.742900  0.462800  0.212700  1.0  0.1137
  C  C152  1  0.659400  0.369800  0.242900  1.0  0.0016
  C  C153  1  0.763300  0.362400  0.300600  1.0  -0.1861
  C  C154  1  0.931000  0.439500  0.331600  1.0  -0.0278
  C  C155  1  0.000800  0.382500  0.307900  1.0  -0.1643
  C  C156  1  0.357100  0.610300  0.128800  1.0  0.0982
  C  C157  1  0.249100  0.525900  0.055500  1.0  -0.0037
  C  C158  1  0.187600  0.581500  0.065500  1.0  -0.1701
  C  C159  1  0.228800  0.708800  0.126200  1.0  -0.0452
  C  C160  1  0.204400  0.750600  0.023900  1.0  -0.1733
  C  C161  1  0.742900  0.537200  0.712700  1.0  0.113
  C  C162  1  0.659400  0.630200  0.742900  1.0  0.0011
  C  C163  1  0.763300  0.637600  0.800600  1.0  -0.1866
  C  C164  1  0.931000  0.560500  0.831600  1.0  -0.0277
  C  C165  1  0.000800  0.617500  0.807900  1.0  -0.164
  C  C166  1  0.357100  0.389700  0.628800  1.0  0.0983
  C  C167  1  0.249100  0.474100  0.555500  1.0  -0.0039
  C  C168  1  0.187600  0.418500  0.565500  1.0  -0.1704
  C  C169  1  0.228800  0.291200  0.626200  1.0  -0.0471
  C  C170  1  0.204400  0.249400  0.523900  1.0  -0.1719
  C  C171  1  0.257100  0.537200  0.787300  1.0  0.1129
  C  C172  1  0.340600  0.630200  0.757100  1.0  0.0033
  C  C173  1  0.236700  0.637600  0.699400  1.0  -0.185
  C  C174  1  0.069000  0.560500  0.668400  1.0  -0.028
  C  C175  1  0.999200  0.617500  0.692100  1.0  -0.1621
  C  C176  1  0.642900  0.389700  0.871200  1.0  0.0965
  C  C177  1  0.750900  0.474100  0.944500  1.0  -0.003
  C  C178  1  0.812400  0.418500  0.934500  1.0  -0.1698
  C  C179  1  0.771200  0.291200  0.873800  1.0  -0.0462
  C  C180  1  0.795600  0.249400  0.976100  1.0  -0.1727
  C  C181  1  0.757100  0.962800  0.287300  1.0  0.1132
  C  C182  1  0.840600  0.869800  0.257100  1.0  0.0026
  C  C183  1  0.736700  0.862400  0.199400  1.0  -0.1852
  C  C184  1  0.569000  0.939500  0.168400  1.0  -0.0278
  C  C185  1  0.499200  0.882500  0.192100  1.0  -0.1624
  C  C186  1  0.142900  0.110300  0.371200  1.0  0.0963
  C  C187  1  0.250900  0.025900  0.444500  1.0  -0.0035
  C  C188  1  0.312400  0.081500  0.434500  1.0  -0.1699
  C  C189  1  0.271200  0.208800  0.373800  1.0  -0.0466
  C  C190  1  0.295600  0.250600  0.476100  1.0  -0.1739
  C  C191  1  0.242900  0.962800  0.212700  1.0  0.1137
  C  C192  1  0.159400  0.869800  0.242900  1.0  0.0016
  C  C193  1  0.263300  0.862400  0.300600  1.0  -0.1861
  C  C194  1  0.431000  0.939500  0.331600  1.0  -0.0278
  C  C195  1  0.500800  0.882500  0.307900  1.0  -0.1643
  C  C196  1  0.857100  0.110300  0.128800  1.0  0.0982
  C  C197  1  0.749100  0.025900  0.055500  1.0  -0.0037
  C  C198  1  0.687600  0.081500  0.065500  1.0  -0.1701
  C  C199  1  0.728800  0.208800  0.126200  1.0  -0.0452
  C  C200  1  0.704400  0.250600  0.023900  1.0  -0.1733
  N  N201  1  0.146400  0.067700  0.687300  1.0  -0.362
  N  N202  1  0.315600  0.077500  0.781100  1.0  0.0267
  N  N203  1  0.856000  0.956000  0.596000  1.0  -0.3929
  N  N204  1  0.756700  0.864800  0.612400  1.0  0.0218
  N  N205  1  0.853600  0.067700  0.812700  1.0  -0.3625
  N  N206  1  0.684400  0.077500  0.718900  1.0  0.0269
  N  N207  1  0.144000  0.956000  0.904000  1.0  -0.3937
  N  N208  1  0.243300  0.864800  0.887600  1.0  0.0214
  N  N209  1  0.353600  0.432300  0.312700  1.0  -0.3627
  N  N210  1  0.184400  0.422500  0.218900  1.0  0.0269
  N  N211  1  0.644000  0.544000  0.404000  1.0  -0.394
  N  N212  1  0.743300  0.635200  0.387600  1.0  0.0218
  N  N213  1  0.646400  0.432300  0.187300  1.0  -0.3606
  N  N214  1  0.815600  0.422500  0.281100  1.0  0.0266
  N  N215  1  0.356000  0.544000  0.096000  1.0  -0.3925
  N  N216  1  0.256700  0.635200  0.112400  1.0  0.0223
  N  N217  1  0.646400  0.567700  0.687300  1.0  -0.362
  N  N218  1  0.815600  0.577500  0.781100  1.0  0.0267
  N  N219  1  0.356000  0.456000  0.596000  1.0  -0.3929
  N  N220  1  0.256700  0.364800  0.612400  1.0  0.0218
  N  N221  1  0.353600  0.567700  0.812700  1.0  -0.3625
  N  N222  1  0.184400  0.577500  0.718900  1.0  0.0269
  N  N223  1  0.644000  0.456000  0.904000  1.0  -0.3937
  N  N224  1  0.743300  0.364800  0.887600  1.0  0.0214
  N  N225  1  0.853600  0.932300  0.312700  1.0  -0.3627
  N  N226  1  0.684400  0.922500  0.218900  1.0  0.0269
  N  N227  1  0.144000  0.044000  0.404000  1.0  -0.394
  N  N228  1  0.243300  0.135200  0.387600  1.0  0.0218
  N  N229  1  0.146400  0.932300  0.187300  1.0  -0.3606
  N  N230  1  0.315600  0.922500  0.281100  1.0  0.0266
  N  N231  1  0.856000  0.044000  0.096000  1.0  -0.3925
  N  N232  1  0.756700  0.135200  0.112400  1.0  0.0223
