# generated using pymatgen
data_LaP2H13C6(NO3)2
_symmetry_space_group_name_H-M   'P 1'
_cell_length_a   5.76300000
_cell_length_b   10.21300000
_cell_length_c   11.64900000
_cell_angle_alpha   84.24200000
_cell_angle_beta   89.05100000
_cell_angle_gamma   82.87600000
_symmetry_Int_Tables_number   1
_chemical_formula_structural   LaP2H13C6(NO3)2
_chemical_formula_sum   'La2 P4 H26 C12 N4 O12'
_cell_volume   676.89969063
_cell_formula_units_Z   2
loop_
 _symmetry_equiv_pos_site_id
 _symmetry_equiv_pos_as_xyz
  1  'x, y, z'
loop_
 _atom_site_type_symbol
 _atom_site_label
 _atom_site_symmetry_multiplicity
 _atom_site_fract_x
 _atom_site_fract_y
 _atom_site_fract_z
 _atom_site_occupancy
 _atom_site_charge
  La  La1  1  0.217710  0.145230  0.471950  1.0  2.2376
  La  La2  1  0.782290  0.854770  0.528050  1.0  2.2388
  P  P3  1  0.720800  0.170090  0.661270  1.0  1.5434
  P  P4  1  0.670200  0.160130  0.309460  1.0  1.519
  P  P5  1  0.279200  0.829910  0.338730  1.0  1.5442
  P  P6  1  0.329800  0.839870  0.690540  1.0  1.5192
  H  H7  1  0.511500  0.982800  0.159700  1.0  0.2545
  H  H8  1  0.023300  0.272200  0.727600  1.0  0.1455
  H  H9  1  0.794400  0.372200  0.718100  1.0  0.1398
  H  H10  1  0.679200  0.390000  0.479000  1.0  0.0818
  H  H11  1  0.694900  0.510300  0.551100  1.0  0.0749
  H  H12  1  0.046700  0.530500  0.653300  1.0  0.0773
  H  H13  1  0.267100  0.424400  0.646400  1.0  0.0875
  H  H14  1  0.905200  0.032300  0.190200  1.0  0.1468
  H  H15  1  0.814500  0.168500  0.123100  1.0  0.146
  H  H16  1  0.825600  0.984300  0.979400  1.0  0.0802
  H  H17  1  0.828200  0.868900  0.079200  1.0  0.1117
  H  H18  1  0.351400  0.190100  0.085500  1.0  0.1028
  H  H19  1  0.532700  0.183400  0.983500  1.0  0.1101
  H  H20  1  0.488500  0.017200  0.840300  1.0  0.2538
  H  H21  1  0.976700  0.727800  0.272400  1.0  0.1447
  H  H22  1  0.205600  0.627800  0.281900  1.0  0.1381
  H  H23  1  0.320800  0.610000  0.521000  1.0  0.0808
  H  H24  1  0.305100  0.489700  0.448900  1.0  0.0753
  H  H25  1  0.953300  0.469500  0.346700  1.0  0.0762
  H  H26  1  0.732900  0.575600  0.353600  1.0  0.0867
  H  H27  1  0.094800  0.967700  0.809800  1.0  0.1469
  H  H28  1  0.185500  0.831500  0.876900  1.0  0.1503
  H  H29  1  0.174400  0.015700  0.020600  1.0  0.0806
  H  H30  1  0.171800  0.131100  0.920800  1.0  0.1128
  H  H31  1  0.648600  0.809900  0.914500  1.0  0.1136
  H  H32  1  0.467300  0.816600  0.016500  1.0  0.1109
  C  C33  1  0.890800  0.306100  0.678300  1.0  -0.4392
  C  C34  1  0.783200  0.450200  0.502400  1.0  0.0048
  C  C35  1  0.133400  0.470800  0.603700  1.0  -0.0007
  C  C36  1  0.766800  0.095500  0.174100  1.0  -0.4907
  C  C37  1  0.727500  0.936100  0.032500  1.0  -0.0771
  C  C38  1  0.440300  0.131000  0.036200  1.0  -0.0953
  C  C39  1  0.109200  0.693900  0.321700  1.0  -0.4385
  C  C40  1  0.216800  0.549800  0.497600  1.0  0.0042
  C  C41  1  0.866600  0.529200  0.396300  1.0  -0.004
  C  C42  1  0.233200  0.904500  0.825900  1.0  -0.4916
  C  C43  1  0.272500  0.063900  0.967500  1.0  -0.0858
  C  C44  1  0.559700  0.869000  0.963800  1.0  -0.0946
  N  N45  1  0.979700  0.372500  0.570000  1.0  -0.306
  N  N46  1  0.599300  0.029000  0.108500  1.0  0.1553
  N  N47  1  0.020300  0.627500  0.430000  1.0  -0.2907
  N  N48  1  0.400700  0.971000  0.891500  1.0  0.154
  O  O49  1  0.495900  0.222500  0.597100  1.0  -0.9108
  O  O50  1  0.883700  0.072900  0.593300  1.0  -1.0071
  O  O51  1  0.686000  0.109700  0.785100  1.0  -0.8854
  O  O52  1  0.887100  0.218600  0.342400  1.0  -0.9088
  O  O53  1  0.444700  0.257800  0.298400  1.0  -0.8888
  O  O54  1  0.607400  0.041800  0.391700  1.0  -1.0158
  O  O55  1  0.504100  0.777500  0.402900  1.0  -0.911
  O  O56  1  0.116300  0.927100  0.406700  1.0  -1.0074
  O  O57  1  0.314000  0.890300  0.214900  1.0  -0.8852
  O  O58  1  0.112900  0.781400  0.657600  1.0  -0.9082
  O  O59  1  0.555300  0.742200  0.701600  1.0  -0.8921
  O  O60  1  0.392600  0.958200  0.608300  1.0  -1.0151
