# generated using pymatgen
data_NdP2H12C6(NO3)2
_symmetry_space_group_name_H-M   'P 1'
_cell_length_a   5.75400000
_cell_length_b   14.12590000
_cell_length_c   21.15600000
_cell_angle_alpha   90.00000000
_cell_angle_beta   90.14000000
_cell_angle_gamma   90.00000000
_symmetry_Int_Tables_number   1
_chemical_formula_structural   NdP2H12C6(NO3)2
_chemical_formula_sum   'Nd4 P8 H48 C24 N8 O24'
_cell_volume   1719.56361412
_cell_formula_units_Z   4
loop_
 _symmetry_equiv_pos_site_id
 _symmetry_equiv_pos_as_xyz
  1  'x, y, z'
loop_
 _atom_site_type_symbol
 _atom_site_label
 _atom_site_symmetry_multiplicity
 _atom_site_fract_x
 _atom_site_fract_y
 _atom_site_fract_z
 _atom_site_occupancy
 _atom_site_charge
  Nd  Nd1  1  0.749990  0.890200  0.983190  1.0  2.4438
  Nd  Nd2  1  0.250010  0.390200  0.516810  1.0  2.4448
  Nd  Nd3  1  0.250010  0.109800  0.016810  1.0  2.4511
  Nd  Nd4  1  0.749990  0.609800  0.483190  1.0  2.4494
  P  P5  1  0.750100  0.156600  0.945800  1.0  1.666
  P  P6  1  0.750400  0.448500  0.612500  1.0  1.6723
  P  P7  1  0.249900  0.656600  0.554200  1.0  1.666
  P  P8  1  0.249600  0.948500  0.887500  1.0  1.6717
  P  P9  1  0.249900  0.843400  0.054200  1.0  1.665
  P  P10  1  0.249600  0.551500  0.387500  1.0  1.6715
  P  P11  1  0.750100  0.343400  0.445800  1.0  1.6657
  P  P12  1  0.750400  0.051500  0.112500  1.0  1.6723
  H  H13  1  0.923100  0.203400  0.741400  1.0  0.0839
  H  H14  1  0.677500  0.150700  0.743900  1.0  0.087
  H  H15  1  0.480300  0.291900  0.724800  1.0  0.0831
  H  H16  1  0.674800  0.279800  0.671400  1.0  0.1201
  H  H17  1  0.853500  0.456400  0.812700  1.0  0.0907
  H  H18  1  0.596800  0.413900  0.818800  1.0  0.0875
  H  H19  1  0.824100  0.327700  0.886800  1.0  0.1281
  H  H20  1  0.022400  0.313600  0.834900  1.0  0.0912
  H  H21  1  0.617600  0.109200  0.850900  1.0  0.1525
  H  H22  1  0.893200  0.111300  0.851700  1.0  0.1595
  H  H23  1  0.613500  0.495800  0.709600  1.0  0.1331
  H  H24  1  0.889400  0.495700  0.709600  1.0  0.1357
  H  H25  1  0.076900  0.703400  0.758600  1.0  0.0844
  H  H26  1  0.322500  0.650700  0.756100  1.0  0.0891
  H  H27  1  0.519700  0.791900  0.775200  1.0  0.0821
  H  H28  1  0.325200  0.779800  0.828600  1.0  0.125
  H  H29  1  0.146500  0.956400  0.687300  1.0  0.0918
  H  H30  1  0.403200  0.913900  0.681200  1.0  0.0884
  H  H31  1  0.175900  0.827700  0.613200  1.0  0.1268
  H  H32  1  0.977600  0.813600  0.665100  1.0  0.0916
  H  H33  1  0.382400  0.609200  0.649100  1.0  0.1533
  H  H34  1  0.106800  0.611300  0.648300  1.0  0.1598
  H  H35  1  0.386500  0.995800  0.790400  1.0  0.1325
  H  H36  1  0.110600  0.995700  0.790400  1.0  0.1348
  H  H37  1  0.076900  0.796600  0.258600  1.0  0.0838
  H  H38  1  0.322500  0.849300  0.256100  1.0  0.0872
  H  H39  1  0.519700  0.708100  0.275200  1.0  0.0821
  H  H40  1  0.325200  0.720200  0.328600  1.0  0.1242
  H  H41  1  0.146500  0.543600  0.187300  1.0  0.0908
  H  H42  1  0.403200  0.586100  0.181200  1.0  0.088
  H  H43  1  0.175900  0.672300  0.113200  1.0  0.1271
  H  H44  1  0.977600  0.686400  0.165100  1.0  0.0918
  H  H45  1  0.382400  0.890800  0.149100  1.0  0.1526
  H  H46  1  0.106800  0.888700  0.148300  1.0  0.1594
  H  H47  1  0.386500  0.504200  0.290400  1.0  0.1324
  H  H48  1  0.110600  0.504300  0.290400  1.0  0.1346
  H  H49  1  0.923100  0.296600  0.241400  1.0  0.0843
  H  H50  1  0.677500  0.349300  0.243900  1.0  0.0868
  H  H51  1  0.480300  0.208100  0.224800  1.0  0.0831
  H  H52  1  0.674800  0.220200  0.171400  1.0  0.1181
  H  H53  1  0.853500  0.043600  0.312700  1.0  0.0917
  H  H54  1  0.596800  0.086100  0.318800  1.0  0.0882
  H  H55  1  0.824100  0.172300  0.386800  1.0  0.1277
  H  H56  1  0.022400  0.186400  0.334900  1.0  0.0912
  H  H57  1  0.617600  0.390800  0.350900  1.0  0.1519
  H  H58  1  0.893200  0.388700  0.351700  1.0  0.1589
  H  H59  1  0.613500  0.004200  0.209600  1.0  0.1333
  H  H60  1  0.889400  0.004300  0.209600  1.0  0.136
  C  C61  1  0.759000  0.210000  0.754500  1.0  -0.0795
  C  C62  1  0.650000  0.290700  0.717100  1.0  -0.0833
  C  C63  1  0.756000  0.400000  0.804100  1.0  -0.0719
  C  C64  1  0.852000  0.316500  0.841200  1.0  -0.1018
  C  C65  1  0.753000  0.148500  0.862800  1.0  -0.5125
  C  C66  1  0.751000  0.457700  0.697900  1.0  -0.5003
  C  C67  1  0.241000  0.710000  0.745500  1.0  -0.0773
  C  C68  1  0.350000  0.790700  0.782900  1.0  -0.082
  C  C69  1  0.244000  0.900000  0.695900  1.0  -0.0741
  C  C70  1  0.148000  0.816500  0.658800  1.0  -0.1016
  C  C71  1  0.247000  0.648500  0.637200  1.0  -0.515
  C  C72  1  0.249000  0.957700  0.802100  1.0  -0.499
  C  C73  1  0.241000  0.790000  0.245500  1.0  -0.0783
  C  C74  1  0.350000  0.709300  0.282900  1.0  -0.0813
  C  C75  1  0.244000  0.600000  0.195900  1.0  -0.0733
  C  C76  1  0.148000  0.683500  0.158800  1.0  -0.1019
  C  C77  1  0.247000  0.851500  0.137200  1.0  -0.5137
  C  C78  1  0.249000  0.542300  0.302100  1.0  -0.5008
  C  C79  1  0.759000  0.290000  0.254500  1.0  -0.0791
  C  C80  1  0.650000  0.209300  0.217100  1.0  -0.0828
  C  C81  1  0.756000  0.100000  0.304100  1.0  -0.073
  C  C82  1  0.852000  0.183500  0.341200  1.0  -0.1023
  C  C83  1  0.753000  0.351500  0.362800  1.0  -0.5101
  C  C84  1  0.751000  0.042300  0.197900  1.0  -0.5014
  N  N85  1  0.751000  0.224100  0.823800  1.0  0.094
  N  N86  1  0.752000  0.382200  0.735200  1.0  0.0779
  N  N87  1  0.249000  0.724100  0.676200  1.0  0.0937
  N  N88  1  0.248000  0.882200  0.764800  1.0  0.0776
  N  N89  1  0.249000  0.775900  0.176200  1.0  0.093
  N  N90  1  0.248000  0.617800  0.264800  1.0  0.077
  N  N91  1  0.751000  0.275900  0.323800  1.0  0.0943
  N  N92  1  0.752000  0.117800  0.235200  1.0  0.0779
  O  O93  1  0.751000  0.057100  0.970500  1.0  -1.1105
  O  O94  1  0.531000  0.207500  0.965600  1.0  -0.9515
  O  O95  1  0.967000  0.209100  0.965200  1.0  -0.9545
  O  O96  1  0.530000  0.394900  0.597200  1.0  -0.9957
  O  O97  1  0.749000  0.547300  0.587700  1.0  -0.9547
  O  O98  1  0.969000  0.394500  0.597000  1.0  -0.9898
  O  O99  1  0.249000  0.557100  0.529500  1.0  -1.1121
  O  O100  1  0.469000  0.707500  0.534400  1.0  -0.9541
  O  O101  1  0.033000  0.709100  0.534800  1.0  -0.9547
  O  O102  1  0.470000  0.894900  0.902800  1.0  -0.997
  O  O103  1  0.251000  0.047300  0.912300  1.0  -0.9562
  O  O104  1  0.031000  0.894500  0.903000  1.0  -0.9834
  O  O105  1  0.249000  0.942900  0.029500  1.0  -1.1149
  O  O106  1  0.469000  0.792500  0.034400  1.0  -0.9526
  O  O107  1  0.033000  0.790900  0.034800  1.0  -0.953
  O  O108  1  0.470000  0.605100  0.402800  1.0  -0.9975
  O  O109  1  0.251000  0.452700  0.412300  1.0  -0.9552
  O  O110  1  0.031000  0.605500  0.403000  1.0  -0.991
  O  O111  1  0.751000  0.442900  0.470500  1.0  -1.1142
  O  O112  1  0.531000  0.292500  0.465600  1.0  -0.9526
  O  O113  1  0.967000  0.290900  0.465200  1.0  -0.9569
  O  O114  1  0.530000  0.105100  0.097200  1.0  -0.9965
  O  O115  1  0.749000  0.952700  0.087700  1.0  -0.9533
  O  O116  1  0.969000  0.105500  0.097000  1.0  -0.9941
