# generated using pymatgen
data_NaMo4H28C24S2(N2O13)2
_symmetry_space_group_name_H-M   'P 1'
_cell_length_a   18.45000000
_cell_length_b   20.71000000
_cell_length_c   14.17400000
_cell_angle_alpha   90.00000000
_cell_angle_beta   90.00000000
_cell_angle_gamma   90.00000000
_symmetry_Int_Tables_number   1
_chemical_formula_structural   NaMo4H28C24S2(N2O13)2
_chemical_formula_sum   'Na4 Mo16 H112 C96 S8 N16 O104'
_cell_volume   5415.87831300
_cell_formula_units_Z   4
loop_
 _symmetry_equiv_pos_site_id
 _symmetry_equiv_pos_as_xyz
  1  'x, y, z'
loop_
 _atom_site_type_symbol
 _atom_site_label
 _atom_site_symmetry_multiplicity
 _atom_site_fract_x
 _atom_site_fract_y
 _atom_site_fract_z
 _atom_site_occupancy
 _atom_site_charge
  Na  Na1  1  0.996690  0.501150  0.258500  1.0  0.9315
  Na  Na2  1  0.003310  0.498850  0.758500  1.0  0.9314
  Na  Na3  1  0.496690  0.998850  0.258500  1.0  0.9313
  Na  Na4  1  0.503310  0.001150  0.758500  1.0  0.9316
  Mo  Mo5  1  0.161420  0.730270  0.095520  1.0  0.9122
  Mo  Mo6  1  0.245890  0.833600  0.092570  1.0  0.8855
  Mo  Mo7  1  0.736230  0.179170  0.099830  1.0  0.9086
  Mo  Mo8  1  0.824940  0.280030  0.099920  1.0  0.9003
  Mo  Mo9  1  0.838580  0.269730  0.595520  1.0  0.9154
  Mo  Mo10  1  0.754110  0.166400  0.592570  1.0  0.8866
  Mo  Mo11  1  0.263770  0.820830  0.599830  1.0  0.9035
  Mo  Mo12  1  0.175060  0.719970  0.599920  1.0  0.8969
  Mo  Mo13  1  0.661420  0.769730  0.095520  1.0  0.9143
  Mo  Mo14  1  0.745890  0.666400  0.092570  1.0  0.8859
  Mo  Mo15  1  0.236230  0.320830  0.099830  1.0  0.9048
  Mo  Mo16  1  0.324940  0.219970  0.099920  1.0  0.8999
  Mo  Mo17  1  0.338580  0.230270  0.595520  1.0  0.9138
  Mo  Mo18  1  0.254110  0.333600  0.592570  1.0  0.8868
  Mo  Mo19  1  0.763770  0.679170  0.599830  1.0  0.9071
  Mo  Mo20  1  0.675060  0.780030  0.599920  1.0  0.8978
  H  H21  1  0.196900  0.538600  0.762200  1.0  0.4146
  H  H22  1  0.451800  0.852700  0.747700  1.0  0.4149
  H  H23  1  0.540400  0.152600  0.749700  1.0  0.4146
  H  H24  1  0.819400  0.463800  0.753600  1.0  0.4026
  H  H25  1  0.210000  0.610400  0.970600  1.0  0.1397
  H  H26  1  0.209400  0.668400  0.896200  1.0  0.1304
  H  H27  1  0.102500  0.577100  0.034900  1.0  0.1193
  H  H28  1  0.032200  0.605300  0.983500  1.0  0.102
  H  H29  1  0.041200  0.679600  0.877600  1.0  0.0962
  H  H30  1  0.110700  0.724900  0.864300  1.0  0.124
  H  H31  1  0.327700  0.809000  0.894100  1.0  0.1328
  H  H32  1  0.389500  0.823400  0.970100  1.0  0.1378
  H  H33  1  0.350600  0.976900  0.983500  1.0  0.1118
  H  H34  1  0.396500  0.923400  0.038400  1.0  0.1186
  H  H35  1  0.252000  0.885800  0.850200  1.0  0.1295
  H  H36  1  0.271600  0.957100  0.885000  1.0  0.1178
  H  H37  1  0.670200  0.199100  0.895100  1.0  0.1287
  H  H38  1  0.604500  0.183600  0.964900  1.0  0.1183
  H  H39  1  0.649700  0.029300  0.983900  1.0  0.1125
  H  H40  1  0.594100  0.081500  0.024200  1.0  0.1132
  H  H41  1  0.757900  0.129900  0.868500  1.0  0.1354
  H  H42  1  0.731100  0.057300  0.885100  1.0  0.1251
  H  H43  1  0.793700  0.397700  0.966000  1.0  0.1269
  H  H44  1  0.789300  0.338300  0.894000  1.0  0.1385
  H  H45  1  0.910000  0.425400  0.019600  1.0  0.109
  H  H46  1  0.975800  0.381100  0.985700  1.0  0.1019
  H  H47  1  0.952600  0.309500  0.879200  1.0  0.1081
  H  H48  1  0.879000  0.268700  0.873100  1.0  0.1272
  H  H49  1  0.803100  0.461400  0.262200  1.0  0.4143
  H  H50  1  0.548200  0.147300  0.247700  1.0  0.4153
  H  H51  1  0.459600  0.847400  0.249700  1.0  0.4139
  H  H52  1  0.180600  0.536200  0.253600  1.0  0.4037
  H  H53  1  0.790000  0.389600  0.470600  1.0  0.1417
  H  H54  1  0.790600  0.331600  0.396200  1.0  0.1325
  H  H55  1  0.897500  0.422900  0.534900  1.0  0.1192
  H  H56  1  0.967800  0.394700  0.483500  1.0  0.1024
  H  H57  1  0.958800  0.320400  0.377600  1.0  0.0941
  H  H58  1  0.889300  0.275100  0.364300  1.0  0.1238
  H  H59  1  0.672300  0.191000  0.394100  1.0  0.1334
  H  H60  1  0.610500  0.176600  0.470100  1.0  0.1372
  H  H61  1  0.649400  0.023100  0.483500  1.0  0.1122
  H  H62  1  0.603500  0.076600  0.538400  1.0  0.1194
  H  H63  1  0.748000  0.114200  0.350200  1.0  0.1292
  H  H64  1  0.728400  0.042900  0.385000  1.0  0.1184
  H  H65  1  0.329800  0.800900  0.395100  1.0  0.1287
  H  H66  1  0.395500  0.816400  0.464900  1.0  0.1184
  H  H67  1  0.350300  0.970700  0.483900  1.0  0.112
  H  H68  1  0.405900  0.918500  0.524200  1.0  0.1135
  H  H69  1  0.242100  0.870100  0.368500  1.0  0.1354
  H  H70  1  0.268900  0.942700  0.385100  1.0  0.1246
  H  H71  1  0.206300  0.602300  0.466000  1.0  0.1262
  H  H72  1  0.210700  0.661700  0.394000  1.0  0.1361
  H  H73  1  0.090000  0.574600  0.519600  1.0  0.1088
  H  H74  1  0.024200  0.618900  0.485700  1.0  0.102
  H  H75  1  0.047400  0.690500  0.379200  1.0  0.1094
  H  H76  1  0.121000  0.731300  0.373100  1.0  0.1264
  H  H77  1  0.696900  0.961400  0.762200  1.0  0.4132
  H  H78  1  0.951800  0.647300  0.747700  1.0  0.4153
  H  H79  1  0.040400  0.347400  0.749700  1.0  0.4139
  H  H80  1  0.319400  0.036200  0.753600  1.0  0.4033
  H  H81  1  0.710000  0.889600  0.970600  1.0  0.14
  H  H82  1  0.709400  0.831600  0.896200  1.0  0.1309
  H  H83  1  0.602500  0.922900  0.034900  1.0  0.1187
  H  H84  1  0.532200  0.894700  0.983500  1.0  0.1022
  H  H85  1  0.541200  0.820400  0.877600  1.0  0.0948
  H  H86  1  0.610700  0.775100  0.864300  1.0  0.1239
  H  H87  1  0.827700  0.691000  0.894100  1.0  0.1337
  H  H88  1  0.889500  0.676600  0.970100  1.0  0.1374
  H  H89  1  0.850600  0.523100  0.983500  1.0  0.1112
  H  H90  1  0.896500  0.576600  0.038400  1.0  0.1186
  H  H91  1  0.752000  0.614200  0.850200  1.0  0.13
  H  H92  1  0.771600  0.542900  0.885000  1.0  0.1179
  H  H93  1  0.170200  0.300900  0.895100  1.0  0.128
  H  H94  1  0.104500  0.316400  0.964900  1.0  0.1193
  H  H95  1  0.149700  0.470700  0.983900  1.0  0.1118
  H  H96  1  0.094100  0.418500  0.024200  1.0  0.1129
  H  H97  1  0.257900  0.370100  0.868500  1.0  0.1354
  H  H98  1  0.231100  0.442700  0.885100  1.0  0.1243
  H  H99  1  0.293700  0.102300  0.966000  1.0  0.1266
  H  H100  1  0.289300  0.161700  0.894000  1.0  0.1386
  H  H101  1  0.410000  0.074600  0.019600  1.0  0.1092
  H  H102  1  0.475800  0.118900  0.985700  1.0  0.1022
  H  H103  1  0.452600  0.190500  0.879200  1.0  0.1086
  H  H104  1  0.379000  0.231300  0.873100  1.0  0.127
  H  H105  1  0.303100  0.038600  0.262200  1.0  0.4129
  H  H106  1  0.048200  0.352700  0.247700  1.0  0.4148
  H  H107  1  0.959600  0.652600  0.249700  1.0  0.4145
  H  H108  1  0.680600  0.963800  0.253600  1.0  0.4034
  H  H109  1  0.290000  0.110400  0.470600  1.0  0.1417
  H  H110  1  0.290600  0.168400  0.396200  1.0  0.1325
  H  H111  1  0.397500  0.077100  0.534900  1.0  0.1195
  H  H112  1  0.467800  0.105300  0.483500  1.0  0.1023
  H  H113  1  0.458800  0.179600  0.377600  1.0  0.095
  H  H114  1  0.389300  0.224900  0.364300  1.0  0.1237
  H  H115  1  0.172300  0.309000  0.394100  1.0  0.1331
  H  H116  1  0.110500  0.323400  0.470100  1.0  0.1383
  H  H117  1  0.149400  0.476900  0.483500  1.0  0.1123
  H  H118  1  0.103500  0.423400  0.538400  1.0  0.1193
  H  H119  1  0.248000  0.385800  0.350200  1.0  0.1289
  H  H120  1  0.228400  0.457100  0.385000  1.0  0.1182
  H  H121  1  0.829800  0.699100  0.395100  1.0  0.1296
  H  H122  1  0.895500  0.683600  0.464900  1.0  0.1182
  H  H123  1  0.850300  0.529300  0.483900  1.0  0.1125
  H  H124  1  0.905900  0.581500  0.524200  1.0  0.1135
  H  H125  1  0.742100  0.629900  0.368500  1.0  0.1354
  H  H126  1  0.768900  0.557300  0.385100  1.0  0.1248
  H  H127  1  0.706300  0.897700  0.466000  1.0  0.1267
  H  H128  1  0.710700  0.838300  0.394000  1.0  0.1365
  H  H129  1  0.590000  0.925400  0.519600  1.0  0.1085
  H  H130  1  0.524200  0.881100  0.485700  1.0  0.1022
  H  H131  1  0.547400  0.809500  0.379200  1.0  0.1079
  H  H132  1  0.621000  0.768700  0.373100  1.0  0.1267
  C  C133  1  0.154800  0.588000  0.848700  1.0  0.6419
  C  C134  1  0.179200  0.634200  0.925200  1.0  -0.1069
  C  C135  1  0.073200  0.616700  0.025600  1.0  -0.1843
  C  C136  1  0.043200  0.637000  0.118800  1.0  0.7404
  C  C137  1  0.077100  0.706500  0.911600  1.0  -0.1861
  C  C138  1  0.038400  0.760400  0.961500  1.0  0.7441
  C  C139  1  0.401900  0.875600  0.848400  1.0  0.6245
  C  C140  1  0.356600  0.843800  0.923700  1.0  -0.0719
  C  C141  1  0.312900  0.960100  0.117400  1.0  0.7549
  C  C142  1  0.346700  0.938800  0.025500  1.0  -0.1941
  C  C143  1  0.179100  0.921800  0.944900  1.0  0.7733
  C  C144  1  0.254000  0.914300  0.906200  1.0  -0.2186
  C  C145  1  0.600500  0.129600  0.841700  1.0  0.632
  C  C146  1  0.640600  0.163800  0.922100  1.0  -0.122
  C  C147  1  0.668600  0.052000  0.123000  1.0  0.7328
  C  C148  1  0.645800  0.068600  0.023200  1.0  -0.1731
  C  C149  1  0.815500  0.083000  0.972300  1.0  0.7421
  C  C150  1  0.747100  0.097200  0.917500  1.0  -0.1831
  C  C151  1  0.853300  0.412600  0.845100  1.0  0.6423
  C  C152  1  0.822500  0.370400  0.922600  1.0  -0.0607
  C  C153  1  0.949300  0.367300  0.123700  1.0  0.7324
  C  C154  1  0.930500  0.381200  0.023100  1.0  -0.1907
  C  C155  1  0.949100  0.234500  0.974400  1.0  0.7202
  C  C156  1  0.914800  0.287700  0.917200  1.0  -0.1889
  C  C157  1  0.845200  0.412000  0.348700  1.0  0.6401
  C  C158  1  0.820800  0.365800  0.425200  1.0  -0.1094
  C  C159  1  0.926800  0.383300  0.525600  1.0  -0.1809
  C  C160  1  0.956800  0.363000  0.618800  1.0  0.7402
  C  C161  1  0.922900  0.293500  0.411600  1.0  -0.1857
  C  C162  1  0.961600  0.239600  0.461500  1.0  0.7435
  C  C163  1  0.598100  0.124400  0.348400  1.0  0.6258
  C  C164  1  0.643400  0.156200  0.423700  1.0  -0.0745
  C  C165  1  0.687100  0.039900  0.617400  1.0  0.7546
  C  C166  1  0.653300  0.061200  0.525500  1.0  -0.1928
  C  C167  1  0.820900  0.078200  0.444900  1.0  0.7726
  C  C168  1  0.746000  0.085700  0.406200  1.0  -0.2165
  C  C169  1  0.399500  0.870400  0.341700  1.0  0.6315
  C  C170  1  0.359400  0.836200  0.422100  1.0  -0.1204
  C  C171  1  0.331400  0.948000  0.623000  1.0  0.7333
  C  C172  1  0.354200  0.931400  0.523200  1.0  -0.1737
  C  C173  1  0.184500  0.917000  0.472300  1.0  0.7437
  C  C174  1  0.252900  0.902800  0.417500  1.0  -0.1851
  C  C175  1  0.146700  0.587400  0.345100  1.0  0.6464
  C  C176  1  0.177500  0.629600  0.422600  1.0  -0.0577
  C  C177  1  0.050700  0.632700  0.623700  1.0  0.7318
  C  C178  1  0.069500  0.618800  0.523100  1.0  -0.1913
  C  C179  1  0.050900  0.765500  0.474400  1.0  0.7213
  C  C180  1  0.085200  0.712300  0.417200  1.0  -0.1905
  C  C181  1  0.654800  0.912000  0.848700  1.0  0.6421
  C  C182  1  0.679200  0.865800  0.925200  1.0  -0.1064
  C  C183  1  0.573200  0.883300  0.025600  1.0  -0.1827
  C  C184  1  0.543200  0.863000  0.118800  1.0  0.7399
  C  C185  1  0.577100  0.793500  0.911600  1.0  -0.1855
  C  C186  1  0.538400  0.739600  0.961500  1.0  0.7429
  C  C187  1  0.901900  0.624400  0.848400  1.0  0.6254
  C  C188  1  0.856600  0.656200  0.923700  1.0  -0.0746
  C  C189  1  0.812900  0.539900  0.117400  1.0  0.7544
  C  C190  1  0.846700  0.561200  0.025500  1.0  -0.1948
  C  C191  1  0.679100  0.578200  0.944900  1.0  0.7712
  C  C192  1  0.754000  0.585700  0.906200  1.0  -0.218
  C  C193  1  0.100500  0.370400  0.841700  1.0  0.6313
  C  C194  1  0.140600  0.336200  0.922100  1.0  -0.1204
  C  C195  1  0.168600  0.448000  0.123000  1.0  0.7325
  C  C196  1  0.145800  0.431400  0.023200  1.0  -0.1727
  C  C197  1  0.315500  0.417000  0.972300  1.0  0.7406
  C  C198  1  0.247100  0.402800  0.917500  1.0  -0.1828
  C  C199  1  0.353300  0.087400  0.845100  1.0  0.6418
  C  C200  1  0.322500  0.129600  0.922600  1.0  -0.0611
  C  C201  1  0.449300  0.132700  0.123700  1.0  0.7325
  C  C202  1  0.430500  0.118800  0.023100  1.0  -0.1904
  C  C203  1  0.449100  0.265500  0.974400  1.0  0.7204
  C  C204  1  0.414800  0.212300  0.917200  1.0  -0.1907
  C  C205  1  0.345200  0.088000  0.348700  1.0  0.6402
  C  C206  1  0.320800  0.134200  0.425200  1.0  -0.1097
  C  C207  1  0.426800  0.116700  0.525600  1.0  -0.1823
  C  C208  1  0.456800  0.137000  0.618800  1.0  0.7408
  C  C209  1  0.422900  0.206500  0.411600  1.0  -0.1863
  C  C210  1  0.461600  0.260400  0.461500  1.0  0.7426
  C  C211  1  0.098100  0.375600  0.348400  1.0  0.6247
  C  C212  1  0.143400  0.343800  0.423700  1.0  -0.0719
  C  C213  1  0.187100  0.460100  0.617400  1.0  0.754
  C  C214  1  0.153300  0.438800  0.525500  1.0  -0.1924
  C  C215  1  0.320900  0.421800  0.444900  1.0  0.7729
  C  C216  1  0.246000  0.414300  0.406200  1.0  -0.2171
  C  C217  1  0.899500  0.629600  0.341700  1.0  0.6322
  C  C218  1  0.859400  0.663800  0.422100  1.0  -0.1223
  C  C219  1  0.831400  0.552000  0.623000  1.0  0.7334
  C  C220  1  0.854200  0.568600  0.523200  1.0  -0.1745
  C  C221  1  0.684500  0.583000  0.472300  1.0  0.7414
  C  C222  1  0.752900  0.597200  0.417500  1.0  -0.1859
  C  C223  1  0.646700  0.912600  0.345100  1.0  0.647
  C  C224  1  0.677500  0.870400  0.422600  1.0  -0.0569
  C  C225  1  0.550700  0.867300  0.623700  1.0  0.7317
  C  C226  1  0.569500  0.881200  0.523100  1.0  -0.1913
  C  C227  1  0.550900  0.734500  0.474400  1.0  0.7187
  C  C228  1  0.585200  0.787700  0.417200  1.0  -0.1889
  S  S229  1  0.166570  0.807800  0.214060  1.0  -0.2671
  S  S230  1  0.809380  0.209440  0.226250  1.0  -0.2651
  S  S231  1  0.833430  0.192200  0.714060  1.0  -0.2669
  S  S232  1  0.190620  0.790560  0.726250  1.0  -0.2646
  S  S233  1  0.666570  0.692200  0.214060  1.0  -0.2675
  S  S234  1  0.309380  0.290560  0.226250  1.0  -0.2647
  S  S235  1  0.333430  0.307800  0.714060  1.0  -0.2667
  S  S236  1  0.690620  0.709440  0.726250  1.0  -0.265
  N  N237  1  0.688100  0.120900  0.977500  1.0  -0.1139
  N  N238  1  0.878200  0.335900  0.977600  1.0  -0.1145
  N  N239  1  0.118300  0.665300  0.977800  1.0  -0.1042
  N  N240  1  0.306800  0.887200  0.974500  1.0  -0.1145
  N  N241  1  0.311900  0.879100  0.477500  1.0  -0.1139
  N  N242  1  0.121800  0.664100  0.477600  1.0  -0.1143
  N  N243  1  0.881700  0.334700  0.477800  1.0  -0.1042
  N  N244  1  0.693200  0.112800  0.474500  1.0  -0.1143
  N  N245  1  0.188100  0.379100  0.977500  1.0  -0.1136
  N  N246  1  0.378200  0.164100  0.977600  1.0  -0.1147
  N  N247  1  0.618300  0.834700  0.977800  1.0  -0.1044
  N  N248  1  0.806800  0.612800  0.974500  1.0  -0.1152
  N  N249  1  0.811900  0.620900  0.477500  1.0  -0.1148
  N  N250  1  0.621800  0.835900  0.477600  1.0  -0.1144
  N  N251  1  0.381700  0.165300  0.477800  1.0  -0.1044
  N  N252  1  0.193200  0.387200  0.474500  1.0  -0.1141
  O  O253  1  0.210500  0.567500  0.799900  1.0  -0.5081
  O  O254  1  0.093000  0.572100  0.833600  1.0  -0.5543
  O  O255  1  0.990400  0.605700  0.150800  1.0  -0.6355
  O  O256  1  0.074300  0.681500  0.164300  1.0  -0.5709
  O  O257  1  0.987500  0.787500  0.922300  1.0  -0.4959
  O  O258  1  0.063700  0.776400  0.041900  1.0  -0.6114
  O  O259  1  0.212100  0.774970  0.997100  1.0  -0.6192
  O  O260  1  0.167700  0.899900  0.026400  1.0  -0.5649
  O  O261  1  0.134200  0.949800  0.894500  1.0  -0.5008
  O  O262  1  0.267700  0.924500  0.158000  1.0  -0.5702
  O  O263  1  0.332900  0.013300  0.147500  1.0  -0.599
  O  O264  1  0.425800  0.833900  0.787800  1.0  -0.5054
  O  O265  1  0.415700  0.933200  0.846500  1.0  -0.5948
  O  O266  1  0.568800  0.171800  0.786700  1.0  -0.4918
  O  O267  1  0.597300  0.072200  0.831900  1.0  -0.566
  O  O268  1  0.646600  0.999800  0.153800  1.0  -0.595
  O  O269  1  0.705000  0.092910  0.170300  1.0  -0.5885
  O  O270  1  0.865900  0.053200  0.935900  1.0  -0.4731
  O  O271  1  0.818000  0.107780  0.055400  1.0  -0.5958
  O  O272  1  0.778770  0.230910  0.002000  1.0  -0.6946
  O  O273  1  0.923400  0.227090  0.057800  1.0  -0.6088
  O  O274  1  0.995500  0.200100  0.940000  1.0  -0.4699
  O  O275  1  0.910700  0.327800  0.170800  1.0  -0.5836
  O  O276  1  0.002300  0.396600  0.156700  1.0  -0.6265
  O  O277  1  0.801100  0.440700  0.796100  1.0  -0.5134
  O  O278  1  0.917100  0.421100  0.829300  1.0  -0.5697
  O  O279  1  0.789500  0.432500  0.299900  1.0  -0.5059
  O  O280  1  0.907000  0.427900  0.333600  1.0  -0.5561
  O  O281  1  0.009600  0.394300  0.650800  1.0  -0.6356
  O  O282  1  0.925700  0.318500  0.664300  1.0  -0.5707
  O  O283  1  0.012500  0.212500  0.422300  1.0  -0.4924
  O  O284  1  0.936300  0.223600  0.541900  1.0  -0.6091
  O  O285  1  0.787900  0.225030  0.497100  1.0  -0.6192
  O  O286  1  0.832300  0.100100  0.526400  1.0  -0.5672
  O  O287  1  0.865800  0.050200  0.394500  1.0  -0.4993
  O  O288  1  0.732300  0.075500  0.658000  1.0  -0.5701
  O  O289  1  0.667100  0.986700  0.647500  1.0  -0.5992
  O  O290  1  0.574200  0.166100  0.287800  1.0  -0.5067
  O  O291  1  0.584300  0.066800  0.346500  1.0  -0.5949
  O  O292  1  0.431200  0.828200  0.286700  1.0  -0.4914
  O  O293  1  0.402700  0.927800  0.331900  1.0  -0.5673
  O  O294  1  0.353400  0.000200  0.653800  1.0  -0.5981
  O  O295  1  0.295000  0.907090  0.670300  1.0  -0.587
  O  O296  1  0.134100  0.946800  0.435900  1.0  -0.4736
  O  O297  1  0.182000  0.892220  0.555400  1.0  -0.5978
  O  O298  1  0.221230  0.769090  0.502000  1.0  -0.6948
  O  O299  1  0.076600  0.772910  0.557800  1.0  -0.6102
  O  O300  1  0.004500  0.799900  0.440000  1.0  -0.4725
  O  O301  1  0.089300  0.672200  0.670800  1.0  -0.5844
  O  O302  1  0.997700  0.603400  0.656700  1.0  -0.6276
  O  O303  1  0.198900  0.559300  0.296100  1.0  -0.5102
  O  O304  1  0.082900  0.578900  0.329300  1.0  -0.5681
  O  O305  1  0.710500  0.932500  0.799900  1.0  -0.5087
  O  O306  1  0.593000  0.927900  0.833600  1.0  -0.5543
  O  O307  1  0.490400  0.894300  0.150800  1.0  -0.6364
  O  O308  1  0.574300  0.818500  0.164300  1.0  -0.5708
  O  O309  1  0.487500  0.712500  0.922300  1.0  -0.4939
  O  O310  1  0.563700  0.723600  0.041900  1.0  -0.6102
  O  O311  1  0.712100  0.725030  0.997100  1.0  -0.6192
  O  O312  1  0.667700  0.600100  0.026400  1.0  -0.5647
  O  O313  1  0.634200  0.550200  0.894500  1.0  -0.4991
  O  O314  1  0.767700  0.575500  0.158000  1.0  -0.5702
  O  O315  1  0.832900  0.486700  0.147500  1.0  -0.5986
  O  O316  1  0.925800  0.666100  0.787800  1.0  -0.5054
  O  O317  1  0.915700  0.566800  0.846500  1.0  -0.5951
  O  O318  1  0.068800  0.328200  0.786700  1.0  -0.4928
  O  O319  1  0.097300  0.427800  0.831900  1.0  -0.5669
  O  O320  1  0.146600  0.500200  0.153800  1.0  -0.5936
  O  O321  1  0.205000  0.407090  0.170300  1.0  -0.5883
  O  O322  1  0.365900  0.446800  0.935900  1.0  -0.4757
  O  O323  1  0.318000  0.392220  0.055400  1.0  -0.5962
  O  O324  1  0.278770  0.269090  0.002000  1.0  -0.695
  O  O325  1  0.423400  0.272910  0.057800  1.0  -0.6093
  O  O326  1  0.495500  0.299900  0.940000  1.0  -0.474
  O  O327  1  0.410700  0.172200  0.170800  1.0  -0.5842
  O  O328  1  0.502300  0.103400  0.156700  1.0  -0.6266
  O  O329  1  0.301100  0.059300  0.796100  1.0  -0.514
  O  O330  1  0.417100  0.078900  0.829300  1.0  -0.57
  O  O331  1  0.289500  0.067500  0.299900  1.0  -0.5046
  O  O332  1  0.407000  0.072100  0.333600  1.0  -0.5558
  O  O333  1  0.509600  0.105700  0.650800  1.0  -0.6353
  O  O334  1  0.425700  0.181500  0.664300  1.0  -0.571
  O  O335  1  0.512500  0.287500  0.422300  1.0  -0.4954
  O  O336  1  0.436300  0.276400  0.541900  1.0  -0.6095
  O  O337  1  0.287900  0.274970  0.497100  1.0  -0.6195
  O  O338  1  0.332300  0.399900  0.526400  1.0  -0.5669
  O  O339  1  0.365800  0.449800  0.394500  1.0  -0.5007
  O  O340  1  0.232300  0.424500  0.658000  1.0  -0.5704
  O  O341  1  0.167100  0.513300  0.647500  1.0  -0.5997
  O  O342  1  0.074200  0.333900  0.287800  1.0  -0.5056
  O  O343  1  0.084300  0.433200  0.346500  1.0  -0.5949
  O  O344  1  0.931200  0.671800  0.286700  1.0  -0.4918
  O  O345  1  0.902700  0.572200  0.331900  1.0  -0.5664
  O  O346  1  0.853400  0.499800  0.653800  1.0  -0.5985
  O  O347  1  0.795000  0.592910  0.670300  1.0  -0.5873
  O  O348  1  0.634100  0.553200  0.435900  1.0  -0.471
  O  O349  1  0.682000  0.607780  0.555400  1.0  -0.5971
  O  O350  1  0.721230  0.730910  0.502000  1.0  -0.6945
  O  O351  1  0.576600  0.727090  0.557800  1.0  -0.608
  O  O352  1  0.504500  0.700100  0.440000  1.0  -0.4691
  O  O353  1  0.589300  0.827800  0.670800  1.0  -0.5844
  O  O354  1  0.497700  0.896600  0.656700  1.0  -0.6275
  O  O355  1  0.698900  0.940700  0.296100  1.0  -0.5121
  O  O356  1  0.582900  0.921100  0.329300  1.0  -0.5677
