# generated using pymatgen
data_CeP2C10(NO3)2
_symmetry_space_group_name_H-M   'P 1'
_cell_length_a   22.91500000
_cell_length_b   14.28020000
_cell_length_c   5.64510000
_cell_angle_alpha   90.00000000
_cell_angle_beta   102.80100000
_cell_angle_gamma   90.00000000
_symmetry_Int_Tables_number   1
_chemical_formula_structural   CeP2C10(NO3)2
_chemical_formula_sum   'Ce4 P8 C40 N8 O24'
_cell_volume   1801.33798247
_cell_formula_units_Z   4
loop_
 _symmetry_equiv_pos_site_id
 _symmetry_equiv_pos_as_xyz
  1  'x, y, z'
loop_
 _atom_site_type_symbol
 _atom_site_label
 _atom_site_symmetry_multiplicity
 _atom_site_fract_x
 _atom_site_fract_y
 _atom_site_fract_z
 _atom_site_occupancy
 _atom_site_charge
  Ce  Ce1  1  0.500000  0.103050  0.750000  1.0  2.281
  Ce  Ce2  1  0.000000  0.603050  0.750000  1.0  2.281
  Ce  Ce3  1  0.500000  0.896950  0.250000  1.0  2.2814
  Ce  Ce4  1  0.000000  0.396950  0.250000  1.0  2.2814
  P  P5  1  0.584330  0.132200  0.273600  1.0  1.416
  P  P6  1  0.084330  0.632200  0.273600  1.0  1.416
  P  P7  1  0.415670  0.132200  0.226400  1.0  1.4201
  P  P8  1  0.915670  0.632200  0.226400  1.0  1.4201
  P  P9  1  0.415670  0.867800  0.726400  1.0  1.4199
  P  P10  1  0.915670  0.367800  0.726400  1.0  1.4199
  P  P11  1  0.584330  0.867800  0.773600  1.0  1.4162
  P  P12  1  0.084330  0.367800  0.773600  1.0  1.4162
  C  C13  1  0.666400  0.103000  0.360500  1.0  -0.0724
  C  C14  1  0.764600  0.152880  0.468200  1.0  -0.0107
  C  C15  1  0.778300  0.091900  0.703000  1.0  -0.0402
  C  C16  1  0.695440  0.278000  0.336500  1.0  0.1127
  C  C17  1  0.647300  0.355000  0.337000  1.0  -0.0586
  C  C18  1  0.166400  0.603000  0.360500  1.0  -0.0724
  C  C19  1  0.264600  0.652880  0.468200  1.0  -0.0107
  C  C20  1  0.278300  0.591900  0.703000  1.0  -0.0402
  C  C21  1  0.195440  0.778000  0.336500  1.0  0.1127
  C  C22  1  0.147300  0.855000  0.337000  1.0  -0.0586
  C  C23  1  0.333600  0.103000  0.139500  1.0  -0.073
  C  C24  1  0.235400  0.152880  0.031800  1.0  -0.0166
  C  C25  1  0.221700  0.091900  0.797000  1.0  -0.0375
  C  C26  1  0.304560  0.278000  0.163500  1.0  0.1159
  C  C27  1  0.352700  0.355000  0.163000  1.0  -0.0576
  C  C28  1  0.833600  0.603000  0.139500  1.0  -0.073
  C  C29  1  0.735400  0.652880  0.031800  1.0  -0.0166
  C  C30  1  0.721700  0.591900  0.797000  1.0  -0.0375
  C  C31  1  0.804560  0.778000  0.163500  1.0  0.1159
  C  C32  1  0.852700  0.855000  0.163000  1.0  -0.0576
  C  C33  1  0.333600  0.897000  0.639500  1.0  -0.0751
  C  C34  1  0.235400  0.847120  0.531800  1.0  -0.0169
  C  C35  1  0.221700  0.908100  0.297000  1.0  -0.0391
  C  C36  1  0.304560  0.722000  0.663500  1.0  0.1147
  C  C37  1  0.352700  0.645000  0.663000  1.0  -0.0604
  C  C38  1  0.833600  0.397000  0.639500  1.0  -0.0751
  C  C39  1  0.735400  0.347120  0.531800  1.0  -0.0169
  C  C40  1  0.721700  0.408100  0.297000  1.0  -0.0391
  C  C41  1  0.804560  0.222000  0.663500  1.0  0.1147
  C  C42  1  0.852700  0.145000  0.663000  1.0  -0.0604
  C  C43  1  0.666400  0.897000  0.860500  1.0  -0.0744
  C  C44  1  0.764600  0.847120  0.968200  1.0  -0.0113
  C  C45  1  0.778300  0.908100  0.203000  1.0  -0.0404
  C  C46  1  0.695440  0.722000  0.836500  1.0  0.1109
  C  C47  1  0.647300  0.645000  0.837000  1.0  -0.0595
  C  C48  1  0.166400  0.397000  0.860500  1.0  -0.0744
  C  C49  1  0.264600  0.347120  0.968200  1.0  -0.0113
  C  C50  1  0.278300  0.408100  0.203000  1.0  -0.0404
  C  C51  1  0.195440  0.222000  0.836500  1.0  0.1109
  C  C52  1  0.147300  0.145000  0.837000  1.0  -0.0595
  N  N53  1  0.701450  0.185800  0.479900  1.0  -0.172
  N  N54  1  0.201450  0.685800  0.479900  1.0  -0.172
  N  N55  1  0.298550  0.185800  0.020100  1.0  -0.1693
  N  N56  1  0.798550  0.685800  0.020100  1.0  -0.1693
  N  N57  1  0.298550  0.814200  0.520100  1.0  -0.1692
  N  N58  1  0.798550  0.314200  0.520100  1.0  -0.1692
  N  N59  1  0.701450  0.814200  0.979900  1.0  -0.1719
  N  N60  1  0.201450  0.314200  0.979900  1.0  -0.1719
  O  O61  1  0.551400  0.038100  0.159600  1.0  -0.8621
  O  O62  1  0.567100  0.199800  0.032800  1.0  -0.6831
  O  O63  1  0.561300  0.161900  0.502700  1.0  -0.7693
  O  O64  1  0.051400  0.538100  0.159600  1.0  -0.8621
  O  O65  1  0.067100  0.699800  0.032800  1.0  -0.6831
  O  O66  1  0.061300  0.661900  0.502700  1.0  -0.7693
  O  O67  1  0.448600  0.038100  0.340400  1.0  -0.8626
  O  O68  1  0.432900  0.199800  0.467200  1.0  -0.6836
  O  O69  1  0.438700  0.161900  0.997300  1.0  -0.7697
  O  O70  1  0.948600  0.538100  0.340400  1.0  -0.8626
  O  O71  1  0.932900  0.699800  0.467200  1.0  -0.6836
  O  O72  1  0.938700  0.661900  0.997300  1.0  -0.7697
  O  O73  1  0.448600  0.961900  0.840400  1.0  -0.8624
  O  O74  1  0.432900  0.800200  0.967200  1.0  -0.6844
  O  O75  1  0.438700  0.838100  0.497300  1.0  -0.7689
  O  O76  1  0.948600  0.461900  0.840400  1.0  -0.8624
  O  O77  1  0.932900  0.300200  0.967200  1.0  -0.6844
  O  O78  1  0.938700  0.338100  0.497300  1.0  -0.7689
  O  O79  1  0.551400  0.961900  0.659600  1.0  -0.8621
  O  O80  1  0.567100  0.800200  0.532800  1.0  -0.6829
  O  O81  1  0.561300  0.838100  0.002700  1.0  -0.7717
  O  O82  1  0.051400  0.461900  0.659600  1.0  -0.8621
  O  O83  1  0.067100  0.300200  0.532800  1.0  -0.6829
  O  O84  1  0.061300  0.338100  0.002700  1.0  -0.7717
