# generated using pymatgen
data_CdH5C4N9
_symmetry_space_group_name_H-M   'P 1'
_cell_length_a   20.81970000
_cell_length_b   20.81970000
_cell_length_c   11.55810000
_cell_angle_alpha   90.00000000
_cell_angle_beta   90.00000000
_cell_angle_gamma   120.00000000
_symmetry_Int_Tables_number   1
_chemical_formula_structural   CdH5C4N9
_chemical_formula_sum   'Cd18 H90 C72 N162'
_cell_volume   4338.76385883
_cell_formula_units_Z   18
loop_
 _symmetry_equiv_pos_site_id
 _symmetry_equiv_pos_as_xyz
  1  'x, y, z'
loop_
 _atom_site_type_symbol
 _atom_site_label
 _atom_site_symmetry_multiplicity
 _atom_site_fract_x
 _atom_site_fract_y
 _atom_site_fract_z
 _atom_site_occupancy
 _atom_site_charge
  Cd  Cd1  1  0.462630  0.983780  0.302240  1.0  0.896
  Cd  Cd2  1  0.129290  0.317120  0.635570  1.0  0.896
  Cd  Cd3  1  0.795960  0.650450  0.968910  1.0  0.896
  Cd  Cd4  1  0.016220  0.478840  0.302240  1.0  0.8931
  Cd  Cd5  1  0.682880  0.812180  0.635570  1.0  0.8931
  Cd  Cd6  1  0.349550  0.145510  0.968910  1.0  0.8931
  Cd  Cd7  1  0.521160  0.537370  0.302240  1.0  0.8942
  Cd  Cd8  1  0.187820  0.870710  0.635570  1.0  0.8942
  Cd  Cd9  1  0.854490  0.204040  0.968910  1.0  0.8942
  Cd  Cd10  1  0.537370  0.016220  0.697760  1.0  0.896
  Cd  Cd11  1  0.204040  0.349550  0.031090  1.0  0.896
  Cd  Cd12  1  0.870710  0.682880  0.364430  1.0  0.896
  Cd  Cd13  1  0.983780  0.521160  0.697760  1.0  0.8946
  Cd  Cd14  1  0.650450  0.854490  0.031090  1.0  0.8946
  Cd  Cd15  1  0.317120  0.187820  0.364430  1.0  0.8946
  Cd  Cd16  1  0.478840  0.462630  0.697760  1.0  0.8941
  Cd  Cd17  1  0.145510  0.795960  0.031090  1.0  0.8941
  Cd  Cd18  1  0.812180  0.129290  0.364430  1.0  0.8941
  H  H19  1  0.225800  0.010100  0.145000  1.0  0.0998
  H  H20  1  0.141500  0.962700  0.113000  1.0  0.1197
  H  H21  1  0.242300  0.891800  0.302100  1.0  0.1053
  H  H22  1  0.283400  0.969700  0.242200  1.0  0.0832
  H  H23  1  0.148400  0.886700  0.225700  1.0  0.2175
  H  H24  1  0.892470  0.343430  0.478330  1.0  0.1001
  H  H25  1  0.808170  0.296030  0.446330  1.0  0.1218
  H  H26  1  0.908970  0.225130  0.635430  1.0  0.1052
  H  H27  1  0.950070  0.303030  0.575530  1.0  0.0832
  H  H28  1  0.815070  0.220030  0.559030  1.0  0.2175
  H  H29  1  0.559130  0.676770  0.811670  1.0  0.0998
  H  H30  1  0.474830  0.629370  0.779670  1.0  0.1197
  H  H31  1  0.575630  0.558470  0.968770  1.0  0.1053
  H  H32  1  0.616730  0.636370  0.908870  1.0  0.0831
  H  H33  1  0.481730  0.553370  0.892370  1.0  0.2175
  H  H34  1  0.989900  0.215700  0.145000  1.0  0.0983
  H  H35  1  0.037300  0.178800  0.113000  1.0  0.1142
  H  H36  1  0.108200  0.350500  0.302100  1.0  0.105
  H  H37  1  0.030300  0.313700  0.242200  1.0  0.0812
  H  H38  1  0.113300  0.261700  0.225700  1.0  0.2185
  H  H39  1  0.656570  0.549030  0.478330  1.0  0.0983
  H  H40  1  0.703970  0.512130  0.446330  1.0  0.1119
  H  H41  1  0.774870  0.683830  0.635430  1.0  0.105
  H  H42  1  0.696970  0.647030  0.575530  1.0  0.0811
  H  H43  1  0.779970  0.595030  0.559030  1.0  0.2185
  H  H44  1  0.323230  0.882370  0.811670  1.0  0.0982
  H  H45  1  0.370630  0.845470  0.779670  1.0  0.1142
  H  H46  1  0.441530  0.017170  0.968770  1.0  0.105
  H  H47  1  0.363630  0.980370  0.908870  1.0  0.0812
  H  H48  1  0.446630  0.928370  0.892370  1.0  0.2185
  H  H49  1  0.784300  0.774200  0.145000  1.0  0.0991
  H  H50  1  0.821200  0.858500  0.113000  1.0  0.1155
  H  H51  1  0.649500  0.757700  0.302100  1.0  0.1034
  H  H52  1  0.686300  0.716600  0.242200  1.0  0.0809
  H  H53  1  0.738300  0.851600  0.225700  1.0  0.2188
  H  H54  1  0.450970  0.107530  0.478330  1.0  0.0987
  H  H55  1  0.487870  0.191830  0.446330  1.0  0.1137
  H  H56  1  0.316170  0.091030  0.635430  1.0  0.1034
  H  H57  1  0.352970  0.049930  0.575530  1.0  0.0809
  H  H58  1  0.404970  0.184930  0.559030  1.0  0.2188
  H  H59  1  0.117630  0.440870  0.811670  1.0  0.0989
  H  H60  1  0.154530  0.525170  0.779670  1.0  0.1155
  H  H61  1  0.982830  0.424370  0.968770  1.0  0.1034
  H  H62  1  0.019630  0.383270  0.908870  1.0  0.0809
  H  H63  1  0.071630  0.518270  0.892370  1.0  0.2188
  H  H64  1  0.774200  0.989900  0.855000  1.0  0.1011
  H  H65  1  0.858500  0.037300  0.887000  1.0  0.1173
  H  H66  1  0.757700  0.108200  0.697900  1.0  0.1064
  H  H67  1  0.716600  0.030300  0.757800  1.0  0.0825
  H  H68  1  0.851600  0.113300  0.774300  1.0  0.2198
  H  H69  1  0.440870  0.323230  0.188330  1.0  0.1011
  H  H70  1  0.525170  0.370630  0.220330  1.0  0.1173
  H  H71  1  0.424370  0.441530  0.031230  1.0  0.1064
  H  H72  1  0.383270  0.363630  0.091130  1.0  0.0825
  H  H73  1  0.518270  0.446630  0.107630  1.0  0.2198
  H  H74  1  0.107530  0.656570  0.521670  1.0  0.1013
  H  H75  1  0.191830  0.703970  0.553670  1.0  0.1209
  H  H76  1  0.091030  0.774870  0.364570  1.0  0.1064
  H  H77  1  0.049930  0.696970  0.424470  1.0  0.0825
  H  H78  1  0.184930  0.779970  0.440970  1.0  0.2198
  H  H79  1  0.010100  0.784300  0.855000  1.0  0.0973
  H  H80  1  0.962700  0.821200  0.887000  1.0  0.1172
  H  H81  1  0.891800  0.649500  0.697900  1.0  0.1048
  H  H82  1  0.969700  0.686300  0.757800  1.0  0.0814
  H  H83  1  0.886700  0.738300  0.774300  1.0  0.2204
  H  H84  1  0.676770  0.117630  0.188330  1.0  0.0972
  H  H85  1  0.629370  0.154530  0.220330  1.0  0.1172
  H  H86  1  0.558470  0.982830  0.031230  1.0  0.1048
  H  H87  1  0.636370  0.019630  0.091130  1.0  0.0814
  H  H88  1  0.553370  0.071630  0.107630  1.0  0.2204
  H  H89  1  0.343430  0.450970  0.521670  1.0  0.0975
  H  H90  1  0.296030  0.487870  0.553670  1.0  0.1145
  H  H91  1  0.225130  0.316170  0.364570  1.0  0.1048
  H  H92  1  0.303030  0.352970  0.424470  1.0  0.0813
  H  H93  1  0.220030  0.404970  0.440970  1.0  0.2204
  H  H94  1  0.215700  0.225800  0.855000  1.0  0.0996
  H  H95  1  0.178800  0.141500  0.887000  1.0  0.1135
  H  H96  1  0.350500  0.242300  0.697900  1.0  0.1045
  H  H97  1  0.313700  0.283400  0.757800  1.0  0.0803
  H  H98  1  0.261700  0.148400  0.774300  1.0  0.2201
  H  H99  1  0.882370  0.559130  0.188330  1.0  0.0995
  H  H100  1  0.845470  0.474830  0.220330  1.0  0.1135
  H  H101  1  0.017170  0.575630  0.031230  1.0  0.1045
  H  H102  1  0.980370  0.616730  0.091130  1.0  0.0803
  H  H103  1  0.928370  0.481730  0.107630  1.0  0.2201
  H  H104  1  0.549030  0.892470  0.521670  1.0  0.0991
  H  H105  1  0.512130  0.808170  0.553670  1.0  0.1108
  H  H106  1  0.683830  0.908970  0.364570  1.0  0.1045
  H  H107  1  0.647030  0.950070  0.424470  1.0  0.0803
  H  H108  1  0.595030  0.815070  0.440970  1.0  0.2201
  C  C109  1  0.188900  0.964600  0.108100  1.0  -0.1695
  C  C110  1  0.253700  0.916800  0.227900  1.0  -0.1834
  C  C111  1  0.209100  0.966050  0.983000  1.0  0.4005
  C  C112  1  0.297690  0.892460  0.157300  1.0  0.3728
  C  C113  1  0.855570  0.297930  0.441430  1.0  -0.1695
  C  C114  1  0.920370  0.250130  0.561230  1.0  -0.1835
  C  C115  1  0.875770  0.299380  0.316330  1.0  0.4005
  C  C116  1  0.964360  0.225790  0.490630  1.0  0.3728
  C  C117  1  0.522230  0.631270  0.774770  1.0  -0.1695
  C  C118  1  0.587030  0.583470  0.894570  1.0  -0.1834
  C  C119  1  0.542430  0.632720  0.649670  1.0  0.4005
  C  C120  1  0.631020  0.559130  0.823970  1.0  0.3728
  C  C121  1  0.035400  0.224300  0.108100  1.0  -0.1673
  C  C122  1  0.083200  0.336900  0.227900  1.0  -0.1834
  C  C123  1  0.033950  0.243050  0.983000  1.0  0.4001
  C  C124  1  0.107540  0.405230  0.157300  1.0  0.3743
  C  C125  1  0.702070  0.557630  0.441430  1.0  -0.1673
  C  C126  1  0.749870  0.670230  0.561230  1.0  -0.1834
  C  C127  1  0.700620  0.576380  0.316330  1.0  0.4001
  C  C128  1  0.774210  0.738560  0.490630  1.0  0.3743
  C  C129  1  0.368730  0.890970  0.774770  1.0  -0.1673
  C  C130  1  0.416530  0.003570  0.894570  1.0  -0.1834
  C  C131  1  0.367280  0.909720  0.649670  1.0  0.4001
  C  C132  1  0.440870  0.071900  0.823970  1.0  0.3742
  C  C133  1  0.775700  0.811100  0.108100  1.0  -0.168
  C  C134  1  0.663100  0.746300  0.227900  1.0  -0.1862
  C  C135  1  0.756950  0.790900  0.983000  1.0  0.3995
  C  C136  1  0.594770  0.702310  0.157300  1.0  0.3751
  C  C137  1  0.442370  0.144430  0.441430  1.0  -0.168
  C  C138  1  0.329770  0.079630  0.561230  1.0  -0.186
  C  C139  1  0.423620  0.124230  0.316330  1.0  0.3995
  C  C140  1  0.261440  0.035640  0.490630  1.0  0.3751
  C  C141  1  0.109030  0.477770  0.774770  1.0  -0.168
  C  C142  1  0.996430  0.412970  0.894570  1.0  -0.1862
  C  C143  1  0.090280  0.457570  0.649670  1.0  0.3995
  C  C144  1  0.928100  0.368980  0.823970  1.0  0.3751
  C  C145  1  0.811100  0.035400  0.891900  1.0  -0.1692
  C  C146  1  0.746300  0.083200  0.772100  1.0  -0.1797
  C  C147  1  0.790900  0.033950  0.017000  1.0  0.3986
  C  C148  1  0.702310  0.107540  0.842700  1.0  0.3754
  C  C149  1  0.477770  0.368730  0.225230  1.0  -0.1692
  C  C150  1  0.412970  0.416530  0.105430  1.0  -0.1797
  C  C151  1  0.457570  0.367280  0.350330  1.0  0.3986
  C  C152  1  0.368980  0.440870  0.176030  1.0  0.3754
  C  C153  1  0.144430  0.702070  0.558570  1.0  -0.1692
  C  C154  1  0.079630  0.749870  0.438770  1.0  -0.1798
  C  C155  1  0.124230  0.700620  0.683670  1.0  0.3986
  C  C156  1  0.035640  0.774210  0.509370  1.0  0.3754
  C  C157  1  0.964600  0.775700  0.891900  1.0  -0.1709
  C  C158  1  0.916800  0.663100  0.772100  1.0  -0.1805
  C  C159  1  0.966050  0.756950  0.017000  1.0  0.3999
  C  C160  1  0.892460  0.594770  0.842700  1.0  0.3736
  C  C161  1  0.631270  0.109030  0.225230  1.0  -0.1709
  C  C162  1  0.583470  0.996430  0.105430  1.0  -0.1805
  C  C163  1  0.632720  0.090280  0.350330  1.0  0.3999
  C  C164  1  0.559130  0.928100  0.176030  1.0  0.3735
  C  C165  1  0.297930  0.442370  0.558570  1.0  -0.1709
  C  C166  1  0.250130  0.329770  0.438770  1.0  -0.1805
  C  C167  1  0.299380  0.423620  0.683670  1.0  0.3999
  C  C168  1  0.225790  0.261440  0.509370  1.0  0.3736
  C  C169  1  0.224300  0.188900  0.891900  1.0  -0.1667
  C  C170  1  0.336900  0.253700  0.772100  1.0  -0.1813
  C  C171  1  0.243050  0.209100  0.017000  1.0  0.3993
  C  C172  1  0.405230  0.297690  0.842700  1.0  0.3734
  C  C173  1  0.890970  0.522230  0.225230  1.0  -0.1667
  C  C174  1  0.003570  0.587030  0.105430  1.0  -0.1813
  C  C175  1  0.909720  0.542430  0.350330  1.0  0.3993
  C  C176  1  0.071900  0.631020  0.176030  1.0  0.3733
  C  C177  1  0.557630  0.855570  0.558570  1.0  -0.1667
  C  C178  1  0.670230  0.920370  0.438770  1.0  -0.1811
  C  C179  1  0.576380  0.875770  0.683670  1.0  0.3993
  C  C180  1  0.738560  0.964360  0.509370  1.0  0.3733
  N  N181  1  0.184260  0.900990  0.170600  1.0  -0.422
  N  N182  1  0.254810  0.026080  0.924200  1.0  -0.2671
  N  N183  1  0.252850  0.003930  0.814300  1.0  -0.1327
  N  N184  1  0.208400  0.932540  0.810200  1.0  -0.0236
  N  N185  1  0.179080  0.906220  0.916000  1.0  -0.3171
  N  N186  1  0.269810  0.846970  0.067000  1.0  -0.2729
  N  N187  1  0.324210  0.834700  0.029900  1.0  -0.0894
  N  N188  1  0.382710  0.871770  0.094900  1.0  -0.0993
  N  N189  1  0.367360  0.909070  0.176900  1.0  -0.3072
  N  N190  1  0.850930  0.234320  0.503930  1.0  -0.422
  N  N191  1  0.921480  0.359410  0.257530  1.0  -0.2671
  N  N192  1  0.919520  0.337260  0.147630  1.0  -0.1327
  N  N193  1  0.875070  0.265870  0.143530  1.0  -0.0236
  N  N194  1  0.845750  0.239550  0.249330  1.0  -0.3171
  N  N195  1  0.936480  0.180300  0.400330  1.0  -0.2729
  N  N196  1  0.990880  0.168030  0.363230  1.0  -0.0897
  N  N197  1  0.049380  0.205100  0.428230  1.0  -0.0993
  N  N198  1  0.034030  0.242400  0.510230  1.0  -0.3072
  N  N199  1  0.517590  0.567660  0.837270  1.0  -0.422
  N  N200  1  0.588140  0.692750  0.590870  1.0  -0.2672
  N  N201  1  0.586180  0.670600  0.480970  1.0  -0.1327
  N  N202  1  0.541730  0.599210  0.476870  1.0  -0.0236
  N  N203  1  0.512410  0.572890  0.582670  1.0  -0.3171
  N  N204  1  0.603140  0.513640  0.733670  1.0  -0.2729
  N  N205  1  0.657540  0.501370  0.696570  1.0  -0.1001
  N  N206  1  0.716040  0.538440  0.761570  1.0  -0.0993
  N  N207  1  0.700690  0.575740  0.843570  1.0  -0.3072
  N  N208  1  0.099010  0.283270  0.170600  1.0  -0.4239
  N  N209  1  0.973920  0.228730  0.924200  1.0  -0.2656
  N  N210  1  0.996070  0.248920  0.814300  1.0  -0.1304
  N  N211  1  0.067460  0.275860  0.810200  1.0  -0.0229
  N  N212  1  0.093780  0.272860  0.916000  1.0  -0.315
  N  N213  1  0.153030  0.422840  0.067000  1.0  -0.2779
  N  N214  1  0.165300  0.489510  0.029900  1.0  -0.1025
  N  N215  1  0.128230  0.510940  0.094900  1.0  -0.0956
  N  N216  1  0.090930  0.458290  0.176900  1.0  -0.304
  N  N217  1  0.765680  0.616600  0.503930  1.0  -0.4239
  N  N218  1  0.640590  0.562060  0.257530  1.0  -0.2656
  N  N219  1  0.662740  0.582250  0.147630  1.0  -0.1304
  N  N220  1  0.734130  0.609190  0.143530  1.0  -0.0229
  N  N221  1  0.760450  0.606190  0.249330  1.0  -0.315
  N  N222  1  0.819700  0.756170  0.400330  1.0  -0.2779
  N  N223  1  0.831970  0.822840  0.363230  1.0  -0.099
  N  N224  1  0.794900  0.844270  0.428230  1.0  -0.0956
  N  N225  1  0.757600  0.791620  0.510230  1.0  -0.3041
  N  N226  1  0.432340  0.949940  0.837270  1.0  -0.4239
  N  N227  1  0.307250  0.895400  0.590870  1.0  -0.2655
  N  N228  1  0.329400  0.915590  0.480970  1.0  -0.1304
  N  N229  1  0.400790  0.942530  0.476870  1.0  -0.0229
  N  N230  1  0.427110  0.939530  0.582670  1.0  -0.315
  N  N231  1  0.486360  0.089510  0.733670  1.0  -0.2779
  N  N232  1  0.498630  0.156180  0.696570  1.0  -0.0944
  N  N233  1  0.461560  0.177610  0.761570  1.0  -0.0956
  N  N234  1  0.424260  0.124960  0.843570  1.0  -0.304
  N  N235  1  0.716730  0.815740  0.170600  1.0  -0.4233
  N  N236  1  0.771270  0.745190  0.924200  1.0  -0.2678
  N  N237  1  0.751080  0.747150  0.814300  1.0  -0.1306
  N  N238  1  0.724140  0.791600  0.810200  1.0  -0.0216
  N  N239  1  0.727140  0.820920  0.916000  1.0  -0.3148
  N  N240  1  0.577160  0.730190  0.067000  1.0  -0.2785
  N  N241  1  0.510490  0.675790  0.029900  1.0  -0.0952
  N  N242  1  0.489060  0.617290  0.094900  1.0  -0.1021
  N  N243  1  0.541710  0.632640  0.176900  1.0  -0.3021
  N  N244  1  0.383400  0.149070  0.503930  1.0  -0.4233
  N  N245  1  0.437940  0.078520  0.257530  1.0  -0.2678
  N  N246  1  0.417750  0.080480  0.147630  1.0  -0.1305
  N  N247  1  0.390810  0.124930  0.143530  1.0  -0.0216
  N  N248  1  0.393810  0.154250  0.249330  1.0  -0.3148
  N  N249  1  0.243830  0.063520  0.400330  1.0  -0.2785
  N  N250  1  0.177160  0.009120  0.363230  1.0  -0.1023
  N  N251  1  0.155730  0.950620  0.428230  1.0  -0.1021
  N  N252  1  0.208380  0.965970  0.510230  1.0  -0.3021
  N  N253  1  0.050060  0.482410  0.837270  1.0  -0.4233
  N  N254  1  0.104600  0.411860  0.590870  1.0  -0.2678
  N  N255  1  0.084410  0.413820  0.480970  1.0  -0.1305
  N  N256  1  0.057470  0.458270  0.476870  1.0  -0.0216
  N  N257  1  0.060470  0.487590  0.582670  1.0  -0.3148
  N  N258  1  0.910490  0.396860  0.733670  1.0  -0.2785
  N  N259  1  0.843820  0.342460  0.696570  1.0  -0.0962
  N  N260  1  0.822390  0.283960  0.761570  1.0  -0.1018
  N  N261  1  0.875040  0.299310  0.843570  1.0  -0.3021
  N  N262  1  0.815740  0.099010  0.829400  1.0  -0.4226
  N  N263  1  0.745190  0.973920  0.075800  1.0  -0.2684
  N  N264  1  0.747150  0.996070  0.185700  1.0  -0.1299
  N  N265  1  0.791600  0.067460  0.189800  1.0  -0.0251
  N  N266  1  0.820920  0.093780  0.084000  1.0  -0.3172
  N  N267  1  0.730190  0.153030  0.933000  1.0  -0.2737
  N  N268  1  0.675790  0.165300  0.970100  1.0  -0.0917
  N  N269  1  0.617290  0.128230  0.905100  1.0  -0.1003
  N  N270  1  0.632640  0.090930  0.823100  1.0  -0.3064
  N  N271  1  0.482410  0.432340  0.162730  1.0  -0.4226
  N  N272  1  0.411860  0.307250  0.409130  1.0  -0.2685
  N  N273  1  0.413820  0.329400  0.519030  1.0  -0.13
  N  N274  1  0.458270  0.400790  0.523130  1.0  -0.0251
  N  N275  1  0.487590  0.427110  0.417330  1.0  -0.3172
  N  N276  1  0.396860  0.486360  0.266330  1.0  -0.2737
  N  N277  1  0.342460  0.498630  0.303430  1.0  -0.1006
  N  N278  1  0.283960  0.461560  0.238430  1.0  -0.1003
  N  N279  1  0.299310  0.424260  0.156430  1.0  -0.3064
  N  N280  1  0.149070  0.765680  0.496070  1.0  -0.4226
  N  N281  1  0.078520  0.640590  0.742470  1.0  -0.2684
  N  N282  1  0.080480  0.662740  0.852370  1.0  -0.1299
  N  N283  1  0.124930  0.734130  0.856470  1.0  -0.0251
  N  N284  1  0.154250  0.760450  0.750670  1.0  -0.3172
  N  N285  1  0.063520  0.819700  0.599670  1.0  -0.2737
  N  N286  1  0.009120  0.831970  0.636770  1.0  -0.0929
  N  N287  1  0.950620  0.794900  0.571770  1.0  -0.1003
  N  N288  1  0.965970  0.757600  0.489770  1.0  -0.3064
  N  N289  1  0.900990  0.716730  0.829400  1.0  -0.4271
  N  N290  1  0.026080  0.771270  0.075800  1.0  -0.2653
  N  N291  1  0.003930  0.751080  0.185700  1.0  -0.1301
  N  N292  1  0.932540  0.724140  0.189800  1.0  -0.0254
  N  N293  1  0.906220  0.727140  0.084000  1.0  -0.3167
  N  N294  1  0.846970  0.577160  0.933000  1.0  -0.2787
  N  N295  1  0.834700  0.510490  0.970100  1.0  -0.1002
  N  N296  1  0.871770  0.489060  0.905100  1.0  -0.0963
  N  N297  1  0.909070  0.541710  0.823100  1.0  -0.3043
  N  N298  1  0.567660  0.050060  0.162730  1.0  -0.4271
  N  N299  1  0.692750  0.104600  0.409130  1.0  -0.2652
  N  N300  1  0.670600  0.084410  0.519030  1.0  -0.1301
  N  N301  1  0.599210  0.057470  0.523130  1.0  -0.0254
  N  N302  1  0.572890  0.060470  0.417330  1.0  -0.3167
  N  N303  1  0.513640  0.910490  0.266330  1.0  -0.2789
  N  N304  1  0.501370  0.843820  0.303430  1.0  -0.0914
  N  N305  1  0.538440  0.822390  0.238430  1.0  -0.0963
  N  N306  1  0.575740  0.875040  0.156430  1.0  -0.3043
  N  N307  1  0.234320  0.383400  0.496070  1.0  -0.4271
  N  N308  1  0.359410  0.437940  0.742470  1.0  -0.2653
  N  N309  1  0.337260  0.417750  0.852370  1.0  -0.1301
  N  N310  1  0.265870  0.390810  0.856470  1.0  -0.0254
  N  N311  1  0.239550  0.393810  0.750670  1.0  -0.3167
  N  N312  1  0.180300  0.243830  0.599670  1.0  -0.2787
  N  N313  1  0.168030  0.177160  0.636770  1.0  -0.0971
  N  N314  1  0.205100  0.155730  0.571770  1.0  -0.0963
  N  N315  1  0.242400  0.208380  0.489770  1.0  -0.3042
  N  N316  1  0.283270  0.184260  0.829400  1.0  -0.4228
  N  N317  1  0.228730  0.254810  0.075800  1.0  -0.2685
  N  N318  1  0.248920  0.252850  0.185700  1.0  -0.1314
  N  N319  1  0.275860  0.208400  0.189800  1.0  -0.0213
  N  N320  1  0.272860  0.179080  0.084000  1.0  -0.314
  N  N321  1  0.422840  0.269810  0.933000  1.0  -0.2775
  N  N322  1  0.489510  0.324210  0.970100  1.0  -0.0998
  N  N323  1  0.510940  0.382710  0.905100  1.0  -0.1023
  N  N324  1  0.458290  0.367360  0.823100  1.0  -0.3027
  N  N325  1  0.949940  0.517590  0.162730  1.0  -0.4228
  N  N326  1  0.895400  0.588140  0.409130  1.0  -0.2685
  N  N327  1  0.915590  0.586180  0.519030  1.0  -0.1313
  N  N328  1  0.942530  0.541730  0.523130  1.0  -0.0213
  N  N329  1  0.939530  0.512410  0.417330  1.0  -0.314
  N  N330  1  0.089510  0.603140  0.266330  1.0  -0.2775
  N  N331  1  0.156180  0.657540  0.303430  1.0  -0.1019
  N  N332  1  0.177610  0.716040  0.238430  1.0  -0.1023
  N  N333  1  0.124960  0.700690  0.156430  1.0  -0.3027
  N  N334  1  0.616600  0.850930  0.496070  1.0  -0.4228
  N  N335  1  0.562060  0.921480  0.742470  1.0  -0.2685
  N  N336  1  0.582250  0.919520  0.852370  1.0  -0.1313
  N  N337  1  0.609190  0.875070  0.856470  1.0  -0.0213
  N  N338  1  0.606190  0.845750  0.750670  1.0  -0.314
  N  N339  1  0.756170  0.936480  0.599670  1.0  -0.2775
  N  N340  1  0.822840  0.990880  0.636770  1.0  -0.1062
  N  N341  1  0.844270  0.049380  0.571770  1.0  -0.1023
  N  N342  1  0.791620  0.034030  0.489770  1.0  -0.3027
