# generated using pymatgen
data_CoH42(C7N2)6
_symmetry_space_group_name_H-M   'P 1'
_cell_length_a   9.30780000
_cell_length_b   9.99380000
_cell_length_c   13.26470000
_cell_angle_alpha   78.15400000
_cell_angle_beta   73.74200000
_cell_angle_gamma   82.75100000
_symmetry_Int_Tables_number   1
_chemical_formula_structural   CoH42(C7N2)6
_chemical_formula_sum   'Co1 H42 C42 N12'
_cell_volume   1156.21258498
_cell_formula_units_Z   1
loop_
 _symmetry_equiv_pos_site_id
 _symmetry_equiv_pos_as_xyz
  1  'x, y, z'
loop_
 _atom_site_type_symbol
 _atom_site_label
 _atom_site_symmetry_multiplicity
 _atom_site_fract_x
 _atom_site_fract_y
 _atom_site_fract_z
 _atom_site_occupancy
 _atom_site_charge
  Co  Co1  1  0.000000  0.500000  0.500000  1.0  0.7234
  H  H2  1  0.265900  0.305300  0.597200  1.0  0.0809
  H  H3  1  0.244700  0.227100  0.787400  1.0  0.1171
  H  H4  1  0.842700  0.350100  0.747600  1.0  0.0804
  H  H5  1  0.004100  0.178600  0.958900  1.0  0.0857
  H  H6  1  0.849100  0.246200  0.941500  1.0  0.097
  H  H7  1  0.810500  0.506600  0.918600  1.0  0.0752
  H  H8  1  0.151400  0.302200  0.026000  1.0  0.095
  H  H9  1  0.360100  0.572000  0.461300  1.0  0.0817
  H  H10  1  0.579900  0.485200  0.333700  1.0  0.1121
  H  H11  1  0.221600  0.330400  0.315500  1.0  0.0776
  H  H12  1  0.480800  0.235700  0.204400  1.0  0.0929
  H  H13  1  0.622500  0.307300  0.202400  1.0  0.0934
  H  H14  1  0.493100  0.599900  0.143200  1.0  0.0761
  H  H15  1  0.514000  0.264100  0.018600  1.0  0.0896
  H  H16  1  0.063400  0.571900  0.721800  1.0  0.0715
  H  H17  1  0.131600  0.793600  0.736100  1.0  0.1095
  H  H18  1  0.110800  0.805900  0.441700  1.0  0.0846
  H  H19  1  0.129400  0.042900  0.602000  1.0  0.083
  H  H20  1  0.146600  0.035800  0.482100  1.0  0.0814
  H  H21  1  0.353000  0.998200  0.672000  1.0  0.0949
  H  H22  1  0.390400  0.995500  0.365500  1.0  0.0909
  H  H23  1  0.734100  0.694700  0.402800  1.0  0.0805
  H  H24  1  0.755300  0.772900  0.212600  1.0  0.1165
  H  H25  1  0.157300  0.649900  0.252400  1.0  0.0798
  H  H26  1  0.995900  0.821400  0.041100  1.0  0.0842
  H  H27  1  0.150900  0.753800  0.058500  1.0  0.0942
  H  H28  1  0.189500  0.493400  0.081400  1.0  0.0747
  H  H29  1  0.848600  0.697800  0.974000  1.0  0.0949
  H  H30  1  0.639900  0.428000  0.538700  1.0  0.0819
  H  H31  1  0.420100  0.514800  0.666300  1.0  0.1122
  H  H32  1  0.778400  0.669600  0.684500  1.0  0.0779
  H  H33  1  0.519200  0.764300  0.795600  1.0  0.0922
  H  H34  1  0.377500  0.692700  0.797600  1.0  0.0951
  H  H35  1  0.506900  0.400100  0.856800  1.0  0.0762
  H  H36  1  0.486000  0.735900  0.981400  1.0  0.0889
  H  H37  1  0.936600  0.428100  0.278200  1.0  0.071
  H  H38  1  0.868400  0.206400  0.263900  1.0  0.1101
  H  H39  1  0.889200  0.194100  0.558300  1.0  0.0846
  H  H40  1  0.870600  0.957100  0.398000  1.0  0.0826
  H  H41  1  0.853400  0.964200  0.517900  1.0  0.0811
  H  H42  1  0.647000  0.001800  0.328000  1.0  0.0953
  H  H43  1  0.609600  0.004500  0.634500  1.0  0.0898
  C  C44  1  0.177300  0.305800  0.651400  1.0  -0.0073
  C  C45  1  0.166400  0.261600  0.756400  1.0  -0.1671
  C  C46  1  0.946000  0.330600  0.733000  1.0  0.1177
  C  C47  1  0.955300  0.259500  0.924400  1.0  -0.0977
  C  C48  1  0.976700  0.383000  0.965100  1.0  0.0711
  C  C49  1  0.887500  0.503500  0.951300  1.0  -0.1251
  C  C50  1  0.090100  0.381900  0.015200  1.0  -0.1554
  C  C51  1  0.358900  0.512400  0.416100  1.0  -0.0193
  C  C52  1  0.481100  0.465100  0.345200  1.0  -0.1723
  C  C53  1  0.282700  0.380600  0.336200  1.0  0.1069
  C  C54  1  0.518100  0.323400  0.201000  1.0  -0.0967
  C  C55  1  0.506700  0.417200  0.097500  1.0  0.0381
  C  C56  1  0.496400  0.559300  0.085400  1.0  -0.1408
  C  C57  1  0.508900  0.358900  0.011500  1.0  -0.1471
  C  C58  1  0.081100  0.647200  0.666800  1.0  0.0061
  C  C59  1  0.118700  0.769100  0.675500  1.0  -0.1602
  C  C60  1  0.106600  0.774500  0.513400  1.0  0.1166
  C  C61  1  0.178900  0.992100  0.545300  1.0  -0.0829
  C  C62  1  0.345400  0.997000  0.522400  1.0  0.071
  C  C63  1  0.411800  0.999100  0.602500  1.0  -0.1279
  C  C64  1  0.434300  0.997500  0.420000  1.0  -0.111
  C  C65  1  0.822700  0.694200  0.348600  1.0  -0.0084
  C  C66  1  0.833600  0.738400  0.243600  1.0  -0.1669
  C  C67  1  0.054000  0.669400  0.267000  1.0  0.1187
  C  C68  1  0.044700  0.740500  0.075600  1.0  -0.099
  C  C69  1  0.023300  0.617000  0.034900  1.0  0.0712
  C  C70  1  0.112500  0.496500  0.048700  1.0  -0.1189
  C  C71  1  0.909900  0.618100  0.984800  1.0  -0.1548
  C  C72  1  0.641100  0.487600  0.583900  1.0  -0.0189
  C  C73  1  0.518900  0.534900  0.654800  1.0  -0.1715
  C  C74  1  0.717300  0.619400  0.663800  1.0  0.1065
  C  C75  1  0.481900  0.676600  0.799000  1.0  -0.0956
  C  C76  1  0.493300  0.582800  0.902500  1.0  0.0395
  C  C77  1  0.503600  0.440700  0.914600  1.0  -0.1413
  C  C78  1  0.491100  0.641100  0.988500  1.0  -0.1492
  C  C79  1  0.918900  0.352800  0.333200  1.0  0.0071
  C  C80  1  0.881300  0.230900  0.324500  1.0  -0.1617
  C  C81  1  0.893400  0.225500  0.486600  1.0  0.1165
  C  C82  1  0.821100  0.007900  0.454700  1.0  -0.0836
  C  C83  1  0.654600  0.003000  0.477600  1.0  0.0703
  C  C84  1  0.588200  0.000900  0.397500  1.0  -0.1296
  C  C85  1  0.565700  0.002500  0.580000  1.0  -0.1005
  N  N86  1  0.037800  0.351700  0.636700  1.0  -0.4128
  N  N87  1  0.019300  0.277500  0.807800  1.0  0.0286
  N  N88  1  0.233600  0.458400  0.410400  1.0  -0.4126
  N  N89  1  0.431300  0.383100  0.294700  1.0  0.0301
  N  N90  1  0.072800  0.650100  0.564800  1.0  -0.4115
  N  N91  1  0.133800  0.849400  0.577200  1.0  0.0274
  N  N92  1  0.962200  0.648300  0.363300  1.0  -0.415
  N  N93  1  0.980700  0.722500  0.192200  1.0  0.0273
  N  N94  1  0.766400  0.541600  0.589600  1.0  -0.4116
  N  N95  1  0.568700  0.616900  0.705300  1.0  0.0296
  N  N96  1  0.927200  0.349900  0.435200  1.0  -0.4108
  N  N97  1  0.866200  0.150600  0.422800  1.0  0.0274
