# generated using pymatgen
data_CoH42(C7N2)6
_symmetry_space_group_name_H-M   'P 1'
_cell_length_a   9.24060000
_cell_length_b   9.95700000
_cell_length_c   13.30170000
_cell_angle_alpha   78.39400000
_cell_angle_beta   73.58000000
_cell_angle_gamma   81.98200000
_symmetry_Int_Tables_number   1
_chemical_formula_structural   CoH42(C7N2)6
_chemical_formula_sum   'Co1 H42 C42 N12'
_cell_volume   1145.50014062
_cell_formula_units_Z   1
loop_
 _symmetry_equiv_pos_site_id
 _symmetry_equiv_pos_as_xyz
  1  'x, y, z'
loop_
 _atom_site_type_symbol
 _atom_site_label
 _atom_site_symmetry_multiplicity
 _atom_site_fract_x
 _atom_site_fract_y
 _atom_site_fract_z
 _atom_site_occupancy
 _atom_site_charge
  Co  Co1  1  0.500000  0.000000  0.000000  1.0  0.7071
  H  H2  1  0.136900  0.930300  0.038900  1.0  0.0832
  H  H3  1  0.915000  0.016200  0.168200  1.0  0.1114
  H  H4  1  0.276400  0.170600  0.185300  1.0  0.0749
  H  H5  1  0.871700  0.194100  0.300500  1.0  0.0942
  H  H6  1  0.013600  0.265900  0.298100  1.0  0.0874
  H  H7  1  0.002900  0.901200  0.356400  1.0  0.0818
  H  H8  1  0.982100  0.236800  0.484500  1.0  0.0874
  H  H9  1  0.562700  0.069800  0.222500  1.0  0.0686
  H  H10  1  0.628200  0.293100  0.238300  1.0  0.1121
  H  H11  1  0.610400  0.304300  0.943400  1.0  0.0831
  H  H12  1  0.625700  0.541200  0.106000  1.0  0.0815
  H  H13  1  0.640700  0.535000  0.986600  1.0  0.0817
  H  H14  1  0.854500  0.488900  0.174300  1.0  0.0945
  H  H15  1  0.885000  0.506700  0.865400  1.0  0.0867
  H  H16  1  0.229500  0.194600  0.904800  1.0  0.0769
  H  H17  1  0.248000  0.272500  0.715900  1.0  0.114
  H  H18  1  0.658200  0.149800  0.753200  1.0  0.0877
  H  H19  1  0.648500  0.254200  0.560500  1.0  0.0937
  H  H20  1  0.491100  0.322600  0.544400  1.0  0.0833
  H  H21  1  0.345500  0.200600  0.475200  1.0  0.0928
  H  H22  1  0.690800  0.992500  0.581700  1.0  0.0685
  H  H23  1  0.863100  0.069700  0.961100  1.0  0.0829
  H  H24  1  0.085000  0.983800  0.831800  1.0  0.1126
  H  H25  1  0.723600  0.829400  0.814700  1.0  0.0745
  H  H26  1  0.128300  0.805900  0.699500  1.0  0.0942
  H  H27  1  0.986400  0.734100  0.701900  1.0  0.0887
  H  H28  1  0.997100  0.098800  0.643600  1.0  0.0813
  H  H29  1  0.017900  0.763200  0.515500  1.0  0.0884
  H  H30  1  0.437300  0.930200  0.777500  1.0  0.068
  H  H31  1  0.371800  0.706900  0.761700  1.0  0.1126
  H  H32  1  0.389600  0.695700  0.056600  1.0  0.0821
  H  H33  1  0.374300  0.458800  0.894000  1.0  0.0816
  H  H34  1  0.359300  0.465000  0.013400  1.0  0.0818
  H  H35  1  0.145500  0.511100  0.825700  1.0  0.0948
  H  H36  1  0.115000  0.493300  0.134600  1.0  0.0858
  H  H37  1  0.770500  0.805400  0.095200  1.0  0.0769
  H  H38  1  0.752000  0.727500  0.284100  1.0  0.1147
  H  H39  1  0.341800  0.850200  0.246800  1.0  0.0878
  H  H40  1  0.351500  0.745800  0.439500  1.0  0.0973
  H  H41  1  0.508900  0.677400  0.455600  1.0  0.0848
  H  H42  1  0.654500  0.799400  0.524800  1.0  0.0931
  H  H43  1  0.309200  0.007500  0.418300  1.0  0.0692
  C  C44  1  0.137700  0.989500  0.084600  1.0  -0.0057
  C  C45  1  0.014300  0.036600  0.156100  1.0  -0.1748
  C  C46  1  0.215000  0.120900  0.164590  1.0  0.1004
  C  C47  1  0.977500  0.177900  0.301000  1.0  -0.0967
  C  C48  1  0.990900  0.084000  0.403400  1.0  0.0834
  C  C49  1  0.001700  0.941400  0.414000  1.0  -0.1468
  C  C50  1  0.989300  0.141600  0.490300  1.0  -0.1348
  C  C51  1  0.580100  0.145300  0.168000  1.0  -0.0044
  C  C52  1  0.616600  0.268200  0.177500  1.0  -0.1626
  C  C53  1  0.606000  0.273000  0.014800  1.0  0.1119
  C  C54  1  0.675600  0.490800  0.048500  1.0  -0.0924
  C  C55  1  0.844200  0.496900  0.023400  1.0  0.0633
  C  C56  1  0.912700  0.493200  0.104300  1.0  -0.1132
  C  C57  1  0.931200  0.503900  0.919600  1.0  -0.0994
  C  C58  1  0.318700  0.194500  0.850500  1.0  -0.0011
  C  C59  1  0.327700  0.238300  0.746300  1.0  -0.1699
  C  C60  1  0.553700  0.169600  0.768190  1.0  0.1134
  C  C61  1  0.541600  0.241100  0.577800  1.0  -0.1091
  C  C62  1  0.521500  0.117300  0.535810  1.0  0.0622
  C  C63  1  0.407800  0.120100  0.485600  1.0  -0.1296
  C  C64  1  0.613400  0.995900  0.548900  1.0  -0.1215
  C  C65  1  0.862300  0.010500  0.915400  1.0  -0.0052
  C  C66  1  0.985700  0.963400  0.843900  1.0  -0.1751
  C  C67  1  0.785000  0.879100  0.835410  1.0  0.1006
  C  C68  1  0.022500  0.822100  0.699000  1.0  -0.097
  C  C69  1  0.009100  0.916000  0.596600  1.0  0.0832
  C  C70  1  0.998300  0.058600  0.586000  1.0  -0.1469
  C  C71  1  0.010700  0.858400  0.509700  1.0  -0.1323
  C  C72  1  0.419900  0.854700  0.832000  1.0  -0.0032
  C  C73  1  0.383400  0.731800  0.822500  1.0  -0.1642
  C  C74  1  0.394000  0.727000  0.985200  1.0  0.1127
  C  C75  1  0.324400  0.509200  0.951500  1.0  -0.0933
  C  C76  1  0.155800  0.503100  0.976600  1.0  0.0634
  C  C77  1  0.087300  0.506800  0.895700  1.0  -0.1147
  C  C78  1  0.068800  0.496100  0.080400  1.0  -0.0881
  C  C79  1  0.681300  0.805500  0.149500  1.0  0.0007
  C  C80  1  0.672300  0.761700  0.253700  1.0  -0.1693
  C  C81  1  0.446300  0.830400  0.231810  1.0  0.113
  C  C82  1  0.458400  0.758900  0.422200  1.0  -0.1075
  C  C83  1  0.478500  0.882700  0.464190  1.0  0.0618
  C  C84  1  0.592200  0.879900  0.514400  1.0  -0.1295
  C  C85  1  0.386600  0.004100  0.451100  1.0  -0.1125
  N  N86  1  0.264800  0.043200  0.090290  1.0  -0.419
  N  N87  1  0.064200  0.119500  0.206810  1.0  0.0199
  N  N88  1  0.572500  0.148400  0.065770  1.0  -0.4035
  N  N89  1  0.632900  0.348400  0.079250  1.0  0.0255
  N  N90  1  0.460500  0.149500  0.864940  1.0  -0.4322
  N  N91  1  0.477700  0.222300  0.694440  1.0  0.0209
  N  N92  1  0.735200  0.956800  0.909710  1.0  -0.419
  N  N93  1  0.935800  0.880500  0.793190  1.0  0.0201
  N  N94  1  0.427500  0.851600  0.934230  1.0  -0.4034
  N  N95  1  0.367100  0.651600  0.920750  1.0  0.0257
  N  N96  1  0.539500  0.850500  0.135060  1.0  -0.4311
  N  N97  1  0.522300  0.777700  0.305560  1.0  0.0215
