# generated using pymatgen
data_CdH3(C3O2)3
_symmetry_space_group_name_H-M   'P 1'
_cell_length_a   10.21170000
_cell_length_b   13.87000000
_cell_length_c   12.31070000
_cell_angle_alpha   90.00000000
_cell_angle_beta   90.19800000
_cell_angle_gamma   90.00000000
_symmetry_Int_Tables_number   1
_chemical_formula_structural   CdH3(C3O2)3
_chemical_formula_sum   'Cd4 H12 C36 O24'
_cell_volume   1743.63132842
_cell_formula_units_Z   4
loop_
 _symmetry_equiv_pos_site_id
 _symmetry_equiv_pos_as_xyz
  1  'x, y, z'
loop_
 _atom_site_type_symbol
 _atom_site_label
 _atom_site_symmetry_multiplicity
 _atom_site_fract_x
 _atom_site_fract_y
 _atom_site_fract_z
 _atom_site_occupancy
 _atom_site_charge
  Cd  Cd1  1  0.147150  0.437690  0.920960  1.0  1.0807
  Cd  Cd2  1  0.352850  0.937690  0.579040  1.0  1.0802
  Cd  Cd3  1  0.852850  0.562310  0.079040  1.0  1.0804
  Cd  Cd4  1  0.647150  0.062310  0.420960  1.0  1.0806
  H  H5  1  0.451300  0.300100  0.665700  1.0  0.1469
  H  H6  1  0.636200  0.460200  0.891900  1.0  0.1403
  H  H7  1  0.841600  0.311400  0.673200  1.0  0.1497
  H  H8  1  0.048700  0.800100  0.834300  1.0  0.1474
  H  H9  1  0.863800  0.960200  0.608100  1.0  0.1407
  H  H10  1  0.658400  0.811400  0.826800  1.0  0.1502
  H  H11  1  0.548700  0.699900  0.334300  1.0  0.1475
  H  H12  1  0.363800  0.539800  0.108100  1.0  0.1411
  H  H13  1  0.158400  0.688600  0.326800  1.0  0.1503
  H  H14  1  0.951300  0.199900  0.165700  1.0  0.1469
  H  H15  1  0.136200  0.039800  0.391900  1.0  0.1411
  H  H16  1  0.341600  0.188600  0.173200  1.0  0.1499
  C  C17  1  0.647600  0.293600  0.655400  1.0  -0.1135
  C  C18  1  0.528100  0.322500  0.697600  1.0  0.0574
  C  C19  1  0.520200  0.384800  0.787500  1.0  -0.1296
  C  C20  1  0.638100  0.418900  0.832400  1.0  0.0609
  C  C21  1  0.756100  0.391500  0.788900  1.0  -0.12
  C  C22  1  0.760900  0.329400  0.701400  1.0  0.054
  C  C23  1  0.654600  0.221300  0.565100  1.0  0.7566
  C  C24  1  0.391100  0.411700  0.832100  1.0  0.7086
  C  C25  1  0.885600  0.424400  0.840800  1.0  0.7608
  C  C26  1  0.852400  0.793600  0.844600  1.0  -0.1136
  C  C27  1  0.971900  0.822500  0.802400  1.0  0.0577
  C  C28  1  0.979800  0.884800  0.712500  1.0  -0.1309
  C  C29  1  0.861900  0.918900  0.667600  1.0  0.061
  C  C30  1  0.743900  0.891500  0.711100  1.0  -0.1196
  C  C31  1  0.739100  0.829400  0.798600  1.0  0.0531
  C  C32  1  0.845400  0.721300  0.934900  1.0  0.7571
  C  C33  1  0.108900  0.911700  0.667900  1.0  0.7085
  C  C34  1  0.614400  0.924400  0.659200  1.0  0.761
  C  C35  1  0.352400  0.706400  0.344600  1.0  -0.114
  C  C36  1  0.471900  0.677500  0.302400  1.0  0.0574
  C  C37  1  0.479800  0.615200  0.212500  1.0  -0.131
  C  C38  1  0.361900  0.581100  0.167600  1.0  0.0612
  C  C39  1  0.243900  0.608500  0.211100  1.0  -0.1196
  C  C40  1  0.239100  0.670600  0.298600  1.0  0.0531
  C  C41  1  0.345400  0.778700  0.434900  1.0  0.7574
  C  C42  1  0.608900  0.588300  0.167900  1.0  0.7086
  C  C43  1  0.114400  0.575600  0.159200  1.0  0.761
  C  C44  1  0.147600  0.206400  0.155400  1.0  -0.1129
  C  C45  1  0.028100  0.177500  0.197600  1.0  0.0572
  C  C46  1  0.020200  0.115200  0.287500  1.0  -0.1299
  C  C47  1  0.138100  0.081100  0.332400  1.0  0.0618
  C  C48  1  0.256100  0.108500  0.288900  1.0  -0.12
  C  C49  1  0.260900  0.170600  0.201400  1.0  0.0535
  C  C50  1  0.154600  0.278700  0.065100  1.0  0.7568
  C  C51  1  0.891100  0.088300  0.332100  1.0  0.7093
  C  C52  1  0.385600  0.075600  0.340800  1.0  0.7604
  O  O53  1  0.761900  0.192000  0.534100  1.0  -0.6149
  O  O54  1  0.549900  0.189100  0.525500  1.0  -0.5687
  O  O55  1  0.293200  0.374100  0.791900  1.0  -0.532
  O  O56  1  0.385900  0.470200  0.908000  1.0  -0.5468
  O  O57  1  0.882200  0.477100  0.921100  1.0  -0.7217
  O  O58  1  0.990400  0.394600  0.797300  1.0  -0.5698
  O  O59  1  0.738100  0.692000  0.965900  1.0  -0.6131
  O  O60  1  0.950100  0.689100  0.974500  1.0  -0.567
  O  O61  1  0.206800  0.874100  0.708100  1.0  -0.5331
  O  O62  1  0.114100  0.970200  0.592000  1.0  -0.5469
  O  O63  1  0.617800  0.977100  0.578900  1.0  -0.722
  O  O64  1  0.509600  0.894600  0.702700  1.0  -0.5694
  O  O65  1  0.238100  0.808000  0.465900  1.0  -0.6152
  O  O66  1  0.450100  0.810900  0.474500  1.0  -0.5665
  O  O67  1  0.706800  0.625900  0.208100  1.0  -0.5336
  O  O68  1  0.614100  0.529800  0.092000  1.0  -0.5468
  O  O69  1  0.117800  0.522900  0.078900  1.0  -0.7226
  O  O70  1  0.009600  0.605400  0.202700  1.0  -0.5678
  O  O71  1  0.261900  0.308000  0.034100  1.0  -0.6177
  O  O72  1  0.049900  0.310900  0.025500  1.0  -0.569
  O  O73  1  0.793200  0.125900  0.291900  1.0  -0.5331
  O  O74  1  0.885900  0.029800  0.408000  1.0  -0.5459
  O  O75  1  0.382200  0.022900  0.421100  1.0  -0.7215
  O  O76  1  0.490400  0.105400  0.297300  1.0  -0.5685
