# generated using pymatgen
data_Zn3H24C30S2(N3O4)2
_symmetry_space_group_name_H-M   'P 1'
_cell_length_a   11.49100000
_cell_length_b   12.09400000
_cell_length_c   12.62000000
_cell_angle_alpha   69.61000000
_cell_angle_beta   64.15000000
_cell_angle_gamma   72.46000000
_symmetry_Int_Tables_number   1
_chemical_formula_structural   Zn3H24C30S2(N3O4)2
_chemical_formula_sum   'Zn3 H24 C30 S2 N6 O8'
_cell_volume   1456.03699049
_cell_formula_units_Z   1
loop_
 _symmetry_equiv_pos_site_id
 _symmetry_equiv_pos_as_xyz
  1  'x, y, z'
loop_
 _atom_site_type_symbol
 _atom_site_label
 _atom_site_symmetry_multiplicity
 _atom_site_fract_x
 _atom_site_fract_y
 _atom_site_fract_z
 _atom_site_occupancy
 _atom_site_charge
  Zn  Zn1  1  0.000000  0.000000  0.000000  1.0  0.904
  Zn  Zn2  1  0.000000  0.500000  0.500000  1.0  0.8057
  Zn  Zn3  1  0.000000  0.500000  0.000000  1.0  0.9435
  H  H4  1  0.880500  0.180700  0.161100  1.0  0.0854
  H  H5  1  0.679300  0.280800  0.269900  1.0  0.1154
  H  H6  1  0.503800  0.135700  0.141800  1.0  0.116
  H  H7  1  0.709300  0.039000  0.040800  1.0  0.0738
  H  H8  1  0.493600  0.355300  0.377200  1.0  0.12
  H  H9  1  0.713300  0.547400  0.522600  1.0  0.0816
  H  H10  1  0.875100  0.658100  0.678200  1.0  0.0814
  H  H11  1  0.673200  0.761600  0.781100  1.0  0.1123
  H  H12  1  0.298800  0.406500  0.874400  1.0  0.0822
  H  H13  1  0.501500  0.395200  0.881100  1.0  0.1179
  H  H14  1  0.321800  0.612100  0.111300  1.0  0.1229
  H  H15  1  0.122300  0.613900  0.102500  1.0  0.0767
  H  H16  1  0.119500  0.819300  0.838900  1.0  0.0866
  H  H17  1  0.320700  0.719200  0.730100  1.0  0.116
  H  H18  1  0.496200  0.864300  0.858200  1.0  0.1165
  H  H19  1  0.290700  0.961000  0.959200  1.0  0.0743
  H  H20  1  0.506400  0.644700  0.622800  1.0  0.1206
  H  H21  1  0.286700  0.452600  0.477400  1.0  0.0809
  H  H22  1  0.124900  0.341900  0.321800  1.0  0.0808
  H  H23  1  0.326800  0.238400  0.218900  1.0  0.114
  H  H24  1  0.701200  0.593500  0.125600  1.0  0.0817
  H  H25  1  0.498500  0.604800  0.118900  1.0  0.1174
  H  H26  1  0.678200  0.387900  0.888700  1.0  0.1219
  H  H27  1  0.877700  0.386100  0.897500  1.0  0.0771
  C  C28  1  0.802000  0.171100  0.158500  1.0  0.1315
  C  C29  1  0.682600  0.231600  0.222800  1.0  -0.1984
  C  C30  1  0.565600  0.221100  0.219000  1.0  0.027
  C  C31  1  0.579900  0.146400  0.148100  1.0  -0.2133
  C  C32  1  0.702700  0.089500  0.088200  1.0  0.1525
  C  C33  1  0.435100  0.284600  0.285500  1.0  0.0874
  C  C34  1  0.419000  0.350700  0.364300  1.0  -0.2028
  C  C35  1  0.295800  0.408900  0.422900  1.0  0.142
  C  C36  1  0.798400  0.655700  0.667200  1.0  0.1228
  C  C37  1  0.678700  0.717100  0.728600  1.0  -0.189
  C  C38  1  0.302700  0.446600  0.926100  1.0  0.1507
  C  C39  1  0.424000  0.441100  0.927900  1.0  -0.2072
  C  C40  1  0.434900  0.501700  0.998200  1.0  0.0571
  C  C41  1  0.319400  0.567200  0.063000  1.0  -0.1911
  C  C42  1  0.200900  0.567600  0.057500  1.0  0.162
  C  C43  1  0.198000  0.828900  0.841500  1.0  0.1393
  C  C44  1  0.317400  0.768400  0.777200  1.0  -0.1973
  C  C45  1  0.434400  0.778900  0.781000  1.0  0.0281
  C  C46  1  0.420100  0.853600  0.851900  1.0  -0.2135
  C  C47  1  0.297300  0.910500  0.911800  1.0  0.1454
  C  C48  1  0.564900  0.715400  0.714500  1.0  0.0861
  C  C49  1  0.581000  0.649300  0.635700  1.0  -0.2034
  C  C50  1  0.704200  0.591100  0.577100  1.0  0.151
  C  C51  1  0.201600  0.344300  0.332800  1.0  0.1262
  C  C52  1  0.321300  0.282900  0.271400  1.0  -0.1854
  C  C53  1  0.697300  0.553400  0.073900  1.0  0.154
  C  C54  1  0.576000  0.558900  0.072100  1.0  -0.2085
  C  C55  1  0.565100  0.498300  0.001800  1.0  0.0574
  C  C56  1  0.680600  0.432800  0.937000  1.0  -0.1892
  C  C57  1  0.799100  0.432400  0.942500  1.0  0.163
  S  S58  1  0.845790  0.758100  0.103340  1.0  1.413
  S  S59  1  0.154210  0.241900  0.896660  1.0  1.4132
  N  N60  1  0.814400  0.099100  0.091200  1.0  -0.3417
  N  N61  1  0.187500  0.407700  0.408400  1.0  -0.3224
  N  N62  1  0.190700  0.505600  0.992000  1.0  -0.3566
  N  N63  1  0.185600  0.900900  0.908800  1.0  -0.339
  N  N64  1  0.812500  0.592300  0.591600  1.0  -0.3223
  N  N65  1  0.809300  0.494400  0.008000  1.0  -0.3545
  O  O66  1  0.926800  0.836200  0.099600  1.0  -0.8521
  O  O67  1  0.925700  0.671300  0.038500  1.0  -0.7157
  O  O68  1  0.798300  0.680700  0.235300  1.0  -0.63
  O  O69  1  0.728800  0.819000  0.081800  1.0  -0.5502
  O  O70  1  0.073200  0.163800  0.900400  1.0  -0.8541
  O  O71  1  0.074300  0.328700  0.961500  1.0  -0.7178
  O  O72  1  0.201700  0.319300  0.764700  1.0  -0.6296
  O  O73  1  0.271200  0.181000  0.918200  1.0  -0.5511
