# generated using pymatgen
data_Cu2H5C4IN3
_symmetry_space_group_name_H-M   'P 1'
_cell_length_a   15.47210000
_cell_length_b   15.47210000
_cell_length_c   15.47210000
_cell_angle_alpha   67.84680000
_cell_angle_beta   75.76900000
_cell_angle_gamma   112.15300000
_symmetry_Int_Tables_number   1
_chemical_formula_structural   Cu2H5C4IN3
_chemical_formula_sum   'Cu16 H40 C32 I8 N24'
_cell_volume   2833.52607370
_cell_formula_units_Z   8
loop_
 _symmetry_equiv_pos_site_id
 _symmetry_equiv_pos_as_xyz
  1  'x, y, z'
loop_
 _atom_site_type_symbol
 _atom_site_label
 _atom_site_symmetry_multiplicity
 _atom_site_fract_x
 _atom_site_fract_y
 _atom_site_fract_z
 _atom_site_occupancy
 _atom_site_charge
  Cu  Cu1  1  0.744820  0.192180  0.413980  1.0  0.1202
  Cu  Cu2  1  0.725260  0.318570  0.199730  1.0  0.2983
  Cu  Cu3  1  0.893840  0.307820  0.447360  1.0  0.1179
  Cu  Cu4  1  0.981700  0.181430  0.593310  1.0  0.3008
  Cu  Cu5  1  0.052640  0.658800  0.755180  1.0  0.117
  Cu  Cu6  1  0.906690  0.424990  0.774740  1.0  0.2991
  Cu  Cu7  1  0.086020  0.841200  0.606160  1.0  0.1177
  Cu  Cu8  1  0.300270  0.075010  0.518300  1.0  0.2994
  Cu  Cu9  1  0.255180  0.807820  0.586020  1.0  0.1188
  Cu  Cu10  1  0.274740  0.681430  0.800270  1.0  0.2987
  Cu  Cu11  1  0.106160  0.692180  0.552640  1.0  0.1187
  Cu  Cu12  1  0.018300  0.818570  0.406690  1.0  0.2999
  Cu  Cu13  1  0.947360  0.341200  0.244820  1.0  0.1177
  Cu  Cu14  1  0.093310  0.575010  0.225260  1.0  0.2991
  Cu  Cu15  1  0.913980  0.158800  0.393840  1.0  0.1173
  Cu  Cu16  1  0.699730  0.924990  0.481700  1.0  0.2998
  H  H17  1  0.531400  0.292800  0.205400  1.0  0.1332
  H  H18  1  0.440000  0.281000  0.289800  1.0  0.1429
  H  H19  1  0.422400  0.182900  0.273300  1.0  0.1378
  H  H20  1  0.538300  0.051700  0.618400  1.0  0.1266
  H  H21  1  0.423700  0.979600  0.638500  1.0  0.1216
  H  H22  1  0.001800  0.207200  0.761400  1.0  0.135
  H  H23  1  0.929200  0.219000  0.841000  1.0  0.1443
  H  H24  1  0.043800  0.317100  0.760500  1.0  0.1378
  H  H25  1  0.829900  0.448300  0.513400  1.0  0.1263
  H  H26  1  0.881900  0.520400  0.555900  1.0  0.1206
  H  H27  1  0.738600  0.236800  0.968600  1.0  0.1346
  H  H28  1  0.659000  0.229800  0.060000  1.0  0.1431
  H  H29  1  0.739500  0.195700  0.077600  1.0  0.1381
  H  H30  1  0.986600  0.656700  0.961700  1.0  0.1267
  H  H31  1  0.944100  0.562200  0.076300  1.0  0.1206
  H  H32  1  0.294600  0.263200  0.498200  1.0  0.1272
  H  H33  1  0.210200  0.270200  0.570800  1.0  0.1447
  H  H34  1  0.226700  0.304300  0.456200  1.0  0.1394
  H  H35  1  0.881600  0.843300  0.670100  1.0  0.1263
  H  H36  1  0.861500  0.937800  0.618100  1.0  0.1191
  H  H37  1  0.468600  0.707200  0.794600  1.0  0.135
  H  H38  1  0.560000  0.719000  0.710200  1.0  0.1427
  H  H39  1  0.577600  0.817100  0.726700  1.0  0.1391
  H  H40  1  0.461700  0.948300  0.381600  1.0  0.1266
  H  H41  1  0.576300  0.020400  0.361500  1.0  0.1217
  H  H42  1  0.998200  0.792800  0.238600  1.0  0.1327
  H  H43  1  0.070800  0.781000  0.159000  1.0  0.1442
  H  H44  1  0.956200  0.682900  0.239500  1.0  0.1378
  H  H45  1  0.170100  0.551700  0.486600  1.0  0.1274
  H  H46  1  0.118100  0.479600  0.444100  1.0  0.1207
  H  H47  1  0.261400  0.763200  0.031400  1.0  0.1342
  H  H48  1  0.341000  0.770200  0.940000  1.0  0.1435
  H  H49  1  0.260500  0.804300  0.922400  1.0  0.1376
  H  H50  1  0.013400  0.343300  0.038300  1.0  0.1254
  H  H51  1  0.055900  0.437800  0.923700  1.0  0.1191
  H  H52  1  0.705400  0.736800  0.501800  1.0  0.1357
  H  H53  1  0.789800  0.729800  0.429200  1.0  0.1445
  H  H54  1  0.773300  0.695700  0.543800  1.0  0.1383
  H  H55  1  0.118400  0.156700  0.329900  1.0  0.126
  H  H56  1  0.138500  0.062200  0.381900  1.0  0.1177
  C  C57  1  0.507500  0.200900  0.354400  1.0  0.4244
  C  C58  1  0.472100  0.243300  0.273400  1.0  -0.4202
  C  C59  1  0.510600  0.119600  0.496800  1.0  0.3674
  C  C60  1  0.479300  0.053000  0.609900  1.0  -0.3192
  C  C61  1  0.944700  0.299100  0.693400  1.0  0.4241
  C  C62  1  0.983300  0.256700  0.771200  1.0  -0.4217
  C  C63  1  0.883600  0.380400  0.609000  1.0  0.3667
  C  C64  1  0.837100  0.447000  0.573700  1.0  -0.3232
  C  C65  1  0.806600  0.361900  0.992500  1.0  0.4242
  C  C66  1  0.728800  0.245500  0.027900  1.0  -0.424
  C  C67  1  0.891000  0.507400  0.989400  1.0  0.3664
  C  C68  1  0.926300  0.589200  0.020700  1.0  -0.3227
  C  C69  1  0.145600  0.138100  0.555300  1.0  0.4221
  C  C70  1  0.226600  0.254500  0.516700  1.0  -0.424
  C  C71  1  0.003200  0.992600  0.616400  1.0  0.3691
  C  C72  1  0.890100  0.910800  0.662900  1.0  -0.3274
  C  C73  1  0.492500  0.799100  0.645600  1.0  0.4243
  C  C74  1  0.527900  0.756700  0.726600  1.0  -0.4222
  C  C75  1  0.489400  0.880400  0.503200  1.0  0.3697
  C  C76  1  0.520700  0.947000  0.390100  1.0  -0.3214
  C  C77  1  0.055300  0.700900  0.306600  1.0  0.4244
  C  C78  1  0.016700  0.743300  0.228800  1.0  -0.42
  C  C79  1  0.116400  0.619600  0.391000  1.0  0.3679
  C  C80  1  0.162900  0.553000  0.426300  1.0  -0.3202
  C  C81  1  0.193400  0.638100  0.007500  1.0  0.422
  C  C82  1  0.271200  0.754500  0.972100  1.0  -0.424
  C  C83  1  0.109000  0.492600  0.010600  1.0  0.3675
  C  C84  1  0.073700  0.410800  0.979300  1.0  -0.3194
  C  C85  1  0.854400  0.861900  0.444700  1.0  0.4232
  C  C86  1  0.773400  0.745500  0.483300  1.0  -0.4238
  C  C87  1  0.996800  0.007400  0.383600  1.0  0.3712
  C  C88  1  0.109900  0.089200  0.337100  1.0  -0.3258
  I  I89  1  0.754540  0.078000  0.579740  1.0  -0.2383
  I  I90  1  0.842260  0.422000  0.323460  1.0  -0.2363
  I  I91  1  0.176540  0.834280  0.745460  1.0  -0.2371
  I  I92  1  0.920260  0.665720  0.657740  1.0  -0.2362
  I  I93  1  0.245460  0.922000  0.420260  1.0  -0.2373
  I  I94  1  0.157740  0.578000  0.676540  1.0  -0.2358
  I  I95  1  0.823460  0.165720  0.254540  1.0  -0.2356
  I  I96  1  0.079740  0.334280  0.342260  1.0  -0.2344
  N  N97  1  0.608000  0.173600  0.422200  1.0  -0.1693
  N  N98  1  0.605400  0.226200  0.330200  1.0  -0.2769
  N  N99  1  0.446000  0.134100  0.456700  1.0  -0.4432
  N  N100  1  0.904200  0.326400  0.565600  1.0  -0.1663
  N  N101  1  0.943600  0.273800  0.620800  1.0  -0.2786
  N  N102  1  0.909200  0.365900  0.688100  1.0  -0.448
  N  N103  1  0.934400  0.530200  0.892000  1.0  -0.165
  N  N104  1  0.879200  0.435600  0.894600  1.0  -0.2777
  N  N105  1  0.811900  0.402700  0.054000  1.0  -0.4473
  N  N106  1  0.077800  0.969800  0.595800  1.0  -0.1664
  N  N107  1  0.169800  0.064400  0.556400  1.0  -0.2813
  N  N108  1  0.043300  0.097300  0.590800  1.0  -0.4452
  N  N109  1  0.392000  0.826400  0.577800  1.0  -0.1667
  N  N110  1  0.394600  0.773800  0.669800  1.0  -0.2793
  N  N111  1  0.554000  0.865900  0.543300  1.0  -0.4416
  N  N112  1  0.095800  0.673600  0.434400  1.0  -0.1705
  N  N113  1  0.056400  0.726200  0.379200  1.0  -0.2774
  N  N114  1  0.090800  0.634100  0.311900  1.0  -0.4436
  N  N115  1  0.065600  0.469800  0.108000  1.0  -0.167
  N  N116  1  0.120800  0.564400  0.105400  1.0  -0.2784
  N  N117  1  0.188100  0.597300  0.946000  1.0  -0.4424
  N  N118  1  0.922200  0.030200  0.404200  1.0  -0.1654
  N  N119  1  0.830200  0.935600  0.443600  1.0  -0.2795
  N  N120  1  0.956700  0.902700  0.409200  1.0  -0.4433
