# generated using pymatgen
data_Cu2H6C4IN3
_symmetry_space_group_name_H-M   'P 1'
_cell_length_a   15.41910000
_cell_length_b   15.41910000
_cell_length_c   15.41910000
_cell_angle_alpha   68.76910000
_cell_angle_beta   73.99350000
_cell_angle_gamma   111.23100000
_symmetry_Int_Tables_number   1
_chemical_formula_structural   Cu2H6C4IN3
_chemical_formula_sum   'Cu16 H48 C32 I8 N24'
_cell_volume   2814.30295337
_cell_formula_units_Z   8
loop_
 _symmetry_equiv_pos_site_id
 _symmetry_equiv_pos_as_xyz
  1  'x, y, z'
loop_
 _atom_site_type_symbol
 _atom_site_label
 _atom_site_symmetry_multiplicity
 _atom_site_fract_x
 _atom_site_fract_y
 _atom_site_fract_z
 _atom_site_occupancy
 _atom_site_charge
  Cu  Cu1  1  0.552550  0.806950  0.108540  1.0  0.1347
  Cu  Cu2  1  0.225980  0.931560  0.097520  1.0  0.297
  Cu  Cu3  1  0.584510  0.693050  0.254400  1.0  0.1317
  Cu  Cu4  1  0.470920  0.568440  0.705580  1.0  0.2972
  Cu  Cu5  1  0.245600  0.161090  0.947450  1.0  0.1314
  Cu  Cu6  1  0.794420  0.823500  0.274020  1.0  0.2976
  Cu  Cu7  1  0.391460  0.338910  0.915490  1.0  0.1301
  Cu  Cu8  1  0.402480  0.676500  0.029080  1.0  0.2967
  Cu  Cu9  1  0.447450  0.193050  0.891460  1.0  0.1344
  Cu  Cu10  1  0.774020  0.068440  0.902480  1.0  0.2964
  Cu  Cu11  1  0.415490  0.306950  0.745600  1.0  0.1327
  Cu  Cu12  1  0.529080  0.431560  0.294420  1.0  0.2972
  Cu  Cu13  1  0.754400  0.838910  0.052550  1.0  0.1303
  Cu  Cu14  1  0.205580  0.176500  0.725980  1.0  0.2973
  Cu  Cu15  1  0.608540  0.661090  0.084510  1.0  0.1307
  Cu  Cu16  1  0.597520  0.323500  0.970920  1.0  0.298
  H  H17  1  0.232500  0.704100  0.011800  1.0  0.1339
  H  H18  1  0.243800  0.820700  0.959100  1.0  0.1404
  H  H19  1  0.156800  0.730200  0.078600  1.0  0.1386
  H  H20  1  0.462600  0.928500  0.203300  1.0  0.1421
  H  H21  1  0.372800  0.957600  0.204600  1.0  0.1355
  H  H22  1  0.485500  0.031200  0.102300  1.0  0.1409
  H  H23  1  0.784100  0.795900  0.471600  1.0  0.1351
  H  H24  1  0.720200  0.679300  0.576900  1.0  0.1402
  H  H25  1  0.691200  0.769800  0.573400  1.0  0.1409
  H  H26  1  0.368200  0.571500  0.465900  1.0  0.1404
  H  H27  1  0.337800  0.542400  0.584800  1.0  0.1379
  H  H28  1  0.366500  0.468800  0.545700  1.0  0.1432
  H  H29  1  0.028400  0.744300  0.267500  1.0  0.1263
  H  H30  1  0.923100  0.702900  0.256200  1.0  0.1415
  H  H31  1  0.926600  0.735400  0.343200  1.0  0.1412
  H  H32  1  0.034100  0.165900  0.037400  1.0  0.1407
  H  H33  1  0.915200  0.077400  0.127200  1.0  0.1376
  H  H34  1  0.954300  0.087800  0.014500  1.0  0.1437
  H  H35  1  0.488200  0.755700  0.715900  1.0  0.1333
  H  H36  1  0.540900  0.797100  0.779800  1.0  0.1392
  H  H37  1  0.421400  0.764600  0.808800  1.0  0.1371
  H  H38  1  0.296700  0.334100  0.131800  1.0  0.141
  H  H39  1  0.295400  0.422600  0.162200  1.0  0.1374
  H  H40  1  0.397700  0.412200  0.133500  1.0  0.1424
  H  H41  1  0.767500  0.295900  0.988200  1.0  0.135
  H  H42  1  0.756200  0.179300  0.040900  1.0  0.1414
  H  H43  1  0.843200  0.269800  0.921400  1.0  0.137
  H  H44  1  0.537400  0.071500  0.796700  1.0  0.1406
  H  H45  1  0.627200  0.042400  0.795400  1.0  0.134
  H  H46  1  0.514500  0.968800  0.897700  1.0  0.1424
  H  H47  1  0.215900  0.204100  0.528400  1.0  0.1335
  H  H48  1  0.279800  0.320700  0.423100  1.0  0.1394
  H  H49  1  0.308800  0.230200  0.426600  1.0  0.1401
  H  H50  1  0.631800  0.428500  0.534100  1.0  0.1406
  H  H51  1  0.662200  0.457600  0.415200  1.0  0.138
  H  H52  1  0.633500  0.531200  0.454300  1.0  0.1419
  H  H53  1  0.971600  0.255700  0.732500  1.0  0.1321
  H  H54  1  0.076900  0.297100  0.743800  1.0  0.1407
  H  H55  1  0.073400  0.264600  0.656800  1.0  0.1406
  H  H56  1  0.965900  0.834100  0.962600  1.0  0.1415
  H  H57  1  0.084800  0.922600  0.872800  1.0  0.1374
  H  H58  1  0.045700  0.912200  0.985500  1.0  0.1428
  H  H59  1  0.511800  0.244300  0.284100  1.0  0.1343
  H  H60  1  0.459100  0.202900  0.220200  1.0  0.1395
  H  H61  1  0.578600  0.235400  0.191200  1.0  0.1371
  H  H62  1  0.703300  0.665900  0.868200  1.0  0.1404
  H  H63  1  0.704600  0.577400  0.837800  1.0  0.1369
  H  H64  1  0.602300  0.587800  0.866500  1.0  0.1439
  C  C65  1  0.393800  0.886800  0.118000  1.0  0.4198
  C  C66  1  0.306400  0.801700  0.061300  1.0  0.4116
  C  C67  1  0.228100  0.760600  0.024500  1.0  -0.4243
  C  C68  1  0.432000  0.957100  0.160700  1.0  -0.4309
  C  C69  1  0.495200  0.613200  0.493000  1.0  0.4213
  C  C70  1  0.637000  0.698300  0.495300  1.0  0.4123
  C  C71  1  0.714900  0.739400  0.532500  1.0  -0.4262
  C  C72  1  0.382200  0.542900  0.525100  1.0  -0.4326
  C  C73  1  0.007000  0.011800  0.106200  1.0  0.4216
  C  C74  1  0.004700  0.867700  0.193600  1.0  0.4111
  C  C75  1  0.967500  0.752600  0.271900  1.0  -0.4288
  C  C76  1  0.974900  0.092700  0.068000  1.0  -0.4316
  C  C77  1  0.382000  0.488200  0.004800  1.0  0.421
  C  C78  1  0.438700  0.632300  0.863000  1.0  0.4118
  C  C79  1  0.475500  0.747400  0.785100  1.0  -0.4283
  C  C80  1  0.339300  0.407300  0.117800  1.0  -0.432
  C  C81  1  0.606200  0.113200  0.882000  1.0  0.4194
  C  C82  1  0.693600  0.198300  0.938700  1.0  0.4115
  C  C83  1  0.771900  0.239400  0.975500  1.0  -0.4263
  C  C84  1  0.568000  0.042900  0.839300  1.0  -0.4308
  C  C85  1  0.504800  0.386800  0.507000  1.0  0.4204
  C  C86  1  0.363000  0.301700  0.504700  1.0  0.4115
  C  C87  1  0.285100  0.260600  0.467500  1.0  -0.4243
  C  C88  1  0.617800  0.457100  0.474900  1.0  -0.4327
  C  C89  1  0.993000  0.988200  0.893800  1.0  0.4216
  C  C90  1  0.995300  0.132300  0.806400  1.0  0.4101
  C  C91  1  0.032500  0.247400  0.728100  1.0  -0.4284
  C  C92  1  0.025100  0.907300  0.932000  1.0  -0.4317
  C  C93  1  0.618000  0.511800  0.995200  1.0  0.419
  C  C94  1  0.561300  0.367700  0.137000  1.0  0.4112
  C  C95  1  0.524500  0.252600  0.214900  1.0  -0.4292
  C  C96  1  0.660700  0.592700  0.882200  1.0  -0.432
  I  I97  1  0.419560  0.579100  0.245640  1.0  -0.2619
  I  I98  1  0.675260  0.920900  0.159540  1.0  -0.2649
  I  I99  1  0.340460  0.165200  0.080440  1.0  -0.2633
  I  I100  1  0.254360  0.334800  0.824740  1.0  -0.2634
  I  I101  1  0.580440  0.420900  0.754360  1.0  -0.2623
  I  I102  1  0.324740  0.079100  0.840460  1.0  -0.2672
  I  I103  1  0.659540  0.834800  0.919560  1.0  -0.2632
  I  I104  1  0.745640  0.665200  0.175260  1.0  -0.2632
  N  N105  1  0.434300  0.827600  0.100900  1.0  -0.2212
  N  N106  1  0.314200  0.873100  0.093500  1.0  -0.4696
  N  N107  1  0.378200  0.773500  0.063300  1.0  -0.28
  N  N108  1  0.571500  0.672400  0.393300  1.0  -0.2138
  N  N109  1  0.533400  0.626900  0.558900  1.0  -0.4725
  N  N110  1  0.663200  0.726500  0.395300  1.0  -0.2771
  N  N111  1  0.106700  0.035200  0.065700  1.0  -0.2172
  N  N112  1  0.941100  0.907700  0.185800  1.0  -0.4726
  N  N113  1  0.104700  0.941500  0.121800  1.0  -0.2861
  N  N114  1  0.399100  0.464800  0.928500  1.0  -0.2157
  N  N115  1  0.406500  0.592300  0.966600  1.0  -0.4737
  N  N116  1  0.436700  0.558500  0.836800  1.0  -0.281
  N  N117  1  0.565700  0.172400  0.899100  1.0  -0.2167
  N  N118  1  0.685800  0.126900  0.906500  1.0  -0.4712
  N  N119  1  0.621800  0.226500  0.936700  1.0  -0.2804
  N  N120  1  0.428500  0.327600  0.606700  1.0  -0.2175
  N  N121  1  0.466600  0.373100  0.441100  1.0  -0.474
  N  N122  1  0.336800  0.273500  0.604700  1.0  -0.2823
  N  N123  1  0.893300  0.964800  0.934300  1.0  -0.2184
  N  N124  1  0.058900  0.092300  0.814200  1.0  -0.4746
  N  N125  1  0.895300  0.058500  0.878200  1.0  -0.2836
  N  N126  1  0.600900  0.535200  0.071500  1.0  -0.2144
  N  N127  1  0.593500  0.407700  0.033400  1.0  -0.4747
  N  N128  1  0.563300  0.441500  0.163200  1.0  -0.2825
