# generated using pymatgen
data_CdPHCO6
_symmetry_space_group_name_H-M   'P 1'
_cell_length_a   5.63390000
_cell_length_b   15.94280000
_cell_length_c   9.61830000
_cell_angle_alpha   90.00000000
_cell_angle_beta   91.11560000
_cell_angle_gamma   90.00000000
_symmetry_Int_Tables_number   1
_chemical_formula_structural   CdPHCO6
_chemical_formula_sum   'Cd4 P4 H4 C4 O24'
_cell_volume   863.75330433
_cell_formula_units_Z   4
loop_
 _symmetry_equiv_pos_site_id
 _symmetry_equiv_pos_as_xyz
  1  'x, y, z'
loop_
 _atom_site_type_symbol
 _atom_site_label
 _atom_site_symmetry_multiplicity
 _atom_site_fract_x
 _atom_site_fract_y
 _atom_site_fract_z
 _atom_site_occupancy
 _atom_site_charge
  Cd  Cd1  1  0.298080  0.331750  0.937410  1.0  1.0987
  Cd  Cd2  1  0.201920  0.831750  0.562590  1.0  1.0982
  Cd  Cd3  1  0.701920  0.668250  0.062590  1.0  1.0974
  Cd  Cd4  1  0.798080  0.168250  0.437410  1.0  1.0996
  P  P5  1  0.307500  0.196030  0.650100  1.0  1.7401
  P  P6  1  0.192500  0.696030  0.849900  1.0  1.741
  P  P7  1  0.692500  0.803970  0.349900  1.0  1.7381
  P  P8  1  0.807500  0.303970  0.150100  1.0  1.737
  H  H9  1  0.448000  0.079600  0.643400  1.0  0.477
  H  H10  1  0.052000  0.579600  0.856600  1.0  0.477
  H  H11  1  0.552000  0.920400  0.356600  1.0  0.4753
  H  H12  1  0.948000  0.420400  0.143400  1.0  0.4754
  C  C13  1  0.592400  0.493900  0.941100  1.0  0.7219
  C  C14  1  0.907600  0.993900  0.558900  1.0  0.7231
  C  C15  1  0.407600  0.506100  0.058900  1.0  0.7232
  C  C16  1  0.092400  0.006100  0.441100  1.0  0.7222
  O  O17  1  0.363800  0.226200  0.797300  1.0  -0.7484
  O  O18  1  0.492100  0.224400  0.548400  1.0  -0.7945
  O  O19  1  0.056200  0.219600  0.607400  1.0  -0.7839
  O  O20  1  0.313100  0.096300  0.657900  1.0  -0.6003
  O  O21  1  0.575900  0.428800  0.868400  1.0  -0.5432
  O  O22  1  0.745700  0.549700  0.928000  1.0  -0.5672
  O  O23  1  0.136200  0.726200  0.702700  1.0  -0.7465
  O  O24  1  0.007900  0.724400  0.951600  1.0  -0.7949
  O  O25  1  0.443800  0.719600  0.892600  1.0  -0.7847
  O  O26  1  0.186900  0.596300  0.842100  1.0  -0.5981
  O  O27  1  0.924100  0.928800  0.631600  1.0  -0.5447
  O  O28  1  0.754300  0.049700  0.572000  1.0  -0.5668
  O  O29  1  0.636200  0.773800  0.202700  1.0  -0.7468
  O  O30  1  0.507900  0.775600  0.451600  1.0  -0.7942
  O  O31  1  0.943800  0.780400  0.392600  1.0  -0.7853
  O  O32  1  0.686900  0.903700  0.342100  1.0  -0.5984
  O  O33  1  0.424100  0.571200  0.131600  1.0  -0.5441
  O  O34  1  0.254300  0.450300  0.072000  1.0  -0.5667
  O  O35  1  0.863800  0.273800  0.297300  1.0  -0.749
  O  O36  1  0.992100  0.275600  0.048400  1.0  -0.7937
  O  O37  1  0.556200  0.280400  0.107400  1.0  -0.784
  O  O38  1  0.813100  0.403700  0.157900  1.0  -0.6003
  O  O39  1  0.075900  0.071200  0.368400  1.0  -0.5418
  O  O40  1  0.245700  0.950300  0.428000  1.0  -0.5678
