# generated using pymatgen
data_MnPHCO6
_symmetry_space_group_name_H-M   'P 1'
_cell_length_a   5.56670000
_cell_length_b   15.62970000
_cell_length_c   9.54080000
_cell_angle_alpha   90.00000000
_cell_angle_beta   91.80390000
_cell_angle_gamma   90.00000000
_symmetry_Int_Tables_number   1
_chemical_formula_structural   MnPHCO6
_chemical_formula_sum   'Mn4 P4 H4 C4 O24'
_cell_volume   829.69403947
_cell_formula_units_Z   4
loop_
 _symmetry_equiv_pos_site_id
 _symmetry_equiv_pos_as_xyz
  1  'x, y, z'
loop_
 _atom_site_type_symbol
 _atom_site_label
 _atom_site_symmetry_multiplicity
 _atom_site_fract_x
 _atom_site_fract_y
 _atom_site_fract_z
 _atom_site_occupancy
 _atom_site_charge
  Mn  Mn1  1  0.696140  0.668450  0.561260  1.0  1.1406
  Mn  Mn2  1  0.803860  0.168450  0.938740  1.0  1.1391
  Mn  Mn3  1  0.303860  0.331550  0.438740  1.0  1.1396
  Mn  Mn4  1  0.196140  0.831550  0.061260  1.0  1.1406
  P  P5  1  0.185030  0.698310  0.353750  1.0  1.7602
  P  P6  1  0.314970  0.198310  0.146250  1.0  1.7593
  P  P7  1  0.814970  0.301690  0.646250  1.0  1.7565
  P  P8  1  0.685030  0.801690  0.853750  1.0  1.7572
  H  H9  1  0.054500  0.577800  0.362000  1.0  0.4638
  H  H10  1  0.445500  0.077800  0.138000  1.0  0.4641
  H  H11  1  0.945500  0.422200  0.638000  1.0  0.4624
  H  H12  1  0.554500  0.922200  0.862000  1.0  0.4626
  C  C13  1  0.592600  0.493750  0.441600  1.0  0.6414
  C  C14  1  0.907400  0.993750  0.058400  1.0  0.64
  C  C15  1  0.407400  0.506250  0.558400  1.0  0.6401
  C  C16  1  0.092600  0.006250  0.941600  1.0  0.6415
  O  O17  1  0.436200  0.721780  0.406200  1.0  -0.7478
  O  O18  1  0.989800  0.722220  0.452800  1.0  -0.7558
  O  O19  1  0.135600  0.734500  0.207800  1.0  -0.7591
  O  O20  1  0.182800  0.596870  0.335900  1.0  -0.6213
  O  O21  1  0.743900  0.552170  0.428700  1.0  -0.5866
  O  O22  1  0.576100  0.426810  0.370200  1.0  -0.5293
  O  O23  1  0.063800  0.221780  0.093800  1.0  -0.7495
  O  O24  1  0.510200  0.222220  0.047200  1.0  -0.7558
  O  O25  1  0.364400  0.234500  0.292200  1.0  -0.7603
  O  O26  1  0.317200  0.096870  0.164100  1.0  -0.6226
  O  O27  1  0.756100  0.052170  0.071300  1.0  -0.5865
  O  O28  1  0.923900  0.926810  0.129800  1.0  -0.5298
  O  O29  1  0.563800  0.278220  0.593800  1.0  -0.7509
  O  O30  1  0.010200  0.277780  0.547200  1.0  -0.7542
  O  O31  1  0.864400  0.265500  0.792200  1.0  -0.7601
  O  O32  1  0.817200  0.403130  0.664100  1.0  -0.6231
  O  O33  1  0.256100  0.447830  0.571300  1.0  -0.5864
  O  O34  1  0.423900  0.573190  0.629800  1.0  -0.5288
  O  O35  1  0.936200  0.778220  0.906200  1.0  -0.7499
  O  O36  1  0.489800  0.777780  0.952800  1.0  -0.7552
  O  O37  1  0.635600  0.765500  0.707800  1.0  -0.759
  O  O38  1  0.682800  0.903130  0.835900  1.0  -0.6218
  O  O39  1  0.243900  0.947830  0.928700  1.0  -0.5876
  O  O40  1  0.076100  0.073190  0.870200  1.0  -0.5276
