# generated using pymatgen
data_CdH14C28(NO2)4
_symmetry_space_group_name_H-M   'P 1'
_cell_length_a   8.39300000
_cell_length_b   18.74210000
_cell_length_c   22.23510000
_cell_angle_alpha   90.00000000
_cell_angle_beta   90.00000000
_cell_angle_gamma   94.03100000
_symmetry_Int_Tables_number   1
_chemical_formula_structural   CdH14C28(NO2)4
_chemical_formula_sum   'Cd4 H56 C112 N16 O32'
_cell_volume   3488.98301891
_cell_formula_units_Z   4
loop_
 _symmetry_equiv_pos_site_id
 _symmetry_equiv_pos_as_xyz
  1  'x, y, z'
loop_
 _atom_site_type_symbol
 _atom_site_label
 _atom_site_symmetry_multiplicity
 _atom_site_fract_x
 _atom_site_fract_y
 _atom_site_fract_z
 _atom_site_occupancy
 _atom_site_charge
  Cd  Cd1  1  0.684240  0.012880  0.443040  1.0  0.9822
  Cd  Cd2  1  0.315760  0.487120  0.943040  1.0  0.9823
  Cd  Cd3  1  0.315760  0.987120  0.556960  1.0  0.9825
  Cd  Cd4  1  0.684240  0.512880  0.056960  1.0  0.9824
  H  H5  1  0.058000  0.167200  0.453300  1.0  0.0933
  H  H6  1  0.999200  0.253400  0.380200  1.0  0.1319
  H  H7  1  0.487300  0.142800  0.374200  1.0  0.1233
  H  H8  1  0.415300  0.505100  0.158900  1.0  0.0777
  H  H9  1  0.305500  0.433800  0.236000  1.0  0.1452
  H  H10  1  0.549600  0.272200  0.167800  1.0  0.1421
  H  H11  1  0.655500  0.351500  0.096400  1.0  0.0803
  H  H12  1  0.132000  0.026000  0.305800  1.0  0.0991
  H  H13  1  0.293700  0.068800  0.224200  1.0  0.1298
  H  H14  1  0.797900  0.164800  0.264900  1.0  0.1154
  H  H15  1  0.317600  0.319100  0.959900  1.0  0.0847
  H  H16  1  0.252100  0.226700  0.026700  1.0  0.1513
  H  H17  1  0.037100  0.369700  0.131400  1.0  0.1458
  H  H18  1  0.109600  0.454700  0.061400  1.0  0.0778
  H  H19  1  0.942000  0.332800  0.953300  1.0  0.0938
  H  H20  1  0.000800  0.246600  0.880200  1.0  0.132
  H  H21  1  0.512700  0.357200  0.874200  1.0  0.1231
  H  H22  1  0.584700  0.994900  0.658900  1.0  0.0778
  H  H23  1  0.694500  0.066200  0.736000  1.0  0.1456
  H  H24  1  0.450400  0.227800  0.667800  1.0  0.1439
  H  H25  1  0.344500  0.148500  0.596400  1.0  0.0802
  H  H26  1  0.868000  0.474000  0.805800  1.0  0.0991
  H  H27  1  0.706300  0.431200  0.724200  1.0  0.1299
  H  H28  1  0.202100  0.335200  0.764900  1.0  0.1156
  H  H29  1  0.682400  0.180900  0.459900  1.0  0.0848
  H  H30  1  0.747900  0.273300  0.526700  1.0  0.1538
  H  H31  1  0.962900  0.130300  0.631400  1.0  0.1451
  H  H32  1  0.890400  0.045300  0.561400  1.0  0.0778
  H  H33  1  0.942000  0.832800  0.546700  1.0  0.0928
  H  H34  1  0.000800  0.746600  0.619800  1.0  0.1316
  H  H35  1  0.512700  0.857200  0.625800  1.0  0.1231
  H  H36  1  0.584700  0.494900  0.841100  1.0  0.0776
  H  H37  1  0.694500  0.566200  0.764000  1.0  0.1458
  H  H38  1  0.450400  0.727800  0.832200  1.0  0.1438
  H  H39  1  0.344500  0.648500  0.903600  1.0  0.0804
  H  H40  1  0.868000  0.974000  0.694200  1.0  0.0992
  H  H41  1  0.706300  0.931200  0.775800  1.0  0.1304
  H  H42  1  0.202100  0.835200  0.735100  1.0  0.1156
  H  H43  1  0.682400  0.680900  0.040100  1.0  0.0852
  H  H44  1  0.747900  0.773300  0.973300  1.0  0.152
  H  H45  1  0.962900  0.630300  0.868600  1.0  0.1459
  H  H46  1  0.890400  0.545300  0.938600  1.0  0.078
  H  H47  1  0.058000  0.667200  0.046700  1.0  0.0928
  H  H48  1  0.999200  0.753400  0.119800  1.0  0.1324
  H  H49  1  0.487300  0.642800  0.125800  1.0  0.1231
  H  H50  1  0.415300  0.005100  0.341100  1.0  0.0777
  H  H51  1  0.305500  0.933800  0.264000  1.0  0.1457
  H  H52  1  0.549600  0.772200  0.332200  1.0  0.1423
  H  H53  1  0.655500  0.851500  0.403600  1.0  0.081
  H  H54  1  0.132000  0.526000  0.194200  1.0  0.0994
  H  H55  1  0.293700  0.568800  0.275800  1.0  0.1298
  H  H56  1  0.797900  0.664800  0.235100  1.0  0.1154
  H  H57  1  0.317600  0.819100  0.540100  1.0  0.0852
  H  H58  1  0.252100  0.726700  0.473300  1.0  0.1515
  H  H59  1  0.037100  0.869700  0.368600  1.0  0.1465
  H  H60  1  0.109600  0.954700  0.438600  1.0  0.078
  C  C61  1  0.306400  0.090200  0.465800  1.0  0.659
  C  C62  1  0.275400  0.147000  0.419900  1.0  -0.1133
  C  C63  1  0.132900  0.179800  0.422400  1.0  -0.013
  C  C64  1  0.098100  0.231700  0.379600  1.0  -0.0525
  C  C65  1  0.211000  0.249700  0.337300  1.0  -0.0863
  C  C66  1  0.353900  0.218000  0.336000  1.0  -0.1135
  C  C67  1  0.389600  0.165300  0.376200  1.0  -0.0148
  C  C68  1  0.451400  0.248300  0.285700  1.0  0.481
  C  C69  1  0.209900  0.301800  0.286500  1.0  0.4959
  C  C70  1  0.443800  0.457000  0.161600  1.0  0.1911
  C  C71  1  0.376400  0.415300  0.207600  1.0  -0.2505
  C  C72  1  0.417700  0.344700  0.210100  1.0  0.2609
  C  C73  1  0.521300  0.320400  0.167600  1.0  -0.2504
  C  C74  1  0.582100  0.367900  0.124900  1.0  0.1938
  C  C75  1  0.856800  0.064000  0.346700  1.0  0.6246
  C  C76  1  0.953800  0.091400  0.293400  1.0  -0.1003
  C  C77  1  0.097700  0.063300  0.281100  1.0  -0.0289
  C  C78  1  0.195200  0.088500  0.233100  1.0  -0.0683
  C  C79  1  0.139000  0.144100  0.199300  1.0  -0.1101
  C  C80  1  0.994100  0.171200  0.211800  1.0  -0.1083
  C  C81  1  0.898400  0.146100  0.257500  1.0  -0.0036
  C  C82  1  0.216300  0.183300  0.148200  1.0  0.5043
  C  C83  1  0.970400  0.229800  0.167500  1.0  0.5026
  C  C84  1  0.262000  0.329300  0.995700  1.0  0.1737
  C  C85  1  0.223700  0.273800  0.035200  1.0  -0.256
  C  C86  1  0.142500  0.288900  0.087900  1.0  0.2354
  C  C87  1  0.097000  0.357800  0.097000  1.0  -0.2354
  C  C88  1  0.141300  0.407600  0.054800  1.0  0.2103
  C  C89  1  0.693600  0.409800  0.965800  1.0  0.6585
  C  C90  1  0.724600  0.353000  0.919900  1.0  -0.1145
  C  C91  1  0.867100  0.320200  0.922400  1.0  -0.0138
  C  C92  1  0.901900  0.268300  0.879600  1.0  -0.0523
  C  C93  1  0.789000  0.250300  0.837300  1.0  -0.0834
  C  C94  1  0.646100  0.282000  0.836000  1.0  -0.1163
  C  C95  1  0.610400  0.334700  0.876200  1.0  -0.0136
  C  C96  1  0.548600  0.251700  0.785700  1.0  0.4818
  C  C97  1  0.790100  0.198200  0.786500  1.0  0.4973
  C  C98  1  0.556200  0.043000  0.661600  1.0  0.1919
  C  C99  1  0.623600  0.084700  0.707600  1.0  -0.2489
  C  C100  1  0.582300  0.155300  0.710100  1.0  0.2614
  C  C101  1  0.478700  0.179600  0.667600  1.0  -0.2534
  C  C102  1  0.417900  0.132100  0.624900  1.0  0.1944
  C  C103  1  0.143200  0.436000  0.846700  1.0  0.6252
  C  C104  1  0.046200  0.408600  0.793400  1.0  -0.1006
  C  C105  1  0.902300  0.436700  0.781100  1.0  -0.0259
  C  C106  1  0.804800  0.411500  0.733100  1.0  -0.069
  C  C107  1  0.861000  0.355900  0.699300  1.0  -0.1103
  C  C108  1  0.005900  0.328800  0.711800  1.0  -0.107
  C  C109  1  0.101600  0.353900  0.757500  1.0  0.0004
  C  C110  1  0.783700  0.316700  0.648200  1.0  0.5049
  C  C111  1  0.029600  0.270200  0.667500  1.0  0.4989
  C  C112  1  0.738000  0.170700  0.495700  1.0  0.1734
  C  C113  1  0.776300  0.226200  0.535200  1.0  -0.2537
  C  C114  1  0.857500  0.211100  0.587900  1.0  0.2379
  C  C115  1  0.903000  0.142200  0.597000  1.0  -0.2357
  C  C116  1  0.858700  0.092400  0.554800  1.0  0.2093
  C  C117  1  0.693600  0.909800  0.534200  1.0  0.6589
  C  C118  1  0.724600  0.853000  0.580100  1.0  -0.1139
  C  C119  1  0.867100  0.820200  0.577600  1.0  -0.0131
  C  C120  1  0.901900  0.768300  0.620400  1.0  -0.0531
  C  C121  1  0.789000  0.750300  0.662700  1.0  -0.0861
  C  C122  1  0.646100  0.782000  0.664000  1.0  -0.117
  C  C123  1  0.610400  0.834700  0.623800  1.0  -0.0136
  C  C124  1  0.548600  0.751700  0.714300  1.0  0.4822
  C  C125  1  0.790100  0.698200  0.713500  1.0  0.4983
  C  C126  1  0.556200  0.543000  0.838400  1.0  0.1914
  C  C127  1  0.623600  0.584700  0.792400  1.0  -0.2526
  C  C128  1  0.582300  0.655300  0.789900  1.0  0.2617
  C  C129  1  0.478700  0.679600  0.832400  1.0  -0.2535
  C  C130  1  0.417900  0.632100  0.875100  1.0  0.1955
  C  C131  1  0.143200  0.936000  0.653300  1.0  0.6256
  C  C132  1  0.046200  0.908600  0.706600  1.0  -0.1005
  C  C133  1  0.902300  0.936700  0.718900  1.0  -0.0256
  C  C134  1  0.804800  0.911500  0.766900  1.0  -0.0707
  C  C135  1  0.861000  0.855900  0.800700  1.0  -0.1096
  C  C136  1  0.005900  0.828800  0.788200  1.0  -0.1074
  C  C137  1  0.101600  0.853900  0.742500  1.0  -0.0021
  C  C138  1  0.783700  0.816700  0.851800  1.0  0.5025
  C  C139  1  0.029600  0.770200  0.832500  1.0  0.4974
  C  C140  1  0.738000  0.670700  0.004300  1.0  0.1724
  C  C141  1  0.776300  0.726200  0.964800  1.0  -0.2534
  C  C142  1  0.857500  0.711100  0.912100  1.0  0.2372
  C  C143  1  0.903000  0.642200  0.903000  1.0  -0.2361
  C  C144  1  0.858700  0.592400  0.945200  1.0  0.209
  C  C145  1  0.306400  0.590200  0.034200  1.0  0.6595
  C  C146  1  0.275400  0.647000  0.080100  1.0  -0.113
  C  C147  1  0.132900  0.679800  0.077600  1.0  -0.0123
  C  C148  1  0.098100  0.731700  0.120400  1.0  -0.0523
  C  C149  1  0.211000  0.749700  0.162700  1.0  -0.0867
  C  C150  1  0.353900  0.718000  0.164000  1.0  -0.1147
  C  C151  1  0.389600  0.665300  0.123800  1.0  -0.0147
  C  C152  1  0.451400  0.748300  0.214300  1.0  0.4814
  C  C153  1  0.209900  0.801800  0.213500  1.0  0.5006
  C  C154  1  0.443800  0.957000  0.338400  1.0  0.1913
  C  C155  1  0.376400  0.915300  0.292400  1.0  -0.2526
  C  C156  1  0.417700  0.844700  0.289900  1.0  0.2608
  C  C157  1  0.521300  0.820400  0.332400  1.0  -0.2507
  C  C158  1  0.582100  0.867900  0.375100  1.0  0.1952
  C  C159  1  0.856800  0.564000  0.153300  1.0  0.6247
  C  C160  1  0.953800  0.591400  0.206600  1.0  -0.1018
  C  C161  1  0.097700  0.563300  0.218900  1.0  -0.028
  C  C162  1  0.195200  0.588500  0.266900  1.0  -0.0674
  C  C163  1  0.139000  0.644100  0.300700  1.0  -0.11
  C  C164  1  0.994100  0.671200  0.288200  1.0  -0.1085
  C  C165  1  0.898400  0.646100  0.242500  1.0  -0.0058
  C  C166  1  0.216300  0.683300  0.351800  1.0  0.504
  C  C167  1  0.970400  0.729800  0.332500  1.0  0.5021
  C  C168  1  0.262000  0.829300  0.504300  1.0  0.1736
  C  C169  1  0.223700  0.773800  0.464800  1.0  -0.2554
  C  C170  1  0.142500  0.788900  0.412100  1.0  0.2371
  C  C171  1  0.097000  0.857800  0.403000  1.0  -0.2362
  C  C172  1  0.141300  0.907600  0.445200  1.0  0.21
  N  N173  1  0.544500  0.435100  0.121300  1.0  -0.3399
  N  N174  1  0.359100  0.299100  0.257200  1.0  -0.2672
  N  N175  1  0.110200  0.235600  0.131800  1.0  -0.2683
  N  N176  1  0.224600  0.397100  0.005300  1.0  -0.354
  N  N177  1  0.455500  0.064900  0.621300  1.0  -0.3407
  N  N178  1  0.640900  0.200900  0.757200  1.0  -0.2675
  N  N179  1  0.889800  0.264400  0.631800  1.0  -0.2679
  N  N180  1  0.775400  0.102900  0.505300  1.0  -0.3556
  N  N181  1  0.455500  0.564900  0.878700  1.0  -0.3406
  N  N182  1  0.640900  0.700900  0.742800  1.0  -0.2683
  N  N183  1  0.889800  0.764400  0.868200  1.0  -0.2678
  N  N184  1  0.775400  0.602900  0.994700  1.0  -0.3547
  N  N185  1  0.544500  0.935100  0.378700  1.0  -0.3399
  N  N186  1  0.359100  0.799100  0.242800  1.0  -0.2674
  N  N187  1  0.110200  0.735600  0.368200  1.0  -0.2677
  N  N188  1  0.224600  0.897100  0.494700  1.0  -0.3546
  O  O189  1  0.429400  0.056200  0.459850  1.0  -0.6499
  O  O190  1  0.206700  0.078500  0.506700  1.0  -0.5622
  O  O191  1  0.106300  0.338800  0.270200  1.0  -0.4285
  O  O192  1  0.584900  0.235800  0.271300  1.0  -0.406
  O  O193  1  0.728100  0.091600  0.359220  1.0  -0.6
  O  O194  1  0.909700  0.013700  0.376900  1.0  -0.595
  O  O195  1  0.856000  0.263800  0.160500  1.0  -0.4036
  O  O196  1  0.342700  0.174600  0.124000  1.0  -0.4354
  O  O197  1  0.570600  0.443800  0.959850  1.0  -0.6504
  O  O198  1  0.793300  0.421500  0.006700  1.0  -0.562
  O  O199  1  0.893700  0.161200  0.770200  1.0  -0.4275
  O  O200  1  0.415100  0.264200  0.771300  1.0  -0.4078
  O  O201  1  0.271900  0.408400  0.859220  1.0  -0.6007
  O  O202  1  0.090300  0.486300  0.876900  1.0  -0.5944
  O  O203  1  0.144000  0.236200  0.660500  1.0  -0.4072
  O  O204  1  0.657300  0.325400  0.624000  1.0  -0.4345
  O  O205  1  0.570600  0.943800  0.540150  1.0  -0.6462
  O  O206  1  0.793300  0.921500  0.493300  1.0  -0.5624
  O  O207  1  0.893700  0.661200  0.729800  1.0  -0.4277
  O  O208  1  0.415100  0.764200  0.728700  1.0  -0.4078
  O  O209  1  0.271900  0.908400  0.640780  1.0  -0.5991
  O  O210  1  0.090300  0.986300  0.623100  1.0  -0.5974
  O  O211  1  0.144000  0.736200  0.839500  1.0  -0.4075
  O  O212  1  0.657300  0.825400  0.876000  1.0  -0.4337
  O  O213  1  0.429400  0.556200  0.040150  1.0  -0.6456
  O  O214  1  0.206700  0.578500  0.993300  1.0  -0.5622
  O  O215  1  0.106300  0.838800  0.229800  1.0  -0.429
  O  O216  1  0.584900  0.735800  0.228700  1.0  -0.4057
  O  O217  1  0.728100  0.591600  0.140780  1.0  -0.6008
  O  O218  1  0.909700  0.513700  0.123100  1.0  -0.5983
  O  O219  1  0.856000  0.763800  0.339500  1.0  -0.4036
  O  O220  1  0.342700  0.674600  0.376000  1.0  -0.4357
