# generated using pymatgen
data_CuH16(C5N)4
_symmetry_space_group_name_H-M   'P 1'
_cell_length_a   18.09730000
_cell_length_b   28.43690000
_cell_length_c   28.50160000
_cell_angle_alpha   90.00000000
_cell_angle_beta   90.00000000
_cell_angle_gamma   90.00000000
_symmetry_Int_Tables_number   1
_chemical_formula_structural   CuH16(C5N)4
_chemical_formula_sum   'Cu16 H256 C320 N64'
_cell_volume   14667.81005532
_cell_formula_units_Z   16
loop_
 _symmetry_equiv_pos_site_id
 _symmetry_equiv_pos_as_xyz
  1  'x, y, z'
loop_
 _atom_site_type_symbol
 _atom_site_label
 _atom_site_symmetry_multiplicity
 _atom_site_fract_x
 _atom_site_fract_y
 _atom_site_fract_z
 _atom_site_occupancy
 _atom_site_charge
  Cu  Cu1  1  0.984390  0.243520  0.763920  1.0  0.4136
  Cu  Cu2  1  0.741760  0.486140  0.503090  1.0  0.3251
  Cu  Cu3  1  0.515610  0.756480  0.263920  1.0  0.413
  Cu  Cu4  1  0.758240  0.513860  0.003090  1.0  0.3255
  Cu  Cu5  1  0.015610  0.743520  0.736080  1.0  0.4134
  Cu  Cu6  1  0.258240  0.986140  0.996910  1.0  0.3249
  Cu  Cu7  1  0.484390  0.256480  0.236080  1.0  0.4135
  Cu  Cu8  1  0.241760  0.013860  0.496910  1.0  0.3251
  Cu  Cu9  1  0.015610  0.756480  0.236080  1.0  0.4132
  Cu  Cu10  1  0.258240  0.513860  0.496910  1.0  0.3252
  Cu  Cu11  1  0.484390  0.243520  0.736080  1.0  0.4137
  Cu  Cu12  1  0.241760  0.486140  0.996910  1.0  0.3248
  Cu  Cu13  1  0.984390  0.256480  0.263920  1.0  0.4133
  Cu  Cu14  1  0.741760  0.013860  0.003090  1.0  0.3255
  Cu  Cu15  1  0.515610  0.743520  0.763920  1.0  0.4132
  Cu  Cu16  1  0.758240  0.986140  0.503090  1.0  0.3252
  H  H17  1  0.628600  0.281900  0.383300  1.0  0.1045
  H  H18  1  0.029900  0.293500  0.851500  1.0  0.0735
  H  H19  1  0.787400  0.338900  0.838700  1.0  0.1084
  H  H20  1  0.741500  0.351700  0.614400  1.0  0.1086
  H  H21  1  0.884500  0.237400  0.683500  1.0  0.0632
  H  H22  1  0.590300  0.463400  0.467900  1.0  0.0602
  H  H23  1  0.811700  0.569200  0.649000  1.0  0.1065
  H  H24  1  0.775500  0.396100  0.455800  1.0  0.0595
  H  H25  1  0.577000  0.240600  0.322400  1.0  0.0573
  H  H26  1  0.826100  0.285000  0.629300  1.0  0.1082
  H  H27  1  0.051200  0.693200  0.647500  1.0  0.0644
  H  H28  1  0.940700  0.409700  0.594700  1.0  0.1104
  H  H29  1  0.534300  0.414300  0.414700  1.0  0.0986
  H  H30  1  0.997600  0.642100  0.594900  1.0  0.1072
  H  H31  1  0.809700  0.652900  0.667300  1.0  0.1065
  H  H32  1  0.694100  0.402700  0.558900  1.0  0.0716
  H  H33  1  0.896400  0.367700  0.968700  1.0  0.1115
  H  H34  1  0.939100  0.394800  0.682200  1.0  0.1072
  H  H35  1  0.888500  0.458700  0.539900  1.0  0.0602
  H  H36  1  0.725500  0.345200  0.402300  1.0  0.1047
  H  H37  1  0.868100  0.704400  0.716700  1.0  0.055
  H  H38  1  0.542700  0.399600  0.328100  1.0  0.1055
  H  H39  1  0.497400  0.355600  0.266900  1.0  0.0764
  H  H40  1  0.899800  0.626000  0.532900  1.0  0.1084
  H  H41  1  0.988600  0.345200  0.737400  1.0  0.0775
  H  H42  1  0.837400  0.284000  0.789300  1.0  0.0734
  H  H43  1  0.983200  0.346700  0.904300  1.0  0.0967
  H  H44  1  0.839100  0.569800  0.489700  1.0  0.0594
  H  H45  1  0.800000  0.425700  0.856400  1.0  0.1012
  H  H46  1  0.757800  0.512700  0.602300  1.0  0.0665
  H  H47  1  0.849500  0.427700  0.012900  1.0  0.0607
  H  H48  1  0.763700  0.486700  0.902600  1.0  0.0666
  H  H49  1  0.871400  0.718100  0.883300  1.0  0.1044
  H  H50  1  0.470100  0.706500  0.351500  1.0  0.0752
  H  H51  1  0.712600  0.661100  0.338700  1.0  0.1078
  H  H52  1  0.758500  0.648300  0.114400  1.0  0.1079
  H  H53  1  0.615500  0.762600  0.183500  1.0  0.0625
  H  H54  1  0.909700  0.536600  0.967900  1.0  0.0598
  H  H55  1  0.688300  0.430800  0.149000  1.0  0.106
  H  H56  1  0.724500  0.603900  0.955800  1.0  0.0604
  H  H57  1  0.923000  0.759400  0.822400  1.0  0.0567
  H  H58  1  0.673900  0.715000  0.129300  1.0  0.1083
  H  H59  1  0.448800  0.306800  0.147500  1.0  0.0657
  H  H60  1  0.559300  0.590300  0.094700  1.0  0.1112
  H  H61  1  0.965700  0.585700  0.914700  1.0  0.0988
  H  H62  1  0.502400  0.357900  0.094900  1.0  0.1073
  H  H63  1  0.690300  0.347100  0.167300  1.0  0.1058
  H  H64  1  0.805900  0.597300  0.058900  1.0  0.0695
  H  H65  1  0.603600  0.632300  0.468700  1.0  0.1117
  H  H66  1  0.560900  0.605200  0.182200  1.0  0.107
  H  H67  1  0.611500  0.541300  0.039900  1.0  0.06
  H  H68  1  0.774500  0.654800  0.902300  1.0  0.1051
  H  H69  1  0.631900  0.295600  0.216700  1.0  0.056
  H  H70  1  0.957300  0.600400  0.828100  1.0  0.1049
  H  H71  1  0.002600  0.644400  0.766900  1.0  0.0754
  H  H72  1  0.600200  0.374000  0.032900  1.0  0.1078
  H  H73  1  0.511400  0.654800  0.237400  1.0  0.0781
  H  H74  1  0.662600  0.716000  0.289300  1.0  0.074
  H  H75  1  0.516800  0.653300  0.404300  1.0  0.0969
  H  H76  1  0.660900  0.430200  0.989700  1.0  0.0592
  H  H77  1  0.700000  0.574300  0.356400  1.0  0.1009
  H  H78  1  0.742200  0.487300  0.102300  1.0  0.0668
  H  H79  1  0.650500  0.572300  0.512900  1.0  0.0613
  H  H80  1  0.736300  0.513300  0.402600  1.0  0.0653
  H  H81  1  0.371400  0.781900  0.116700  1.0  0.1041
  H  H82  1  0.970100  0.793500  0.648500  1.0  0.0751
  H  H83  1  0.212600  0.838900  0.661300  1.0  0.1074
  H  H84  1  0.258500  0.851700  0.885600  1.0  0.1079
  H  H85  1  0.115500  0.737400  0.816500  1.0  0.0633
  H  H86  1  0.409700  0.963400  0.032100  1.0  0.0614
  H  H87  1  0.188300  0.069200  0.851000  1.0  0.106
  H  H88  1  0.224500  0.896100  0.044200  1.0  0.0613
  H  H89  1  0.423000  0.740600  0.177600  1.0  0.056
  H  H90  1  0.173900  0.785000  0.870700  1.0  0.1084
  H  H91  1  0.948800  0.193200  0.852500  1.0  0.0661
  H  H92  1  0.059300  0.909700  0.905300  1.0  0.1112
  H  H93  1  0.465700  0.914300  0.085300  1.0  0.0981
  H  H94  1  0.002400  0.142100  0.905100  1.0  0.1077
  H  H95  1  0.190300  0.152900  0.832700  1.0  0.1059
  H  H96  1  0.305900  0.902700  0.941100  1.0  0.0695
  H  H97  1  0.103600  0.867700  0.531300  1.0  0.1111
  H  H98  1  0.060900  0.894800  0.817800  1.0  0.1071
  H  H99  1  0.111500  0.958700  0.960100  1.0  0.0602
  H  H100  1  0.274500  0.845200  0.097700  1.0  0.1045
  H  H101  1  0.131900  0.204400  0.783300  1.0  0.0566
  H  H102  1  0.457300  0.899600  0.171900  1.0  0.1051
  H  H103  1  0.502600  0.855600  0.233100  1.0  0.0757
  H  H104  1  0.100200  0.126000  0.967100  1.0  0.1085
  H  H105  1  0.011400  0.845200  0.762600  1.0  0.0781
  H  H106  1  0.162600  0.784000  0.710700  1.0  0.0735
  H  H107  1  0.016800  0.846700  0.595700  1.0  0.0965
  H  H108  1  0.160900  0.069800  0.010300  1.0  0.0598
  H  H109  1  0.200000  0.925700  0.643600  1.0  0.1011
  H  H110  1  0.242200  0.012700  0.897700  1.0  0.0669
  H  H111  1  0.150500  0.927700  0.487100  1.0  0.0609
  H  H112  1  0.236300  0.986700  0.597400  1.0  0.0661
  H  H113  1  0.128600  0.218100  0.616700  1.0  0.1047
  H  H114  1  0.529900  0.206500  0.148500  1.0  0.0738
  H  H115  1  0.287400  0.161100  0.161300  1.0  0.1079
  H  H116  1  0.241500  0.148300  0.385600  1.0  0.108
  H  H117  1  0.384500  0.262600  0.316500  1.0  0.0622
  H  H118  1  0.090300  0.036600  0.532100  1.0  0.0601
  H  H119  1  0.311700  0.930800  0.351000  1.0  0.1059
  H  H120  1  0.275500  0.103900  0.544200  1.0  0.06
  H  H121  1  0.077000  0.259400  0.677600  1.0  0.0569
  H  H122  1  0.326100  0.215000  0.370700  1.0  0.1088
  H  H123  1  0.551200  0.806800  0.352500  1.0  0.0639
  H  H124  1  0.440700  0.090300  0.405300  1.0  0.1109
  H  H125  1  0.034300  0.085700  0.585300  1.0  0.0986
  H  H126  1  0.497600  0.857900  0.405100  1.0  0.1073
  H  H127  1  0.309700  0.847100  0.332700  1.0  0.1069
  H  H128  1  0.194100  0.097300  0.441100  1.0  0.0713
  H  H129  1  0.396400  0.132300  0.031300  1.0  0.1115
  H  H130  1  0.439100  0.105200  0.317800  1.0  0.1066
  H  H131  1  0.388500  0.041300  0.460100  1.0  0.0604
  H  H132  1  0.225500  0.154800  0.597700  1.0  0.1046
  H  H133  1  0.368100  0.795600  0.283300  1.0  0.0557
  H  H134  1  0.042700  0.100400  0.671900  1.0  0.1051
  H  H135  1  0.997400  0.144400  0.733100  1.0  0.0752
  H  H136  1  0.399800  0.874000  0.467100  1.0  0.1087
  H  H137  1  0.488600  0.154800  0.262600  1.0  0.0781
  H  H138  1  0.337400  0.216000  0.210700  1.0  0.0731
  H  H139  1  0.483200  0.153300  0.095700  1.0  0.0966
  H  H140  1  0.339100  0.930200  0.510300  1.0  0.059
  H  H141  1  0.300000  0.074300  0.143600  1.0  0.1016
  H  H142  1  0.257800  0.987300  0.397700  1.0  0.0666
  H  H143  1  0.349500  0.072300  0.987100  1.0  0.0607
  H  H144  1  0.263700  0.013300  0.097400  1.0  0.0662
  H  H145  1  0.371400  0.718100  0.616700  1.0  0.1048
  H  H146  1  0.970100  0.706500  0.148500  1.0  0.0751
  H  H147  1  0.212600  0.661100  0.161300  1.0  0.1076
  H  H148  1  0.258500  0.648300  0.385600  1.0  0.1079
  H  H149  1  0.115500  0.762600  0.316500  1.0  0.0626
  H  H150  1  0.409700  0.536600  0.532100  1.0  0.0607
  H  H151  1  0.188300  0.430800  0.351000  1.0  0.106
  H  H152  1  0.224500  0.603900  0.544200  1.0  0.061
  H  H153  1  0.423000  0.759400  0.677600  1.0  0.0566
  H  H154  1  0.173900  0.715000  0.370700  1.0  0.1084
  H  H155  1  0.948800  0.306800  0.352500  1.0  0.0657
  H  H156  1  0.059300  0.590300  0.405300  1.0  0.1113
  H  H157  1  0.465700  0.585700  0.585300  1.0  0.0982
  H  H158  1  0.002400  0.357900  0.405100  1.0  0.1075
  H  H159  1  0.190300  0.347100  0.332700  1.0  0.1061
  H  H160  1  0.305900  0.597300  0.441100  1.0  0.0694
  H  H161  1  0.103600  0.632300  0.031300  1.0  0.1118
  H  H162  1  0.060900  0.605200  0.317800  1.0  0.1066
  H  H163  1  0.111500  0.541300  0.460100  1.0  0.0603
  H  H164  1  0.274500  0.654800  0.597700  1.0  0.1047
  H  H165  1  0.131900  0.295600  0.283300  1.0  0.0564
  H  H166  1  0.457300  0.600400  0.671900  1.0  0.1048
  H  H167  1  0.502600  0.644400  0.733100  1.0  0.0762
  H  H168  1  0.100200  0.374000  0.467100  1.0  0.1087
  H  H169  1  0.011400  0.654800  0.262600  1.0  0.078
  H  H170  1  0.162600  0.716000  0.210700  1.0  0.0734
  H  H171  1  0.016800  0.653300  0.095700  1.0  0.0965
  H  H172  1  0.160900  0.430200  0.510300  1.0  0.06
  H  H173  1  0.200000  0.574300  0.143600  1.0  0.1012
  H  H174  1  0.242200  0.487300  0.397700  1.0  0.0669
  H  H175  1  0.150500  0.572300  0.987100  1.0  0.0607
  H  H176  1  0.236300  0.513300  0.097400  1.0  0.0658
  H  H177  1  0.128600  0.281900  0.116700  1.0  0.1041
  H  H178  1  0.529900  0.293500  0.648500  1.0  0.0735
  H  H179  1  0.287400  0.338900  0.661300  1.0  0.1081
  H  H180  1  0.241500  0.351700  0.885600  1.0  0.1079
  H  H181  1  0.384500  0.237400  0.816500  1.0  0.0641
  H  H182  1  0.090300  0.463400  0.032100  1.0  0.0605
  H  H183  1  0.311700  0.569200  0.851000  1.0  0.1059
  H  H184  1  0.275500  0.396100  0.044200  1.0  0.06
  H  H185  1  0.077000  0.240600  0.177600  1.0  0.0569
  H  H186  1  0.326100  0.285000  0.870700  1.0  0.1088
  H  H187  1  0.551200  0.693200  0.852500  1.0  0.0643
  H  H188  1  0.440700  0.409700  0.905300  1.0  0.1107
  H  H189  1  0.034300  0.414300  0.085300  1.0  0.0985
  H  H190  1  0.497600  0.642100  0.905100  1.0  0.1073
  H  H191  1  0.309700  0.652900  0.832700  1.0  0.1067
  H  H192  1  0.194100  0.402700  0.941100  1.0  0.0713
  H  H193  1  0.396400  0.367700  0.531300  1.0  0.1112
  H  H194  1  0.439100  0.394800  0.817800  1.0  0.1071
  H  H195  1  0.388500  0.458700  0.960100  1.0  0.0599
  H  H196  1  0.225500  0.345200  0.097700  1.0  0.1043
  H  H197  1  0.368100  0.704400  0.783300  1.0  0.0554
  H  H198  1  0.042700  0.399600  0.171900  1.0  0.1054
  H  H199  1  0.997400  0.355600  0.233100  1.0  0.0748
  H  H200  1  0.399800  0.626000  0.967100  1.0  0.1082
  H  H201  1  0.488600  0.345200  0.762600  1.0  0.0782
  H  H202  1  0.337400  0.284000  0.710700  1.0  0.0735
  H  H203  1  0.483200  0.346700  0.595700  1.0  0.0967
  H  H204  1  0.339100  0.569800  0.010300  1.0  0.0592
  H  H205  1  0.300000  0.425700  0.643600  1.0  0.1015
  H  H206  1  0.257800  0.512700  0.897700  1.0  0.0661
  H  H207  1  0.349500  0.427700  0.487100  1.0  0.0606
  H  H208  1  0.263700  0.486700  0.597400  1.0  0.0668
  H  H209  1  0.628600  0.218100  0.883300  1.0  0.1044
  H  H210  1  0.029900  0.206500  0.351500  1.0  0.0739
  H  H211  1  0.787400  0.161100  0.338700  1.0  0.108
  H  H212  1  0.741500  0.148300  0.114400  1.0  0.1083
  H  H213  1  0.884500  0.262600  0.183500  1.0  0.062
  H  H214  1  0.590300  0.036600  0.967900  1.0  0.0603
  H  H215  1  0.811700  0.930800  0.149000  1.0  0.1061
  H  H216  1  0.775500  0.103900  0.955800  1.0  0.0597
  H  H217  1  0.577000  0.259400  0.822400  1.0  0.0568
  H  H218  1  0.826100  0.215000  0.129300  1.0  0.1085
  H  H219  1  0.051200  0.806800  0.147500  1.0  0.0641
  H  H220  1  0.940700  0.090300  0.094700  1.0  0.1104
  H  H221  1  0.534300  0.085700  0.914700  1.0  0.0988
  H  H222  1  0.997600  0.857900  0.094900  1.0  0.1073
  H  H223  1  0.809700  0.847100  0.167300  1.0  0.1065
  H  H224  1  0.694100  0.097300  0.058900  1.0  0.0715
  H  H225  1  0.896400  0.132300  0.468700  1.0  0.1114
  H  H226  1  0.939100  0.105200  0.182200  1.0  0.1068
  H  H227  1  0.888500  0.041300  0.039900  1.0  0.0602
  H  H228  1  0.725500  0.154800  0.902300  1.0  0.105
  H  H229  1  0.868100  0.795600  0.216700  1.0  0.0559
  H  H230  1  0.542700  0.100400  0.828100  1.0  0.1051
  H  H231  1  0.497400  0.144400  0.766900  1.0  0.0764
  H  H232  1  0.899800  0.874000  0.032900  1.0  0.1081
  H  H233  1  0.988600  0.154800  0.237400  1.0  0.0776
  H  H234  1  0.837400  0.216000  0.289300  1.0  0.0735
  H  H235  1  0.983200  0.153300  0.404300  1.0  0.0966
  H  H236  1  0.839100  0.930200  0.989700  1.0  0.0592
  H  H237  1  0.800000  0.074300  0.356400  1.0  0.1011
  H  H238  1  0.757800  0.987300  0.102300  1.0  0.0672
  H  H239  1  0.849500  0.072300  0.512900  1.0  0.0609
  H  H240  1  0.763700  0.013300  0.402600  1.0  0.066
  H  H241  1  0.871400  0.781900  0.383300  1.0  0.1045
  H  H242  1  0.470100  0.793500  0.851500  1.0  0.075
  H  H243  1  0.712600  0.838900  0.838700  1.0  0.1077
  H  H244  1  0.758500  0.851700  0.614400  1.0  0.1083
  H  H245  1  0.615500  0.737400  0.683500  1.0  0.0629
  H  H246  1  0.909700  0.963400  0.467900  1.0  0.0599
  H  H247  1  0.688300  0.069200  0.649000  1.0  0.1063
  H  H248  1  0.724500  0.896100  0.455800  1.0  0.0607
  H  H249  1  0.923000  0.740600  0.322400  1.0  0.0568
  H  H250  1  0.673900  0.785000  0.629300  1.0  0.1082
  H  H251  1  0.448800  0.193200  0.647500  1.0  0.0659
  H  H252  1  0.559300  0.909700  0.594700  1.0  0.1113
  H  H253  1  0.965700  0.914300  0.414700  1.0  0.0986
  H  H254  1  0.502400  0.142100  0.594900  1.0  0.1073
  H  H255  1  0.690300  0.152900  0.667300  1.0  0.1057
  H  H256  1  0.805900  0.902700  0.558900  1.0  0.0697
  H  H257  1  0.603600  0.867700  0.968700  1.0  0.1115
  H  H258  1  0.560900  0.894800  0.682200  1.0  0.1073
  H  H259  1  0.611500  0.958700  0.539900  1.0  0.0603
  H  H260  1  0.774500  0.845200  0.402300  1.0  0.1047
  H  H261  1  0.631900  0.204400  0.716700  1.0  0.0557
  H  H262  1  0.957300  0.899600  0.328100  1.0  0.1052
  H  H263  1  0.002600  0.855600  0.266900  1.0  0.0754
  H  H264  1  0.600200  0.126000  0.532900  1.0  0.1086
  H  H265  1  0.511400  0.845200  0.737400  1.0  0.0778
  H  H266  1  0.662600  0.784000  0.789300  1.0  0.0737
  H  H267  1  0.516800  0.846700  0.904300  1.0  0.0968
  H  H268  1  0.660900  0.069800  0.489700  1.0  0.0589
  H  H269  1  0.700000  0.925700  0.856400  1.0  0.101
  H  H270  1  0.742200  0.012700  0.602300  1.0  0.0667
  H  H271  1  0.650500  0.927700  0.012900  1.0  0.0612
  H  H272  1  0.736300  0.986700  0.902600  1.0  0.0654
  C  C273  1  0.881200  0.350300  0.876700  1.0  0.0601
  C  C274  1  0.897100  0.640500  0.626100  1.0  0.1016
  C  C275  1  0.878700  0.344800  0.648100  1.0  0.079
  C  C276  1  0.601600  0.297600  0.360300  1.0  -0.2241
  C  C277  1  0.980800  0.302800  0.849000  1.0  0.1105
  C  C278  1  0.623400  0.374700  0.400700  1.0  0.0945
  C  C279  1  0.846400  0.376400  0.611900  1.0  0.0796
  C  C280  1  0.836700  0.330200  0.841800  1.0  -0.2246
  C  C281  1  0.772100  0.373700  0.600100  1.0  -0.2049
  C  C282  1  0.894200  0.269500  0.683600  1.0  0.1185
  C  C283  1  0.618300  0.439900  0.453800  1.0  0.1366
  C  C284  1  0.818500  0.569800  0.616600  1.0  -0.2403
  C  C285  1  0.853300  0.389600  0.906900  1.0  0.1049
  C  C286  1  0.726700  0.400300  0.446600  1.0  0.1279
  C  C287  1  0.570700  0.273000  0.323300  1.0  0.1433
  C  C288  1  0.860400  0.297600  0.650000  1.0  -0.22
  C  C289  1  0.001900  0.684800  0.651600  1.0  0.1182
  C  C290  1  0.890300  0.408000  0.588400  1.0  -0.2482
  C  C291  1  0.584000  0.410200  0.421900  1.0  -0.2327
  C  C292  1  0.970200  0.653800  0.620000  1.0  -0.2139
  C  C293  1  0.859200  0.660200  0.662500  1.0  -0.2495
  C  C294  1  0.861200  0.604000  0.596200  1.0  0.0828
  C  C295  1  0.744000  0.404400  0.566500  1.0  0.1116
  C  C296  1  0.868100  0.391100  0.954700  1.0  -0.2452
  C  C297  1  0.927100  0.363000  0.682000  1.0  -0.208
  C  C298  1  0.858500  0.437300  0.555500  1.0  0.1398
  C  C299  1  0.696900  0.369400  0.414600  1.0  -0.2191
  C  C300  1  0.895000  0.691300  0.692200  1.0  0.145
  C  C301  1  0.551100  0.367300  0.327200  1.0  -0.2054
  C  C302  1  0.523300  0.340600  0.290900  1.0  0.1277
  C  C303  1  0.870200  0.603700  0.547700  1.0  -0.2388
  C  C304  1  0.956400  0.333200  0.715000  1.0  0.1236
  C  C305  1  0.591900  0.345700  0.362700  1.0  0.0966
  C  C306  1  0.867100  0.297600  0.812200  1.0  0.1168
  C  C307  1  0.953100  0.335100  0.880500  1.0  -0.1781
  C  C308  1  0.834200  0.569500  0.522200  1.0  0.1303
  C  C309  1  0.812100  0.425800  0.888100  1.0  -0.2386
  C  C310  1  0.785800  0.536200  0.588300  1.0  0.1055
  C  C311  1  0.840600  0.427500  0.980700  1.0  0.1361
  C  C312  1  0.789100  0.461800  0.916100  1.0  0.1274
  C  C313  1  0.618800  0.649700  0.376700  1.0  0.0603
  C  C314  1  0.602900  0.359500  0.126100  1.0  0.1019
  C  C315  1  0.621300  0.655200  0.148100  1.0  0.079
  C  C316  1  0.898400  0.702400  0.860300  1.0  -0.2241
  C  C317  1  0.519200  0.697200  0.349000  1.0  0.1084
  C  C318  1  0.876600  0.625300  0.900700  1.0  0.0946
  C  C319  1  0.653600  0.623600  0.111900  1.0  0.0794
  C  C320  1  0.663300  0.669800  0.341800  1.0  -0.2235
  C  C321  1  0.727900  0.626300  0.100100  1.0  -0.205
  C  C322  1  0.605800  0.730500  0.183600  1.0  0.1185
  C  C323  1  0.881700  0.560100  0.953800  1.0  0.1372
  C  C324  1  0.681500  0.430200  0.116600  1.0  -0.2394
  C  C325  1  0.646700  0.610400  0.406900  1.0  0.1048
  C  C326  1  0.773300  0.599700  0.946600  1.0  0.127
  C  C327  1  0.929300  0.727000  0.823300  1.0  0.1434
  C  C328  1  0.639600  0.702400  0.150000  1.0  -0.2205
  C  C329  1  0.498100  0.315200  0.151600  1.0  0.1191
  C  C330  1  0.609700  0.592000  0.088400  1.0  -0.2499
  C  C331  1  0.916000  0.589800  0.921900  1.0  -0.233
  C  C332  1  0.529800  0.346200  0.120000  1.0  -0.2146
  C  C333  1  0.640800  0.339800  0.162500  1.0  -0.2475
  C  C334  1  0.638800  0.396000  0.096200  1.0  0.0823
  C  C335  1  0.756000  0.595600  0.066500  1.0  0.1113
  C  C336  1  0.631900  0.608900  0.454700  1.0  -0.2466
  C  C337  1  0.572900  0.637000  0.182000  1.0  -0.2059
  C  C338  1  0.641500  0.562700  0.055500  1.0  0.1389
  C  C339  1  0.803100  0.630600  0.914600  1.0  -0.2194
  C  C340  1  0.605000  0.308700  0.192200  1.0  0.1451
  C  C341  1  0.948900  0.632700  0.827200  1.0  -0.2043
  C  C342  1  0.976700  0.659400  0.790900  1.0  0.1267
  C  C343  1  0.629800  0.396300  0.047700  1.0  -0.2369
  C  C344  1  0.543600  0.666800  0.215000  1.0  0.1234
  C  C345  1  0.908100  0.654300  0.862700  1.0  0.0964
  C  C346  1  0.632900  0.702400  0.312200  1.0  0.1168
  C  C347  1  0.546900  0.664900  0.380500  1.0  -0.1778
  C  C348  1  0.665800  0.430500  0.022200  1.0  0.132
  C  C349  1  0.687900  0.574200  0.388100  1.0  -0.2393
  C  C350  1  0.714200  0.463800  0.088300  1.0  0.1065
  C  C351  1  0.659400  0.572500  0.480700  1.0  0.1369
  C  C352  1  0.710900  0.538200  0.416100  1.0  0.1273
  C  C353  1  0.118800  0.850300  0.623300  1.0  0.0605
  C  C354  1  0.102900  0.140500  0.873900  1.0  0.1017
  C  C355  1  0.121300  0.844800  0.851900  1.0  0.0788
  C  C356  1  0.398400  0.797600  0.139700  1.0  -0.2233
  C  C357  1  0.019200  0.802800  0.651000  1.0  0.1077
  C  C358  1  0.376600  0.874700  0.099300  1.0  0.0947
  C  C359  1  0.153600  0.876400  0.888100  1.0  0.0795
  C  C360  1  0.163300  0.830200  0.658200  1.0  -0.223
  C  C361  1  0.227900  0.873700  0.899900  1.0  -0.2045
  C  C362  1  0.105800  0.769500  0.816400  1.0  0.1185
  C  C363  1  0.381700  0.939900  0.046200  1.0  0.1376
  C  C364  1  0.181500  0.069800  0.883400  1.0  -0.2395
  C  C365  1  0.146700  0.889600  0.593100  1.0  0.1046
  C  C366  1  0.273300  0.900300  0.053400  1.0  0.1277
  C  C367  1  0.429300  0.773000  0.176700  1.0  0.1432
  C  C368  1  0.139600  0.797600  0.850000  1.0  -0.2213
  C  C369  1  0.998100  0.184800  0.848400  1.0  0.1191
  C  C370  1  0.109700  0.908000  0.911600  1.0  -0.2487
  C  C371  1  0.416000  0.910200  0.078100  1.0  -0.2327
  C  C372  1  0.029800  0.153800  0.880000  1.0  -0.2148
  C  C373  1  0.140800  0.160200  0.837500  1.0  -0.2476
  C  C374  1  0.138800  0.104000  0.903800  1.0  0.0831
  C  C375  1  0.256000  0.904400  0.933500  1.0  0.1117
  C  C376  1  0.131900  0.891100  0.545300  1.0  -0.2461
  C  C377  1  0.072900  0.863000  0.818000  1.0  -0.2066
  C  C378  1  0.141500  0.937300  0.944500  1.0  0.1399
  C  C379  1  0.303100  0.869400  0.085400  1.0  -0.217
  C  C380  1  0.105000  0.191300  0.807800  1.0  0.1452
  C  C381  1  0.448900  0.867300  0.172800  1.0  -0.2059
  C  C382  1  0.476700  0.840600  0.209100  1.0  0.1271
  C  C383  1  0.129800  0.103700  0.952300  1.0  -0.2384
  C  C384  1  0.043600  0.833200  0.785000  1.0  0.1238
  C  C385  1  0.408100  0.845700  0.137300  1.0  0.0966
  C  C386  1  0.132900  0.797600  0.687800  1.0  0.1181
  C  C387  1  0.046900  0.835100  0.619500  1.0  -0.1784
  C  C388  1  0.165800  0.069500  0.977800  1.0  0.1314
  C  C389  1  0.187900  0.925800  0.611900  1.0  -0.2386
  C  C390  1  0.214200  0.036200  0.911700  1.0  0.1056
  C  C391  1  0.159400  0.927500  0.519300  1.0  0.1376
  C  C392  1  0.210900  0.961800  0.583900  1.0  0.1272
  C  C393  1  0.381200  0.149700  0.123300  1.0  0.06
  C  C394  1  0.397100  0.859500  0.373900  1.0  0.1018
  C  C395  1  0.378700  0.155200  0.351900  1.0  0.0786
  C  C396  1  0.101600  0.202400  0.639700  1.0  -0.2249
  C  C397  1  0.480800  0.197200  0.151000  1.0  0.1099
  C  C398  1  0.123400  0.125300  0.599300  1.0  0.0945
  C  C399  1  0.346400  0.123600  0.388100  1.0  0.0801
  C  C400  1  0.336700  0.169800  0.158200  1.0  -0.2246
  C  C401  1  0.272100  0.126300  0.399900  1.0  -0.2055
  C  C402  1  0.394200  0.230500  0.316400  1.0  0.1191
  C  C403  1  0.118300  0.060100  0.546200  1.0  0.1371
  C  C404  1  0.318500  0.930200  0.383400  1.0  -0.238
  C  C405  1  0.353300  0.110400  0.093100  1.0  0.1042
  C  C406  1  0.226700  0.099700  0.553400  1.0  0.1291
  C  C407  1  0.070700  0.227000  0.676700  1.0  0.1444
  C  C408  1  0.360400  0.202400  0.350000  1.0  -0.2212
  C  C409  1  0.501900  0.815200  0.348400  1.0  0.1183
  C  C410  1  0.390300  0.092000  0.411600  1.0  -0.248
  C  C411  1  0.084000  0.089800  0.578100  1.0  -0.2328
  C  C412  1  0.470200  0.846200  0.380000  1.0  -0.2146
  C  C413  1  0.359200  0.839800  0.337500  1.0  -0.2496
  C  C414  1  0.361200  0.896000  0.403800  1.0  0.0828
  C  C415  1  0.244000  0.095600  0.433500  1.0  0.1113
  C  C416  1  0.368100  0.108900  0.045300  1.0  -0.2487
  C  C417  1  0.427100  0.137000  0.318000  1.0  -0.2068
  C  C418  1  0.358500  0.062700  0.444500  1.0  0.1393
  C  C419  1  0.196900  0.130600  0.585400  1.0  -0.2206
  C  C420  1  0.395000  0.808700  0.307800  1.0  0.1452
  C  C421  1  0.051100  0.132700  0.672800  1.0  -0.2029
  C  C422  1  0.023300  0.159400  0.709100  1.0  0.1285
  C  C423  1  0.370200  0.896300  0.452300  1.0  -0.2372
  C  C424  1  0.456400  0.166800  0.285000  1.0  0.1227
  C  C425  1  0.091900  0.154300  0.637300  1.0  0.0972
  C  C426  1  0.367100  0.202400  0.187800  1.0  0.1172
  C  C427  1  0.453100  0.164900  0.119500  1.0  -0.178
  C  C428  1  0.334200  0.930500  0.477800  1.0  0.1302
  C  C429  1  0.312100  0.074200  0.111900  1.0  -0.2389
  C  C430  1  0.285800  0.963800  0.411700  1.0  0.1057
  C  C431  1  0.340600  0.072500  0.019300  1.0  0.1351
  C  C432  1  0.289100  0.038200  0.083900  1.0  0.1275
  C  C433  1  0.118800  0.649700  0.123300  1.0  0.0603
  C  C434  1  0.102900  0.359500  0.373900  1.0  0.1018
  C  C435  1  0.121300  0.655200  0.351900  1.0  0.0788
  C  C436  1  0.398400  0.702400  0.639700  1.0  -0.2236
  C  C437  1  0.019200  0.697200  0.151000  1.0  0.1074
  C  C438  1  0.376600  0.625300  0.599300  1.0  0.0946
  C  C439  1  0.153600  0.623600  0.388100  1.0  0.0798
  C  C440  1  0.163300  0.669800  0.158200  1.0  -0.2231
  C  C441  1  0.227900  0.626300  0.399900  1.0  -0.2045
  C  C442  1  0.105800  0.730500  0.316400  1.0  0.1179
  C  C443  1  0.381700  0.560100  0.546200  1.0  0.1376
  C  C444  1  0.181500  0.430200  0.383400  1.0  -0.2402
  C  C445  1  0.146700  0.610400  0.093100  1.0  0.1044
  C  C446  1  0.273300  0.599700  0.553400  1.0  0.1281
  C  C447  1  0.429300  0.727000  0.676700  1.0  0.1445
  C  C448  1  0.139600  0.702400  0.350000  1.0  -0.2212
  C  C449  1  0.998100  0.315200  0.348400  1.0  0.1196
  C  C450  1  0.109700  0.592000  0.411600  1.0  -0.2492
  C  C451  1  0.416000  0.589800  0.578100  1.0  -0.2327
  C  C452  1  0.029800  0.346200  0.380000  1.0  -0.2157
  C  C453  1  0.140800  0.339800  0.337500  1.0  -0.2474
  C  C454  1  0.138800  0.396000  0.403800  1.0  0.0827
  C  C455  1  0.256000  0.595600  0.433500  1.0  0.1115
  C  C456  1  0.131900  0.608900  0.045300  1.0  -0.2473
  C  C457  1  0.072900  0.637000  0.318000  1.0  -0.2057
  C  C458  1  0.141500  0.562700  0.444500  1.0  0.14
  C  C459  1  0.303100  0.630600  0.585400  1.0  -0.2192
  C  C460  1  0.105000  0.308700  0.307800  1.0  0.1452
  C  C461  1  0.448900  0.632700  0.672800  1.0  -0.2035
  C  C462  1  0.476700  0.659400  0.709100  1.0  0.1281
  C  C463  1  0.129800  0.396300  0.452300  1.0  -0.2373
  C  C464  1  0.043600  0.666800  0.285000  1.0  0.1226
  C  C465  1  0.408100  0.654300  0.637300  1.0  0.0967
  C  C466  1  0.132900  0.702400  0.187800  1.0  0.1172
  C  C467  1  0.046900  0.664900  0.119500  1.0  -0.1781
  C  C468  1  0.165800  0.430500  0.477800  1.0  0.1312
  C  C469  1  0.187900  0.574200  0.111900  1.0  -0.2387
  C  C470  1  0.214200  0.463800  0.411700  1.0  0.1058
  C  C471  1  0.159400  0.572500  0.019300  1.0  0.1368
  C  C472  1  0.210900  0.538200  0.083900  1.0  0.1277
  C  C473  1  0.381200  0.350300  0.623300  1.0  0.0602
  C  C474  1  0.397100  0.640500  0.873900  1.0  0.1016
  C  C475  1  0.378700  0.344800  0.851900  1.0  0.0787
  C  C476  1  0.101600  0.297600  0.139700  1.0  -0.2248
  C  C477  1  0.480800  0.302800  0.651000  1.0  0.1097
  C  C478  1  0.123400  0.374700  0.099300  1.0  0.0946
  C  C479  1  0.346400  0.376400  0.888100  1.0  0.0799
  C  C480  1  0.336700  0.330200  0.658200  1.0  -0.2248
  C  C481  1  0.272100  0.373700  0.899900  1.0  -0.2052
  C  C482  1  0.394200  0.269500  0.816400  1.0  0.1184
  C  C483  1  0.118300  0.439900  0.046200  1.0  0.1369
  C  C484  1  0.318500  0.569800  0.883400  1.0  -0.2373
  C  C485  1  0.353300  0.389600  0.593100  1.0  0.1045
  C  C486  1  0.226700  0.400300  0.053400  1.0  0.1289
  C  C487  1  0.070700  0.273000  0.176700  1.0  0.1432
  C  C488  1  0.360400  0.297600  0.850000  1.0  -0.2207
  C  C489  1  0.501900  0.684800  0.848400  1.0  0.1181
  C  C490  1  0.390300  0.408000  0.911600  1.0  -0.2482
  C  C491  1  0.084000  0.410200  0.078100  1.0  -0.2328
  C  C492  1  0.470200  0.653800  0.880000  1.0  -0.2139
  C  C493  1  0.359200  0.660200  0.837500  1.0  -0.2496
  C  C494  1  0.361200  0.604000  0.903800  1.0  0.0832
  C  C495  1  0.244000  0.404400  0.933500  1.0  0.1114
  C  C496  1  0.368100  0.391100  0.545300  1.0  -0.2475
  C  C497  1  0.427100  0.363000  0.818000  1.0  -0.2074
  C  C498  1  0.358500  0.437300  0.944500  1.0  0.1396
  C  C499  1  0.196900  0.369400  0.085400  1.0  -0.2183
  C  C500  1  0.395000  0.691300  0.807800  1.0  0.1453
  C  C501  1  0.051100  0.367300  0.172800  1.0  -0.2052
  C  C502  1  0.023300  0.340600  0.209100  1.0  0.1272
  C  C503  1  0.370200  0.603700  0.952300  1.0  -0.2375
  C  C504  1  0.456400  0.333200  0.785000  1.0  0.124
  C  C505  1  0.091900  0.345700  0.137300  1.0  0.0971
  C  C506  1  0.367100  0.297600  0.687800  1.0  0.1178
  C  C507  1  0.453100  0.335100  0.619500  1.0  -0.1782
  C  C508  1  0.334200  0.569500  0.977800  1.0  0.1303
  C  C509  1  0.312100  0.425800  0.611900  1.0  -0.239
  C  C510  1  0.285800  0.536200  0.911700  1.0  0.1055
  C  C511  1  0.340600  0.427500  0.519300  1.0  0.1357
  C  C512  1  0.289100  0.461800  0.583900  1.0  0.1265
  C  C513  1  0.881200  0.149700  0.376700  1.0  0.06
  C  C514  1  0.897100  0.859500  0.126100  1.0  0.1019
  C  C515  1  0.878700  0.155200  0.148100  1.0  0.0788
  C  C516  1  0.601600  0.202400  0.860300  1.0  -0.2245
  C  C517  1  0.980800  0.197200  0.349000  1.0  0.1104
  C  C518  1  0.623400  0.125300  0.900700  1.0  0.0945
  C  C519  1  0.846400  0.123600  0.111900  1.0  0.0796
  C  C520  1  0.836700  0.169800  0.341800  1.0  -0.2244
  C  C521  1  0.772100  0.126300  0.100100  1.0  -0.2062
  C  C522  1  0.894200  0.230500  0.183600  1.0  0.1196
  C  C523  1  0.618300  0.060100  0.953800  1.0  0.1374
  C  C524  1  0.818500  0.930200  0.116600  1.0  -0.24
  C  C525  1  0.853300  0.110400  0.406900  1.0  0.1047
  C  C526  1  0.726700  0.099700  0.946600  1.0  0.1283
  C  C527  1  0.570700  0.227000  0.823300  1.0  0.1434
  C  C528  1  0.860400  0.202400  0.150000  1.0  -0.2201
  C  C529  1  0.001900  0.815200  0.151600  1.0  0.1178
  C  C530  1  0.890300  0.092000  0.088400  1.0  -0.2481
  C  C531  1  0.584000  0.089800  0.921900  1.0  -0.2328
  C  C532  1  0.970200  0.846200  0.120000  1.0  -0.2141
  C  C533  1  0.859200  0.839800  0.162500  1.0  -0.2496
  C  C534  1  0.861200  0.896000  0.096200  1.0  0.0825
  C  C535  1  0.744000  0.095600  0.066500  1.0  0.1116
  C  C536  1  0.868100  0.108900  0.454700  1.0  -0.2464
  C  C537  1  0.927100  0.137000  0.182000  1.0  -0.207
  C  C538  1  0.858500  0.062700  0.055500  1.0  0.1393
  C  C539  1  0.696900  0.130600  0.914600  1.0  -0.2208
  C  C540  1  0.895000  0.808700  0.192200  1.0  0.1453
  C  C541  1  0.551100  0.132700  0.827200  1.0  -0.2037
  C  C542  1  0.523300  0.159400  0.790900  1.0  0.1276
  C  C543  1  0.870200  0.896300  0.047700  1.0  -0.2383
  C  C544  1  0.956400  0.166800  0.215000  1.0  0.1236
  C  C545  1  0.591900  0.154300  0.862700  1.0  0.0968
  C  C546  1  0.867100  0.202400  0.312200  1.0  0.1164
  C  C547  1  0.953100  0.164900  0.380500  1.0  -0.1776
  C  C548  1  0.834200  0.930500  0.022200  1.0  0.1306
  C  C549  1  0.812100  0.074200  0.388100  1.0  -0.2375
  C  C550  1  0.785800  0.963800  0.088300  1.0  0.1052
  C  C551  1  0.840600  0.072500  0.480700  1.0  0.1363
  C  C552  1  0.789100  0.038200  0.416100  1.0  0.1281
  C  C553  1  0.618800  0.850300  0.876700  1.0  0.0603
  C  C554  1  0.602900  0.140500  0.626100  1.0  0.1017
  C  C555  1  0.621300  0.844800  0.648100  1.0  0.0791
  C  C556  1  0.898400  0.797600  0.360300  1.0  -0.2234
  C  C557  1  0.519200  0.802800  0.849000  1.0  0.1088
  C  C558  1  0.876600  0.874700  0.400700  1.0  0.0947
  C  C559  1  0.653600  0.876400  0.611900  1.0  0.0793
  C  C560  1  0.663300  0.830200  0.841800  1.0  -0.2234
  C  C561  1  0.727900  0.873700  0.600100  1.0  -0.2039
  C  C562  1  0.605800  0.769500  0.683600  1.0  0.1183
  C  C563  1  0.881700  0.939900  0.453800  1.0  0.1368
  C  C564  1  0.681500  0.069800  0.616600  1.0  -0.2398
  C  C565  1  0.646700  0.889600  0.906900  1.0  0.105
  C  C566  1  0.773300  0.900300  0.446600  1.0  0.1264
  C  C567  1  0.929300  0.773000  0.323300  1.0  0.1432
  C  C568  1  0.639600  0.797600  0.650000  1.0  -0.2211
  C  C569  1  0.498100  0.184800  0.651600  1.0  0.1187
  C  C570  1  0.609700  0.908000  0.588400  1.0  -0.2494
  C  C571  1  0.916000  0.910200  0.421900  1.0  -0.2331
  C  C572  1  0.529800  0.153800  0.620000  1.0  -0.2143
  C  C573  1  0.640800  0.160200  0.662500  1.0  -0.2476
  C  C574  1  0.638800  0.104000  0.596200  1.0  0.0828
  C  C575  1  0.756000  0.904400  0.566500  1.0  0.1114
  C  C576  1  0.631900  0.891100  0.954700  1.0  -0.2451
  C  C577  1  0.572900  0.863000  0.682000  1.0  -0.2072
  C  C578  1  0.641500  0.937300  0.555500  1.0  0.1394
  C  C579  1  0.803100  0.869400  0.414600  1.0  -0.2179
  C  C580  1  0.605000  0.191300  0.692200  1.0  0.1447
  C  C581  1  0.948900  0.867300  0.327200  1.0  -0.2061
  C  C582  1  0.976700  0.840600  0.290900  1.0  0.1275
  C  C583  1  0.629800  0.103700  0.547700  1.0  -0.238
  C  C584  1  0.543600  0.833200  0.715000  1.0  0.1234
  C  C585  1  0.908100  0.845700  0.362700  1.0  0.0962
  C  C586  1  0.632900  0.797600  0.812200  1.0  0.1175
  C  C587  1  0.546900  0.835100  0.880500  1.0  -0.1787
  C  C588  1  0.665800  0.069500  0.522200  1.0  0.1317
  C  C589  1  0.687900  0.925800  0.888100  1.0  -0.2402
  C  C590  1  0.714200  0.036200  0.588300  1.0  0.1062
  C  C591  1  0.659400  0.927500  0.980700  1.0  0.1367
  C  C592  1  0.710900  0.961800  0.916100  1.0  0.1267
  N  N593  1  0.532500  0.293360  0.288970  1.0  -0.3252
  N  N594  1  0.939900  0.286530  0.715880  1.0  -0.3245
  N  N595  1  0.786600  0.436110  0.545020  1.0  -0.3185
  N  N596  1  0.964900  0.703380  0.687820  1.0  -0.3361
  N  N597  1  0.688800  0.436120  0.464960  1.0  -0.3371
  N  N598  1  0.938800  0.284400  0.814930  1.0  -0.3208
  N  N599  1  0.801700  0.462640  0.962430  1.0  -0.3216
  N  N600  1  0.792900  0.536390  0.541420  1.0  -0.3211
  N  N601  1  0.967500  0.706640  0.788970  1.0  -0.3253
  N  N602  1  0.560100  0.713470  0.215880  1.0  -0.3255
  N  N603  1  0.713400  0.563890  0.045020  1.0  -0.3187
  N  N604  1  0.535100  0.296620  0.187820  1.0  -0.3364
  N  N605  1  0.811200  0.563880  0.964960  1.0  -0.3386
  N  N606  1  0.561200  0.715600  0.314930  1.0  -0.3224
  N  N607  1  0.698300  0.537360  0.462430  1.0  -0.3218
  N  N608  1  0.707100  0.463610  0.041420  1.0  -0.3198
  N  N609  1  0.467500  0.793360  0.211030  1.0  -0.3246
  N  N610  1  0.060100  0.786530  0.784120  1.0  -0.3246
  N  N611  1  0.213400  0.936110  0.954980  1.0  -0.3181
  N  N612  1  0.035100  0.203380  0.812180  1.0  -0.3374
  N  N613  1  0.311200  0.936120  0.035040  1.0  -0.3388
  N  N614  1  0.061200  0.784400  0.685070  1.0  -0.3209
  N  N615  1  0.198300  0.962640  0.537570  1.0  -0.3224
  N  N616  1  0.207100  0.036390  0.958580  1.0  -0.3202
  N  N617  1  0.032500  0.206640  0.711030  1.0  -0.3248
  N  N618  1  0.439900  0.213470  0.284120  1.0  -0.324
  N  N619  1  0.286600  0.063890  0.454980  1.0  -0.3189
  N  N620  1  0.464900  0.796620  0.312180  1.0  -0.3364
  N  N621  1  0.188800  0.063880  0.535040  1.0  -0.337
  N  N622  1  0.438800  0.215600  0.185070  1.0  -0.3218
  N  N623  1  0.301700  0.037360  0.037570  1.0  -0.3225
  N  N624  1  0.292900  0.963610  0.458580  1.0  -0.3207
  N  N625  1  0.467500  0.706640  0.711030  1.0  -0.3248
  N  N626  1  0.060100  0.713470  0.284120  1.0  -0.3245
  N  N627  1  0.213400  0.563890  0.454980  1.0  -0.3183
  N  N628  1  0.035100  0.296620  0.312180  1.0  -0.337
  N  N629  1  0.311200  0.563880  0.535040  1.0  -0.3388
  N  N630  1  0.061200  0.715600  0.185070  1.0  -0.3224
  N  N631  1  0.198300  0.537360  0.037570  1.0  -0.3225
  N  N632  1  0.207100  0.463610  0.458580  1.0  -0.3199
  N  N633  1  0.032500  0.293360  0.211030  1.0  -0.3248
  N  N634  1  0.439900  0.286530  0.784120  1.0  -0.3241
  N  N635  1  0.286600  0.436110  0.954980  1.0  -0.3187
  N  N636  1  0.464900  0.703380  0.812180  1.0  -0.3367
  N  N637  1  0.188800  0.436120  0.035040  1.0  -0.3371
  N  N638  1  0.438800  0.284400  0.685070  1.0  -0.3202
  N  N639  1  0.301700  0.462640  0.537570  1.0  -0.3221
  N  N640  1  0.292900  0.536390  0.958580  1.0  -0.321
  N  N641  1  0.532500  0.206640  0.788970  1.0  -0.325
  N  N642  1  0.939900  0.213470  0.215880  1.0  -0.3248
  N  N643  1  0.786600  0.063890  0.045020  1.0  -0.3193
  N  N644  1  0.964900  0.796620  0.187820  1.0  -0.336
  N  N645  1  0.688800  0.063880  0.964960  1.0  -0.3369
  N  N646  1  0.938800  0.215600  0.314930  1.0  -0.3221
  N  N647  1  0.801700  0.037360  0.462430  1.0  -0.3218
  N  N648  1  0.792900  0.963610  0.041420  1.0  -0.3206
  N  N649  1  0.967500  0.793360  0.288970  1.0  -0.3253
  N  N650  1  0.560100  0.786530  0.715880  1.0  -0.3253
  N  N651  1  0.713400  0.936110  0.545020  1.0  -0.3181
  N  N652  1  0.535100  0.203380  0.687820  1.0  -0.3366
  N  N653  1  0.811200  0.936120  0.464960  1.0  -0.3389
  N  N654  1  0.561200  0.784400  0.814930  1.0  -0.3212
  N  N655  1  0.698300  0.962640  0.962430  1.0  -0.3218
  N  N656  1  0.707100  0.036390  0.541420  1.0  -0.3203
