# generated using pymatgen
data_UP2H5(CO)6
_symmetry_space_group_name_H-M   'P 1'
_cell_length_a   9.76690000
_cell_length_b   19.13210000
_cell_length_c   19.13900000
_cell_angle_alpha   90.00000000
_cell_angle_beta   90.00000000
_cell_angle_gamma   90.00000000
_symmetry_Int_Tables_number   1
_chemical_formula_structural   UP2H5(CO)6
_chemical_formula_sum   'U8 P16 H40 C48 O48'
_cell_volume   3576.33856405
_cell_formula_units_Z   8
loop_
 _symmetry_equiv_pos_site_id
 _symmetry_equiv_pos_as_xyz
  1  'x, y, z'
loop_
 _atom_site_type_symbol
 _atom_site_label
 _atom_site_symmetry_multiplicity
 _atom_site_fract_x
 _atom_site_fract_y
 _atom_site_fract_z
 _atom_site_occupancy
 _atom_site_charge
  U  U1  1  0.984890  0.234780  0.249130  1.0  1.8937
  U  U2  1  0.289290  0.003140  0.741850  1.0  1.5984
  U  U3  1  0.515110  0.765220  0.749130  1.0  1.8929
  U  U4  1  0.210710  0.996860  0.241850  1.0  1.5998
  U  U5  1  0.015110  0.734780  0.250870  1.0  1.893
  U  U6  1  0.710710  0.503140  0.758150  1.0  1.5996
  U  U7  1  0.484890  0.265220  0.750870  1.0  1.894
  U  U8  1  0.789290  0.496860  0.258150  1.0  1.5986
  P  P9  1  0.072500  0.107820  0.113750  1.0  1.5329
  P  P10  1  0.376600  0.124440  0.871580  1.0  1.5794
  P  P11  1  0.413100  0.127490  0.619740  1.0  1.575
  P  P12  1  0.111700  0.109010  0.377790  1.0  1.5478
  P  P13  1  0.427500  0.892180  0.613750  1.0  1.5328
  P  P14  1  0.123400  0.875560  0.371580  1.0  1.5793
  P  P15  1  0.086900  0.872510  0.119740  1.0  1.5694
  P  P16  1  0.388300  0.890990  0.877790  1.0  1.5475
  P  P17  1  0.927500  0.607820  0.386250  1.0  1.5336
  P  P18  1  0.623400  0.624440  0.628420  1.0  1.5811
  P  P19  1  0.586900  0.627490  0.880260  1.0  1.5754
  P  P20  1  0.888300  0.609010  0.122210  1.0  1.5474
  P  P21  1  0.572500  0.392180  0.886250  1.0  1.533
  P  P22  1  0.876600  0.375560  0.128420  1.0  1.5794
  P  P23  1  0.913100  0.372510  0.380260  1.0  1.5686
  P  P24  1  0.611700  0.390990  0.622210  1.0  1.5489
  H  H25  1  0.444000  0.033200  0.900600  1.0  0.4133
  H  H26  1  0.504000  0.038700  0.597400  1.0  0.3894
  H  H27  1  0.219300  0.079900  0.988700  1.0  0.101
  H  H28  1  0.318400  0.266500  0.909600  1.0  0.097
  H  H29  1  0.201500  0.321400  0.999800  1.0  0.1092
  H  H30  1  0.099200  0.254200  0.086600  1.0  0.1007
  H  H31  1  0.254100  0.083900  0.504700  1.0  0.0898
  H  H32  1  0.176100  0.257600  0.393900  1.0  0.1145
  H  H33  1  0.293300  0.321900  0.474100  1.0  0.1001
  H  H34  1  0.390600  0.269600  0.570700  1.0  0.1125
  H  H35  1  0.056000  0.966800  0.400600  1.0  0.4136
  H  H36  1  0.996000  0.961300  0.097400  1.0  0.3874
  H  H37  1  0.280700  0.920100  0.488700  1.0  0.102
  H  H38  1  0.181600  0.733500  0.409600  1.0  0.0971
  H  H39  1  0.298500  0.678600  0.499800  1.0  0.1089
  H  H40  1  0.400800  0.745800  0.586600  1.0  0.1013
  H  H41  1  0.245900  0.916100  0.004700  1.0  0.0888
  H  H42  1  0.323900  0.742400  0.893900  1.0  0.1145
  H  H43  1  0.206700  0.678100  0.974100  1.0  0.1005
  H  H44  1  0.109400  0.730400  0.070700  1.0  0.1128
  H  H45  1  0.556000  0.533200  0.599400  1.0  0.4152
  H  H46  1  0.496000  0.538700  0.902600  1.0  0.3893
  H  H47  1  0.780700  0.579900  0.511300  1.0  0.1006
  H  H48  1  0.681600  0.766500  0.590400  1.0  0.0974
  H  H49  1  0.798500  0.821400  0.500200  1.0  0.1092
  H  H50  1  0.900800  0.754200  0.413400  1.0  0.1005
  H  H51  1  0.745900  0.583900  0.995300  1.0  0.0891
  H  H52  1  0.823900  0.757600  0.106100  1.0  0.1142
  H  H53  1  0.706700  0.821900  0.025900  1.0  0.1006
  H  H54  1  0.609400  0.769600  0.929300  1.0  0.1133
  H  H55  1  0.944000  0.466800  0.099400  1.0  0.4134
  H  H56  1  0.004000  0.461300  0.402600  1.0  0.3887
  H  H57  1  0.719300  0.420100  0.011300  1.0  0.1017
  H  H58  1  0.818400  0.233500  0.090400  1.0  0.0974
  H  H59  1  0.701500  0.178600  0.000200  1.0  0.1092
  H  H60  1  0.599200  0.245800  0.913400  1.0  0.1007
  H  H61  1  0.754100  0.416100  0.495300  1.0  0.089
  H  H62  1  0.676100  0.242400  0.606100  1.0  0.1143
  H  H63  1  0.793300  0.178100  0.525900  1.0  0.1003
  H  H64  1  0.890600  0.230400  0.429300  1.0  0.1133
  C  C65  1  0.147400  0.160900  0.045900  1.0  -0.2109
  C  C66  1  0.216800  0.128500  0.991100  1.0  0.0047
  C  C67  1  0.283000  0.168200  0.939500  1.0  -0.2927
  C  C68  1  0.275800  0.239500  0.943700  1.0  -0.022
  C  C69  1  0.206100  0.272900  0.998000  1.0  -0.1135
  C  C70  1  0.143700  0.232400  0.049500  1.0  -0.0301
  C  C71  1  0.334300  0.170200  0.546200  1.0  -0.2558
  C  C72  1  0.262300  0.131900  0.498200  1.0  -0.0058
  C  C73  1  0.201500  0.162200  0.440800  1.0  -0.315
  C  C74  1  0.215200  0.235600  0.432400  1.0  -0.0746
  C  C75  1  0.285100  0.273800  0.480200  1.0  -0.1042
  C  C76  1  0.344400  0.242700  0.537800  1.0  -0.0954
  C  C77  1  0.352600  0.839100  0.545900  1.0  -0.2107
  C  C78  1  0.283200  0.871500  0.491100  1.0  0.0033
  C  C79  1  0.217000  0.831800  0.439500  1.0  -0.2933
  C  C80  1  0.224200  0.760500  0.443700  1.0  -0.0212
  C  C81  1  0.293900  0.727100  0.498000  1.0  -0.1126
  C  C82  1  0.356300  0.767600  0.549500  1.0  -0.0299
  C  C83  1  0.165700  0.829800  0.046200  1.0  -0.2558
  C  C84  1  0.237700  0.868100  0.998200  1.0  -0.0084
  C  C85  1  0.298500  0.837800  0.940800  1.0  -0.3154
  C  C86  1  0.284800  0.764400  0.932400  1.0  -0.0747
  C  C87  1  0.214900  0.726200  0.980200  1.0  -0.1039
  C  C88  1  0.155600  0.757300  0.037800  1.0  -0.0959
  C  C89  1  0.852600  0.660900  0.454100  1.0  -0.212
  C  C90  1  0.783200  0.628500  0.508900  1.0  0.0047
  C  C91  1  0.717000  0.668200  0.560500  1.0  -0.2934
  C  C92  1  0.724200  0.739500  0.556300  1.0  -0.0209
  C  C93  1  0.793900  0.772900  0.502000  1.0  -0.1138
  C  C94  1  0.856300  0.732400  0.450500  1.0  -0.0297
  C  C95  1  0.665700  0.670200  0.953800  1.0  -0.2566
  C  C96  1  0.737700  0.631900  0.001800  1.0  -0.0059
  C  C97  1  0.798500  0.662200  0.059200  1.0  -0.3165
  C  C98  1  0.784800  0.735600  0.067600  1.0  -0.0728
  C  C99  1  0.714900  0.773800  0.019800  1.0  -0.1045
  C  C100  1  0.655600  0.742700  0.962200  1.0  -0.0959
  C  C101  1  0.647400  0.339100  0.954100  1.0  -0.2111
  C  C102  1  0.716800  0.371500  0.008900  1.0  0.0035
  C  C103  1  0.783000  0.331800  0.060500  1.0  -0.2923
  C  C104  1  0.775800  0.260500  0.056300  1.0  -0.0206
  C  C105  1  0.706100  0.227100  0.002000  1.0  -0.1132
  C  C106  1  0.643700  0.267600  0.950500  1.0  -0.03
  C  C107  1  0.834300  0.329800  0.453800  1.0  -0.2573
  C  C108  1  0.762300  0.368100  0.501800  1.0  -0.0077
  C  C109  1  0.701500  0.337800  0.559200  1.0  -0.3159
  C  C110  1  0.715200  0.264400  0.567600  1.0  -0.0739
  C  C111  1  0.785100  0.226200  0.519800  1.0  -0.1059
  C  C112  1  0.844400  0.257300  0.462200  1.0  -0.0949
  O  O113  1  0.987900  0.051100  0.078900  1.0  -0.7612
  O  O114  1  0.191900  0.077300  0.154400  1.0  -0.8829
  O  O115  1  0.984900  0.155500  0.159500  1.0  -0.9061
  O  O116  1  0.455700  0.179600  0.832300  1.0  -0.8902
  O  O117  1  0.473000  0.073100  0.906100  1.0  -0.624
  O  O118  1  0.269600  0.089600  0.823800  1.0  -0.8149
  O  O119  1  0.481800  0.181400  0.665600  1.0  -0.8966
  O  O120  1  0.301600  0.086100  0.655700  1.0  -0.8676
  O  O121  1  0.524400  0.079600  0.590000  1.0  -0.663
  O  O122  1  0.218800  0.077200  0.330300  1.0  -0.8265
  O  O123  1  0.012400  0.155200  0.338100  1.0  -0.9321
  O  O124  1  0.038200  0.053400  0.420200  1.0  -0.7648
  O  O125  1  0.512100  0.948900  0.578900  1.0  -0.7631
  O  O126  1  0.308100  0.922700  0.654400  1.0  -0.8824
  O  O127  1  0.515100  0.844500  0.659500  1.0  -0.9074
  O  O128  1  0.044300  0.820400  0.332300  1.0  -0.8892
  O  O129  1  0.027000  0.926900  0.406100  1.0  -0.6238
  O  O130  1  0.230400  0.910400  0.323800  1.0  -0.8175
  O  O131  1  0.018200  0.818600  0.165600  1.0  -0.8956
  O  O132  1  0.198400  0.913900  0.155700  1.0  -0.8685
  O  O133  1  0.975600  0.920400  0.090000  1.0  -0.6637
  O  O134  1  0.281200  0.922800  0.830300  1.0  -0.825
  O  O135  1  0.487600  0.844800  0.838100  1.0  -0.9329
  O  O136  1  0.461800  0.946600  0.920200  1.0  -0.7654
  O  O137  1  0.012100  0.551100  0.421100  1.0  -0.764
  O  O138  1  0.808100  0.577300  0.345600  1.0  -0.8819
  O  O139  1  0.015100  0.655500  0.340500  1.0  -0.9072
  O  O140  1  0.544300  0.679600  0.667700  1.0  -0.8905
  O  O141  1  0.527000  0.573100  0.593900  1.0  -0.6247
  O  O142  1  0.730400  0.589600  0.676200  1.0  -0.817
  O  O143  1  0.518200  0.681400  0.834400  1.0  -0.8975
  O  O144  1  0.698400  0.586100  0.844300  1.0  -0.8691
  O  O145  1  0.475600  0.579600  0.910000  1.0  -0.6648
  O  O146  1  0.781200  0.577200  0.169700  1.0  -0.8247
  O  O147  1  0.987600  0.655200  0.161900  1.0  -0.9347
  O  O148  1  0.961800  0.553400  0.079800  1.0  -0.7646
  O  O149  1  0.487900  0.448900  0.921100  1.0  -0.7612
  O  O150  1  0.691900  0.422700  0.845600  1.0  -0.8841
  O  O151  1  0.484900  0.344500  0.840500  1.0  -0.9066
  O  O152  1  0.955700  0.320400  0.167700  1.0  -0.89
  O  O153  1  0.973000  0.426900  0.093900  1.0  -0.626
  O  O154  1  0.769600  0.410400  0.176200  1.0  -0.8138
  O  O155  1  0.981800  0.318600  0.334400  1.0  -0.8982
  O  O156  1  0.801600  0.413900  0.344300  1.0  -0.8674
  O  O157  1  0.024400  0.420400  0.410000  1.0  -0.6655
  O  O158  1  0.718800  0.422800  0.669700  1.0  -0.8264
  O  O159  1  0.512400  0.344800  0.661900  1.0  -0.9337
  O  O160  1  0.538200  0.446600  0.579800  1.0  -0.7643
