# generated using pymatgen
data_ZnH11C12N3O2
_symmetry_space_group_name_H-M   'P 1'
_cell_length_a   39.35600000
_cell_length_b   9.33200000
_cell_length_c   9.84200000
_cell_angle_alpha   90.00000000
_cell_angle_beta   101.86400000
_cell_angle_gamma   90.00000000
_symmetry_Int_Tables_number   1
_chemical_formula_structural   ZnH11C12N3O2
_chemical_formula_sum   'Zn8 H88 C96 N24 O16'
_cell_volume   3537.45785920
_cell_formula_units_Z   8
loop_
 _symmetry_equiv_pos_site_id
 _symmetry_equiv_pos_as_xyz
  1  'x, y, z'
loop_
 _atom_site_type_symbol
 _atom_site_label
 _atom_site_symmetry_multiplicity
 _atom_site_fract_x
 _atom_site_fract_y
 _atom_site_fract_z
 _atom_site_occupancy
 _atom_site_charge
  Zn  Zn1  1  0.214190  0.310890  0.085610  1.0  0.8357
  Zn  Zn2  1  0.714190  0.810890  0.085610  1.0  0.8357
  Zn  Zn3  1  0.785810  0.310890  0.414390  1.0  0.8354
  Zn  Zn4  1  0.285810  0.810890  0.414390  1.0  0.8354
  Zn  Zn5  1  0.785810  0.689110  0.914390  1.0  0.8353
  Zn  Zn6  1  0.285810  0.189110  0.914390  1.0  0.8353
  Zn  Zn7  1  0.214190  0.689110  0.585610  1.0  0.8357
  Zn  Zn8  1  0.714190  0.189110  0.585610  1.0  0.8357
  H  H9  1  0.108700  0.288500  0.141700  1.0  0.0982
  H  H10  1  0.110900  0.965400  0.891500  1.0  0.0953
  H  H11  1  0.052900  0.918700  0.893800  1.0  0.099
  H  H12  1  0.053100  0.228500  0.154500  1.0  0.0872
  H  H13  1  0.000400  0.111400  0.081400  1.0  0.1017
  H  H14  1  0.317000  0.854400  0.083300  1.0  0.1405
  H  H15  1  0.338900  0.914300  0.223100  1.0  0.133
  H  H16  1  0.334900  0.004800  0.086500  1.0  0.1394
  H  H17  1  0.234500  0.107700  0.437300  1.0  0.1325
  H  H18  1  0.214300  0.978100  0.357400  1.0  0.1386
  H  H19  1  0.204700  0.135300  0.307600  1.0  0.1204
  H  H20  1  0.608700  0.788500  0.141700  1.0  0.0982
  H  H21  1  0.610900  0.465400  0.891500  1.0  0.0953
  H  H22  1  0.552900  0.418700  0.893800  1.0  0.099
  H  H23  1  0.553100  0.728500  0.154500  1.0  0.0872
  H  H24  1  0.500400  0.611400  0.081400  1.0  0.1017
  H  H25  1  0.817000  0.354400  0.083300  1.0  0.1405
  H  H26  1  0.838900  0.414300  0.223100  1.0  0.133
  H  H27  1  0.834900  0.504800  0.086500  1.0  0.1394
  H  H28  1  0.734500  0.607700  0.437300  1.0  0.1325
  H  H29  1  0.714300  0.478100  0.357400  1.0  0.1386
  H  H30  1  0.704700  0.635300  0.307600  1.0  0.1204
  H  H31  1  0.891300  0.288500  0.358300  1.0  0.0983
  H  H32  1  0.889100  0.965400  0.608500  1.0  0.0956
  H  H33  1  0.947100  0.918700  0.606200  1.0  0.0989
  H  H34  1  0.946900  0.228500  0.345500  1.0  0.0872
  H  H35  1  0.999600  0.111400  0.418600  1.0  0.1026
  H  H36  1  0.683000  0.854400  0.416700  1.0  0.1412
  H  H37  1  0.661100  0.914300  0.276900  1.0  0.1322
  H  H38  1  0.665100  0.004800  0.413500  1.0  0.1387
  H  H39  1  0.765500  0.107700  0.062700  1.0  0.1315
  H  H40  1  0.785700  0.978100  0.142600  1.0  0.139
  H  H41  1  0.795300  0.135300  0.192400  1.0  0.1205
  H  H42  1  0.391300  0.788500  0.358300  1.0  0.0983
  H  H43  1  0.389100  0.465400  0.608500  1.0  0.0956
  H  H44  1  0.447100  0.418700  0.606200  1.0  0.0989
  H  H45  1  0.446900  0.728500  0.345500  1.0  0.0872
  H  H46  1  0.499600  0.611400  0.418600  1.0  0.1026
  H  H47  1  0.183000  0.354400  0.416700  1.0  0.1412
  H  H48  1  0.161100  0.414300  0.276900  1.0  0.1322
  H  H49  1  0.165100  0.504800  0.413500  1.0  0.1387
  H  H50  1  0.265500  0.607700  0.062700  1.0  0.1315
  H  H51  1  0.285700  0.478100  0.142600  1.0  0.139
  H  H52  1  0.295300  0.635300  0.192400  1.0  0.1205
  H  H53  1  0.891300  0.711500  0.858300  1.0  0.097
  H  H54  1  0.889100  0.034600  0.108500  1.0  0.0953
  H  H55  1  0.947100  0.081300  0.106200  1.0  0.0994
  H  H56  1  0.946900  0.771500  0.845500  1.0  0.0861
  H  H57  1  0.999600  0.888600  0.918600  1.0  0.1021
  H  H58  1  0.683000  0.145600  0.916700  1.0  0.1407
  H  H59  1  0.661100  0.085700  0.776900  1.0  0.1323
  H  H60  1  0.665100  0.995200  0.913500  1.0  0.1385
  H  H61  1  0.765500  0.892300  0.562700  1.0  0.1315
  H  H62  1  0.785700  0.021900  0.642600  1.0  0.1379
  H  H63  1  0.795300  0.864700  0.692400  1.0  0.1209
  H  H64  1  0.391300  0.211500  0.858300  1.0  0.097
  H  H65  1  0.389100  0.534600  0.108500  1.0  0.0953
  H  H66  1  0.447100  0.581300  0.106200  1.0  0.0994
  H  H67  1  0.446900  0.271500  0.845500  1.0  0.0861
  H  H68  1  0.499600  0.388600  0.918600  1.0  0.1021
  H  H69  1  0.183000  0.645600  0.916700  1.0  0.1407
  H  H70  1  0.161100  0.585700  0.776900  1.0  0.1323
  H  H71  1  0.165100  0.495200  0.913500  1.0  0.1385
  H  H72  1  0.265500  0.392300  0.562700  1.0  0.1315
  H  H73  1  0.285700  0.521900  0.642600  1.0  0.1379
  H  H74  1  0.295300  0.364700  0.692400  1.0  0.1209
  H  H75  1  0.108700  0.711500  0.641700  1.0  0.0968
  H  H76  1  0.110900  0.034600  0.391500  1.0  0.0955
  H  H77  1  0.052900  0.081300  0.393800  1.0  0.1
  H  H78  1  0.053100  0.771500  0.654500  1.0  0.0868
  H  H79  1  0.000400  0.888600  0.581400  1.0  0.1018
  H  H80  1  0.317000  0.145600  0.583300  1.0  0.1413
  H  H81  1  0.338900  0.085700  0.723100  1.0  0.1323
  H  H82  1  0.334900  0.995200  0.586500  1.0  0.1389
  H  H83  1  0.234500  0.892300  0.937300  1.0  0.1328
  H  H84  1  0.214300  0.021900  0.857400  1.0  0.1388
  H  H85  1  0.204700  0.864700  0.807600  1.0  0.1201
  H  H86  1  0.608700  0.211500  0.641700  1.0  0.0968
  H  H87  1  0.610900  0.534600  0.391500  1.0  0.0955
  H  H88  1  0.552900  0.581300  0.393800  1.0  0.1
  H  H89  1  0.553100  0.271500  0.654500  1.0  0.0868
  H  H90  1  0.500400  0.388600  0.581400  1.0  0.1018
  H  H91  1  0.817000  0.645600  0.583300  1.0  0.1413
  H  H92  1  0.838900  0.585700  0.723100  1.0  0.1323
  H  H93  1  0.834900  0.495200  0.586500  1.0  0.1389
  H  H94  1  0.734500  0.392300  0.937300  1.0  0.1328
  H  H95  1  0.714300  0.521900  0.857400  1.0  0.1388
  H  H96  1  0.704700  0.364700  0.807600  1.0  0.1201
  C  C97  1  0.152400  0.170700  0.010200  1.0  0.685
  C  C98  1  0.115530  0.135400  0.014000  1.0  -0.131
  C  C99  1  0.098090  0.211100  0.090500  1.0  -0.1143
  C  C100  1  0.099100  0.023900  0.942900  1.0  -0.0808
  C  C101  1  0.064000  0.994800  0.945700  1.0  -0.1467
  C  C102  1  0.064000  0.176200  0.095200  1.0  -0.1127
  C  C103  1  0.046290  0.073800  0.021100  1.0  0.1511
  C  C104  1  0.009850  0.047000  0.027400  1.0  -0.1189
  C  C105  1  0.291850  0.008400  0.168000  1.0  0.4169
  C  C106  1  0.323440  0.939400  0.137500  1.0  -0.4112
  C  C107  1  0.248920  0.065500  0.256000  1.0  0.4212
  C  C108  1  0.223310  0.072300  0.347700  1.0  -0.4046
  C  C109  1  0.652400  0.670700  0.010200  1.0  0.685
  C  C110  1  0.615530  0.635400  0.014000  1.0  -0.131
  C  C111  1  0.598090  0.711100  0.090500  1.0  -0.1143
  C  C112  1  0.599100  0.523900  0.942900  1.0  -0.0808
  C  C113  1  0.564000  0.494800  0.945700  1.0  -0.1467
  C  C114  1  0.564000  0.676200  0.095200  1.0  -0.1127
  C  C115  1  0.546290  0.573800  0.021100  1.0  0.1511
  C  C116  1  0.509850  0.547000  0.027400  1.0  -0.1189
  C  C117  1  0.791850  0.508400  0.168000  1.0  0.4169
  C  C118  1  0.823440  0.439400  0.137500  1.0  -0.4112
  C  C119  1  0.748920  0.565500  0.256000  1.0  0.4212
  C  C120  1  0.723310  0.572300  0.347700  1.0  -0.4046
  C  C121  1  0.847600  0.170700  0.489800  1.0  0.684
  C  C122  1  0.884470  0.135400  0.486000  1.0  -0.1381
  C  C123  1  0.901910  0.211100  0.409500  1.0  -0.113
  C  C124  1  0.900900  0.023900  0.557100  1.0  -0.0798
  C  C125  1  0.936000  0.994800  0.554300  1.0  -0.1458
  C  C126  1  0.936000  0.176200  0.404800  1.0  -0.1117
  C  C127  1  0.953710  0.073800  0.478900  1.0  0.1538
  C  C128  1  0.990150  0.047000  0.472600  1.0  -0.1167
  C  C129  1  0.708150  0.008400  0.332000  1.0  0.4171
  C  C130  1  0.676560  0.939400  0.362500  1.0  -0.4109
  C  C131  1  0.751080  0.065500  0.244000  1.0  0.4216
  C  C132  1  0.776690  0.072300  0.152300  1.0  -0.4068
  C  C133  1  0.347600  0.670700  0.489800  1.0  0.684
  C  C134  1  0.384470  0.635400  0.486000  1.0  -0.1381
  C  C135  1  0.401910  0.711100  0.409500  1.0  -0.113
  C  C136  1  0.400900  0.523900  0.557100  1.0  -0.0798
  C  C137  1  0.436000  0.494800  0.554300  1.0  -0.1458
  C  C138  1  0.436000  0.676200  0.404800  1.0  -0.1117
  C  C139  1  0.453710  0.573800  0.478900  1.0  0.1538
  C  C140  1  0.490150  0.547000  0.472600  1.0  -0.1167
  C  C141  1  0.208150  0.508400  0.332000  1.0  0.4171
  C  C142  1  0.176560  0.439400  0.362500  1.0  -0.4109
  C  C143  1  0.251080  0.565500  0.244000  1.0  0.4216
  C  C144  1  0.276690  0.572300  0.152300  1.0  -0.4068
  C  C145  1  0.847600  0.829300  0.989800  1.0  0.684
  C  C146  1  0.884470  0.864600  0.986000  1.0  -0.1385
  C  C147  1  0.901910  0.788900  0.909500  1.0  -0.1134
  C  C148  1  0.900900  0.976100  0.057100  1.0  -0.0794
  C  C149  1  0.936000  0.005200  0.054300  1.0  -0.1475
  C  C150  1  0.936000  0.823800  0.904800  1.0  -0.1133
  C  C151  1  0.953710  0.926200  0.978900  1.0  0.1531
  C  C152  1  0.990150  0.953000  0.972600  1.0  -0.1176
  C  C153  1  0.708150  0.991600  0.832000  1.0  0.4167
  C  C154  1  0.676560  0.060600  0.862500  1.0  -0.4106
  C  C155  1  0.751080  0.934500  0.744000  1.0  0.4216
  C  C156  1  0.776690  0.927700  0.652300  1.0  -0.4043
  C  C157  1  0.347600  0.329300  0.989800  1.0  0.684
  C  C158  1  0.384470  0.364600  0.986000  1.0  -0.1385
  C  C159  1  0.401910  0.288900  0.909500  1.0  -0.1134
  C  C160  1  0.400900  0.476100  0.057100  1.0  -0.0794
  C  C161  1  0.436000  0.505200  0.054300  1.0  -0.1475
  C  C162  1  0.436000  0.323800  0.904800  1.0  -0.1133
  C  C163  1  0.453710  0.426200  0.978900  1.0  0.1531
  C  C164  1  0.490150  0.453000  0.972600  1.0  -0.1176
  C  C165  1  0.208150  0.491600  0.832000  1.0  0.4167
  C  C166  1  0.176560  0.560600  0.862500  1.0  -0.4106
  C  C167  1  0.251080  0.434500  0.744000  1.0  0.4216
  C  C168  1  0.276690  0.427700  0.652300  1.0  -0.4043
  C  C169  1  0.152400  0.829300  0.510200  1.0  0.6848
  C  C170  1  0.115530  0.864600  0.514000  1.0  -0.1317
  C  C171  1  0.098090  0.788900  0.590500  1.0  -0.1147
  C  C172  1  0.099100  0.976100  0.442900  1.0  -0.0804
  C  C173  1  0.064000  0.005200  0.445700  1.0  -0.1471
  C  C174  1  0.064000  0.823800  0.595200  1.0  -0.1132
  C  C175  1  0.046290  0.926200  0.521100  1.0  0.15
  C  C176  1  0.009850  0.953000  0.527400  1.0  -0.1196
  C  C177  1  0.291850  0.991600  0.668000  1.0  0.4168
  C  C178  1  0.323440  0.060600  0.637500  1.0  -0.4112
  C  C179  1  0.248920  0.934500  0.756000  1.0  0.4212
  C  C180  1  0.223310  0.927700  0.847700  1.0  -0.4066
  C  C181  1  0.652400  0.329300  0.510200  1.0  0.6848
  C  C182  1  0.615530  0.364600  0.514000  1.0  -0.1317
  C  C183  1  0.598090  0.288900  0.590500  1.0  -0.1147
  C  C184  1  0.599100  0.476100  0.442900  1.0  -0.0804
  C  C185  1  0.564000  0.505200  0.445700  1.0  -0.1471
  C  C186  1  0.564000  0.323800  0.595200  1.0  -0.1132
  C  C187  1  0.546290  0.426200  0.521100  1.0  0.15
  C  C188  1  0.509850  0.453000  0.527400  1.0  -0.1196
  C  C189  1  0.791850  0.491600  0.668000  1.0  0.4168
  C  C190  1  0.823440  0.560600  0.637500  1.0  -0.4112
  C  C191  1  0.748920  0.434500  0.756000  1.0  0.4212
  C  C192  1  0.723310  0.427700  0.847700  1.0  -0.4066
  N  N193  1  0.248320  0.152400  0.151400  1.0  -0.3258
  N  N194  1  0.275970  0.115500  0.093800  1.0  -0.3167
  N  N195  1  0.275710  0.973100  0.271600  1.0  -0.5049
  N  N196  1  0.748320  0.652400  0.151400  1.0  -0.3258
  N  N197  1  0.775970  0.615500  0.093800  1.0  -0.3167
  N  N198  1  0.775710  0.473100  0.271600  1.0  -0.5049
  N  N199  1  0.751680  0.152400  0.348600  1.0  -0.3274
  N  N200  1  0.724030  0.115500  0.406200  1.0  -0.3165
  N  N201  1  0.724290  0.973100  0.228400  1.0  -0.5038
  N  N202  1  0.251680  0.652400  0.348600  1.0  -0.3274
  N  N203  1  0.224030  0.615500  0.406200  1.0  -0.3165
  N  N204  1  0.224290  0.473100  0.228400  1.0  -0.5038
  N  N205  1  0.751680  0.847600  0.848600  1.0  -0.3262
  N  N206  1  0.724030  0.884500  0.906200  1.0  -0.3165
  N  N207  1  0.724290  0.026900  0.728400  1.0  -0.5035
  N  N208  1  0.251680  0.347600  0.848600  1.0  -0.3262
  N  N209  1  0.224030  0.384500  0.906200  1.0  -0.3165
  N  N210  1  0.224290  0.526900  0.728400  1.0  -0.5035
  N  N211  1  0.248320  0.847600  0.651400  1.0  -0.3253
  N  N212  1  0.275970  0.884500  0.593800  1.0  -0.3161
  N  N213  1  0.275710  0.026900  0.771600  1.0  -0.5042
  N  N214  1  0.748320  0.347600  0.651400  1.0  -0.3253
  N  N215  1  0.775970  0.384500  0.593800  1.0  -0.3161
  N  N216  1  0.775710  0.526900  0.771600  1.0  -0.5042
  O  O217  1  0.166000  0.271000  0.082300  1.0  -0.614
  O  O218  1  0.168660  0.097600  0.950800  1.0  -0.5114
  O  O219  1  0.666000  0.771000  0.082300  1.0  -0.614
  O  O220  1  0.668660  0.597600  0.950800  1.0  -0.5114
  O  O221  1  0.834000  0.271000  0.417700  1.0  -0.6145
  O  O222  1  0.831340  0.097600  0.549200  1.0  -0.5108
  O  O223  1  0.334000  0.771000  0.417700  1.0  -0.6145
  O  O224  1  0.331340  0.597600  0.549200  1.0  -0.5108
  O  O225  1  0.834000  0.729000  0.917700  1.0  -0.6136
  O  O226  1  0.831340  0.902400  0.049200  1.0  -0.5118
  O  O227  1  0.334000  0.229000  0.917700  1.0  -0.6136
  O  O228  1  0.331340  0.402400  0.049200  1.0  -0.5118
  O  O229  1  0.166000  0.729000  0.582300  1.0  -0.6129
  O  O230  1  0.168660  0.902400  0.450800  1.0  -0.5116
  O  O231  1  0.666000  0.229000  0.582300  1.0  -0.6129
  O  O232  1  0.668660  0.402400  0.450800  1.0  -0.5116
