# generated using pymatgen
data_ZnH10C11(N2O)2
_symmetry_space_group_name_H-M   'P 1'
_cell_length_a   38.50300000
_cell_length_b   9.45110000
_cell_length_c   9.80230000
_cell_angle_alpha   90.00000000
_cell_angle_beta   100.57800000
_cell_angle_gamma   90.00000000
_symmetry_Int_Tables_number   1
_chemical_formula_structural   ZnH10C11(N2O)2
_chemical_formula_sum   'Zn8 H80 C88 N32 O16'
_cell_volume   3506.39667723
_cell_formula_units_Z   8
loop_
 _symmetry_equiv_pos_site_id
 _symmetry_equiv_pos_as_xyz
  1  'x, y, z'
loop_
 _atom_site_type_symbol
 _atom_site_label
 _atom_site_symmetry_multiplicity
 _atom_site_fract_x
 _atom_site_fract_y
 _atom_site_fract_z
 _atom_site_occupancy
 _atom_site_charge
  Zn  Zn1  1  0.214000  0.188060  0.090780  1.0  0.8264
  Zn  Zn2  1  0.714000  0.688060  0.090780  1.0  0.8264
  Zn  Zn3  1  0.786000  0.188060  0.409220  1.0  0.8261
  Zn  Zn4  1  0.286000  0.688060  0.409220  1.0  0.8261
  Zn  Zn5  1  0.786000  0.811940  0.909220  1.0  0.826
  Zn  Zn6  1  0.286000  0.311940  0.909220  1.0  0.826
  Zn  Zn7  1  0.214000  0.811940  0.590780  1.0  0.8262
  Zn  Zn8  1  0.714000  0.311940  0.590780  1.0  0.8262
  H  H9  1  0.200700  0.390300  0.306800  1.0  0.1261
  H  H10  1  0.220500  0.514400  0.394700  1.0  0.1312
  H  H11  1  0.231900  0.357400  0.429700  1.0  0.1267
  H  H12  1  0.334100  0.502300  0.067600  1.0  0.1368
  H  H13  1  0.340200  0.584200  0.209000  1.0  0.1296
  H  H14  1  0.316100  0.649700  0.078000  1.0  0.1384
  H  H15  1  0.108000  0.508700  0.873700  1.0  0.1025
  H  H16  1  0.105300  0.206800  0.150400  1.0  0.1025
  H  H17  1  0.046600  0.260800  0.156200  1.0  0.1257
  H  H18  1  0.050100  0.575800  0.890600  1.0  0.1111
  H  H19  1  0.700700  0.890300  0.306800  1.0  0.1261
  H  H20  1  0.720500  0.014400  0.394700  1.0  0.1312
  H  H21  1  0.731900  0.857400  0.429700  1.0  0.1267
  H  H22  1  0.834100  0.002300  0.067600  1.0  0.1368
  H  H23  1  0.840200  0.084200  0.209000  1.0  0.1296
  H  H24  1  0.816100  0.149700  0.078000  1.0  0.1384
  H  H25  1  0.608000  0.008700  0.873700  1.0  0.1025
  H  H26  1  0.605300  0.706800  0.150400  1.0  0.1025
  H  H27  1  0.546600  0.760800  0.156200  1.0  0.1257
  H  H28  1  0.550100  0.075800  0.890600  1.0  0.1111
  H  H29  1  0.799300  0.390300  0.193200  1.0  0.1268
  H  H30  1  0.779500  0.514400  0.105300  1.0  0.1311
  H  H31  1  0.768100  0.357400  0.070300  1.0  0.1245
  H  H32  1  0.665900  0.502300  0.432400  1.0  0.1362
  H  H33  1  0.659800  0.584200  0.291000  1.0  0.1289
  H  H34  1  0.683900  0.649700  0.422000  1.0  0.1378
  H  H35  1  0.892000  0.508700  0.626300  1.0  0.1023
  H  H36  1  0.894700  0.206800  0.349600  1.0  0.1026
  H  H37  1  0.953400  0.260800  0.343800  1.0  0.126
  H  H38  1  0.949900  0.575800  0.609400  1.0  0.1114
  H  H39  1  0.299300  0.890300  0.193200  1.0  0.1268
  H  H40  1  0.279500  0.014400  0.105300  1.0  0.1311
  H  H41  1  0.268100  0.857400  0.070300  1.0  0.1245
  H  H42  1  0.165900  0.002300  0.432400  1.0  0.1362
  H  H43  1  0.159800  0.084200  0.291000  1.0  0.1289
  H  H44  1  0.183900  0.149700  0.422000  1.0  0.1378
  H  H45  1  0.392000  0.008700  0.626300  1.0  0.1023
  H  H46  1  0.394700  0.706800  0.349600  1.0  0.1026
  H  H47  1  0.453400  0.760800  0.343800  1.0  0.126
  H  H48  1  0.449900  0.075800  0.609400  1.0  0.1114
  H  H49  1  0.799300  0.609700  0.693200  1.0  0.1267
  H  H50  1  0.779500  0.485600  0.605300  1.0  0.1309
  H  H51  1  0.768100  0.642600  0.570300  1.0  0.1248
  H  H52  1  0.665900  0.497700  0.932400  1.0  0.1359
  H  H53  1  0.659800  0.415800  0.791000  1.0  0.1287
  H  H54  1  0.683900  0.350300  0.922000  1.0  0.1377
  H  H55  1  0.892000  0.491300  0.126300  1.0  0.1026
  H  H56  1  0.894700  0.793200  0.849600  1.0  0.1038
  H  H57  1  0.953400  0.739200  0.843800  1.0  0.1263
  H  H58  1  0.949900  0.424200  0.109400  1.0  0.1112
  H  H59  1  0.299300  0.109700  0.693200  1.0  0.1267
  H  H60  1  0.279500  0.985600  0.605300  1.0  0.1309
  H  H61  1  0.268100  0.142600  0.570300  1.0  0.1248
  H  H62  1  0.165900  0.997700  0.932400  1.0  0.1359
  H  H63  1  0.159800  0.915800  0.791000  1.0  0.1287
  H  H64  1  0.183900  0.850300  0.922000  1.0  0.1377
  H  H65  1  0.392000  0.991300  0.126300  1.0  0.1026
  H  H66  1  0.394700  0.293200  0.849600  1.0  0.1038
  H  H67  1  0.453400  0.239200  0.843800  1.0  0.1263
  H  H68  1  0.449900  0.924200  0.109400  1.0  0.1112
  H  H69  1  0.200700  0.609700  0.806800  1.0  0.1259
  H  H70  1  0.220500  0.485600  0.894700  1.0  0.1307
  H  H71  1  0.231900  0.642600  0.929700  1.0  0.1261
  H  H72  1  0.334100  0.497700  0.567600  1.0  0.1371
  H  H73  1  0.340200  0.415800  0.709000  1.0  0.1296
  H  H74  1  0.316100  0.350300  0.578000  1.0  0.1369
  H  H75  1  0.108000  0.491300  0.373700  1.0  0.1027
  H  H76  1  0.105300  0.793200  0.650400  1.0  0.1029
  H  H77  1  0.046600  0.739200  0.656200  1.0  0.1259
  H  H78  1  0.050100  0.424200  0.390600  1.0  0.1107
  H  H79  1  0.700700  0.109700  0.806800  1.0  0.1259
  H  H80  1  0.720500  0.985600  0.894700  1.0  0.1307
  H  H81  1  0.731900  0.142600  0.929700  1.0  0.1261
  H  H82  1  0.834100  0.997700  0.567600  1.0  0.1371
  H  H83  1  0.840200  0.915800  0.709000  1.0  0.1296
  H  H84  1  0.816100  0.850300  0.578000  1.0  0.1369
  H  H85  1  0.608000  0.991300  0.373700  1.0  0.1027
  H  H86  1  0.605300  0.293200  0.650400  1.0  0.1029
  H  H87  1  0.546600  0.239200  0.656200  1.0  0.1259
  H  H88  1  0.550100  0.924200  0.390600  1.0  0.1107
  C  C89  1  0.248910  0.431000  0.258300  1.0  0.3988
  C  C90  1  0.292300  0.492200  0.164400  1.0  0.4158
  C  C91  1  0.223200  0.422500  0.356200  1.0  -0.4028
  C  C92  1  0.323400  0.563300  0.126400  1.0  -0.4226
  C  C93  1  0.151000  0.325100  0.016600  1.0  0.6995
  C  C94  1  0.112400  0.358400  0.018800  1.0  -0.1354
  C  C95  1  0.096000  0.462200  0.934900  1.0  -0.0548
  C  C96  1  0.094300  0.281500  0.097600  1.0  -0.0252
  C  C97  1  0.058900  0.313400  0.100600  1.0  -0.1441
  C  C98  1  0.060900  0.499300  0.941000  1.0  -0.0774
  C  C99  1  0.042900  0.420100  0.023000  1.0  0.1996
  C  C100  1  0.748910  0.931000  0.258300  1.0  0.3988
  C  C101  1  0.792300  0.992200  0.164400  1.0  0.4158
  C  C102  1  0.723200  0.922500  0.356200  1.0  -0.4028
  C  C103  1  0.823400  0.063300  0.126400  1.0  -0.4226
  C  C104  1  0.651000  0.825100  0.016600  1.0  0.6995
  C  C105  1  0.612400  0.858400  0.018800  1.0  -0.1354
  C  C106  1  0.596000  0.962200  0.934900  1.0  -0.0548
  C  C107  1  0.594300  0.781500  0.097600  1.0  -0.0252
  C  C108  1  0.558900  0.813400  0.100600  1.0  -0.1441
  C  C109  1  0.560900  0.999300  0.941000  1.0  -0.0774
  C  C110  1  0.542900  0.920100  0.023000  1.0  0.1996
  C  C111  1  0.751090  0.431000  0.241700  1.0  0.399
  C  C112  1  0.707700  0.492200  0.335600  1.0  0.4165
  C  C113  1  0.776800  0.422500  0.143800  1.0  -0.4024
  C  C114  1  0.676600  0.563300  0.373600  1.0  -0.4228
  C  C115  1  0.849000  0.325100  0.483400  1.0  0.6994
  C  C116  1  0.887600  0.358400  0.481200  1.0  -0.1376
  C  C117  1  0.904000  0.462200  0.565100  1.0  -0.054
  C  C118  1  0.905700  0.281500  0.402400  1.0  -0.0237
  C  C119  1  0.941100  0.313400  0.399400  1.0  -0.1454
  C  C120  1  0.939100  0.499300  0.559000  1.0  -0.0787
  C  C121  1  0.957100  0.420100  0.477000  1.0  0.2012
  C  C122  1  0.251090  0.931000  0.241700  1.0  0.399
  C  C123  1  0.207700  0.992200  0.335600  1.0  0.4165
  C  C124  1  0.276800  0.922500  0.143800  1.0  -0.4024
  C  C125  1  0.176600  0.063300  0.373600  1.0  -0.4228
  C  C126  1  0.349000  0.825100  0.483400  1.0  0.6994
  C  C127  1  0.387600  0.858400  0.481200  1.0  -0.1376
  C  C128  1  0.404000  0.962200  0.565100  1.0  -0.054
  C  C129  1  0.405700  0.781500  0.402400  1.0  -0.0237
  C  C130  1  0.441100  0.813400  0.399400  1.0  -0.1454
  C  C131  1  0.439100  0.999300  0.559000  1.0  -0.0787
  C  C132  1  0.457100  0.920100  0.477000  1.0  0.2012
  C  C133  1  0.751090  0.569000  0.741700  1.0  0.399
  C  C134  1  0.707700  0.507800  0.835600  1.0  0.4162
  C  C135  1  0.776800  0.577500  0.643800  1.0  -0.4026
  C  C136  1  0.676600  0.436700  0.873600  1.0  -0.4227
  C  C137  1  0.849000  0.674900  0.983400  1.0  0.6992
  C  C138  1  0.887600  0.641600  0.981200  1.0  -0.1378
  C  C139  1  0.904000  0.537800  0.065100  1.0  -0.0546
  C  C140  1  0.905700  0.718500  0.902400  1.0  -0.0225
  C  C141  1  0.941100  0.686600  0.899400  1.0  -0.1431
  C  C142  1  0.939100  0.500700  0.059000  1.0  -0.0777
  C  C143  1  0.957100  0.579900  0.977000  1.0  0.2021
  C  C144  1  0.251090  0.069000  0.741700  1.0  0.399
  C  C145  1  0.207700  0.007800  0.835600  1.0  0.4162
  C  C146  1  0.276800  0.077500  0.643800  1.0  -0.4026
  C  C147  1  0.176600  0.936700  0.873600  1.0  -0.4227
  C  C148  1  0.349000  0.174900  0.983400  1.0  0.6992
  C  C149  1  0.387600  0.141600  0.981200  1.0  -0.1378
  C  C150  1  0.404000  0.037800  0.065100  1.0  -0.0546
  C  C151  1  0.405700  0.218500  0.902400  1.0  -0.0225
  C  C152  1  0.441100  0.186600  0.899400  1.0  -0.1431
  C  C153  1  0.439100  0.000700  0.059000  1.0  -0.0777
  C  C154  1  0.457100  0.079900  0.977000  1.0  0.2021
  C  C155  1  0.248910  0.569000  0.758300  1.0  0.3989
  C  C156  1  0.292300  0.507800  0.664400  1.0  0.4156
  C  C157  1  0.223200  0.577500  0.856200  1.0  -0.4034
  C  C158  1  0.323400  0.436700  0.626400  1.0  -0.4228
  C  C159  1  0.151000  0.674900  0.516600  1.0  0.6995
  C  C160  1  0.112400  0.641600  0.518800  1.0  -0.1353
  C  C161  1  0.096000  0.537800  0.434900  1.0  -0.055
  C  C162  1  0.094300  0.718500  0.597600  1.0  -0.0244
  C  C163  1  0.058900  0.686600  0.600600  1.0  -0.144
  C  C164  1  0.060900  0.500700  0.441000  1.0  -0.0769
  C  C165  1  0.042900  0.579900  0.523000  1.0  0.2002
  C  C166  1  0.748910  0.069000  0.758300  1.0  0.3989
  C  C167  1  0.792300  0.007800  0.664400  1.0  0.4156
  C  C168  1  0.723200  0.077500  0.856200  1.0  -0.4034
  C  C169  1  0.823400  0.936700  0.626400  1.0  -0.4228
  C  C170  1  0.651000  0.174900  0.516600  1.0  0.6995
  C  C171  1  0.612400  0.141600  0.518800  1.0  -0.1353
  C  C172  1  0.596000  0.037800  0.434900  1.0  -0.055
  C  C173  1  0.594300  0.218500  0.597600  1.0  -0.0244
  C  C174  1  0.558900  0.186600  0.600600  1.0  -0.144
  C  C175  1  0.560900  0.000700  0.441000  1.0  -0.0769
  C  C176  1  0.542900  0.079900  0.523000  1.0  0.2002
  N  N177  1  0.248430  0.345400  0.153600  1.0  -0.3347
  N  N178  1  0.276300  0.384000  0.091200  1.0  -0.3568
  N  N179  1  0.276210  0.526100  0.270200  1.0  -0.5164
  N  N180  1  0.006500  0.446600  0.031600  1.0  -0.1817
  N  N181  1  0.748430  0.845400  0.153600  1.0  -0.3347
  N  N182  1  0.776300  0.884000  0.091200  1.0  -0.3568
  N  N183  1  0.776210  0.026100  0.270200  1.0  -0.5164
  N  N184  1  0.506500  0.946600  0.031600  1.0  -0.1817
  N  N185  1  0.751570  0.345400  0.346400  1.0  -0.3351
  N  N186  1  0.723700  0.384000  0.408800  1.0  -0.3576
  N  N187  1  0.723790  0.526100  0.229800  1.0  -0.5157
  N  N188  1  0.993500  0.446600  0.468400  1.0  -0.1806
  N  N189  1  0.251570  0.845400  0.346400  1.0  -0.3351
  N  N190  1  0.223700  0.884000  0.408800  1.0  -0.3576
  N  N191  1  0.223790  0.026100  0.229800  1.0  -0.5157
  N  N192  1  0.493500  0.946600  0.468400  1.0  -0.1806
  N  N193  1  0.751570  0.654600  0.846400  1.0  -0.3353
  N  N194  1  0.723700  0.616000  0.908800  1.0  -0.3585
  N  N195  1  0.723790  0.473900  0.729800  1.0  -0.5157
  N  N196  1  0.993500  0.553400  0.968400  1.0  -0.1809
  N  N197  1  0.251570  0.154600  0.846400  1.0  -0.3353
  N  N198  1  0.223700  0.116000  0.908800  1.0  -0.3585
  N  N199  1  0.223790  0.973900  0.729800  1.0  -0.5157
  N  N200  1  0.493500  0.053400  0.968400  1.0  -0.1809
  N  N201  1  0.248430  0.654600  0.653600  1.0  -0.3343
  N  N202  1  0.276300  0.616000  0.591200  1.0  -0.3579
  N  N203  1  0.276210  0.473900  0.770200  1.0  -0.5165
  N  N204  1  0.006500  0.553400  0.531600  1.0  -0.1816
  N  N205  1  0.748430  0.154600  0.653600  1.0  -0.3343
  N  N206  1  0.776300  0.116000  0.591200  1.0  -0.3579
  N  N207  1  0.776210  0.973900  0.770200  1.0  -0.5165
  N  N208  1  0.506500  0.053400  0.531600  1.0  -0.1816
  O  O209  1  0.164800  0.226600  0.091500  1.0  -0.5916
  O  O210  1  0.167000  0.394000  0.949200  1.0  -0.5256
  O  O211  1  0.664800  0.726600  0.091500  1.0  -0.5916
  O  O212  1  0.667000  0.894000  0.949200  1.0  -0.5256
  O  O213  1  0.835200  0.226600  0.408500  1.0  -0.5933
  O  O214  1  0.833000  0.394000  0.550800  1.0  -0.5253
  O  O215  1  0.335200  0.726600  0.408500  1.0  -0.5933
  O  O216  1  0.333000  0.894000  0.550800  1.0  -0.5253
  O  O217  1  0.835200  0.773400  0.908500  1.0  -0.5939
  O  O218  1  0.833000  0.606000  0.050800  1.0  -0.5243
  O  O219  1  0.335200  0.273400  0.908500  1.0  -0.5939
  O  O220  1  0.333000  0.106000  0.050800  1.0  -0.5243
  O  O221  1  0.164800  0.773400  0.591500  1.0  -0.5926
  O  O222  1  0.167000  0.606000  0.449200  1.0  -0.5247
  O  O223  1  0.664800  0.273400  0.591500  1.0  -0.5926
  O  O224  1  0.667000  0.106000  0.449200  1.0  -0.5247
