# generated using pymatgen
data_CuH28(C5N2)4
_symmetry_space_group_name_H-M   'P 1'
_cell_length_a   11.40300000
_cell_length_b   14.68200000
_cell_length_c   22.26400000
_cell_angle_alpha   90.00000000
_cell_angle_beta   91.00000000
_cell_angle_gamma   90.00000000
_symmetry_Int_Tables_number   1
_chemical_formula_structural   CuH28(C5N2)4
_chemical_formula_sum   'Cu4 H112 C80 N32'
_cell_volume   3726.84548426
_cell_formula_units_Z   4
loop_
 _symmetry_equiv_pos_site_id
 _symmetry_equiv_pos_as_xyz
  1  'x, y, z'
loop_
 _atom_site_type_symbol
 _atom_site_label
 _atom_site_symmetry_multiplicity
 _atom_site_fract_x
 _atom_site_fract_y
 _atom_site_fract_z
 _atom_site_occupancy
 _atom_site_charge
  Cu  Cu1  1  0.389300  0.768830  0.698240  1.0  0.5448
  Cu  Cu2  1  0.110700  0.268830  0.801760  1.0  0.5449
  Cu  Cu3  1  0.610700  0.231170  0.301760  1.0  0.5453
  Cu  Cu4  1  0.889300  0.731170  0.198240  1.0  0.5452
  H  H5  1  0.632400  0.557900  0.828700  1.0  0.0775
  H  H6  1  0.496200  0.691700  0.829600  1.0  0.0973
  H  H7  1  0.729800  0.877800  0.579700  1.0  0.088
  H  H8  1  0.402200  0.807200  0.560200  1.0  0.0756
  H  H9  1  0.260200  0.367100  0.707900  1.0  0.0647
  H  H10  1  0.713100  0.493800  0.677900  1.0  0.057
  H  H11  1  0.744400  0.466100  0.744400  1.0  0.0708
  H  H12  1  0.540500  0.445400  0.629100  1.0  0.0491
  H  H13  1  0.444600  0.451300  0.678500  1.0  0.0418
  H  H14  1  0.510600  0.287800  0.623600  1.0  0.0526
  H  H15  1  0.399200  0.343500  0.604100  1.0  0.0781
  H  H16  1  0.532300  0.993500  0.441600  1.0  0.0266
  H  H17  1  0.618800  0.005200  0.496000  1.0  0.0386
  H  H18  1  0.430400  0.141200  0.680400  1.0  0.0785
  H  H19  1  0.555300  0.615900  0.661500  1.0  0.077
  H  H20  1  0.279700  0.111900  0.751600  1.0  0.0723
  H  H21  1  0.988400  0.906700  0.583600  1.0  0.0617
  H  H22  1  0.001100  0.010200  0.599400  1.0  0.0616
  H  H23  1  0.120800  0.026200  0.509400  1.0  0.0575
  H  H24  1  0.082200  0.926500  0.491900  1.0  0.0535
  H  H25  1  0.152300  0.801900  0.619300  1.0  0.0627
  H  H26  1  0.215000  0.061500  0.625300  1.0  0.0672
  H  H27  1  0.561600  0.383200  0.748800  1.0  0.0509
  H  H28  1  0.644800  0.342000  0.700200  1.0  0.0557
  H  H29  1  0.669300  0.824200  0.675300  1.0  0.0639
  H  H30  1  0.628800  0.862000  0.466300  1.0  0.0666
  H  H31  1  0.492400  0.850800  0.466400  1.0  0.0584
  H  H32  1  0.378700  0.985200  0.680300  1.0  0.1031
  H  H33  1  0.867600  0.057900  0.671300  1.0  0.0774
  H  H34  1  0.003800  0.191700  0.670400  1.0  0.0971
  H  H35  1  0.770200  0.377800  0.920300  1.0  0.0881
  H  H36  1  0.097800  0.307200  0.939800  1.0  0.0758
  H  H37  1  0.239800  0.867100  0.792100  1.0  0.0642
  H  H38  1  0.786900  0.993800  0.822100  1.0  0.057
  H  H39  1  0.755600  0.966100  0.755600  1.0  0.0712
  H  H40  1  0.959500  0.945400  0.870900  1.0  0.0494
  H  H41  1  0.055400  0.951300  0.821500  1.0  0.0435
  H  H42  1  0.989400  0.787800  0.876400  1.0  0.0538
  H  H43  1  0.100800  0.843500  0.895900  1.0  0.0785
  H  H44  1  0.967700  0.493500  0.058400  1.0  0.0282
  H  H45  1  0.881200  0.505200  0.004000  1.0  0.0343
  H  H46  1  0.069600  0.641200  0.819600  1.0  0.0783
  H  H47  1  0.944700  0.115900  0.838500  1.0  0.0768
  H  H48  1  0.220300  0.611900  0.748400  1.0  0.0723
  H  H49  1  0.511600  0.406700  0.916400  1.0  0.0616
  H  H50  1  0.498900  0.510200  0.900600  1.0  0.0619
  H  H51  1  0.379200  0.526200  0.990600  1.0  0.0573
  H  H52  1  0.417800  0.426500  0.008100  1.0  0.0548
  H  H53  1  0.347700  0.301900  0.880700  1.0  0.063
  H  H54  1  0.285000  0.561500  0.874700  1.0  0.0667
  H  H55  1  0.938400  0.883200  0.751200  1.0  0.0518
  H  H56  1  0.855200  0.842000  0.799800  1.0  0.0567
  H  H57  1  0.830700  0.324200  0.824700  1.0  0.0642
  H  H58  1  0.871200  0.362000  0.033700  1.0  0.0665
  H  H59  1  0.007600  0.350800  0.033600  1.0  0.0579
  H  H60  1  0.121300  0.485200  0.819700  1.0  0.1032
  H  H61  1  0.367600  0.442100  0.171300  1.0  0.0771
  H  H62  1  0.503800  0.308300  0.170400  1.0  0.0976
  H  H63  1  0.270200  0.122200  0.420300  1.0  0.0881
  H  H64  1  0.597800  0.192800  0.439800  1.0  0.0759
  H  H65  1  0.739800  0.632900  0.292100  1.0  0.0642
  H  H66  1  0.286900  0.506200  0.322100  1.0  0.0577
  H  H67  1  0.255600  0.533900  0.255600  1.0  0.0712
  H  H68  1  0.459500  0.554600  0.370900  1.0  0.0498
  H  H69  1  0.555400  0.548700  0.321500  1.0  0.0433
  H  H70  1  0.489400  0.712200  0.376400  1.0  0.0539
  H  H71  1  0.600800  0.656500  0.395900  1.0  0.0786
  H  H72  1  0.467700  0.006500  0.558400  1.0  0.0282
  H  H73  1  0.381200  0.994800  0.504000  1.0  0.0337
  H  H74  1  0.569600  0.858800  0.319600  1.0  0.0784
  H  H75  1  0.444700  0.384100  0.338500  1.0  0.0772
  H  H76  1  0.720300  0.888100  0.248400  1.0  0.0728
  H  H77  1  0.011600  0.093300  0.416400  1.0  0.0614
  H  H78  1  0.998900  0.989800  0.400600  1.0  0.0613
  H  H79  1  0.879200  0.973800  0.490600  1.0  0.0574
  H  H80  1  0.917800  0.073500  0.508100  1.0  0.0528
  H  H81  1  0.847700  0.198100  0.380700  1.0  0.0619
  H  H82  1  0.785000  0.938500  0.374700  1.0  0.0668
  H  H83  1  0.438400  0.616800  0.251200  1.0  0.0515
  H  H84  1  0.355200  0.658000  0.299800  1.0  0.0572
  H  H85  1  0.330700  0.175800  0.324700  1.0  0.0643
  H  H86  1  0.371200  0.138000  0.533700  1.0  0.0664
  H  H87  1  0.507600  0.149200  0.533600  1.0  0.0577
  H  H88  1  0.621300  0.014800  0.319700  1.0  0.1034
  H  H89  1  0.132400  0.942100  0.328700  1.0  0.0776
  H  H90  1  0.996200  0.808300  0.329600  1.0  0.0974
  H  H91  1  0.229800  0.622200  0.079700  1.0  0.0881
  H  H92  1  0.902200  0.692800  0.060200  1.0  0.0762
  H  H93  1  0.760200  0.132900  0.207900  1.0  0.0642
  H  H94  1  0.213100  0.006200  0.177900  1.0  0.0575
  H  H95  1  0.244400  0.033900  0.244400  1.0  0.071
  H  H96  1  0.040500  0.054600  0.129100  1.0  0.0485
  H  H97  1  0.944600  0.048700  0.178500  1.0  0.0422
  H  H98  1  0.010600  0.212200  0.123600  1.0  0.0533
  H  H99  1  0.899200  0.156500  0.104100  1.0  0.0784
  H  H100  1  0.032300  0.506500  0.941600  1.0  0.0269
  H  H101  1  0.118800  0.494800  0.996000  1.0  0.0389
  H  H102  1  0.930400  0.358800  0.180400  1.0  0.0784
  H  H103  1  0.055300  0.884100  0.161500  1.0  0.0773
  H  H104  1  0.779700  0.388100  0.251600  1.0  0.0723
  H  H105  1  0.488400  0.593300  0.083600  1.0  0.0614
  H  H106  1  0.501100  0.489800  0.099400  1.0  0.062
  H  H107  1  0.620800  0.473800  0.009400  1.0  0.057
  H  H108  1  0.582200  0.573500  0.991900  1.0  0.0532
  H  H109  1  0.652300  0.698100  0.119300  1.0  0.0631
  H  H110  1  0.715000  0.438500  0.125300  1.0  0.0673
  H  H111  1  0.061600  0.116800  0.248800  1.0  0.0508
  H  H112  1  0.144800  0.158000  0.200200  1.0  0.0568
  H  H113  1  0.169300  0.675800  0.175300  1.0  0.0637
  H  H114  1  0.128800  0.638000  0.966300  1.0  0.0676
  H  H115  1  0.992400  0.649200  0.966400  1.0  0.0582
  H  H116  1  0.878700  0.514800  0.180300  1.0  0.1032
  C  C117  1  0.598000  0.585000  0.795100  1.0  -0.0476
  C  C118  1  0.524000  0.660200  0.796400  1.0  -0.0274
  C  C119  1  0.656700  0.853500  0.588300  1.0  -0.1159
  C  C120  1  0.477000  0.814000  0.576900  1.0  0.102
  C  C121  1  0.287300  0.307500  0.710900  1.0  0.1161
  C  C122  1  0.680000  0.479600  0.716700  1.0  -0.091
  C  C123  1  0.505100  0.412700  0.662100  1.0  -0.1425
  C  C124  1  0.450000  0.328000  0.638100  1.0  -0.0452
  C  C125  1  0.545000  0.978000  0.483600  1.0  -0.1741
  C  C126  1  0.380000  0.184600  0.695800  1.0  -0.089
  C  C127  1  0.555700  0.617400  0.703200  1.0  0.1068
  C  C128  1  0.296000  0.168100  0.734300  1.0  -0.0624
  C  C129  1  0.040000  0.959000  0.580700  1.0  0.0068
  C  C130  1  0.059000  0.981000  0.513300  1.0  -0.1369
  C  C131  1  0.188000  0.857100  0.629200  1.0  0.114
  C  C132  1  0.221000  0.999100  0.631700  1.0  0.0043
  C  C133  1  0.599000  0.395100  0.710700  1.0  -0.1787
  C  C134  1  0.623000  0.825000  0.640500  1.0  -0.0264
  C  C135  1  0.558000  0.879000  0.487300  1.0  -0.0429
  C  C136  1  0.313100  0.958100  0.662400  1.0  -0.1268
  C  C137  1  0.902000  0.085000  0.704900  1.0  -0.0489
  C  C138  1  0.976000  0.160200  0.703600  1.0  -0.026
  C  C139  1  0.843300  0.353500  0.911700  1.0  -0.1186
  C  C140  1  0.023000  0.314000  0.923100  1.0  0.1019
  C  C141  1  0.212700  0.807500  0.789100  1.0  0.1178
  C  C142  1  0.820000  0.979600  0.783300  1.0  -0.0923
  C  C143  1  0.994900  0.912700  0.837900  1.0  -0.143
  C  C144  1  0.050000  0.828000  0.861900  1.0  -0.0462
  C  C145  1  0.955000  0.478000  0.016400  1.0  -0.1745
  C  C146  1  0.120000  0.684600  0.804200  1.0  -0.0911
  C  C147  1  0.944300  0.117400  0.796800  1.0  0.1065
  C  C148  1  0.204000  0.668100  0.765700  1.0  -0.0628
  C  C149  1  0.460000  0.459000  0.919300  1.0  0.0105
  C  C150  1  0.441000  0.481000  0.986700  1.0  -0.1368
  C  C151  1  0.312000  0.357100  0.870800  1.0  0.1141
  C  C152  1  0.279000  0.499100  0.868300  1.0  0.004
  C  C153  1  0.901000  0.895100  0.789300  1.0  -0.1773
  C  C154  1  0.877000  0.325000  0.859500  1.0  -0.0291
  C  C155  1  0.942000  0.379000  0.012700  1.0  -0.0423
  C  C156  1  0.186900  0.458100  0.837600  1.0  -0.1264
  C  C157  1  0.402000  0.415000  0.204900  1.0  -0.0485
  C  C158  1  0.476000  0.339800  0.203600  1.0  -0.0275
  C  C159  1  0.343300  0.146500  0.411700  1.0  -0.1188
  C  C160  1  0.523000  0.186000  0.423100  1.0  0.1023
  C  C161  1  0.712700  0.692500  0.289100  1.0  0.1174
  C  C162  1  0.320000  0.520400  0.283300  1.0  -0.0925
  C  C163  1  0.494900  0.587300  0.337900  1.0  -0.1425
  C  C164  1  0.550000  0.672000  0.361900  1.0  -0.047
  C  C165  1  0.455000  0.022000  0.516400  1.0  -0.1755
  C  C166  1  0.620000  0.815400  0.304200  1.0  -0.0895
  C  C167  1  0.444300  0.382600  0.296800  1.0  0.1069
  C  C168  1  0.704000  0.831900  0.265700  1.0  -0.0633
  C  C169  1  0.960000  0.041000  0.419300  1.0  0.0103
  C  C170  1  0.941000  0.019000  0.486700  1.0  -0.1392
  C  C171  1  0.812000  0.142900  0.370800  1.0  0.1156
  C  C172  1  0.779000  0.000900  0.368300  1.0  0.0037
  C  C173  1  0.401000  0.604900  0.289300  1.0  -0.1768
  C  C174  1  0.377000  0.175000  0.359500  1.0  -0.0289
  C  C175  1  0.442000  0.121000  0.512700  1.0  -0.0423
  C  C176  1  0.686900  0.041900  0.337600  1.0  -0.1246
  C  C177  1  0.098000  0.915000  0.295100  1.0  -0.0473
  C  C178  1  0.024000  0.839800  0.296400  1.0  -0.0275
  C  C179  1  0.156700  0.646500  0.088300  1.0  -0.1154
  C  C180  1  0.977000  0.686000  0.076900  1.0  0.1009
  C  C181  1  0.787300  0.192500  0.210900  1.0  0.1158
  C  C182  1  0.180000  0.020400  0.216700  1.0  -0.091
  C  C183  1  0.005100  0.087300  0.162100  1.0  -0.1423
  C  C184  1  0.950000  0.172000  0.138100  1.0  -0.045
  C  C185  1  0.045000  0.522000  0.983600  1.0  -0.1753
  C  C186  1  0.880000  0.315400  0.195800  1.0  -0.0879
  C  C187  1  0.055700  0.882600  0.203200  1.0  0.1062
  C  C188  1  0.796000  0.331900  0.234300  1.0  -0.063
  C  C189  1  0.540000  0.541000  0.080700  1.0  0.0062
  C  C190  1  0.559000  0.519000  0.013300  1.0  -0.1388
  C  C191  1  0.688000  0.642900  0.129200  1.0  0.1157
  C  C192  1  0.721000  0.500900  0.131700  1.0  0.0039
  C  C193  1  0.099000  0.104900  0.210700  1.0  -0.1798
  C  C194  1  0.123000  0.675000  0.140500  1.0  -0.0263
  C  C195  1  0.058000  0.621000  0.987300  1.0  -0.0429
  C  C196  1  0.813100  0.541900  0.162400  1.0  -0.1248
  N  N197  1  0.506700  0.794400  0.636400  1.0  -0.4719
  N  N198  1  0.499600  0.676400  0.735300  1.0  -0.3449
  N  N199  1  0.236500  0.245700  0.744400  1.0  -0.4026
  N  N200  1  0.282900  0.865300  0.659900  1.0  -0.3399
  N  N201  1  0.145300  0.940300  0.612900  1.0  0.0609
  N  N202  1  0.565500  0.841600  0.548300  1.0  0.0526
  N  N203  1  0.613900  0.559200  0.738800  1.0  0.0245
  N  N204  1  0.380300  0.278000  0.681800  1.0  -0.074
  N  N205  1  0.993300  0.294400  0.863600  1.0  -0.4734
  N  N206  1  0.000400  0.176400  0.764700  1.0  -0.3449
  N  N207  1  0.263500  0.745700  0.755600  1.0  -0.4013
  N  N208  1  0.217100  0.365300  0.840100  1.0  -0.3398
  N  N209  1  0.354700  0.440300  0.887100  1.0  0.0631
  N  N210  1  0.934500  0.341600  0.951700  1.0  0.0502
  N  N211  1  0.886100  0.059200  0.761200  1.0  0.0242
  N  N212  1  0.119700  0.778000  0.818200  1.0  -0.0756
  N  N213  1  0.493300  0.205600  0.363600  1.0  -0.4735
  N  N214  1  0.500400  0.323600  0.264700  1.0  -0.3443
  N  N215  1  0.763500  0.754300  0.255600  1.0  -0.4016
  N  N216  1  0.717100  0.134700  0.340100  1.0  -0.3386
  N  N217  1  0.854700  0.059700  0.387100  1.0  0.0629
  N  N218  1  0.434500  0.158400  0.451700  1.0  0.0491
  N  N219  1  0.386100  0.440800  0.261200  1.0  0.0251
  N  N220  1  0.619700  0.722000  0.318200  1.0  -0.0753
  N  N221  1  0.006700  0.705600  0.136400  1.0  -0.4723
  N  N222  1  0.999600  0.823600  0.235300  1.0  -0.3453
  N  N223  1  0.736500  0.254300  0.244400  1.0  -0.4027
  N  N224  1  0.782900  0.634700  0.159900  1.0  -0.3408
  N  N225  1  0.645300  0.559700  0.112900  1.0  0.0612
  N  N226  1  0.065500  0.658400  0.048300  1.0  0.051
  N  N227  1  0.113900  0.940800  0.238800  1.0  0.0262
  N  N228  1  0.880300  0.222000  0.181800  1.0  -0.0739
