# generated using pymatgen
data_ZnH8C12(IN2)2
_symmetry_space_group_name_H-M   'P 1'
_cell_length_a   14.83000000
_cell_length_b   18.76150000
_cell_length_c   33.92000000
_cell_angle_alpha   105.07700000
_cell_angle_beta   90.00000000
_cell_angle_gamma   113.28000000
_symmetry_Int_Tables_number   1
_chemical_formula_structural   ZnH8C12(IN2)2
_chemical_formula_sum   'Zn12 H96 C144 I24 N48'
_cell_volume   8314.45143411
_cell_formula_units_Z   12
loop_
 _symmetry_equiv_pos_site_id
 _symmetry_equiv_pos_as_xyz
  1  'x, y, z'
loop_
 _atom_site_type_symbol
 _atom_site_label
 _atom_site_symmetry_multiplicity
 _atom_site_fract_x
 _atom_site_fract_y
 _atom_site_fract_z
 _atom_site_occupancy
 _atom_site_charge
  Zn  Zn1  1  0.033580  0.231040  0.563690  1.0  0.8968
  Zn  Zn2  1  0.971680  0.658020  0.732620  1.0  0.8998
  Zn  Zn3  1  0.261620  0.753280  0.924980  1.0  0.7897
  Zn  Zn4  1  0.197460  0.231040  0.063690  1.0  0.8981
  Zn  Zn5  1  0.686340  0.658020  0.232620  1.0  0.8996
  Zn  Zn6  1  0.491660  0.753280  0.424980  1.0  0.7908
  Zn  Zn7  1  0.802540  0.768960  0.936310  1.0  0.8972
  Zn  Zn8  1  0.313660  0.341980  0.767380  1.0  0.9009
  Zn  Zn9  1  0.508340  0.246720  0.575020  1.0  0.7884
  Zn  Zn10  1  0.966420  0.768960  0.436310  1.0  0.8989
  Zn  Zn11  1  0.028320  0.341980  0.267380  1.0  0.9008
  Zn  Zn12  1  0.738380  0.246720  0.075020  1.0  0.7901
  H  H13  1  0.249600  0.301200  0.585700  1.0  0.0644
  H  H14  1  0.373500  0.407400  0.631900  1.0  0.1049
  H  H15  1  0.169600  0.469800  0.688500  1.0  0.1033
  H  H16  1  0.050800  0.363400  0.640700  1.0  0.0784
  H  H17  1  0.837100  0.718600  0.779700  1.0  0.0925
  H  H18  1  0.672000  0.697000  0.777000  1.0  0.0975
  H  H19  1  0.616900  0.532000  0.668100  1.0  0.111
  H  H20  1  0.788400  0.560600  0.672600  1.0  0.0793
  H  H21  1  0.173200  0.660000  0.838700  1.0  0.0723
  H  H22  1  0.217600  0.591000  0.777900  1.0  0.102
  H  H23  1  0.502400  0.724800  0.823900  1.0  0.1178
  H  H24  1  0.450800  0.775600  0.884100  1.0  0.0781
  H  H25  1  0.354800  0.675600  0.970000  1.0  0.0779
  H  H26  1  0.487700  0.708200  0.015400  1.0  0.1177
  H  H27  1  0.592500  0.941200  0.006900  1.0  0.1125
  H  H28  1  0.441800  0.890200  0.958600  1.0  0.0763
  H  H29  1  0.114300  0.118800  0.112200  1.0  0.0759
  H  H30  1  0.968200  0.016200  0.119900  1.0  0.1134
  H  H31  1  0.859100  0.007200  0.008900  1.0  0.1124
  H  H32  1  0.999800  0.119000  0.009500  1.0  0.0745
  H  H33  1  0.596700  0.621200  0.143900  1.0  0.096
  H  H34  1  0.613000  0.678200  0.092000  1.0  0.1145
  H  H35  1  0.826700  0.879600  0.165500  1.0  0.1013
  H  H36  1  0.793900  0.823800  0.216500  1.0  0.0796
  H  H37  1  0.051600  0.301200  0.085700  1.0  0.0645
  H  H38  1  0.033900  0.407400  0.131900  1.0  0.1058
  H  H39  1  0.300200  0.469800  0.188500  1.0  0.1031
  H  H40  1  0.312600  0.363400  0.140700  1.0  0.0784
  H  H41  1  0.881500  0.718600  0.279700  1.0  0.0922
  H  H42  1  0.025000  0.697000  0.277000  1.0  0.0978
  H  H43  1  0.915100  0.532000  0.168100  1.0  0.1112
  H  H44  1  0.772200  0.560600  0.172600  1.0  0.0787
  H  H45  1  0.486800  0.660000  0.338700  1.0  0.0712
  H  H46  1  0.373400  0.591000  0.277900  1.0  0.1023
  H  H47  1  0.222400  0.724800  0.323900  1.0  0.1187
  H  H48  1  0.324800  0.775600  0.384100  1.0  0.0779
  H  H49  1  0.320800  0.675600  0.470000  1.0  0.0776
  H  H50  1  0.220500  0.708200  0.515400  1.0  0.1173
  H  H51  1  0.348700  0.941200  0.506900  1.0  0.1128
  H  H52  1  0.448400  0.890200  0.458600  1.0  0.0767
  H  H53  1  0.004500  0.118800  0.612200  1.0  0.0777
  H  H54  1  0.048000  0.016200  0.619900  1.0  0.1128
  H  H55  1  0.148100  0.007200  0.508900  1.0  0.1123
  H  H56  1  0.119200  0.119000  0.509500  1.0  0.0747
  H  H57  1  0.024500  0.621200  0.643900  1.0  0.096
  H  H58  1  0.065200  0.678200  0.592000  1.0  0.1146
  H  H59  1  0.052900  0.879600  0.665500  1.0  0.1021
  H  H60  1  0.029900  0.823800  0.716500  1.0  0.0798
  H  H61  1  0.948400  0.698800  0.914300  1.0  0.0643
  H  H62  1  0.966100  0.592600  0.868100  1.0  0.1047
  H  H63  1  0.699800  0.530200  0.811500  1.0  0.1035
  H  H64  1  0.687400  0.636600  0.859300  1.0  0.0783
  H  H65  1  0.118500  0.281400  0.720300  1.0  0.0927
  H  H66  1  0.975000  0.303000  0.723000  1.0  0.0977
  H  H67  1  0.084900  0.468000  0.831900  1.0  0.1119
  H  H68  1  0.227800  0.439400  0.827400  1.0  0.0796
  H  H69  1  0.513200  0.340000  0.661300  1.0  0.0726
  H  H70  1  0.626600  0.409000  0.722100  1.0  0.1013
  H  H71  1  0.777600  0.275200  0.676100  1.0  0.1176
  H  H72  1  0.675200  0.224400  0.615900  1.0  0.0781
  H  H73  1  0.679200  0.324400  0.530000  1.0  0.0779
  H  H74  1  0.779500  0.291800  0.484600  1.0  0.1177
  H  H75  1  0.651300  0.058800  0.493100  1.0  0.1127
  H  H76  1  0.551600  0.109800  0.541400  1.0  0.0759
  H  H77  1  0.995500  0.881200  0.387800  1.0  0.0777
  H  H78  1  0.952000  0.983800  0.380100  1.0  0.113
  H  H79  1  0.851900  0.992800  0.491100  1.0  0.1126
  H  H80  1  0.880800  0.881000  0.490500  1.0  0.0748
  H  H81  1  0.975500  0.378800  0.356100  1.0  0.0965
  H  H82  1  0.934800  0.321800  0.408000  1.0  0.1154
  H  H83  1  0.947100  0.120400  0.334500  1.0  0.1021
  H  H84  1  0.970100  0.176200  0.283500  1.0  0.0797
  H  H85  1  0.750400  0.698800  0.414300  1.0  0.065
  H  H86  1  0.626500  0.592600  0.368100  1.0  0.1056
  H  H87  1  0.830400  0.530200  0.311500  1.0  0.1042
  H  H88  1  0.949200  0.636600  0.359300  1.0  0.0785
  H  H89  1  0.162900  0.281400  0.220300  1.0  0.092
  H  H90  1  0.328000  0.303000  0.223000  1.0  0.0976
  H  H91  1  0.383100  0.468000  0.331900  1.0  0.1117
  H  H92  1  0.211600  0.439400  0.327400  1.0  0.0792
  H  H93  1  0.826800  0.340000  0.161300  1.0  0.0715
  H  H94  1  0.782400  0.409000  0.222100  1.0  0.1015
  H  H95  1  0.497600  0.275200  0.176100  1.0  0.1184
  H  H96  1  0.549200  0.224400  0.115900  1.0  0.0781
  H  H97  1  0.645200  0.324400  0.030000  1.0  0.0779
  H  H98  1  0.512300  0.291800  0.984600  1.0  0.1176
  H  H99  1  0.407500  0.058800  0.993100  1.0  0.1127
  H  H100  1  0.558200  0.109800  0.041400  1.0  0.0764
  H  H101  1  0.885700  0.881200  0.887800  1.0  0.0757
  H  H102  1  0.031800  0.983800  0.880100  1.0  0.1134
  H  H103  1  0.140900  0.992800  0.991100  1.0  0.1121
  H  H104  1  0.000200  0.881000  0.990500  1.0  0.0741
  H  H105  1  0.403300  0.378800  0.856100  1.0  0.0967
  H  H106  1  0.387000  0.321800  0.908000  1.0  0.1154
  H  H107  1  0.173300  0.120400  0.834500  1.0  0.1021
  H  H108  1  0.206100  0.176200  0.783500  1.0  0.0796
  C  C109  1  0.232100  0.336400  0.606800  1.0  0.1499
  C  C110  1  0.306800  0.399600  0.634700  1.0  -0.1566
  C  C111  1  0.285800  0.451400  0.666300  1.0  -0.0432
  C  C112  1  0.189000  0.436000  0.667400  1.0  -0.1413
  C  C113  1  0.118200  0.372600  0.638700  1.0  0.1349
  C  C114  1  0.358100  0.513400  0.697400  1.0  0.3408
  C  C115  1  0.791500  0.678000  0.757400  1.0  0.1005
  C  C116  1  0.693000  0.665400  0.755500  1.0  -0.0812
  C  C117  1  0.624900  0.608800  0.723600  1.0  -0.0378
  C  C118  1  0.659900  0.569400  0.691900  1.0  -0.0963
  C  C119  1  0.762900  0.585800  0.695100  1.0  0.1404
  C  C120  1  0.517700  0.591200  0.723700  1.0  0.1113
  C  C121  1  0.240600  0.669400  0.836700  1.0  0.1266
  C  C122  1  0.267400  0.631400  0.799000  1.0  -0.0917
  C  C123  1  0.365500  0.653600  0.793600  1.0  -0.1238
  C  C124  1  0.433800  0.708000  0.826300  1.0  -0.1289
  C  C125  1  0.402000  0.737600  0.862100  1.0  0.1628
  C  C126  1  0.399200  0.613600  0.757300  1.0  0.4403
  C  C127  1  0.402900  0.729800  0.978100  1.0  0.1585
  C  C128  1  0.482100  0.748000  0.004200  1.0  -0.1328
  C  C129  1  0.557100  0.828200  0.014600  1.0  -0.1163
  C  C130  1  0.545900  0.886400  0.999700  1.0  -0.1021
  C  C131  1  0.453300  0.854600  0.971400  1.0  0.1131
  C  C132  1  0.646900  0.850800  0.042200  1.0  0.394
  C  C133  1  0.059000  0.098600  0.092100  1.0  0.1359
  C  C134  1  0.973800  0.035400  0.096300  1.0  -0.1814
  C  C135  1  0.897100  0.001600  0.064600  1.0  -0.0504
  C  C136  1  0.908800  0.031400  0.031700  1.0  -0.1988
  C  C137  1  0.993800  0.097200  0.032100  1.0  0.1327
  C  C138  1  0.805400  0.933000  0.065900  1.0  0.3912
  C  C139  1  0.644600  0.675000  0.148200  1.0  0.1563
  C  C140  1  0.651000  0.708000  0.118000  1.0  -0.1658
  C  C141  1  0.718800  0.792000  0.126400  1.0  -0.0265
  C  C142  1  0.774900  0.827400  0.161100  1.0  -0.1286
  C  C143  1  0.760800  0.791600  0.189900  1.0  0.1592
  C  C144  1  0.718700  0.834000  0.095100  1.0  0.3605
  C  C145  1  0.104300  0.336400  0.106800  1.0  0.1513
  C  C146  1  0.092800  0.399600  0.134700  1.0  -0.1546
  C  C147  1  0.165600  0.451400  0.166300  1.0  -0.0432
  C  C148  1  0.247000  0.436000  0.167400  1.0  -0.1403
  C  C149  1  0.254400  0.372600  0.138700  1.0  0.1348
  C  C150  1  0.155300  0.513400  0.197400  1.0  0.3411
  C  C151  1  0.886500  0.678000  0.257400  1.0  0.1008
  C  C152  1  0.972400  0.665400  0.255500  1.0  -0.082
  C  C153  1  0.983900  0.608800  0.223600  1.0  -0.0349
  C  C154  1  0.909500  0.569400  0.191900  1.0  -0.0966
  C  C155  1  0.822900  0.585800  0.195100  1.0  0.1404
  C  C156  1  0.073500  0.591200  0.223700  1.0  0.1116
  C  C157  1  0.428800  0.669400  0.336700  1.0  0.127
  C  C158  1  0.364000  0.631400  0.299000  1.0  -0.0922
  C  C159  1  0.288100  0.653600  0.293600  1.0  -0.1238
  C  C160  1  0.274200  0.708000  0.326300  1.0  -0.1295
  C  C161  1  0.335600  0.737600  0.362100  1.0  0.1638
  C  C162  1  0.214400  0.613600  0.257300  1.0  0.4406
  C  C163  1  0.326900  0.729800  0.478100  1.0  0.1593
  C  C164  1  0.265900  0.748000  0.504200  1.0  -0.134
  C  C165  1  0.271100  0.828200  0.514600  1.0  -0.117
  C  C166  1  0.340500  0.886400  0.499700  1.0  -0.102
  C  C167  1  0.401300  0.854600  0.471400  1.0  0.113
  C  C168  1  0.203900  0.850800  0.542200  1.0  0.3934
  C  C169  1  0.039600  0.098600  0.592100  1.0  0.135
  C  C170  1  0.061600  0.035400  0.596300  1.0  -0.1816
  C  C171  1  0.104500  0.001600  0.564600  1.0  -0.0511
  C  C172  1  0.122600  0.031400  0.531700  1.0  -0.1984
  C  C173  1  0.103400  0.097200  0.532100  1.0  0.1314
  C  C174  1  0.127600  0.933000  0.565900  1.0  0.3915
  C  C175  1  0.030400  0.675000  0.648200  1.0  0.156
  C  C176  1  0.057000  0.708000  0.618000  1.0  -0.1655
  C  C177  1  0.073200  0.792000  0.626400  1.0  -0.0265
  C  C178  1  0.052500  0.827400  0.661100  1.0  -0.1281
  C  C179  1  0.030800  0.791600  0.689900  1.0  0.1578
  C  C180  1  0.115300  0.834000  0.595100  1.0  0.3605
  C  C181  1  0.895700  0.663600  0.893200  1.0  0.1527
  C  C182  1  0.907200  0.600400  0.865300  1.0  -0.1563
  C  C183  1  0.834400  0.548600  0.833700  1.0  -0.0446
  C  C184  1  0.753000  0.564000  0.832600  1.0  -0.1402
  C  C185  1  0.745600  0.627400  0.861300  1.0  0.136
  C  C186  1  0.844700  0.486600  0.802600  1.0  0.3425
  C  C187  1  0.113500  0.322000  0.742600  1.0  0.0992
  C  C188  1  0.027600  0.334600  0.744500  1.0  -0.0806
  C  C189  1  0.016100  0.391200  0.776400  1.0  -0.0376
  C  C190  1  0.090500  0.430600  0.808100  1.0  -0.0975
  C  C191  1  0.177100  0.414200  0.804900  1.0  0.1419
  C  C192  1  0.926500  0.408800  0.776300  1.0  0.1123
  C  C193  1  0.571200  0.330600  0.663300  1.0  0.1267
  C  C194  1  0.636000  0.368600  0.701000  1.0  -0.0922
  C  C195  1  0.711900  0.346400  0.706400  1.0  -0.126
  C  C196  1  0.725800  0.292000  0.673700  1.0  -0.1293
  C  C197  1  0.664400  0.262400  0.637900  1.0  0.1633
  C  C198  1  0.785600  0.386400  0.742700  1.0  0.4401
  C  C199  1  0.673100  0.270200  0.521900  1.0  0.1577
  C  C200  1  0.734100  0.252000  0.495800  1.0  -0.1329
  C  C201  1  0.728900  0.171800  0.485400  1.0  -0.1158
  C  C202  1  0.659500  0.113600  0.500300  1.0  -0.1018
  C  C203  1  0.598700  0.145400  0.528600  1.0  0.1124
  C  C204  1  0.796100  0.149200  0.457800  1.0  0.3943
  C  C205  1  0.960400  0.901400  0.407900  1.0  0.1346
  C  C206  1  0.938400  0.964600  0.403700  1.0  -0.1814
  C  C207  1  0.895500  0.998400  0.435400  1.0  -0.0507
  C  C208  1  0.877400  0.968600  0.468300  1.0  -0.1982
  C  C209  1  0.896600  0.902800  0.467900  1.0  0.1331
  C  C210  1  0.872400  0.067000  0.434100  1.0  0.3912
  C  C211  1  0.969600  0.325000  0.351800  1.0  0.1567
  C  C212  1  0.943000  0.292000  0.382000  1.0  -0.1692
  C  C213  1  0.926800  0.208000  0.373600  1.0  -0.0257
  C  C214  1  0.947500  0.172600  0.338900  1.0  -0.1283
  C  C215  1  0.969200  0.208400  0.310100  1.0  0.1586
  C  C216  1  0.884700  0.166000  0.404900  1.0  0.3611
  C  C217  1  0.767900  0.663600  0.393200  1.0  0.1521
  C  C218  1  0.693200  0.600400  0.365300  1.0  -0.155
  C  C219  1  0.714200  0.548600  0.333700  1.0  -0.0455
  C  C220  1  0.811000  0.564000  0.332600  1.0  -0.1384
  C  C221  1  0.881800  0.627400  0.361300  1.0  0.1349
  C  C222  1  0.641900  0.486600  0.302600  1.0  0.3426
  C  C223  1  0.208500  0.322000  0.242600  1.0  0.1002
  C  C224  1  0.307000  0.334600  0.244500  1.0  -0.0829
  C  C225  1  0.375100  0.391200  0.276400  1.0  -0.0343
  C  C226  1  0.340100  0.430600  0.308100  1.0  -0.0968
  C  C227  1  0.237100  0.414200  0.304900  1.0  0.1401
  C  C228  1  0.482300  0.408800  0.276300  1.0  0.1121
  C  C229  1  0.759400  0.330600  0.163300  1.0  0.1263
  C  C230  1  0.732600  0.368600  0.201000  1.0  -0.0922
  C  C231  1  0.634500  0.346400  0.206400  1.0  -0.1259
  C  C232  1  0.566200  0.292000  0.173700  1.0  -0.1296
  C  C233  1  0.598000  0.262400  0.137900  1.0  0.1648
  C  C234  1  0.600800  0.386400  0.242700  1.0  0.4406
  C  C235  1  0.597100  0.270200  0.021900  1.0  0.1587
  C  C236  1  0.517900  0.252000  0.995800  1.0  -0.1338
  C  C237  1  0.442900  0.171800  0.985400  1.0  -0.1166
  C  C238  1  0.454100  0.113600  0.000300  1.0  -0.1017
  C  C239  1  0.546700  0.145400  0.028600  1.0  0.1125
  C  C240  1  0.353100  0.149200  0.957800  1.0  0.3938
  C  C241  1  0.941000  0.901400  0.907900  1.0  0.1349
  C  C242  1  0.026200  0.964600  0.903700  1.0  -0.1802
  C  C243  1  0.102900  0.998400  0.935400  1.0  -0.0515
  C  C244  1  0.091200  0.968600  0.968300  1.0  -0.1976
  C  C245  1  0.006200  0.902800  0.967900  1.0  0.1325
  C  C246  1  0.194600  0.067000  0.934100  1.0  0.3914
  C  C247  1  0.355400  0.325000  0.851800  1.0  0.1565
  C  C248  1  0.349000  0.292000  0.882000  1.0  -0.1678
  C  C249  1  0.281200  0.208000  0.873600  1.0  -0.0257
  C  C250  1  0.225100  0.172600  0.838900  1.0  -0.1281
  C  C251  1  0.239200  0.208400  0.810100  1.0  0.1575
  C  C252  1  0.281300  0.166000  0.904900  1.0  0.3611
  I  I253  1  0.071950  0.269040  0.497210  1.0  -0.3517
  I  I254  1  0.869700  0.202520  0.592860  1.0  -0.4203
  I  I255  1  0.002910  0.531320  0.710000  1.0  -0.4725
  I  I256  1  0.049340  0.757620  0.802610  1.0  -0.4094
  I  I257  1  0.123130  0.628000  0.938120  1.0  -0.3418
  I  I258  1  0.240330  0.875660  0.924410  1.0  -0.4083
  I  I259  1  0.197090  0.269040  0.997210  1.0  -0.352
  I  I260  1  0.332820  0.202520  0.092860  1.0  -0.4204
  I  I261  1  0.528410  0.531320  0.210000  1.0  -0.4725
  I  I262  1  0.708280  0.757620  0.302610  1.0  -0.4076
  I  I263  1  0.504870  0.628000  0.438120  1.0  -0.3417
  I  I264  1  0.635330  0.875660  0.424410  1.0  -0.4074
  I  I265  1  0.802910  0.730960  0.002790  1.0  -0.3511
  I  I266  1  0.667180  0.797480  0.907140  1.0  -0.42
  I  I267  1  0.471590  0.468680  0.790000  1.0  -0.4725
  I  I268  1  0.291720  0.242380  0.697390  1.0  -0.4101
  I  I269  1  0.495130  0.372000  0.561880  1.0  -0.3416
  I  I270  1  0.364670  0.124340  0.575590  1.0  -0.4076
  I  I271  1  0.928050  0.730960  0.502790  1.0  -0.3508
  I  I272  1  0.130300  0.797480  0.407140  1.0  -0.4196
  I  I273  1  0.997090  0.468680  0.290000  1.0  -0.4718
  I  I274  1  0.950660  0.242380  0.197390  1.0  -0.4082
  I  I275  1  0.876870  0.372000  0.061880  1.0  -0.3418
  I  I276  1  0.759670  0.124340  0.075590  1.0  -0.4065
  N  N277  1  0.139900  0.322600  0.607700  1.0  -0.3286
  N  N278  1  0.822800  0.634200  0.728300  1.0  -0.2993
  N  N279  1  0.306300  0.716600  0.868500  1.0  -0.3059
  N  N280  1  0.458300  0.531000  0.692400  1.0  -0.3619
  N  N281  1  0.493300  0.636800  0.755500  1.0  -0.2965
  N  N282  1  0.329700  0.555200  0.729400  1.0  -0.4975
  N  N283  1  0.388700  0.781800  0.963400  1.0  -0.2605
  N  N284  1  0.068100  0.132200  0.062100  1.0  -0.2947
  N  N285  1  0.702000  0.712400  0.185600  1.0  -0.3397
  N  N286  1  0.728600  0.912800  0.039000  1.0  -0.3883
  N  N287  1  0.806700  0.898200  0.095900  1.0  -0.4161
  N  N288  1  0.639800  0.809400  0.068900  1.0  -0.3589
  N  N289  1  0.182700  0.322600  0.107700  1.0  -0.3305
  N  N290  1  0.811400  0.634200  0.228300  1.0  -0.2999
  N  N291  1  0.410300  0.716600  0.368500  1.0  -0.306
  N  N292  1  0.072700  0.531000  0.192400  1.0  -0.3615
  N  N293  1  0.143500  0.636800  0.255500  1.0  -0.2961
  N  N294  1  0.225500  0.555200  0.229400  1.0  -0.4975
  N  N295  1  0.393100  0.781800  0.463400  1.0  -0.266
  N  N296  1  0.064100  0.132200  0.562100  1.0  -0.2942
  N  N297  1  0.010400  0.712400  0.685600  1.0  -0.3398
  N  N298  1  0.184200  0.912800  0.539000  1.0  -0.3883
  N  N299  1  0.091500  0.898200  0.595900  1.0  -0.4144
  N  N300  1  0.169600  0.809400  0.568900  1.0  -0.3601
  N  N301  1  0.817300  0.677400  0.892300  1.0  -0.3275
  N  N302  1  0.188600  0.365800  0.771700  1.0  -0.2991
  N  N303  1  0.589700  0.283400  0.631500  1.0  -0.3059
  N  N304  1  0.927300  0.469000  0.807600  1.0  -0.36
  N  N305  1  0.856500  0.363200  0.744500  1.0  -0.294
  N  N306  1  0.774500  0.444800  0.770600  1.0  -0.4977
  N  N307  1  0.606900  0.218200  0.536600  1.0  -0.2607
  N  N308  1  0.935900  0.867800  0.437900  1.0  -0.2932
  N  N309  1  0.989600  0.287600  0.314400  1.0  -0.3406
  N  N310  1  0.815800  0.087200  0.461000  1.0  -0.388
  N  N311  1  0.908500  0.101800  0.404100  1.0  -0.4174
  N  N312  1  0.830400  0.190600  0.431100  1.0  -0.3585
  N  N313  1  0.860100  0.677400  0.392300  1.0  -0.3282
  N  N314  1  0.177200  0.365800  0.271700  1.0  -0.3002
  N  N315  1  0.693700  0.283400  0.131500  1.0  -0.3062
  N  N316  1  0.541700  0.469000  0.307600  1.0  -0.3609
  N  N317  1  0.506700  0.363200  0.244500  1.0  -0.294
  N  N318  1  0.670300  0.444800  0.270600  1.0  -0.4967
  N  N319  1  0.611300  0.218200  0.036600  1.0  -0.267
  N  N320  1  0.931900  0.867800  0.937900  1.0  -0.2952
  N  N321  1  0.298000  0.287600  0.814400  1.0  -0.3406
  N  N322  1  0.271400  0.087200  0.961000  1.0  -0.3883
  N  N323  1  0.193300  0.101800  0.904100  1.0  -0.4156
  N  N324  1  0.360200  0.190600  0.931100  1.0  -0.3605
