# generated using pymatgen
data_CuSnH24(C5N)8
_symmetry_space_group_name_H-M   'P 1'
_cell_length_a   10.33400000
_cell_length_b   15.97140000
_cell_length_c   25.30740000
_cell_angle_alpha   90.00000000
_cell_angle_beta   93.27700000
_cell_angle_gamma   90.00000000
_symmetry_Int_Tables_number   1
_chemical_formula_structural   CuSnH24(C5N)8
_chemical_formula_sum   'Cu4 Sn4 H96 C160 N32'
_cell_volume   4170.11712211
_cell_formula_units_Z   4
loop_
 _symmetry_equiv_pos_site_id
 _symmetry_equiv_pos_as_xyz
  1  'x, y, z'
loop_
 _atom_site_type_symbol
 _atom_site_label
 _atom_site_symmetry_multiplicity
 _atom_site_fract_x
 _atom_site_fract_y
 _atom_site_fract_z
 _atom_site_occupancy
 _atom_site_charge
  Cu  Cu1  1  0.760380  0.214290  0.833240  1.0  0.4669
  Cu  Cu2  1  0.739620  0.714290  0.666760  1.0  0.4673
  Cu  Cu3  1  0.239620  0.785710  0.166760  1.0  0.4675
  Cu  Cu4  1  0.260380  0.285710  0.333240  1.0  0.4675
  Sn  Sn5  1  0.000000  0.000000  0.000000  1.0  1.1685
  Sn  Sn6  1  0.500000  0.500000  0.500000  1.0  1.1685
  Sn  Sn7  1  0.500000  0.500000  0.000000  1.0  1.1555
  Sn  Sn8  1  0.000000  0.000000  0.500000  1.0  1.1555
  H  H9  1  0.072000  0.931700  0.803200  1.0  0.0916
  H  H10  1  0.262200  0.018300  0.831400  1.0  0.0931
  H  H11  1  0.426300  0.172800  0.012300  1.0  0.1077
  H  H12  1  0.342600  0.187800  0.100900  1.0  0.1051
  H  H13  1  0.681400  0.914600  0.816800  1.0  0.1077
  H  H14  1  0.637700  0.849600  0.736000  1.0  0.0639
  H  H15  1  0.951100  0.709900  0.755600  1.0  0.0739
  H  H16  1  0.007700  0.774200  0.835500  1.0  0.1148
  H  H17  1  0.523200  0.029900  0.952400  1.0  0.1001
  H  H18  1  0.700500  0.084200  0.912300  1.0  0.0616
  H  H19  1  0.476400  0.238100  0.827200  1.0  0.0631
  H  H20  1  0.294000  0.188500  0.864800  1.0  0.1035
  H  H21  1  0.996900  0.176600  0.895700  1.0  0.0566
  H  H22  1  0.167700  0.243200  0.941600  1.0  0.084
  H  H23  1  0.986200  0.463800  0.913600  1.0  0.1042
  H  H24  1  0.816500  0.390300  0.871200  1.0  0.0631
  H  H25  1  0.075200  0.343500  0.038900  1.0  0.1035
  H  H26  1  0.183300  0.363500  0.128200  1.0  0.0988
  H  H27  1  0.616700  0.525400  0.200900  1.0  0.0928
  H  H28  1  0.797700  0.595200  0.159200  1.0  0.0954
  H  H29  1  0.226700  0.488200  0.191500  1.0  0.1051
  H  H30  1  0.196700  0.446200  0.277100  1.0  0.0613
  H  H31  1  0.524600  0.322300  0.285000  1.0  0.062
  H  H32  1  0.565300  0.361700  0.199200  1.0  0.0997
  H  H33  1  0.428000  0.431700  0.696800  1.0  0.0919
  H  H34  1  0.237800  0.518300  0.668600  1.0  0.0934
  H  H35  1  0.073700  0.672800  0.487700  1.0  0.1067
  H  H36  1  0.157400  0.687800  0.399100  1.0  0.1049
  H  H37  1  0.818600  0.414600  0.683200  1.0  0.1082
  H  H38  1  0.862300  0.349600  0.764000  1.0  0.064
  H  H39  1  0.548900  0.209900  0.744400  1.0  0.0737
  H  H40  1  0.492300  0.274200  0.664500  1.0  0.1144
  H  H41  1  0.976800  0.529900  0.547600  1.0  0.1006
  H  H42  1  0.799500  0.584200  0.587700  1.0  0.0616
  H  H43  1  0.023600  0.738100  0.672800  1.0  0.0633
  H  H44  1  0.206000  0.688500  0.635200  1.0  0.103
  H  H45  1  0.503100  0.676600  0.604300  1.0  0.0568
  H  H46  1  0.332300  0.743200  0.558400  1.0  0.0835
  H  H47  1  0.513800  0.963800  0.586400  1.0  0.1045
  H  H48  1  0.683500  0.890300  0.628800  1.0  0.0632
  H  H49  1  0.424800  0.843500  0.461100  1.0  0.1039
  H  H50  1  0.316700  0.863500  0.371800  1.0  0.0983
  H  H51  1  0.883300  0.025400  0.299100  1.0  0.0938
  H  H52  1  0.702300  0.095200  0.340800  1.0  0.0954
  H  H53  1  0.273300  0.988200  0.308500  1.0  0.1042
  H  H54  1  0.303300  0.946200  0.222900  1.0  0.0613
  H  H55  1  0.975400  0.822300  0.215000  1.0  0.0606
  H  H56  1  0.934700  0.861700  0.300800  1.0  0.1
  H  H57  1  0.928000  0.068300  0.196800  1.0  0.0943
  H  H58  1  0.737800  0.981700  0.168600  1.0  0.0933
  H  H59  1  0.573700  0.827200  0.987700  1.0  0.1068
  H  H60  1  0.657400  0.812200  0.899100  1.0  0.1047
  H  H61  1  0.318600  0.085400  0.183200  1.0  0.1085
  H  H62  1  0.362300  0.150400  0.264000  1.0  0.064
  H  H63  1  0.048900  0.290100  0.244400  1.0  0.0734
  H  H64  1  0.992300  0.225800  0.164500  1.0  0.115
  H  H65  1  0.476800  0.970100  0.047600  1.0  0.1004
  H  H66  1  0.299500  0.915800  0.087700  1.0  0.0614
  H  H67  1  0.523600  0.761900  0.172800  1.0  0.0625
  H  H68  1  0.706000  0.811500  0.135200  1.0  0.1033
  H  H69  1  0.003100  0.823400  0.104300  1.0  0.0558
  H  H70  1  0.832300  0.756800  0.058400  1.0  0.0841
  H  H71  1  0.013800  0.536200  0.086400  1.0  0.105
  H  H72  1  0.183500  0.609700  0.128800  1.0  0.0623
  H  H73  1  0.924800  0.656500  0.961100  1.0  0.104
  H  H74  1  0.816700  0.636500  0.871800  1.0  0.0983
  H  H75  1  0.383300  0.474600  0.799100  1.0  0.0942
  H  H76  1  0.202300  0.404800  0.840800  1.0  0.0957
  H  H77  1  0.773300  0.511800  0.808500  1.0  0.1044
  H  H78  1  0.803300  0.553800  0.722900  1.0  0.0612
  H  H79  1  0.475400  0.677700  0.715000  1.0  0.061
  H  H80  1  0.434700  0.638300  0.800800  1.0  0.1002
  H  H81  1  0.572000  0.568300  0.303200  1.0  0.0946
  H  H82  1  0.762200  0.481700  0.331400  1.0  0.0933
  H  H83  1  0.926300  0.327200  0.512300  1.0  0.108
  H  H84  1  0.842600  0.312200  0.600900  1.0  0.105
  H  H85  1  0.181400  0.585400  0.316800  1.0  0.108
  H  H86  1  0.137700  0.650400  0.236000  1.0  0.0636
  H  H87  1  0.451100  0.790100  0.255600  1.0  0.0738
  H  H88  1  0.507700  0.725800  0.335500  1.0  0.1148
  H  H89  1  0.023200  0.470100  0.452400  1.0  0.0997
  H  H90  1  0.200500  0.415800  0.412300  1.0  0.0617
  H  H91  1  0.976400  0.261900  0.327200  1.0  0.0638
  H  H92  1  0.794000  0.311500  0.364800  1.0  0.1036
  H  H93  1  0.496900  0.323400  0.395700  1.0  0.0556
  H  H94  1  0.667700  0.256800  0.441600  1.0  0.0841
  H  H95  1  0.486200  0.036200  0.413600  1.0  0.105
  H  H96  1  0.316500  0.109700  0.371200  1.0  0.0626
  H  H97  1  0.575200  0.156500  0.538900  1.0  0.103
  H  H98  1  0.683300  0.136500  0.628200  1.0  0.0988
  H  H99  1  0.116700  0.974600  0.700900  1.0  0.0933
  H  H100  1  0.297700  0.904800  0.659200  1.0  0.0958
  H  H101  1  0.726700  0.011800  0.691500  1.0  0.105
  H  H102  1  0.696700  0.053800  0.777100  1.0  0.0615
  H  H103  1  0.024600  0.177700  0.785000  1.0  0.0621
  H  H104  1  0.065300  0.138300  0.699200  1.0  0.0999
  C  C105  1  0.010100  0.946600  0.882070  1.0  0.1646
  C  C106  1  0.089500  0.955100  0.837400  1.0  -0.183
  C  C107  1  0.193700  0.002500  0.852800  1.0  -0.166
  C  C108  1  0.181700  0.024800  0.907660  1.0  0.179
  C  C109  1  0.270600  0.071800  0.939850  1.0  -0.0509
  C  C110  1  0.261300  0.093800  0.993130  1.0  0.1758
  C  C111  1  0.349700  0.147700  0.024200  1.0  -0.1823
  C  C112  1  0.304200  0.155900  0.072400  1.0  -0.1785
  C  C113  1  0.186500  0.107500  0.073460  1.0  0.1774
  C  C114  1  0.893700  0.901000  0.883500  1.0  -0.0485
  C  C115  1  0.854200  0.854700  0.833760  1.0  0.0509
  C  C116  1  0.740100  0.874500  0.804210  1.0  -0.2435
  C  C117  1  0.714200  0.834600  0.756300  1.0  0.1611
  C  C118  1  0.897700  0.753500  0.767600  1.0  0.1429
  C  C119  1  0.931900  0.791300  0.815400  1.0  -0.2012
  C  C120  1  0.387400  0.103400  0.913500  1.0  0.0817
  C  C121  1  0.511200  0.073100  0.926800  1.0  -0.1955
  C  C122  1  0.616800  0.105800  0.902600  1.0  0.1409
  C  C123  1  0.486200  0.195300  0.853200  1.0  0.1557
  C  C124  1  0.376500  0.166000  0.875400  1.0  -0.2245
  C  C125  1  0.994900  0.235800  0.899100  1.0  0.1442
  C  C126  1  0.097800  0.275300  0.926300  1.0  -0.2463
  C  C127  1  0.098400  0.361400  0.931000  1.0  0.0816
  C  C128  1  0.991100  0.404600  0.910200  1.0  -0.2118
  C  C129  1  0.890800  0.360300  0.884500  1.0  0.1464
  C  C130  1  0.216400  0.405800  0.953800  1.0  -0.0669
  C  C131  1  0.237700  0.406600  0.008600  1.0  0.1353
  C  C132  1  0.156000  0.370500  0.046600  1.0  -0.1814
  C  C133  1  0.214800  0.382000  0.095600  1.0  -0.182
  C  C134  1  0.333800  0.427300  0.089100  1.0  0.1747
  C  C135  1  0.424400  0.453200  0.129400  1.0  -0.0673
  C  C136  1  0.541300  0.497300  0.122600  1.0  0.0805
  C  C137  1  0.627400  0.530000  0.164000  1.0  -0.1707
  C  C138  1  0.726000  0.568300  0.141200  1.0  -0.1659
  C  C139  1  0.296100  0.438600  0.914900  1.0  0.0572
  C  C140  1  0.400100  0.428600  0.185110  1.0  0.0828
  C  C141  1  0.289400  0.453600  0.209700  1.0  -0.2304
  C  C142  1  0.272100  0.427600  0.260800  1.0  0.1566
  C  C143  1  0.462500  0.355700  0.265500  1.0  0.1396
  C  C144  1  0.487700  0.379400  0.214200  1.0  -0.193
  C  C145  1  0.489900  0.446600  0.617930  1.0  0.1646
  C  C146  1  0.410500  0.455100  0.662600  1.0  -0.1801
  C  C147  1  0.306300  0.502500  0.647200  1.0  -0.1653
  C  C148  1  0.318300  0.524800  0.592340  1.0  0.1798
  C  C149  1  0.229400  0.571800  0.560150  1.0  -0.0508
  C  C150  1  0.238700  0.593800  0.506870  1.0  0.1758
  C  C151  1  0.150300  0.647700  0.475800  1.0  -0.1833
  C  C152  1  0.195800  0.655900  0.427600  1.0  -0.1799
  C  C153  1  0.313500  0.607500  0.426540  1.0  0.1779
  C  C154  1  0.606300  0.401000  0.616500  1.0  -0.0488
  C  C155  1  0.645800  0.354700  0.666240  1.0  0.0493
  C  C156  1  0.759900  0.374500  0.695790  1.0  -0.244
  C  C157  1  0.785800  0.334600  0.743700  1.0  0.1615
  C  C158  1  0.602300  0.253500  0.732400  1.0  0.143
  C  C159  1  0.568100  0.291300  0.684600  1.0  -0.2023
  C  C160  1  0.112600  0.603400  0.586500  1.0  0.0812
  C  C161  1  0.988800  0.573100  0.573200  1.0  -0.1951
  C  C162  1  0.883200  0.605800  0.597400  1.0  0.1396
  C  C163  1  0.013800  0.695300  0.646800  1.0  0.1547
  C  C164  1  0.123500  0.666000  0.624600  1.0  -0.2243
  C  C165  1  0.505100  0.735800  0.600900  1.0  0.1431
  C  C166  1  0.402200  0.775300  0.573700  1.0  -0.2453
  C  C167  1  0.401600  0.861400  0.569000  1.0  0.0823
  C  C168  1  0.508900  0.904600  0.589800  1.0  -0.2126
  C  C169  1  0.609200  0.860300  0.615500  1.0  0.1464
  C  C170  1  0.283600  0.905800  0.546200  1.0  -0.0671
  C  C171  1  0.262300  0.906600  0.491400  1.0  0.1357
  C  C172  1  0.344000  0.870500  0.453400  1.0  -0.1811
  C  C173  1  0.285200  0.882000  0.404400  1.0  -0.1817
  C  C174  1  0.166200  0.927300  0.410900  1.0  0.1736
  C  C175  1  0.075600  0.953200  0.370600  1.0  -0.0694
  C  C176  1  0.958700  0.997300  0.377400  1.0  0.0797
  C  C177  1  0.872600  0.030000  0.336000  1.0  -0.1709
  C  C178  1  0.774000  0.068300  0.358800  1.0  -0.1663
  C  C179  1  0.203900  0.938600  0.585100  1.0  0.0574
  C  C180  1  0.099900  0.928600  0.314890  1.0  0.0822
  C  C181  1  0.210600  0.953600  0.290300  1.0  -0.2306
  C  C182  1  0.227900  0.927600  0.239200  1.0  0.1563
  C  C183  1  0.037500  0.855700  0.234500  1.0  0.1391
  C  C184  1  0.012300  0.879400  0.285800  1.0  -0.1926
  C  C185  1  0.989900  0.053400  0.117930  1.0  0.1647
  C  C186  1  0.910500  0.044900  0.162600  1.0  -0.1794
  C  C187  1  0.806300  0.997500  0.147200  1.0  -0.1655
  C  C188  1  0.818300  0.975200  0.092340  1.0  0.1808
  C  C189  1  0.729400  0.928200  0.060150  1.0  -0.0478
  C  C190  1  0.738700  0.906200  0.006870  1.0  0.1756
  C  C191  1  0.650300  0.852300  0.975800  1.0  -0.1823
  C  C192  1  0.695800  0.844100  0.927600  1.0  -0.1806
  C  C193  1  0.813500  0.892500  0.926540  1.0  0.1784
  C  C194  1  0.106300  0.099000  0.116500  1.0  -0.049
  C  C195  1  0.145800  0.145300  0.166240  1.0  0.0489
  C  C196  1  0.259900  0.125500  0.195790  1.0  -0.2438
  C  C197  1  0.285800  0.165400  0.243700  1.0  0.1612
  C  C198  1  0.102300  0.246500  0.232400  1.0  0.1433
  C  C199  1  0.068100  0.208700  0.184600  1.0  -0.2029
  C  C200  1  0.612600  0.896600  0.086500  1.0  0.0813
  C  C201  1  0.488800  0.926900  0.073200  1.0  -0.1955
  C  C202  1  0.383200  0.894200  0.097400  1.0  0.1399
  C  C203  1  0.513800  0.804700  0.146800  1.0  0.1556
  C  C204  1  0.623500  0.834000  0.124600  1.0  -0.2236
  C  C205  1  0.005100  0.764200  0.100900  1.0  0.1435
  C  C206  1  0.902200  0.724700  0.073700  1.0  -0.2458
  C  C207  1  0.901600  0.638600  0.069000  1.0  0.0818
  C  C208  1  0.008900  0.595400  0.089800  1.0  -0.2141
  C  C209  1  0.109200  0.639700  0.115500  1.0  0.1466
  C  C210  1  0.783600  0.594200  0.046200  1.0  -0.0672
  C  C211  1  0.762300  0.593400  0.991400  1.0  0.1356
  C  C212  1  0.844000  0.629500  0.953400  1.0  -0.1811
  C  C213  1  0.785200  0.618000  0.904400  1.0  -0.1816
  C  C214  1  0.666200  0.572700  0.910900  1.0  0.1733
  C  C215  1  0.575600  0.546800  0.870600  1.0  -0.0695
  C  C216  1  0.458700  0.502700  0.877400  1.0  0.0792
  C  C217  1  0.372600  0.470000  0.836000  1.0  -0.1713
  C  C218  1  0.274000  0.431700  0.858800  1.0  -0.166
  C  C219  1  0.703900  0.561400  0.085100  1.0  0.0575
  C  C220  1  0.599900  0.571400  0.814890  1.0  0.0821
  C  C221  1  0.710600  0.546400  0.790300  1.0  -0.2305
  C  C222  1  0.727900  0.572400  0.739200  1.0  0.1564
  C  C223  1  0.537500  0.644300  0.734500  1.0  0.1396
  C  C224  1  0.512300  0.620600  0.785800  1.0  -0.1931
  C  C225  1  0.510100  0.553400  0.382070  1.0  0.1644
  C  C226  1  0.589500  0.544900  0.337400  1.0  -0.1819
  C  C227  1  0.693700  0.497500  0.352800  1.0  -0.1651
  C  C228  1  0.681700  0.475200  0.407660  1.0  0.1798
  C  C229  1  0.770600  0.428200  0.439850  1.0  -0.0476
  C  C230  1  0.761300  0.406200  0.493130  1.0  0.1757
  C  C231  1  0.849700  0.352300  0.524200  1.0  -0.1813
  C  C232  1  0.804200  0.344100  0.572400  1.0  -0.1786
  C  C233  1  0.686500  0.392500  0.573460  1.0  0.1777
  C  C234  1  0.393700  0.599000  0.383500  1.0  -0.0488
  C  C235  1  0.354200  0.645300  0.333760  1.0  0.0508
  C  C236  1  0.240100  0.625500  0.304210  1.0  -0.2436
  C  C237  1  0.214200  0.665400  0.256300  1.0  0.1607
  C  C238  1  0.397700  0.746500  0.267600  1.0  0.1426
  C  C239  1  0.431900  0.708700  0.315400  1.0  -0.2024
  C  C240  1  0.887400  0.396600  0.413500  1.0  0.0817
  C  C241  1  0.011200  0.426900  0.426800  1.0  -0.1963
  C  C242  1  0.116800  0.394200  0.402600  1.0  0.1413
  C  C243  1  0.986200  0.304700  0.353200  1.0  0.1544
  C  C244  1  0.876500  0.334000  0.375400  1.0  -0.224
  C  C245  1  0.494900  0.264200  0.399100  1.0  0.1444
  C  C246  1  0.597800  0.224700  0.426300  1.0  -0.2457
  C  C247  1  0.598400  0.138600  0.431000  1.0  0.0814
  C  C248  1  0.491100  0.095400  0.410200  1.0  -0.2129
  C  C249  1  0.390800  0.139700  0.384500  1.0  0.1465
  C  C250  1  0.716400  0.094200  0.453800  1.0  -0.0669
  C  C251  1  0.737700  0.093400  0.508600  1.0  0.1353
  C  C252  1  0.656000  0.129500  0.546600  1.0  -0.1817
  C  C253  1  0.714800  0.118000  0.595600  1.0  -0.1815
  C  C254  1  0.833800  0.072700  0.589100  1.0  0.1745
  C  C255  1  0.924400  0.046800  0.629400  1.0  -0.0674
  C  C256  1  0.041300  0.002700  0.622600  1.0  0.0809
  C  C257  1  0.127400  0.970000  0.664000  1.0  -0.1707
  C  C258  1  0.226000  0.931700  0.641200  1.0  -0.1658
  C  C259  1  0.796100  0.061400  0.414900  1.0  0.0575
  C  C260  1  0.900100  0.071400  0.685110  1.0  0.0826
  C  C261  1  0.789400  0.046400  0.709700  1.0  -0.2307
  C  C262  1  0.772100  0.072400  0.760800  1.0  0.1566
  C  C263  1  0.962500  0.144300  0.765500  1.0  0.1393
  C  C264  1  0.987700  0.120600  0.714200  1.0  -0.1924
  N  N265  1  0.068800  0.990300  0.923620  1.0  -0.4021
  N  N266  1  0.164900  0.071000  0.024720  1.0  -0.4301
  N  N267  1  0.791100  0.775800  0.737010  1.0  -0.3579
  N  N268  1  0.605800  0.167200  0.866010  1.0  -0.347
  N  N269  1  0.893700  0.277000  0.877430  1.0  -0.3463
  N  N270  1  0.354100  0.378100  0.288680  1.0  -0.3548
  N  N271  1  0.410600  0.481500  0.924770  1.0  -0.3643
  N  N272  1  0.344300  0.441300  0.035920  1.0  -0.3776
  N  N273  1  0.431200  0.490300  0.576380  1.0  -0.4016
  N  N274  1  0.335100  0.571000  0.475280  1.0  -0.4294
  N  N275  1  0.708900  0.275800  0.762990  1.0  -0.3568
  N  N276  1  0.894200  0.667200  0.633990  1.0  -0.3468
  N  N277  1  0.606300  0.777000  0.622570  1.0  -0.3478
  N  N278  1  0.145900  0.878100  0.211320  1.0  -0.3546
  N  N279  1  0.089400  0.981500  0.575230  1.0  -0.3644
  N  N280  1  0.155700  0.941300  0.464080  1.0  -0.3782
  N  N281  1  0.931200  0.009700  0.076380  1.0  -0.4012
  N  N282  1  0.835100  0.929000  0.975280  1.0  -0.4311
  N  N283  1  0.208900  0.224200  0.262990  1.0  -0.3574
  N  N284  1  0.394200  0.832800  0.133990  1.0  -0.3474
  N  N285  1  0.106300  0.723000  0.122570  1.0  -0.3478
  N  N286  1  0.645900  0.621900  0.711320  1.0  -0.3541
  N  N287  1  0.589400  0.518500  0.075230  1.0  -0.3649
  N  N288  1  0.655700  0.558700  0.964080  1.0  -0.3769
  N  N289  1  0.568800  0.509700  0.423620  1.0  -0.4025
  N  N290  1  0.664900  0.429000  0.524720  1.0  -0.4305
  N  N291  1  0.291100  0.724200  0.237010  1.0  -0.3572
  N  N292  1  0.105800  0.332800  0.366010  1.0  -0.3467
  N  N293  1  0.393700  0.223000  0.377430  1.0  -0.346
  N  N294  1  0.854100  0.121900  0.788680  1.0  -0.3557
  N  N295  1  0.910600  0.018500  0.424770  1.0  -0.3636
  N  N296  1  0.844300  0.058700  0.535920  1.0  -0.3771
