# generated using pymatgen
data_CdH18C26(N2Cl)2
_symmetry_space_group_name_H-M   'P 1'
_cell_length_a   26.95170000
_cell_length_b   26.95170000
_cell_length_c   13.23690000
_cell_angle_alpha   90.00000000
_cell_angle_beta   90.00000000
_cell_angle_gamma   120.00000000
_symmetry_Int_Tables_number   1
_chemical_formula_structural   CdH18C26(N2Cl)2
_chemical_formula_sum   'Cd9 H162 C234 N36 Cl18'
_cell_volume   8327.01308960
_cell_formula_units_Z   9
loop_
 _symmetry_equiv_pos_site_id
 _symmetry_equiv_pos_as_xyz
  1  'x, y, z'
loop_
 _atom_site_type_symbol
 _atom_site_label
 _atom_site_symmetry_multiplicity
 _atom_site_fract_x
 _atom_site_fract_y
 _atom_site_fract_z
 _atom_site_occupancy
 _atom_site_charge
  Cd  Cd1  1  0.500000  0.500000  0.000000  1.0  0.722
  Cd  Cd2  1  0.166670  0.833330  0.333333  1.0  0.7373
  Cd  Cd3  1  0.833330  0.166670  0.666667  1.0  0.7373
  Cd  Cd4  1  0.500000  0.000000  0.000000  1.0  0.7284
  Cd  Cd5  1  0.166670  0.333333  0.333333  1.0  0.7374
  Cd  Cd6  1  0.833330  0.666667  0.666667  1.0  0.7372
  Cd  Cd7  1  0.000000  0.500000  0.000000  1.0  0.7221
  Cd  Cd8  1  0.666667  0.833330  0.333333  1.0  0.7374
  Cd  Cd9  1  0.333333  0.166670  0.666667  1.0  0.7373
  H  H10  1  0.465300  0.372100  0.930400  1.0  0.0848
  H  H11  1  0.411500  0.275800  0.969900  1.0  0.1247
  H  H12  1  0.387000  0.320500  0.248300  1.0  0.1202
  H  H13  1  0.443100  0.415700  0.201900  1.0  0.0764
  H  H14  1  0.131970  0.705430  0.263730  1.0  0.0848
  H  H15  1  0.078170  0.609130  0.303230  1.0  0.1248
  H  H16  1  0.053670  0.653830  0.581630  1.0  0.1202
  H  H17  1  0.109770  0.749030  0.535230  1.0  0.0764
  H  H18  1  0.798630  0.038770  0.597070  1.0  0.0843
  H  H19  1  0.744830  0.942470  0.636570  1.0  0.1248
  H  H20  1  0.720330  0.987170  0.914970  1.0  0.1202
  H  H21  1  0.776430  0.082370  0.868570  1.0  0.0764
  H  H22  1  0.627900  0.093200  0.930400  1.0  0.0845
  H  H23  1  0.724200  0.135700  0.969900  1.0  0.1248
  H  H24  1  0.679500  0.066500  0.248300  1.0  0.1208
  H  H25  1  0.584300  0.027400  0.201900  1.0  0.0772
  H  H26  1  0.294570  0.426530  0.263730  1.0  0.0845
  H  H27  1  0.390870  0.469030  0.303230  1.0  0.1248
  H  H28  1  0.346170  0.399830  0.581630  1.0  0.1208
  H  H29  1  0.250970  0.360730  0.535230  1.0  0.0772
  H  H30  1  0.961230  0.759870  0.597070  1.0  0.0859
  H  H31  1  0.057530  0.802370  0.636570  1.0  0.1248
  H  H32  1  0.012830  0.733170  0.914970  1.0  0.1208
  H  H33  1  0.917630  0.694070  0.868570  1.0  0.0772
  H  H34  1  0.906800  0.534700  0.930400  1.0  0.0832
  H  H35  1  0.864300  0.588500  0.969900  1.0  0.1243
  H  H36  1  0.933500  0.613000  0.248300  1.0  0.1195
  H  H37  1  0.972600  0.556900  0.201900  1.0  0.0785
  H  H38  1  0.573470  0.868030  0.263730  1.0  0.0832
  H  H39  1  0.530970  0.921830  0.303230  1.0  0.1243
  H  H40  1  0.600170  0.946330  0.581630  1.0  0.1194
  H  H41  1  0.639270  0.890230  0.535230  1.0  0.0785
  H  H42  1  0.240130  0.201370  0.597070  1.0  0.0831
  H  H43  1  0.197630  0.255170  0.636570  1.0  0.1243
  H  H44  1  0.266830  0.279670  0.914970  1.0  0.1194
  H  H45  1  0.305930  0.223570  0.868570  1.0  0.0785
  H  H46  1  0.372100  0.465300  0.069600  1.0  0.0822
  H  H47  1  0.275800  0.411500  0.030100  1.0  0.1244
  H  H48  1  0.320500  0.387000  0.751700  1.0  0.119
  H  H49  1  0.415700  0.443100  0.798100  1.0  0.0781
  H  H50  1  0.038770  0.798630  0.402930  1.0  0.082
  H  H51  1  0.942470  0.744830  0.363430  1.0  0.1244
  H  H52  1  0.987170  0.720330  0.085030  1.0  0.119
  H  H53  1  0.082370  0.776430  0.131430  1.0  0.0781
  H  H54  1  0.705430  0.131970  0.736270  1.0  0.0822
  H  H55  1  0.609130  0.078170  0.696770  1.0  0.1244
  H  H56  1  0.653830  0.053670  0.418370  1.0  0.119
  H  H57  1  0.749030  0.109770  0.464770  1.0  0.0781
  H  H58  1  0.093200  0.627900  0.069600  1.0  0.0817
  H  H59  1  0.135700  0.724200  0.030100  1.0  0.1244
  H  H60  1  0.066500  0.679500  0.751700  1.0  0.1198
  H  H61  1  0.027400  0.584300  0.798100  1.0  0.0765
  H  H62  1  0.759870  0.961230  0.402930  1.0  0.0833
  H  H63  1  0.802370  0.057530  0.363430  1.0  0.1245
  H  H64  1  0.733170  0.012830  0.085030  1.0  0.1198
  H  H65  1  0.694070  0.917630  0.131430  1.0  0.0765
  H  H66  1  0.426530  0.294570  0.736270  1.0  0.0817
  H  H67  1  0.469030  0.390870  0.696770  1.0  0.1245
  H  H68  1  0.399830  0.346170  0.418370  1.0  0.1198
  H  H69  1  0.360730  0.250970  0.464770  1.0  0.0765
  H  H70  1  0.534700  0.906800  0.069600  1.0  0.0811
  H  H71  1  0.588500  0.864300  0.030100  1.0  0.1252
  H  H72  1  0.613000  0.933500  0.751700  1.0  0.1202
  H  H73  1  0.556900  0.972600  0.798100  1.0  0.0772
  H  H74  1  0.201370  0.240130  0.402930  1.0  0.0807
  H  H75  1  0.255170  0.197630  0.363430  1.0  0.1252
  H  H76  1  0.279670  0.266830  0.085030  1.0  0.1202
  H  H77  1  0.223570  0.305930  0.131430  1.0  0.0772
  H  H78  1  0.868030  0.573470  0.736270  1.0  0.0811
  H  H79  1  0.921830  0.530970  0.696770  1.0  0.1252
  H  H80  1  0.946330  0.600170  0.418370  1.0  0.1202
  H  H81  1  0.890230  0.639270  0.464770  1.0  0.0771
  H  H82  1  0.534700  0.627900  0.069600  1.0  0.0834
  H  H83  1  0.588500  0.724200  0.030100  1.0  0.1248
  H  H84  1  0.613000  0.679500  0.751700  1.0  0.1195
  H  H85  1  0.556900  0.584300  0.798100  1.0  0.0763
  H  H86  1  0.201370  0.961230  0.402930  1.0  0.0833
  H  H87  1  0.255170  0.057530  0.363430  1.0  0.1249
  H  H88  1  0.279670  0.012830  0.085030  1.0  0.1194
  H  H89  1  0.223570  0.917630  0.131430  1.0  0.0763
  H  H90  1  0.868030  0.294570  0.736270  1.0  0.0834
  H  H91  1  0.921830  0.390870  0.696770  1.0  0.1249
  H  H92  1  0.946330  0.346170  0.418370  1.0  0.1195
  H  H93  1  0.890230  0.250970  0.464770  1.0  0.0762
  H  H94  1  0.372100  0.906800  0.069600  1.0  0.0835
  H  H95  1  0.275800  0.864300  0.030100  1.0  0.1251
  H  H96  1  0.320500  0.933500  0.751700  1.0  0.1201
  H  H97  1  0.415700  0.972600  0.798100  1.0  0.0772
  H  H98  1  0.038770  0.240130  0.402930  1.0  0.0852
  H  H99  1  0.942470  0.197630  0.363430  1.0  0.1251
  H  H100  1  0.987170  0.266830  0.085030  1.0  0.1201
  H  H101  1  0.082370  0.305930  0.131430  1.0  0.0773
  H  H102  1  0.705430  0.573470  0.736270  1.0  0.0835
  H  H103  1  0.609130  0.530970  0.696770  1.0  0.1251
  H  H104  1  0.653830  0.600170  0.418370  1.0  0.1201
  H  H105  1  0.749030  0.639270  0.464770  1.0  0.0773
  H  H106  1  0.093200  0.465300  0.069600  1.0  0.0814
  H  H107  1  0.135700  0.411500  0.030100  1.0  0.1242
  H  H108  1  0.066500  0.387000  0.751700  1.0  0.1193
  H  H109  1  0.027400  0.443100  0.798100  1.0  0.0786
  H  H110  1  0.759870  0.798630  0.402930  1.0  0.0815
  H  H111  1  0.802370  0.744830  0.363430  1.0  0.1242
  H  H112  1  0.733170  0.720330  0.085030  1.0  0.1193
  H  H113  1  0.694070  0.776430  0.131430  1.0  0.0786
  H  H114  1  0.426530  0.131970  0.736270  1.0  0.0814
  H  H115  1  0.469030  0.078170  0.696770  1.0  0.1242
  H  H116  1  0.399830  0.053670  0.418370  1.0  0.1193
  H  H117  1  0.360730  0.109770  0.464770  1.0  0.0785
  H  H118  1  0.627900  0.534700  0.930400  1.0  0.0837
  H  H119  1  0.724200  0.588500  0.969900  1.0  0.1242
  H  H120  1  0.679500  0.613000  0.248300  1.0  0.1196
  H  H121  1  0.584300  0.556900  0.201900  1.0  0.0785
  H  H122  1  0.294570  0.868030  0.263730  1.0  0.0836
  H  H123  1  0.390870  0.921830  0.303230  1.0  0.1243
  H  H124  1  0.346170  0.946330  0.581630  1.0  0.1196
  H  H125  1  0.250970  0.890230  0.535230  1.0  0.0784
  H  H126  1  0.961230  0.201370  0.597070  1.0  0.0831
  H  H127  1  0.057530  0.255170  0.636570  1.0  0.1243
  H  H128  1  0.012830  0.279670  0.914970  1.0  0.1196
  H  H129  1  0.917630  0.223570  0.868570  1.0  0.0784
  H  H130  1  0.906800  0.372100  0.930400  1.0  0.0827
  H  H131  1  0.864300  0.275800  0.969900  1.0  0.1245
  H  H132  1  0.933500  0.320500  0.248300  1.0  0.1203
  H  H133  1  0.972600  0.415700  0.201900  1.0  0.0764
  H  H134  1  0.573470  0.705430  0.263730  1.0  0.0826
  H  H135  1  0.530970  0.609130  0.303230  1.0  0.1245
  H  H136  1  0.600170  0.653830  0.581630  1.0  0.1203
  H  H137  1  0.639270  0.749030  0.535230  1.0  0.0764
  H  H138  1  0.240130  0.038770  0.597070  1.0  0.0845
  H  H139  1  0.197630  0.942470  0.636570  1.0  0.1245
  H  H140  1  0.266830  0.987170  0.914970  1.0  0.1203
  H  H141  1  0.305930  0.082370  0.868570  1.0  0.0764
  H  H142  1  0.465300  0.093200  0.930400  1.0  0.0824
  H  H143  1  0.411500  0.135700  0.969900  1.0  0.1251
  H  H144  1  0.387000  0.066500  0.248300  1.0  0.1207
  H  H145  1  0.443100  0.027400  0.201900  1.0  0.0771
  H  H146  1  0.131970  0.426530  0.263730  1.0  0.0824
  H  H147  1  0.078170  0.469030  0.303230  1.0  0.1251
  H  H148  1  0.053670  0.399830  0.581630  1.0  0.1207
  H  H149  1  0.109770  0.360730  0.535230  1.0  0.0771
  H  H150  1  0.798630  0.759870  0.597070  1.0  0.0821
  H  H151  1  0.744830  0.802370  0.636570  1.0  0.1251
  H  H152  1  0.720330  0.733170  0.914970  1.0  0.1207
  H  H153  1  0.776430  0.694070  0.868570  1.0  0.0771
  H  H154  1  0.419400  0.209700  0.079500  1.0  0.1127
  H  H155  1  0.086070  0.543030  0.412830  1.0  0.1127
  H  H156  1  0.752730  0.876370  0.746170  1.0  0.1127
  H  H157  1  0.790300  0.209700  0.079500  1.0  0.1133
  H  H158  1  0.456970  0.543030  0.412830  1.0  0.1133
  H  H159  1  0.123630  0.876370  0.746170  1.0  0.1133
  H  H160  1  0.790300  0.580600  0.079500  1.0  0.1123
  H  H161  1  0.456970  0.913930  0.412830  1.0  0.1123
  H  H162  1  0.123630  0.247270  0.746170  1.0  0.1123
  H  H163  1  0.209700  0.419400  0.920500  1.0  0.1124
  H  H164  1  0.876370  0.752730  0.253830  1.0  0.1124
  H  H165  1  0.543030  0.086070  0.587170  1.0  0.1124
  H  H166  1  0.209700  0.790300  0.920500  1.0  0.113
  H  H167  1  0.876370  0.123630  0.253830  1.0  0.113
  H  H168  1  0.543030  0.456970  0.587170  1.0  0.113
  H  H169  1  0.580600  0.790300  0.920500  1.0  0.1128
  H  H170  1  0.247270  0.123630  0.253830  1.0  0.1128
  H  H171  1  0.913930  0.456970  0.587170  1.0  0.1129
  C  C172  1  0.449100  0.361430  0.996200  1.0  0.1766
  C  C173  1  0.416800  0.303730  0.018900  1.0  -0.2381
  C  C174  1  0.392160  0.286940  0.113600  1.0  0.0851
  C  C175  1  0.402700  0.329900  0.182100  1.0  -0.1511
  C  C176  1  0.436100  0.386800  0.153600  1.0  0.1669
  C  C177  1  0.359070  0.224840  0.140500  1.0  0.0004
  C  C178  1  0.115770  0.694760  0.329530  1.0  0.1766
  C  C179  1  0.083470  0.637060  0.352230  1.0  -0.2381
  C  C180  1  0.058830  0.620270  0.446930  1.0  0.0852
  C  C181  1  0.069370  0.663230  0.515430  1.0  -0.1509
  C  C182  1  0.102770  0.720130  0.486930  1.0  0.1666
  C  C183  1  0.025740  0.558170  0.473830  1.0  -0.0012
  C  C184  1  0.782430  0.028100  0.662870  1.0  0.1766
  C  C185  1  0.750130  0.970400  0.685570  1.0  -0.2381
  C  C186  1  0.725490  0.953610  0.780270  1.0  0.0852
  C  C187  1  0.736030  0.996570  0.848770  1.0  -0.1513
  C  C188  1  0.769430  0.053470  0.820270  1.0  0.1669
  C  C189  1  0.692400  0.891510  0.807170  1.0  0.0004
  C  C190  1  0.638570  0.087670  0.996200  1.0  0.1761
  C  C191  1  0.696270  0.113070  0.018900  1.0  -0.2393
  C  C192  1  0.713060  0.105220  0.113600  1.0  0.0836
  C  C193  1  0.670100  0.072800  0.182100  1.0  -0.1532
  C  C194  1  0.613200  0.049300  0.153600  1.0  0.1642
  C  C195  1  0.775160  0.134230  0.140500  1.0  0.001
  C  C196  1  0.305240  0.421000  0.329530  1.0  0.1761
  C  C197  1  0.362940  0.446400  0.352230  1.0  -0.2393
  C  C198  1  0.379730  0.438550  0.446930  1.0  0.0836
  C  C199  1  0.336770  0.406130  0.515430  1.0  -0.1533
  C  C200  1  0.279870  0.382630  0.486930  1.0  0.1645
  C  C201  1  0.441830  0.467560  0.473830  1.0  0.0011
  C  C202  1  0.971900  0.754340  0.662870  1.0  0.1761
  C  C203  1  0.029600  0.779740  0.685570  1.0  -0.2392
  C  C204  1  0.046390  0.771890  0.780270  1.0  0.0836
  C  C205  1  0.003430  0.739470  0.848770  1.0  -0.1532
  C  C206  1  0.946530  0.715970  0.820270  1.0  0.1642
  C  C207  1  0.108490  0.800900  0.807170  1.0  0.001
  C  C208  1  0.912330  0.550900  0.996200  1.0  0.1744
  C  C209  1  0.886930  0.583200  0.018900  1.0  -0.2389
  C  C210  1  0.894780  0.607840  0.113600  1.0  0.0842
  C  C211  1  0.927200  0.597300  0.182100  1.0  -0.1527
  C  C212  1  0.950700  0.563900  0.153600  1.0  0.1652
  C  C213  1  0.865770  0.640930  0.140500  1.0  -0.0016
  C  C214  1  0.579000  0.884230  0.329530  1.0  0.1744
  C  C215  1  0.553600  0.916530  0.352230  1.0  -0.2389
  C  C216  1  0.561450  0.941170  0.446930  1.0  0.0841
  C  C217  1  0.593870  0.930630  0.515430  1.0  -0.1529
  C  C218  1  0.617370  0.897230  0.486930  1.0  0.165
  C  C219  1  0.532440  0.974260  0.473830  1.0  -0.0005
  C  C220  1  0.245660  0.217570  0.662870  1.0  0.1744
  C  C221  1  0.220260  0.249870  0.685570  1.0  -0.2389
  C  C222  1  0.228110  0.274510  0.780270  1.0  0.0842
  C  C223  1  0.260530  0.263970  0.848770  1.0  -0.1527
  C  C224  1  0.284030  0.230570  0.820270  1.0  0.1653
  C  C225  1  0.199100  0.307600  0.807170  1.0  -0.0016
  C  C226  1  0.361430  0.449100  0.003800  1.0  0.1731
  C  C227  1  0.303730  0.416800  0.981100  1.0  -0.2411
  C  C228  1  0.286940  0.392160  0.886400  1.0  0.0846
  C  C229  1  0.329900  0.402700  0.817900  1.0  -0.1515
  C  C230  1  0.386800  0.436100  0.846400  1.0  0.1648
  C  C231  1  0.224840  0.359070  0.859500  1.0  -0.0005
  C  C232  1  0.028100  0.782430  0.337130  1.0  0.1731
  C  C233  1  0.970400  0.750130  0.314430  1.0  -0.2411
  C  C234  1  0.953610  0.725490  0.219730  1.0  0.0847
  C  C235  1  0.996570  0.736030  0.151230  1.0  -0.1516
  C  C236  1  0.053470  0.769430  0.179730  1.0  0.1648
  C  C237  1  0.891510  0.692400  0.192830  1.0  -0.0005
  C  C238  1  0.694760  0.115770  0.670470  1.0  0.1731
  C  C239  1  0.637060  0.083470  0.647770  1.0  -0.2412
  C  C240  1  0.620270  0.058830  0.553070  1.0  0.0846
  C  C241  1  0.663230  0.069370  0.484570  1.0  -0.1513
  C  C242  1  0.720130  0.102770  0.513070  1.0  0.1645
  C  C243  1  0.558170  0.025740  0.526170  1.0  -0.0025
  C  C244  1  0.087670  0.638570  0.003800  1.0  0.1774
  C  C245  1  0.113070  0.696270  0.981100  1.0  -0.2383
  C  C246  1  0.105220  0.713060  0.886400  1.0  0.086
  C  C247  1  0.072800  0.670100  0.817900  1.0  -0.1493
  C  C248  1  0.049300  0.613200  0.846400  1.0  0.1662
  C  C249  1  0.134230  0.775160  0.859500  1.0  0.0003
  C  C250  1  0.754340  0.971900  0.337130  1.0  0.1774
  C  C251  1  0.779740  0.029600  0.314430  1.0  -0.2383
  C  C252  1  0.771890  0.046390  0.219730  1.0  0.086
  C  C253  1  0.739470  0.003430  0.151230  1.0  -0.1493
  C  C254  1  0.715970  0.946530  0.179730  1.0  0.1662
  C  C255  1  0.800900  0.108490  0.192830  1.0  0.0004
  C  C256  1  0.421000  0.305240  0.670470  1.0  0.1774
  C  C257  1  0.446400  0.362940  0.647770  1.0  -0.2383
  C  C258  1  0.438550  0.379730  0.553070  1.0  0.086
  C  C259  1  0.406130  0.336770  0.484570  1.0  -0.1494
  C  C260  1  0.382630  0.279870  0.513070  1.0  0.1665
  C  C261  1  0.467560  0.441830  0.526170  1.0  -1e-04
  C  C262  1  0.550900  0.912330  0.003800  1.0  0.1778
  C  C263  1  0.583200  0.886930  0.981100  1.0  -0.239
  C  C264  1  0.607840  0.894780  0.886400  1.0  0.0842
  C  C265  1  0.597300  0.927200  0.817900  1.0  -0.1515
  C  C266  1  0.563900  0.950700  0.846400  1.0  0.1646
  C  C267  1  0.640930  0.865770  0.859500  1.0  -0.0
  C  C268  1  0.217570  0.245660  0.337130  1.0  0.1778
  C  C269  1  0.249870  0.220260  0.314430  1.0  -0.239
  C  C270  1  0.274510  0.228110  0.219730  1.0  0.0842
  C  C271  1  0.263970  0.260530  0.151230  1.0  -0.1515
  C  C272  1  0.230570  0.284030  0.179730  1.0  0.1647
  C  C273  1  0.307600  0.199100  0.192830  1.0  -0.0
  C  C274  1  0.884230  0.579000  0.670470  1.0  0.1779
  C  C275  1  0.916530  0.553600  0.647770  1.0  -0.239
  C  C276  1  0.941170  0.561450  0.553070  1.0  0.0841
  C  C277  1  0.930630  0.593870  0.484570  1.0  -0.1517
  C  C278  1  0.897230  0.617370  0.513070  1.0  0.1645
  C  C279  1  0.974260  0.532440  0.526170  1.0  0.0011
  C  C280  1  0.550900  0.638570  0.003800  1.0  0.1768
  C  C281  1  0.583200  0.696270  0.981100  1.0  -0.2404
  C  C282  1  0.607840  0.713060  0.886400  1.0  0.086
  C  C283  1  0.597300  0.670100  0.817900  1.0  -0.1484
  C  C284  1  0.563900  0.613200  0.846400  1.0  0.1646
  C  C285  1  0.640930  0.775160  0.859500  1.0  -0.0006
  C  C286  1  0.217570  0.971900  0.337130  1.0  0.1768
  C  C287  1  0.249870  0.029600  0.314430  1.0  -0.2404
  C  C288  1  0.274510  0.046390  0.219730  1.0  0.0861
  C  C289  1  0.263970  0.003430  0.151230  1.0  -0.1486
  C  C290  1  0.230570  0.946530  0.179730  1.0  0.1646
  C  C291  1  0.307600  0.108490  0.192830  1.0  -0.0006
  C  C292  1  0.884230  0.305240  0.670470  1.0  0.1768
  C  C293  1  0.916530  0.362940  0.647770  1.0  -0.2404
  C  C294  1  0.941170  0.379730  0.553070  1.0  0.0861
  C  C295  1  0.930630  0.336770  0.484570  1.0  -0.1483
  C  C296  1  0.897230  0.279870  0.513070  1.0  0.1643
  C  C297  1  0.974260  0.441830  0.526170  1.0  -0.0023
  C  C298  1  0.361430  0.912330  0.003800  1.0  0.1777
  C  C299  1  0.303730  0.886930  0.981100  1.0  -0.2376
  C  C300  1  0.286940  0.894780  0.886400  1.0  0.0855
  C  C301  1  0.329900  0.927200  0.817900  1.0  -0.1526
  C  C302  1  0.386800  0.950700  0.846400  1.0  0.1662
  C  C303  1  0.224840  0.865770  0.859500  1.0  0.0009
  C  C304  1  0.028100  0.245660  0.337130  1.0  0.1777
  C  C305  1  0.970400  0.220260  0.314430  1.0  -0.2376
  C  C306  1  0.953610  0.228110  0.219730  1.0  0.0855
  C  C307  1  0.996570  0.260530  0.151230  1.0  -0.1525
  C  C308  1  0.053470  0.284030  0.179730  1.0  0.1662
  C  C309  1  0.891510  0.199100  0.192830  1.0  0.0009
  C  C310  1  0.694760  0.579000  0.670470  1.0  0.1777
  C  C311  1  0.637060  0.553600  0.647770  1.0  -0.2376
  C  C312  1  0.620270  0.561450  0.553070  1.0  0.0855
  C  C313  1  0.663230  0.593870  0.484570  1.0  -0.1527
  C  C314  1  0.720130  0.617370  0.513070  1.0  0.1664
  C  C315  1  0.558170  0.532440  0.526170  1.0  0.0005
  C  C316  1  0.087670  0.449100  0.003800  1.0  0.1734
  C  C317  1  0.113070  0.416800  0.981100  1.0  -0.2396
  C  C318  1  0.105220  0.392160  0.886400  1.0  0.0857
  C  C319  1  0.072800  0.402700  0.817900  1.0  -0.1515
  C  C320  1  0.049300  0.436100  0.846400  1.0  0.1649
  C  C321  1  0.134230  0.359070  0.859500  1.0  0.0009
  C  C322  1  0.754340  0.782430  0.337130  1.0  0.1734
  C  C323  1  0.779740  0.750130  0.314430  1.0  -0.2396
  C  C324  1  0.771890  0.725490  0.219730  1.0  0.0858
  C  C325  1  0.739470  0.736030  0.151230  1.0  -0.1515
  C  C326  1  0.715970  0.769430  0.179730  1.0  0.1649
  C  C327  1  0.800900  0.692400  0.192830  1.0  0.0009
  C  C328  1  0.421000  0.115770  0.670470  1.0  0.1734
  C  C329  1  0.446400  0.083470  0.647770  1.0  -0.2396
  C  C330  1  0.438550  0.058830  0.553070  1.0  0.0857
  C  C331  1  0.406130  0.069370  0.484570  1.0  -0.1516
  C  C332  1  0.382630  0.102770  0.513070  1.0  0.1646
  C  C333  1  0.467560  0.025740  0.526170  1.0  0.0021
  C  C334  1  0.638570  0.550900  0.996200  1.0  0.1741
  C  C335  1  0.696270  0.583200  0.018900  1.0  -0.2376
  C  C336  1  0.713060  0.607840  0.113600  1.0  0.0855
  C  C337  1  0.670100  0.597300  0.182100  1.0  -0.1528
  C  C338  1  0.613200  0.563900  0.153600  1.0  0.1655
  C  C339  1  0.775160  0.640930  0.140500  1.0  0.0002
  C  C340  1  0.305240  0.884230  0.329530  1.0  0.1741
  C  C341  1  0.362940  0.916530  0.352230  1.0  -0.2376
  C  C342  1  0.379730  0.941170  0.446930  1.0  0.0856
  C  C343  1  0.336770  0.930630  0.515430  1.0  -0.1526
  C  C344  1  0.279870  0.897230  0.486930  1.0  0.1652
  C  C345  1  0.441830  0.974260  0.473830  1.0  -0.0014
  C  C346  1  0.971900  0.217570  0.662870  1.0  0.1741
  C  C347  1  0.029600  0.249870  0.685570  1.0  -0.2376
  C  C348  1  0.046390  0.274510  0.780270  1.0  0.0857
  C  C349  1  0.003430  0.263970  0.848770  1.0  -0.153
  C  C350  1  0.946530  0.230570  0.820270  1.0  0.1655
  C  C351  1  0.108490  0.307600  0.807170  1.0  0.0002
  C  C352  1  0.912330  0.361430  0.996200  1.0  0.1761
  C  C353  1  0.886930  0.303730  0.018900  1.0  -0.2402
  C  C354  1  0.894780  0.286940  0.113600  1.0  0.0854
  C  C355  1  0.927200  0.329900  0.182100  1.0  -0.1504
  C  C356  1  0.950700  0.386800  0.153600  1.0  0.1654
  C  C357  1  0.865770  0.224840  0.140500  1.0  1e-04
  C  C358  1  0.579000  0.694760  0.329530  1.0  0.1761
  C  C359  1  0.553600  0.637060  0.352230  1.0  -0.2402
  C  C360  1  0.561450  0.620270  0.446930  1.0  0.0853
  C  C361  1  0.593870  0.663230  0.515430  1.0  -0.1505
  C  C362  1  0.617370  0.720130  0.486930  1.0  0.1656
  C  C363  1  0.532440  0.558170  0.473830  1.0  -0.0003
  C  C364  1  0.245660  0.028100  0.662870  1.0  0.1761
  C  C365  1  0.220260  0.970400  0.685570  1.0  -0.2402
  C  C366  1  0.228110  0.953610  0.780270  1.0  0.0853
  C  C367  1  0.260530  0.996570  0.848770  1.0  -0.1503
  C  C368  1  0.284030  0.053470  0.820270  1.0  0.1654
  C  C369  1  0.199100  0.891510  0.807170  1.0  1e-04
  C  C370  1  0.449100  0.087670  0.996200  1.0  0.1758
  C  C371  1  0.416800  0.113070  0.018900  1.0  -0.238
  C  C372  1  0.392160  0.105220  0.113600  1.0  0.085
  C  C373  1  0.402700  0.072800  0.182100  1.0  -0.1538
  C  C374  1  0.436100  0.049300  0.153600  1.0  0.1659
  C  C375  1  0.359070  0.134230  0.140500  1.0  0.0008
  C  C376  1  0.115770  0.421000  0.329530  1.0  0.1757
  C  C377  1  0.083470  0.446400  0.352230  1.0  -0.238
  C  C378  1  0.058830  0.438550  0.446930  1.0  0.0849
  C  C379  1  0.069370  0.406130  0.515430  1.0  -0.154
  C  C380  1  0.102770  0.382630  0.486930  1.0  0.1658
  C  C381  1  0.025740  0.467560  0.473830  1.0  0.002
  C  C382  1  0.782430  0.754340  0.662870  1.0  0.1758
  C  C383  1  0.750130  0.779740  0.685570  1.0  -0.238
  C  C384  1  0.725490  0.771890  0.780270  1.0  0.085
  C  C385  1  0.736030  0.739470  0.848770  1.0  -0.1538
  C  C386  1  0.769430  0.715970  0.820270  1.0  0.166
  C  C387  1  0.692400  0.800900  0.807170  1.0  0.0008
  C  C388  1  0.384020  0.192010  0.115200  1.0  -0.1132
  C  C389  1  0.050690  0.525340  0.448530  1.0  -0.1128
  C  C390  1  0.717350  0.858680  0.781870  1.0  -0.1132
  C  C391  1  0.807990  0.192010  0.115200  1.0  -0.1131
  C  C392  1  0.474660  0.525340  0.448530  1.0  -0.1139
  C  C393  1  0.141320  0.858680  0.781870  1.0  -0.1131
  C  C394  1  0.807990  0.615980  0.115200  1.0  -0.1115
  C  C395  1  0.474660  0.949310  0.448530  1.0  -0.1112
  C  C396  1  0.141320  0.282650  0.781870  1.0  -0.1115
  C  C397  1  0.192010  0.384020  0.884800  1.0  -0.1115
  C  C398  1  0.858680  0.717350  0.218130  1.0  -0.1115
  C  C399  1  0.525340  0.050690  0.551470  1.0  -0.1113
  C  C400  1  0.192010  0.807990  0.884800  1.0  -0.1121
  C  C401  1  0.858680  0.141320  0.218130  1.0  -0.1121
  C  C402  1  0.525340  0.474660  0.551470  1.0  -0.113
  C  C403  1  0.615980  0.807990  0.884800  1.0  -0.1128
  C  C404  1  0.282650  0.141320  0.218130  1.0  -0.1128
  C  C405  1  0.949310  0.474660  0.551470  1.0  -0.1126
  N  N406  1  0.458920  0.402900  0.061900  1.0  -0.3459
  N  N407  1  0.125590  0.736230  0.395230  1.0  -0.3459
  N  N408  1  0.792250  0.069570  0.728570  1.0  -0.3459
  N  N409  1  0.597100  0.056020  0.061900  1.0  -0.3475
  N  N410  1  0.263770  0.389350  0.395230  1.0  -0.3475
  N  N411  1  0.930430  0.722690  0.728570  1.0  -0.3475
  N  N412  1  0.943980  0.541080  0.061900  1.0  -0.3452
  N  N413  1  0.610650  0.874410  0.395230  1.0  -0.3452
  N  N414  1  0.277310  0.207750  0.728570  1.0  -0.3452
  N  N415  1  0.402900  0.458920  0.938100  1.0  -0.3469
  N  N416  1  0.069570  0.792250  0.271430  1.0  -0.3469
  N  N417  1  0.736230  0.125590  0.604770  1.0  -0.3469
  N  N418  1  0.056020  0.597100  0.938100  1.0  -0.3464
  N  N419  1  0.722690  0.930430  0.271430  1.0  -0.3464
  N  N420  1  0.389350  0.263770  0.604770  1.0  -0.3464
  N  N421  1  0.541080  0.943980  0.938100  1.0  -0.3474
  N  N422  1  0.207750  0.277310  0.271430  1.0  -0.3474
  N  N423  1  0.874410  0.610650  0.604770  1.0  -0.3474
  N  N424  1  0.541080  0.597100  0.938100  1.0  -0.3452
  N  N425  1  0.207750  0.930430  0.271430  1.0  -0.3452
  N  N426  1  0.874410  0.263770  0.604770  1.0  -0.3452
  N  N427  1  0.402900  0.943980  0.938100  1.0  -0.3493
  N  N428  1  0.069570  0.277310  0.271430  1.0  -0.3493
  N  N429  1  0.736230  0.610650  0.604770  1.0  -0.3493
  N  N430  1  0.056020  0.458920  0.938100  1.0  -0.3448
  N  N431  1  0.722690  0.792250  0.271430  1.0  -0.3448
  N  N432  1  0.389350  0.125590  0.604770  1.0  -0.3448
  N  N433  1  0.597100  0.541080  0.061900  1.0  -0.345
  N  N434  1  0.263770  0.874410  0.395230  1.0  -0.345
  N  N435  1  0.930430  0.207750  0.728570  1.0  -0.345
  N  N436  1  0.943980  0.402900  0.061900  1.0  -0.3465
  N  N437  1  0.610650  0.736230  0.395230  1.0  -0.3465
  N  N438  1  0.277310  0.069570  0.728570  1.0  -0.3465
  N  N439  1  0.458920  0.056020  0.061900  1.0  -0.3481
  N  N440  1  0.125590  0.389350  0.395230  1.0  -0.3481
  N  N441  1  0.792250  0.722690  0.728570  1.0  -0.3481
  Cl  Cl442  1  0.471750  0.528250  0.165890  1.0  -0.5472
  Cl  Cl443  1  0.138410  0.861590  0.499220  1.0  -0.5472
  Cl  Cl444  1  0.805080  0.194920  0.832560  1.0  -0.5472
  Cl  Cl445  1  0.471750  0.943490  0.165890  1.0  -0.5577
  Cl  Cl446  1  0.138410  0.276820  0.499220  1.0  -0.5577
  Cl  Cl447  1  0.805080  0.610160  0.832560  1.0  -0.5577
  Cl  Cl448  1  0.056510  0.528250  0.165890  1.0  -0.5589
  Cl  Cl449  1  0.723180  0.861590  0.499220  1.0  -0.5588
  Cl  Cl450  1  0.389840  0.194920  0.832560  1.0  -0.5589
  Cl  Cl451  1  0.528260  0.471750  0.834110  1.0  -0.5478
  Cl  Cl452  1  0.194920  0.805080  0.167440  1.0  -0.5478
  Cl  Cl453  1  0.861590  0.138410  0.500780  1.0  -0.5478
  Cl  Cl454  1  0.943490  0.471740  0.834110  1.0  -0.5595
  Cl  Cl455  1  0.610160  0.805080  0.167440  1.0  -0.5595
  Cl  Cl456  1  0.276820  0.138410  0.500780  1.0  -0.5595
  Cl  Cl457  1  0.528250  0.056510  0.834110  1.0  -0.558
  Cl  Cl458  1  0.194920  0.389840  0.167440  1.0  -0.558
  Cl  Cl459  1  0.861590  0.723180  0.500780  1.0  -0.558
