# generated using pymatgen
data_Cu7H44C36(N6O11)2
_symmetry_space_group_name_H-M   'P 1'
_cell_length_a   11.03890000
_cell_length_b   22.78400000
_cell_length_c   31.28000000
_cell_angle_alpha   90.00000000
_cell_angle_beta   90.00000000
_cell_angle_gamma   90.00000000
_symmetry_Int_Tables_number   1
_chemical_formula_structural   Cu7H44C36(N6O11)2
_chemical_formula_sum   'Cu28 H176 C144 N48 O88'
_cell_volume   7867.24210893
_cell_formula_units_Z   4
loop_
 _symmetry_equiv_pos_site_id
 _symmetry_equiv_pos_as_xyz
  1  'x, y, z'
loop_
 _atom_site_type_symbol
 _atom_site_label
 _atom_site_symmetry_multiplicity
 _atom_site_fract_x
 _atom_site_fract_y
 _atom_site_fract_z
 _atom_site_occupancy
 _atom_site_charge
  Cu  Cu1  1  0.000000  0.927660  0.000000  1.0  0.8575
  Cu  Cu2  1  0.000000  0.427660  0.500000  1.0  0.8575
  Cu  Cu3  1  0.500000  0.927660  0.500000  1.0  0.8575
  Cu  Cu4  1  0.500000  0.427660  0.000000  1.0  0.8575
  Cu  Cu5  1  0.000000  0.072340  0.000000  1.0  0.8583
  Cu  Cu6  1  0.000000  0.572340  0.500000  1.0  0.8583
  Cu  Cu7  1  0.500000  0.072340  0.500000  1.0  0.8583
  Cu  Cu8  1  0.500000  0.572340  0.000000  1.0  0.8583
  Cu  Cu9  1  0.000000  0.000000  0.903090  1.0  0.7899
  Cu  Cu10  1  0.000000  0.000000  0.810170  1.0  0.3423
  Cu  Cu11  1  0.000000  0.500000  0.403090  1.0  0.7899
  Cu  Cu12  1  0.000000  0.500000  0.310170  1.0  0.3423
  Cu  Cu13  1  0.500000  0.000000  0.403090  1.0  0.7899
  Cu  Cu14  1  0.500000  0.000000  0.310170  1.0  0.3423
  Cu  Cu15  1  0.500000  0.500000  0.903090  1.0  0.7899
  Cu  Cu16  1  0.500000  0.500000  0.810170  1.0  0.3423
  Cu  Cu17  1  0.000000  0.000000  0.096910  1.0  0.7903
  Cu  Cu18  1  0.000000  0.000000  0.189830  1.0  0.3379
  Cu  Cu19  1  0.000000  0.500000  0.596910  1.0  0.7903
  Cu  Cu20  1  0.000000  0.500000  0.689830  1.0  0.3379
  Cu  Cu21  1  0.500000  0.000000  0.596910  1.0  0.7903
  Cu  Cu22  1  0.500000  0.000000  0.689830  1.0  0.3379
  Cu  Cu23  1  0.500000  0.500000  0.096910  1.0  0.7903
  Cu  Cu24  1  0.500000  0.500000  0.189830  1.0  0.3379
  Cu  Cu25  1  0.750000  0.750000  0.750000  1.0  0.5087
  Cu  Cu26  1  0.750000  0.250000  0.250000  1.0  0.5087
  Cu  Cu27  1  0.250000  0.750000  0.250000  1.0  0.5087
  Cu  Cu28  1  0.250000  0.250000  0.750000  1.0  0.5087
  H  H29  1  0.805600  0.986000  0.978600  1.0  0.284
  H  H30  1  0.113200  0.861900  0.823300  1.0  0.1212
  H  H31  1  0.905000  0.879500  0.860500  1.0  0.1066
  H  H32  1  0.960900  0.847900  0.926900  1.0  0.0941
  H  H33  1  0.193500  0.901700  0.917900  1.0  0.1092
  H  H34  1  0.133100  0.792500  0.955600  1.0  0.1095
  H  H35  1  0.263400  0.820600  0.956300  1.0  0.1054
  H  H36  1  0.786300  0.640400  0.788800  1.0  0.3484
  H  H37  1  0.859900  0.606400  0.820100  1.0  0.3583
  H  H38  1  0.019700  0.650100  0.859300  1.0  0.1364
  H  H39  1  0.121800  0.737000  0.875000  1.0  0.1195
  H  H40  1  0.805600  0.486000  0.478600  1.0  0.284
  H  H41  1  0.113200  0.361900  0.323300  1.0  0.1212
  H  H42  1  0.905000  0.379500  0.360500  1.0  0.1066
  H  H43  1  0.960900  0.347900  0.426900  1.0  0.0941
  H  H44  1  0.193500  0.401700  0.417900  1.0  0.1092
  H  H45  1  0.133100  0.292500  0.455600  1.0  0.1095
  H  H46  1  0.263400  0.320600  0.456300  1.0  0.1054
  H  H47  1  0.786300  0.140400  0.288800  1.0  0.3484
  H  H48  1  0.859900  0.106400  0.320100  1.0  0.3583
  H  H49  1  0.019700  0.150100  0.359300  1.0  0.1364
  H  H50  1  0.121800  0.237000  0.375000  1.0  0.1195
  H  H51  1  0.305600  0.986000  0.478600  1.0  0.284
  H  H52  1  0.613200  0.861900  0.323300  1.0  0.1212
  H  H53  1  0.405000  0.879500  0.360500  1.0  0.1066
  H  H54  1  0.460900  0.847900  0.426900  1.0  0.0941
  H  H55  1  0.693500  0.901700  0.417900  1.0  0.1092
  H  H56  1  0.633100  0.792500  0.455600  1.0  0.1095
  H  H57  1  0.763400  0.820600  0.456300  1.0  0.1054
  H  H58  1  0.286300  0.640400  0.288800  1.0  0.3484
  H  H59  1  0.359900  0.606400  0.320100  1.0  0.3583
  H  H60  1  0.519700  0.650100  0.359300  1.0  0.1364
  H  H61  1  0.621800  0.737000  0.375000  1.0  0.1195
  H  H62  1  0.305600  0.486000  0.978600  1.0  0.284
  H  H63  1  0.613200  0.361900  0.823300  1.0  0.1212
  H  H64  1  0.405000  0.379500  0.860500  1.0  0.1066
  H  H65  1  0.460900  0.347900  0.926900  1.0  0.0941
  H  H66  1  0.693500  0.401700  0.917900  1.0  0.1092
  H  H67  1  0.633100  0.292500  0.955600  1.0  0.1095
  H  H68  1  0.763400  0.320600  0.956300  1.0  0.1054
  H  H69  1  0.286300  0.140400  0.788800  1.0  0.3484
  H  H70  1  0.359900  0.106400  0.820100  1.0  0.3583
  H  H71  1  0.519700  0.150100  0.859300  1.0  0.1364
  H  H72  1  0.621800  0.237000  0.875000  1.0  0.1195
  H  H73  1  0.194400  0.014000  0.978600  1.0  0.2836
  H  H74  1  0.886800  0.138100  0.823300  1.0  0.1207
  H  H75  1  0.095000  0.120500  0.860500  1.0  0.1063
  H  H76  1  0.039100  0.152100  0.926900  1.0  0.0933
  H  H77  1  0.806500  0.098300  0.917900  1.0  0.1088
  H  H78  1  0.866900  0.207500  0.955600  1.0  0.108
  H  H79  1  0.736600  0.179400  0.956300  1.0  0.1095
  H  H80  1  0.213700  0.359600  0.788800  1.0  0.3484
  H  H81  1  0.140100  0.393600  0.820100  1.0  0.3612
  H  H82  1  0.980300  0.349900  0.859300  1.0  0.1359
  H  H83  1  0.878200  0.263000  0.875000  1.0  0.1193
  H  H84  1  0.194400  0.514000  0.478600  1.0  0.2836
  H  H85  1  0.886800  0.638100  0.323300  1.0  0.1206
  H  H86  1  0.095000  0.620500  0.360500  1.0  0.1063
  H  H87  1  0.039100  0.652100  0.426900  1.0  0.0933
  H  H88  1  0.806500  0.598300  0.417900  1.0  0.1113
  H  H89  1  0.866900  0.707500  0.455600  1.0  0.108
  H  H90  1  0.736600  0.679400  0.456300  1.0  0.1095
  H  H91  1  0.213700  0.859600  0.288800  1.0  0.3484
  H  H92  1  0.140100  0.893600  0.320100  1.0  0.3612
  H  H93  1  0.980300  0.849900  0.359300  1.0  0.1359
  H  H94  1  0.878200  0.763000  0.375000  1.0  0.1192
  H  H95  1  0.694400  0.014000  0.478600  1.0  0.2836
  H  H96  1  0.386800  0.138100  0.323300  1.0  0.1207
  H  H97  1  0.595000  0.120500  0.360500  1.0  0.1063
  H  H98  1  0.539100  0.152100  0.426900  1.0  0.0933
  H  H99  1  0.306500  0.098300  0.417900  1.0  0.1088
  H  H100  1  0.366900  0.207500  0.455600  1.0  0.108
  H  H101  1  0.236600  0.179400  0.456300  1.0  0.1095
  H  H102  1  0.713700  0.359600  0.288800  1.0  0.3484
  H  H103  1  0.640100  0.393600  0.320100  1.0  0.3612
  H  H104  1  0.480300  0.349900  0.359300  1.0  0.1359
  H  H105  1  0.378200  0.263000  0.375000  1.0  0.1193
  H  H106  1  0.694400  0.514000  0.978600  1.0  0.2836
  H  H107  1  0.386800  0.638100  0.823300  1.0  0.1206
  H  H108  1  0.595000  0.620500  0.860500  1.0  0.1063
  H  H109  1  0.539100  0.652100  0.926900  1.0  0.0933
  H  H110  1  0.306500  0.598300  0.917900  1.0  0.1113
  H  H111  1  0.366900  0.707500  0.955600  1.0  0.108
  H  H112  1  0.236600  0.679400  0.956300  1.0  0.1095
  H  H113  1  0.713700  0.859600  0.788800  1.0  0.3484
  H  H114  1  0.640100  0.893600  0.820100  1.0  0.3612
  H  H115  1  0.480300  0.849900  0.859300  1.0  0.1359
  H  H116  1  0.378200  0.763000  0.875000  1.0  0.1192
  H  H117  1  0.194400  0.986000  0.021400  1.0  0.2833
  H  H118  1  0.886800  0.861900  0.176700  1.0  0.1212
  H  H119  1  0.095000  0.879500  0.139500  1.0  0.1066
  H  H120  1  0.039100  0.847900  0.073100  1.0  0.0936
  H  H121  1  0.806500  0.901700  0.082100  1.0  0.1088
  H  H122  1  0.866900  0.792500  0.044400  1.0  0.1092
  H  H123  1  0.736600  0.820600  0.043700  1.0  0.1086
  H  H124  1  0.213700  0.640400  0.211200  1.0  0.3509
  H  H125  1  0.140100  0.606400  0.179900  1.0  0.3573
  H  H126  1  0.980300  0.650100  0.140700  1.0  0.1357
  H  H127  1  0.878200  0.737000  0.125000  1.0  0.1189
  H  H128  1  0.194400  0.486000  0.521400  1.0  0.2833
  H  H129  1  0.886800  0.361900  0.676700  1.0  0.1212
  H  H130  1  0.095000  0.379500  0.639500  1.0  0.1066
  H  H131  1  0.039100  0.347900  0.573100  1.0  0.0936
  H  H132  1  0.806500  0.401700  0.582100  1.0  0.1088
  H  H133  1  0.866900  0.292500  0.544400  1.0  0.1092
  H  H134  1  0.736600  0.320600  0.543700  1.0  0.1086
  H  H135  1  0.213700  0.140400  0.711200  1.0  0.3509
  H  H136  1  0.140100  0.106400  0.679900  1.0  0.3573
  H  H137  1  0.980300  0.150100  0.640700  1.0  0.1357
  H  H138  1  0.878200  0.237000  0.625000  1.0  0.1189
  H  H139  1  0.694400  0.986000  0.521400  1.0  0.2833
  H  H140  1  0.386800  0.861900  0.676700  1.0  0.1212
  H  H141  1  0.595000  0.879500  0.639500  1.0  0.1066
  H  H142  1  0.539100  0.847900  0.573100  1.0  0.0936
  H  H143  1  0.306500  0.901700  0.582100  1.0  0.1088
  H  H144  1  0.366900  0.792500  0.544400  1.0  0.1092
  H  H145  1  0.236600  0.820600  0.543700  1.0  0.1086
  H  H146  1  0.713700  0.640400  0.711200  1.0  0.3509
  H  H147  1  0.640100  0.606400  0.679900  1.0  0.3573
  H  H148  1  0.480300  0.650100  0.640700  1.0  0.1357
  H  H149  1  0.378200  0.737000  0.625000  1.0  0.1189
  H  H150  1  0.694400  0.486000  0.021400  1.0  0.2833
  H  H151  1  0.386800  0.361900  0.176700  1.0  0.1212
  H  H152  1  0.595000  0.379500  0.139500  1.0  0.1066
  H  H153  1  0.539100  0.347900  0.073100  1.0  0.0936
  H  H154  1  0.306500  0.401700  0.082100  1.0  0.1088
  H  H155  1  0.366900  0.292500  0.044400  1.0  0.1092
  H  H156  1  0.236600  0.320600  0.043700  1.0  0.1086
  H  H157  1  0.713700  0.140400  0.211200  1.0  0.3509
  H  H158  1  0.640100  0.106400  0.179900  1.0  0.3573
  H  H159  1  0.480300  0.150100  0.140700  1.0  0.1357
  H  H160  1  0.378200  0.237000  0.125000  1.0  0.1189
  H  H161  1  0.805600  0.014000  0.021400  1.0  0.2844
  H  H162  1  0.113200  0.138100  0.176700  1.0  0.1205
  H  H163  1  0.905000  0.120500  0.139500  1.0  0.1067
  H  H164  1  0.960900  0.152100  0.073100  1.0  0.0938
  H  H165  1  0.193500  0.098300  0.082100  1.0  0.1099
  H  H166  1  0.133100  0.207500  0.044400  1.0  0.1091
  H  H167  1  0.263400  0.179400  0.043700  1.0  0.1066
  H  H168  1  0.786300  0.359600  0.211200  1.0  0.3498
  H  H169  1  0.859900  0.393600  0.179900  1.0  0.3618
  H  H170  1  0.019700  0.349900  0.140700  1.0  0.1366
  H  H171  1  0.121800  0.263000  0.125000  1.0  0.1196
  H  H172  1  0.805600  0.514000  0.521400  1.0  0.2844
  H  H173  1  0.113200  0.638100  0.676700  1.0  0.1205
  H  H174  1  0.905000  0.620500  0.639500  1.0  0.1067
  H  H175  1  0.960900  0.652100  0.573100  1.0  0.0938
  H  H176  1  0.193500  0.598300  0.582100  1.0  0.1122
  H  H177  1  0.133100  0.707500  0.544400  1.0  0.1091
  H  H178  1  0.263400  0.679400  0.543700  1.0  0.1066
  H  H179  1  0.786300  0.859600  0.711200  1.0  0.3498
  H  H180  1  0.859900  0.893600  0.679900  1.0  0.3618
  H  H181  1  0.019700  0.849900  0.640700  1.0  0.1366
  H  H182  1  0.121800  0.763000  0.625000  1.0  0.1195
  H  H183  1  0.305600  0.014000  0.521400  1.0  0.2844
  H  H184  1  0.613200  0.138100  0.676700  1.0  0.1205
  H  H185  1  0.405000  0.120500  0.639500  1.0  0.1067
  H  H186  1  0.460900  0.152100  0.573100  1.0  0.0938
  H  H187  1  0.693500  0.098300  0.582100  1.0  0.1099
  H  H188  1  0.633100  0.207500  0.544400  1.0  0.1091
  H  H189  1  0.763400  0.179400  0.543700  1.0  0.1066
  H  H190  1  0.286300  0.359600  0.711200  1.0  0.3498
  H  H191  1  0.359900  0.393600  0.679900  1.0  0.3618
  H  H192  1  0.519700  0.349900  0.640700  1.0  0.1366
  H  H193  1  0.621800  0.263000  0.625000  1.0  0.1196
  H  H194  1  0.305600  0.514000  0.021400  1.0  0.2844
  H  H195  1  0.613200  0.638100  0.176700  1.0  0.1205
  H  H196  1  0.405000  0.620500  0.139500  1.0  0.1067
  H  H197  1  0.460900  0.652100  0.073100  1.0  0.0938
  H  H198  1  0.693500  0.598300  0.082100  1.0  0.1122
  H  H199  1  0.633100  0.707500  0.044400  1.0  0.1091
  H  H200  1  0.763400  0.679400  0.043700  1.0  0.1066
  H  H201  1  0.286300  0.859600  0.211200  1.0  0.3498
  H  H202  1  0.359900  0.893600  0.179900  1.0  0.3618
  H  H203  1  0.519700  0.849900  0.140700  1.0  0.1366
  H  H204  1  0.621800  0.763000  0.125000  1.0  0.1195
  C  C205  1  0.076900  0.844900  0.849100  1.0  0.0043
  C  C206  1  0.988800  0.888400  0.868530  1.0  0.0771
  C  C207  1  0.009200  0.880800  0.916140  1.0  0.0727
  C  C208  1  0.145500  0.865500  0.917800  1.0  0.1227
  C  C209  1  0.177300  0.829200  0.956000  1.0  0.1065
  C  C210  1  0.933700  0.786800  0.806450  1.0  0.5204
  C  C211  1  0.904400  0.686500  0.816900  1.0  0.5824
  C  C212  1  0.997200  0.685200  0.846300  1.0  -0.1867
  C  C213  1  0.056400  0.737000  0.856200  1.0  0.0794
  C  C214  1  0.076900  0.344900  0.349100  1.0  0.0043
  C  C215  1  0.988800  0.388400  0.368530  1.0  0.0771
  C  C216  1  0.009200  0.380800  0.416140  1.0  0.0727
  C  C217  1  0.145500  0.365500  0.417800  1.0  0.1227
  C  C218  1  0.177300  0.329200  0.456000  1.0  0.1065
  C  C219  1  0.933700  0.286800  0.306450  1.0  0.5204
  C  C220  1  0.904400  0.186500  0.316900  1.0  0.5824
  C  C221  1  0.997200  0.185200  0.346300  1.0  -0.1867
  C  C222  1  0.056400  0.237000  0.356200  1.0  0.0794
  C  C223  1  0.576900  0.844900  0.349100  1.0  0.0043
  C  C224  1  0.488800  0.888400  0.368530  1.0  0.0771
  C  C225  1  0.509200  0.880800  0.416140  1.0  0.0727
  C  C226  1  0.645500  0.865500  0.417800  1.0  0.1227
  C  C227  1  0.677300  0.829200  0.456000  1.0  0.1065
  C  C228  1  0.433700  0.786800  0.306450  1.0  0.5204
  C  C229  1  0.404400  0.686500  0.316900  1.0  0.5824
  C  C230  1  0.497200  0.685200  0.346300  1.0  -0.1867
  C  C231  1  0.556400  0.737000  0.356200  1.0  0.0794
  C  C232  1  0.576900  0.344900  0.849100  1.0  0.0043
  C  C233  1  0.488800  0.388400  0.868530  1.0  0.0771
  C  C234  1  0.509200  0.380800  0.916140  1.0  0.0727
  C  C235  1  0.645500  0.365500  0.917800  1.0  0.1227
  C  C236  1  0.677300  0.329200  0.956000  1.0  0.1065
  C  C237  1  0.433700  0.286800  0.806450  1.0  0.5204
  C  C238  1  0.404400  0.186500  0.816900  1.0  0.5824
  C  C239  1  0.497200  0.185200  0.846300  1.0  -0.1867
  C  C240  1  0.556400  0.237000  0.856200  1.0  0.0794
  C  C241  1  0.923100  0.155100  0.849100  1.0  0.004
  C  C242  1  0.011200  0.111600  0.868530  1.0  0.0742
  C  C243  1  0.990800  0.119200  0.916140  1.0  0.074
  C  C244  1  0.854500  0.134500  0.917800  1.0  0.1228
  C  C245  1  0.822700  0.170800  0.956000  1.0  0.1077
  C  C246  1  0.066300  0.213200  0.806450  1.0  0.5203
  C  C247  1  0.095600  0.313500  0.816900  1.0  0.5812
  C  C248  1  0.002800  0.314800  0.846300  1.0  -0.1875
  C  C249  1  0.943600  0.263000  0.856200  1.0  0.0807
  C  C250  1  0.923100  0.655100  0.349100  1.0  0.0089
  C  C251  1  0.011200  0.611600  0.368530  1.0  0.0763
  C  C252  1  0.990800  0.619200  0.416140  1.0  0.074
  C  C253  1  0.854500  0.634500  0.417800  1.0  0.122
  C  C254  1  0.822700  0.670800  0.456000  1.0  0.1083
  C  C255  1  0.066300  0.713200  0.306450  1.0  0.5203
  C  C256  1  0.095600  0.813500  0.316900  1.0  0.5812
  C  C257  1  0.002800  0.814800  0.346300  1.0  -0.1875
  C  C258  1  0.943600  0.763000  0.356200  1.0  0.0807
  C  C259  1  0.423100  0.155100  0.349100  1.0  0.004
  C  C260  1  0.511200  0.111600  0.368530  1.0  0.0742
  C  C261  1  0.490800  0.119200  0.416140  1.0  0.074
  C  C262  1  0.354500  0.134500  0.417800  1.0  0.1228
  C  C263  1  0.322700  0.170800  0.456000  1.0  0.1077
  C  C264  1  0.566300  0.213200  0.306450  1.0  0.5203
  C  C265  1  0.595600  0.313500  0.316900  1.0  0.5812
  C  C266  1  0.502800  0.314800  0.346300  1.0  -0.1875
  C  C267  1  0.443600  0.263000  0.356200  1.0  0.0807
  C  C268  1  0.423100  0.655100  0.849100  1.0  0.0089
  C  C269  1  0.511200  0.611600  0.868530  1.0  0.0763
  C  C270  1  0.490800  0.619200  0.916140  1.0  0.074
  C  C271  1  0.354500  0.634500  0.917800  1.0  0.122
  C  C272  1  0.322700  0.670800  0.956000  1.0  0.1083
  C  C273  1  0.566300  0.713200  0.806450  1.0  0.5203
  C  C274  1  0.595600  0.813500  0.816900  1.0  0.5812
  C  C275  1  0.502800  0.814800  0.846300  1.0  -0.1875
  C  C276  1  0.443600  0.763000  0.856200  1.0  0.0807
  C  C277  1  0.923100  0.844900  0.150900  1.0  0.0049
  C  C278  1  0.011200  0.888400  0.131470  1.0  0.0756
  C  C279  1  0.990800  0.880800  0.083860  1.0  0.0754
  C  C280  1  0.854500  0.865500  0.082200  1.0  0.1223
  C  C281  1  0.822700  0.829200  0.044000  1.0  0.1077
  C  C282  1  0.066300  0.786800  0.193550  1.0  0.5191
  C  C283  1  0.095600  0.686500  0.183100  1.0  0.5822
  C  C284  1  0.002800  0.685200  0.153700  1.0  -0.1858
  C  C285  1  0.943600  0.737000  0.143800  1.0  0.0803
  C  C286  1  0.923100  0.344900  0.650900  1.0  0.0049
  C  C287  1  0.011200  0.388400  0.631470  1.0  0.0756
  C  C288  1  0.990800  0.380800  0.583860  1.0  0.0754
  C  C289  1  0.854500  0.365500  0.582200  1.0  0.1223
  C  C290  1  0.822700  0.329200  0.544000  1.0  0.1077
  C  C291  1  0.066300  0.286800  0.693550  1.0  0.5191
  C  C292  1  0.095600  0.186500  0.683100  1.0  0.5822
  C  C293  1  0.002800  0.185200  0.653700  1.0  -0.1858
  C  C294  1  0.943600  0.237000  0.643800  1.0  0.0803
  C  C295  1  0.423100  0.844900  0.650900  1.0  0.0049
  C  C296  1  0.511200  0.888400  0.631470  1.0  0.0756
  C  C297  1  0.490800  0.880800  0.583860  1.0  0.0754
  C  C298  1  0.354500  0.865500  0.582200  1.0  0.1223
  C  C299  1  0.322700  0.829200  0.544000  1.0  0.1077
  C  C300  1  0.566300  0.786800  0.693550  1.0  0.5191
  C  C301  1  0.595600  0.686500  0.683100  1.0  0.5822
  C  C302  1  0.502800  0.685200  0.653700  1.0  -0.1858
  C  C303  1  0.443600  0.737000  0.643800  1.0  0.0803
  C  C304  1  0.423100  0.344900  0.150900  1.0  0.0049
  C  C305  1  0.511200  0.388400  0.131470  1.0  0.0756
  C  C306  1  0.490800  0.380800  0.083860  1.0  0.0754
  C  C307  1  0.354500  0.365500  0.082200  1.0  0.1223
  C  C308  1  0.322700  0.329200  0.044000  1.0  0.1077
  C  C309  1  0.566300  0.286800  0.193550  1.0  0.5191
  C  C310  1  0.595600  0.186500  0.183100  1.0  0.5822
  C  C311  1  0.502800  0.185200  0.153700  1.0  -0.1858
  C  C312  1  0.443600  0.237000  0.143800  1.0  0.0803
  C  C313  1  0.076900  0.155100  0.150900  1.0  0.0056
  C  C314  1  0.988800  0.111600  0.131470  1.0  0.0771
  C  C315  1  0.009200  0.119200  0.083860  1.0  0.072
  C  C316  1  0.145500  0.134500  0.082200  1.0  0.1232
  C  C317  1  0.177300  0.170800  0.044000  1.0  0.1065
  C  C318  1  0.933700  0.213200  0.193550  1.0  0.5187
  C  C319  1  0.904400  0.313500  0.183100  1.0  0.5828
  C  C320  1  0.997200  0.314800  0.153700  1.0  -0.1876
  C  C321  1  0.056400  0.263000  0.143800  1.0  0.0788
  C  C322  1  0.076900  0.655100  0.650900  1.0  0.0112
  C  C323  1  0.988800  0.611600  0.631470  1.0  0.0789
  C  C324  1  0.009200  0.619200  0.583860  1.0  0.072
  C  C325  1  0.145500  0.634500  0.582200  1.0  0.1225
  C  C326  1  0.177300  0.670800  0.544000  1.0  0.1072
  C  C327  1  0.933700  0.713200  0.693550  1.0  0.5187
  C  C328  1  0.904400  0.813500  0.683100  1.0  0.5828
  C  C329  1  0.997200  0.814800  0.653700  1.0  -0.1876
  C  C330  1  0.056400  0.763000  0.643800  1.0  0.0788
  C  C331  1  0.576900  0.155100  0.650900  1.0  0.0056
  C  C332  1  0.488800  0.111600  0.631470  1.0  0.0771
  C  C333  1  0.509200  0.119200  0.583860  1.0  0.072
  C  C334  1  0.645500  0.134500  0.582200  1.0  0.1232
  C  C335  1  0.677300  0.170800  0.544000  1.0  0.1065
  C  C336  1  0.433700  0.213200  0.693550  1.0  0.5187
  C  C337  1  0.404400  0.313500  0.683100  1.0  0.5828
  C  C338  1  0.497200  0.314800  0.653700  1.0  -0.1876
  C  C339  1  0.556400  0.263000  0.643800  1.0  0.0788
  C  C340  1  0.576900  0.655100  0.150900  1.0  0.0112
  C  C341  1  0.488800  0.611600  0.131470  1.0  0.0789
  C  C342  1  0.509200  0.619200  0.083860  1.0  0.072
  C  C343  1  0.645500  0.634500  0.082200  1.0  0.1225
  C  C344  1  0.677300  0.670800  0.044000  1.0  0.1072
  C  C345  1  0.433700  0.713200  0.193550  1.0  0.5187
  C  C346  1  0.404400  0.813500  0.183100  1.0  0.5828
  C  C347  1  0.497200  0.814800  0.153700  1.0  -0.1876
  C  C348  1  0.556400  0.763000  0.143800  1.0  0.0788
  N  N349  1  0.018100  0.787100  0.838330  1.0  -0.095
  N  N350  1  0.876100  0.737100  0.796550  1.0  -0.359
  N  N351  1  0.843200  0.639000  0.807500  1.0  -0.6692
  N  N352  1  0.018100  0.287100  0.338330  1.0  -0.095
  N  N353  1  0.876100  0.237100  0.296550  1.0  -0.359
  N  N354  1  0.843200  0.139000  0.307500  1.0  -0.6692
  N  N355  1  0.518100  0.787100  0.338330  1.0  -0.095
  N  N356  1  0.376100  0.737100  0.296550  1.0  -0.359
  N  N357  1  0.343200  0.639000  0.307500  1.0  -0.6692
  N  N358  1  0.518100  0.287100  0.838330  1.0  -0.095
  N  N359  1  0.376100  0.237100  0.796550  1.0  -0.359
  N  N360  1  0.343200  0.139000  0.807500  1.0  -0.6692
  N  N361  1  0.981900  0.212900  0.838330  1.0  -0.0936
  N  N362  1  0.123900  0.262900  0.796550  1.0  -0.3602
  N  N363  1  0.156800  0.361000  0.807500  1.0  -0.6693
  N  N364  1  0.981900  0.712900  0.338330  1.0  -0.0935
  N  N365  1  0.123900  0.762900  0.296550  1.0  -0.3602
  N  N366  1  0.156800  0.861000  0.307500  1.0  -0.6693
  N  N367  1  0.481900  0.212900  0.338330  1.0  -0.0936
  N  N368  1  0.623900  0.262900  0.296550  1.0  -0.3602
  N  N369  1  0.656800  0.361000  0.307500  1.0  -0.6693
  N  N370  1  0.481900  0.712900  0.838330  1.0  -0.0935
  N  N371  1  0.623900  0.762900  0.796550  1.0  -0.3602
  N  N372  1  0.656800  0.861000  0.807500  1.0  -0.6693
  N  N373  1  0.981900  0.787100  0.161670  1.0  -0.0951
  N  N374  1  0.123900  0.737100  0.203450  1.0  -0.3594
  N  N375  1  0.156800  0.639000  0.192500  1.0  -0.6707
  N  N376  1  0.981900  0.287100  0.661670  1.0  -0.0951
  N  N377  1  0.123900  0.237100  0.703450  1.0  -0.3594
  N  N378  1  0.156800  0.139000  0.692500  1.0  -0.6707
  N  N379  1  0.481900  0.787100  0.661670  1.0  -0.0951
  N  N380  1  0.623900  0.737100  0.703450  1.0  -0.3594
  N  N381  1  0.656800  0.639000  0.692500  1.0  -0.6707
  N  N382  1  0.481900  0.287100  0.161670  1.0  -0.0951
  N  N383  1  0.623900  0.237100  0.203450  1.0  -0.3594
  N  N384  1  0.656800  0.139000  0.192500  1.0  -0.6707
  N  N385  1  0.018100  0.212900  0.161670  1.0  -0.0949
  N  N386  1  0.876100  0.262900  0.203450  1.0  -0.3582
  N  N387  1  0.843200  0.361000  0.192500  1.0  -0.6713
  N  N388  1  0.018100  0.712900  0.661670  1.0  -0.0948
  N  N389  1  0.876100  0.762900  0.703450  1.0  -0.3582
  N  N390  1  0.843200  0.861000  0.692500  1.0  -0.6713
  N  N391  1  0.518100  0.212900  0.661670  1.0  -0.0949
  N  N392  1  0.376100  0.262900  0.703450  1.0  -0.3582
  N  N393  1  0.343200  0.361000  0.692500  1.0  -0.6713
  N  N394  1  0.518100  0.712900  0.161670  1.0  -0.0948
  N  N395  1  0.376100  0.762900  0.203450  1.0  -0.3582
  N  N396  1  0.343200  0.861000  0.192500  1.0  -0.6713
  O  O397  1  0.168800  0.833400  0.879660  1.0  -0.3081
  O  O398  1  0.020500  0.946000  0.857810  1.0  -0.7038
  O  O399  1  0.982400  0.932670  0.939620  1.0  -0.6708
  O  O400  1  0.144200  0.863500  0.993300  1.0  -0.6443
  O  O401  1  0.907200  0.834290  0.787310  1.0  -0.5526
  O  O402  1  0.168800  0.333400  0.379660  1.0  -0.3081
  O  O403  1  0.020500  0.446000  0.357810  1.0  -0.7038
  O  O404  1  0.982400  0.432670  0.439620  1.0  -0.6708
  O  O405  1  0.144200  0.363500  0.493300  1.0  -0.6443
  O  O406  1  0.907200  0.334290  0.287310  1.0  -0.5526
  O  O407  1  0.668800  0.833400  0.379660  1.0  -0.3081
  O  O408  1  0.520500  0.946000  0.357810  1.0  -0.7038
  O  O409  1  0.482400  0.932670  0.439620  1.0  -0.6708
  O  O410  1  0.644200  0.863500  0.493300  1.0  -0.6443
  O  O411  1  0.407200  0.834290  0.287310  1.0  -0.5526
  O  O412  1  0.668800  0.333400  0.879660  1.0  -0.3081
  O  O413  1  0.520500  0.446000  0.857810  1.0  -0.7038
  O  O414  1  0.482400  0.432670  0.939620  1.0  -0.6708
  O  O415  1  0.644200  0.363500  0.993300  1.0  -0.6443
  O  O416  1  0.407200  0.334290  0.787310  1.0  -0.5526
  O  O417  1  0.831200  0.166600  0.879660  1.0  -0.3108
  O  O418  1  0.979500  0.054000  0.857810  1.0  -0.7017
  O  O419  1  0.017600  0.067330  0.939620  1.0  -0.6708
  O  O420  1  0.855800  0.136500  0.993300  1.0  -0.6435
  O  O421  1  0.092800  0.165710  0.787310  1.0  -0.5535
  O  O422  1  0.831200  0.666667  0.379660  1.0  -0.3117
  O  O423  1  0.979500  0.554000  0.357810  1.0  -0.7015
  O  O424  1  0.017600  0.567330  0.439620  1.0  -0.6713
  O  O425  1  0.855800  0.636500  0.493300  1.0  -0.6435
  O  O426  1  0.092800  0.665710  0.287310  1.0  -0.5535
  O  O427  1  0.331200  0.166600  0.379660  1.0  -0.3108
  O  O428  1  0.479500  0.054000  0.357810  1.0  -0.7017
  O  O429  1  0.517600  0.067330  0.439620  1.0  -0.6708
  O  O430  1  0.355800  0.136500  0.493300  1.0  -0.6435
  O  O431  1  0.592800  0.165710  0.287310  1.0  -0.5535
  O  O432  1  0.331200  0.666667  0.879660  1.0  -0.3117
  O  O433  1  0.479500  0.554000  0.857810  1.0  -0.7015
  O  O434  1  0.517600  0.567330  0.939620  1.0  -0.6713
  O  O435  1  0.355800  0.636500  0.993300  1.0  -0.6435
  O  O436  1  0.592800  0.665710  0.787310  1.0  -0.5535
  O  O437  1  0.831200  0.833400  0.120340  1.0  -0.3117
  O  O438  1  0.979500  0.946000  0.142190  1.0  -0.7027
  O  O439  1  0.017600  0.932670  0.060380  1.0  -0.6708
  O  O440  1  0.855800  0.863500  0.006700  1.0  -0.6327
  O  O441  1  0.092800  0.834290  0.212690  1.0  -0.5515
  O  O442  1  0.831200  0.333400  0.620340  1.0  -0.3117
  O  O443  1  0.979500  0.446000  0.642190  1.0  -0.7027
  O  O444  1  0.017600  0.432670  0.560380  1.0  -0.6708
  O  O445  1  0.855800  0.363500  0.506700  1.0  -0.6327
  O  O446  1  0.092800  0.334290  0.712690  1.0  -0.5515
  O  O447  1  0.331200  0.833400  0.620340  1.0  -0.3117
  O  O448  1  0.479500  0.946000  0.642190  1.0  -0.7027
  O  O449  1  0.517600  0.932670  0.560380  1.0  -0.6708
  O  O450  1  0.355800  0.863500  0.506700  1.0  -0.6327
  O  O451  1  0.592800  0.834290  0.712690  1.0  -0.5515
  O  O452  1  0.331200  0.333400  0.120340  1.0  -0.3117
  O  O453  1  0.479500  0.446000  0.142190  1.0  -0.7027
  O  O454  1  0.517600  0.432670  0.060380  1.0  -0.6708
  O  O455  1  0.355800  0.363500  0.006700  1.0  -0.6327
  O  O456  1  0.592800  0.334290  0.212690  1.0  -0.5515
  O  O457  1  0.168800  0.166600  0.120340  1.0  -0.3071
  O  O458  1  0.020500  0.054000  0.142190  1.0  -0.7004
  O  O459  1  0.982400  0.067330  0.060380  1.0  -0.6706
  O  O460  1  0.144200  0.136500  0.006700  1.0  -0.6331
  O  O461  1  0.907200  0.165710  0.212690  1.0  -0.5526
  O  O462  1  0.168800  0.666667  0.620340  1.0  -0.3089
  O  O463  1  0.020500  0.554000  0.642190  1.0  -0.7004
  O  O464  1  0.982400  0.567330  0.560380  1.0  -0.6711
  O  O465  1  0.144200  0.636500  0.506700  1.0  -0.6331
  O  O466  1  0.907200  0.665710  0.712690  1.0  -0.5526
  O  O467  1  0.668800  0.166600  0.620340  1.0  -0.3071
  O  O468  1  0.520500  0.054000  0.642190  1.0  -0.7004
  O  O469  1  0.482400  0.067330  0.560380  1.0  -0.6706
  O  O470  1  0.644200  0.136500  0.506700  1.0  -0.6331
  O  O471  1  0.407200  0.165710  0.712690  1.0  -0.5526
  O  O472  1  0.668800  0.666667  0.120340  1.0  -0.3089
  O  O473  1  0.520500  0.554000  0.142190  1.0  -0.7004
  O  O474  1  0.482400  0.567330  0.060380  1.0  -0.6711
  O  O475  1  0.644200  0.636500  0.006700  1.0  -0.6331
  O  O476  1  0.407200  0.665710  0.212690  1.0  -0.5526
  O  O477  1  0.862000  0.000000  0.000000  1.0  -0.8011
  O  O478  1  0.862000  0.500000  0.500000  1.0  -0.8011
  O  O479  1  0.362000  0.000000  0.500000  1.0  -0.8011
  O  O480  1  0.362000  0.500000  0.000000  1.0  -0.8011
  O  O481  1  0.138000  0.000000  0.000000  1.0  -0.7981
  O  O482  1  0.138000  0.500000  0.500000  1.0  -0.7981
  O  O483  1  0.638000  0.000000  0.500000  1.0  -0.7981
  O  O484  1  0.638000  0.500000  0.000000  1.0  -0.7981
