# generated using pymatgen
data_Cu6B3H24C24N18(O7F6)2
_symmetry_space_group_name_H-M   'P 1'
_cell_length_a   18.21860000
_cell_length_b   18.21860000
_cell_length_c   18.21860000
_cell_angle_alpha   109.47100000
_cell_angle_beta   109.47100000
_cell_angle_gamma   109.47100000
_symmetry_Int_Tables_number   1
_chemical_formula_structural   Cu6B3H24C24N18(O7F6)2
_chemical_formula_sum   'Cu12 B6 H48 C48 N36 O28 F24'
_cell_volume   4655.07474961
_cell_formula_units_Z   2
loop_
 _symmetry_equiv_pos_site_id
 _symmetry_equiv_pos_as_xyz
  1  'x, y, z'
loop_
 _atom_site_type_symbol
 _atom_site_label
 _atom_site_symmetry_multiplicity
 _atom_site_fract_x
 _atom_site_fract_y
 _atom_site_fract_z
 _atom_site_occupancy
 _atom_site_charge
  Cu  Cu1  1  0.000000  0.515700  0.886760  1.0  0.8961
  Cu  Cu2  1  0.628940  0.113240  0.113240  1.0  0.8862
  Cu  Cu3  1  0.371060  0.484300  0.484300  1.0  0.8897
  Cu  Cu4  1  0.000000  0.886760  0.515700  1.0  0.898
  Cu  Cu5  1  0.484300  0.371060  0.484300  1.0  0.8899
  Cu  Cu6  1  0.515700  0.000000  0.886760  1.0  0.8999
  Cu  Cu7  1  0.886760  0.000000  0.515700  1.0  0.8994
  Cu  Cu8  1  0.113240  0.628940  0.113240  1.0  0.8833
  Cu  Cu9  1  0.113240  0.113240  0.628940  1.0  0.8863
  Cu  Cu10  1  0.515700  0.886760  0.000000  1.0  0.8993
  Cu  Cu11  1  0.886760  0.515700  0.000000  1.0  0.8962
  Cu  Cu12  1  0.484300  0.484300  0.371060  1.0  0.8895
  B  B13  1  0.750000  0.250000  0.500000  1.0  0.8041
  B  B14  1  0.250000  0.750000  0.500000  1.0  0.8041
  B  B15  1  0.500000  0.250000  0.750000  1.0  0.8041
  B  B16  1  0.500000  0.750000  0.250000  1.0  0.8039
  B  B17  1  0.250000  0.500000  0.750000  1.0  0.8041
  B  B18  1  0.750000  0.500000  0.250000  1.0  0.8039
  H  H19  1  0.869400  0.179500  0.559700  1.0  0.0892
  H  H20  1  0.946200  0.351800  0.613000  1.0  0.1073
  H  H21  1  0.619800  0.309700  0.440300  1.0  0.0894
  H  H22  1  0.738800  0.333200  0.387000  1.0  0.1062
  H  H23  1  0.380200  0.820500  0.689900  1.0  0.0906
  H  H24  1  0.261200  0.648200  0.594400  1.0  0.1061
  H  H25  1  0.130600  0.690300  0.310100  1.0  0.0902
  H  H26  1  0.053800  0.666800  0.405600  1.0  0.1023
  H  H27  1  0.689900  0.380200  0.820500  1.0  0.0877
  H  H28  1  0.594400  0.261200  0.648200  1.0  0.1058
  H  H29  1  0.310100  0.130600  0.690300  1.0  0.0896
  H  H30  1  0.405600  0.053800  0.666800  1.0  0.1036
  H  H31  1  0.559700  0.869400  0.179500  1.0  0.0897
  H  H32  1  0.613000  0.946200  0.351800  1.0  0.1084
  H  H33  1  0.440300  0.619800  0.309700  1.0  0.0899
  H  H34  1  0.387000  0.738800  0.333200  1.0  0.1062
  H  H35  1  0.309700  0.440300  0.619800  1.0  0.0891
  H  H36  1  0.333200  0.387000  0.738800  1.0  0.1078
  H  H37  1  0.179500  0.559700  0.869400  1.0  0.091
  H  H38  1  0.351800  0.613000  0.946200  1.0  0.107
  H  H39  1  0.690300  0.310100  0.130600  1.0  0.0878
  H  H40  1  0.666800  0.405600  0.053800  1.0  0.1037
  H  H41  1  0.820500  0.689900  0.380200  1.0  0.09
  H  H42  1  0.648200  0.594400  0.261200  1.0  0.1055
  H  H43  1  0.309700  0.619800  0.440300  1.0  0.0876
  H  H44  1  0.333200  0.738800  0.387000  1.0  0.1066
  H  H45  1  0.179500  0.869400  0.559700  1.0  0.0899
  H  H46  1  0.351800  0.946200  0.613000  1.0  0.1081
  H  H47  1  0.690300  0.130600  0.310100  1.0  0.0892
  H  H48  1  0.666800  0.053800  0.405600  1.0  0.1039
  H  H49  1  0.820500  0.380200  0.689900  1.0  0.0904
  H  H50  1  0.648200  0.261200  0.594400  1.0  0.1054
  H  H51  1  0.869400  0.559700  0.179500  1.0  0.0897
  H  H52  1  0.946200  0.613000  0.351800  1.0  0.1078
  H  H53  1  0.619800  0.440300  0.309700  1.0  0.0904
  H  H54  1  0.738800  0.387000  0.333200  1.0  0.1064
  H  H55  1  0.380200  0.689900  0.820500  1.0  0.0889
  H  H56  1  0.261200  0.594400  0.648200  1.0  0.1067
  H  H57  1  0.130600  0.310100  0.690300  1.0  0.0887
  H  H58  1  0.053800  0.405600  0.666800  1.0  0.1031
  H  H59  1  0.689900  0.820500  0.380200  1.0  0.0891
  H  H60  1  0.594400  0.648200  0.261200  1.0  0.1053
  H  H61  1  0.310100  0.690300  0.130600  1.0  0.089
  H  H62  1  0.405600  0.666800  0.053800  1.0  0.1031
  H  H63  1  0.559700  0.179500  0.869400  1.0  0.0902
  H  H64  1  0.613000  0.351800  0.946200  1.0  0.1077
  H  H65  1  0.440300  0.309700  0.619800  1.0  0.0901
  H  H66  1  0.387000  0.333200  0.738800  1.0  0.1063
  C  C67  1  0.930000  0.192300  0.585100  1.0  0.11
  C  C68  1  0.607200  0.344900  0.414900  1.0  0.105
  C  C69  1  0.392800  0.807700  0.737700  1.0  0.1042
  C  C70  1  0.070000  0.655100  0.262300  1.0  0.1041
  C  C71  1  0.737700  0.392800  0.807700  1.0  0.104
  C  C72  1  0.262300  0.070000  0.655100  1.0  0.1021
  C  C73  1  0.585100  0.930000  0.192300  1.0  0.109
  C  C74  1  0.414900  0.607200  0.344900  1.0  0.1046
  C  C75  1  0.344900  0.414900  0.607200  1.0  0.1032
  C  C76  1  0.192300  0.585100  0.930000  1.0  0.1107
  C  C77  1  0.655100  0.262300  0.070000  1.0  0.1046
  C  C78  1  0.807700  0.737700  0.392800  1.0  0.104
  C  C79  1  0.344900  0.607200  0.414900  1.0  0.1044
  C  C80  1  0.192300  0.930000  0.585100  1.0  0.1097
  C  C81  1  0.655100  0.070000  0.262300  1.0  0.1019
  C  C82  1  0.807700  0.392800  0.737700  1.0  0.1048
  C  C83  1  0.930000  0.585100  0.192300  1.0  0.1089
  C  C84  1  0.607200  0.414900  0.344900  1.0  0.1053
  C  C85  1  0.392800  0.737700  0.807700  1.0  0.1044
  C  C86  1  0.070000  0.262300  0.655100  1.0  0.1039
  C  C87  1  0.737700  0.807700  0.392800  1.0  0.1042
  C  C88  1  0.262300  0.655100  0.070000  1.0  0.105
  C  C89  1  0.585100  0.192300  0.930000  1.0  0.1093
  C  C90  1  0.414900  0.344900  0.607200  1.0  0.1039
  C  C91  1  0.000000  0.359700  0.660100  1.0  -0.1245
  C  C92  1  0.000000  0.392800  0.748000  1.0  0.6929
  C  C93  1  0.699600  0.339900  0.339900  1.0  -0.1256
  C  C94  1  0.644800  0.252000  0.252000  1.0  0.6878
  C  C95  1  0.300400  0.640300  0.640300  1.0  -0.1246
  C  C96  1  0.355200  0.607200  0.607200  1.0  0.6887
  C  C97  1  0.000000  0.660100  0.359700  1.0  -0.125
  C  C98  1  0.000000  0.748000  0.392800  1.0  0.6868
  C  C99  1  0.640300  0.300400  0.640300  1.0  -0.126
  C  C100  1  0.607200  0.355200  0.607200  1.0  0.6883
  C  C101  1  0.359700  0.000000  0.660100  1.0  -0.1253
  C  C102  1  0.392800  0.000000  0.748000  1.0  0.6931
  C  C103  1  0.660100  0.000000  0.359700  1.0  -0.1263
  C  C104  1  0.748000  0.000000  0.392800  1.0  0.6886
  C  C105  1  0.339900  0.699600  0.339900  1.0  -0.1246
  C  C106  1  0.252000  0.644800  0.252000  1.0  0.6894
  C  C107  1  0.339900  0.339900  0.699600  1.0  -0.1251
  C  C108  1  0.252000  0.252000  0.644800  1.0  0.6881
  C  C109  1  0.359700  0.660100  0.000000  1.0  -0.1248
  C  C110  1  0.392800  0.748000  0.000000  1.0  0.6873
  C  C111  1  0.660100  0.359700  0.000000  1.0  -0.1237
  C  C112  1  0.748000  0.392800  0.000000  1.0  0.689
  C  C113  1  0.640300  0.640300  0.300400  1.0  -0.1242
  C  C114  1  0.607200  0.607200  0.355200  1.0  0.693
  N  N115  1  0.954000  0.131500  0.578100  1.0  -0.279
  N  N116  1  0.553400  0.375900  0.421900  1.0  -0.2747
  N  N117  1  0.446600  0.868500  0.822500  1.0  -0.2749
  N  N118  1  0.046000  0.624100  0.177500  1.0  -0.2721
  N  N119  1  0.822500  0.446600  0.868500  1.0  -0.2747
  N  N120  1  0.177500  0.046000  0.624100  1.0  -0.2697
  N  N121  1  0.578100  0.954000  0.131500  1.0  -0.2836
  N  N122  1  0.421900  0.553400  0.375900  1.0  -0.2738
  N  N123  1  0.375900  0.421900  0.553400  1.0  -0.2762
  N  N124  1  0.131500  0.578100  0.954000  1.0  -0.2803
  N  N125  1  0.624100  0.177500  0.046000  1.0  -0.2691
  N  N126  1  0.868500  0.822500  0.446600  1.0  -0.2767
  N  N127  1  0.375900  0.553400  0.421900  1.0  -0.2745
  N  N128  1  0.131500  0.954000  0.578100  1.0  -0.2817
  N  N129  1  0.624100  0.046000  0.177500  1.0  -0.2741
  N  N130  1  0.868500  0.446600  0.822500  1.0  -0.276
  N  N131  1  0.954000  0.578100  0.131500  1.0  -0.2831
  N  N132  1  0.553400  0.421900  0.375900  1.0  -0.2735
  N  N133  1  0.446600  0.822500  0.868500  1.0  -0.2747
  N  N134  1  0.046000  0.177500  0.624100  1.0  -0.2729
  N  N135  1  0.822500  0.868500  0.446600  1.0  -0.2757
  N  N136  1  0.177500  0.624100  0.046000  1.0  -0.2719
  N  N137  1  0.578100  0.131500  0.954000  1.0  -0.2791
  N  N138  1  0.421900  0.375900  0.553400  1.0  -0.2755
  N  N139  1  0.000000  0.273000  0.631200  1.0  0.0557
  N  N140  1  0.641800  0.368800  0.368800  1.0  0.0604
  N  N141  1  0.358200  0.727000  0.727000  1.0  0.0634
  N  N142  1  0.000000  0.631200  0.273000  1.0  0.056
  N  N143  1  0.727000  0.358200  0.727000  1.0  0.0622
  N  N144  1  0.273000  0.000000  0.631200  1.0  0.0538
  N  N145  1  0.631200  0.000000  0.273000  1.0  0.0556
  N  N146  1  0.368800  0.641800  0.368800  1.0  0.0617
  N  N147  1  0.368800  0.368800  0.641800  1.0  0.0625
  N  N148  1  0.273000  0.631200  0.000000  1.0  0.0533
  N  N149  1  0.631200  0.273000  0.000000  1.0  0.0554
  N  N150  1  0.727000  0.727000  0.358200  1.0  0.0635
  O  O151  1  0.000000  0.352400  0.787400  1.0  -0.4326
  O  O152  1  0.000000  0.468100  0.774100  1.0  -0.6318
  O  O153  1  0.565000  0.212600  0.212600  1.0  -0.4247
  O  O154  1  0.694000  0.225900  0.225900  1.0  -0.6287
  O  O155  1  0.435000  0.647600  0.647600  1.0  -0.4261
  O  O156  1  0.306000  0.531900  0.531900  1.0  -0.6237
  O  O157  1  0.000000  0.787400  0.352400  1.0  -0.4299
  O  O158  1  0.000000  0.774100  0.468100  1.0  -0.628
  O  O159  1  0.647600  0.435000  0.647600  1.0  -0.4317
  O  O160  1  0.531900  0.306000  0.531900  1.0  -0.622
  O  O161  1  0.352400  0.000000  0.787400  1.0  -0.4333
  O  O162  1  0.468100  0.000000  0.774100  1.0  -0.6289
  O  O163  1  0.787400  0.000000  0.352400  1.0  -0.4291
  O  O164  1  0.774100  0.000000  0.468100  1.0  -0.6283
  O  O165  1  0.212600  0.565000  0.212600  1.0  -0.4287
  O  O166  1  0.225900  0.694000  0.225900  1.0  -0.6308
  O  O167  1  0.212600  0.212600  0.565000  1.0  -0.4272
  O  O168  1  0.225900  0.225900  0.694000  1.0  -0.6283
  O  O169  1  0.352400  0.787400  0.000000  1.0  -0.428
  O  O170  1  0.468100  0.774100  0.000000  1.0  -0.6286
  O  O171  1  0.787400  0.352400  0.000000  1.0  -0.4245
  O  O172  1  0.774100  0.468100  0.000000  1.0  -0.632
  O  O173  1  0.647600  0.647600  0.435000  1.0  -0.4344
  O  O174  1  0.531900  0.531900  0.306000  1.0  -0.6233
  O  O175  1  0.000000  0.558200  0.000000  1.0  -0.826
  O  O176  1  0.558200  0.000000  0.000000  1.0  -0.8265
  O  O177  1  0.441800  0.441800  0.441800  1.0  -0.8108
  O  O178  1  0.000000  0.000000  0.558200  1.0  -0.8247
  F  F179  1  0.764300  0.224800  0.560100  1.0  -0.3214
  F  F180  1  0.664700  0.204200  0.439900  1.0  -0.3159
  F  F181  1  0.795800  0.235700  0.460500  1.0  -0.3193
  F  F182  1  0.775200  0.335300  0.539500  1.0  -0.3201
  F  F183  1  0.335300  0.775200  0.539500  1.0  -0.3206
  F  F184  1  0.235700  0.795800  0.460500  1.0  -0.3185
  F  F185  1  0.204200  0.664700  0.439900  1.0  -0.3157
  F  F186  1  0.224800  0.764300  0.560100  1.0  -0.3229
  F  F187  1  0.539500  0.335300  0.775200  1.0  -0.3198
  F  F188  1  0.460500  0.235700  0.795800  1.0  -0.3158
  F  F189  1  0.560100  0.224800  0.764300  1.0  -0.3214
  F  F190  1  0.439900  0.204200  0.664700  1.0  -0.3185
  F  F191  1  0.560100  0.764300  0.224800  1.0  -0.3254
  F  F192  1  0.439900  0.664700  0.204200  1.0  -0.3171
  F  F193  1  0.539500  0.775200  0.335300  1.0  -0.3205
  F  F194  1  0.460500  0.795800  0.235700  1.0  -0.316
  F  F195  1  0.204200  0.439900  0.664700  1.0  -0.3164
  F  F196  1  0.224800  0.560100  0.764300  1.0  -0.3137
  F  F197  1  0.335300  0.539500  0.775200  1.0  -0.3205
  F  F198  1  0.235700  0.460500  0.795800  1.0  -0.3158
  F  F199  1  0.795800  0.460500  0.235700  1.0  -0.3161
  F  F200  1  0.775200  0.539500  0.335300  1.0  -0.3215
  F  F201  1  0.764300  0.560100  0.224800  1.0  -0.3203
  F  F202  1  0.664700  0.439900  0.204200  1.0  -0.3099
