# generated using pymatgen
data_CuH4(C3N)4
_symmetry_space_group_name_H-M   'P 1'
_cell_length_a   12.73920000
_cell_length_b   21.71400000
_cell_length_c   17.81960000
_cell_angle_alpha   90.00000000
_cell_angle_beta   101.86400000
_cell_angle_gamma   90.00000000
_symmetry_Int_Tables_number   1
_chemical_formula_structural   CuH4(C3N)4
_chemical_formula_sum   'Cu8 H32 C96 N32'
_cell_volume   4823.94305788
_cell_formula_units_Z   8
loop_
 _symmetry_equiv_pos_site_id
 _symmetry_equiv_pos_as_xyz
  1  'x, y, z'
loop_
 _atom_site_type_symbol
 _atom_site_label
 _atom_site_symmetry_multiplicity
 _atom_site_fract_x
 _atom_site_fract_y
 _atom_site_fract_z
 _atom_site_occupancy
 _atom_site_charge
  Cu  Cu1  1  0.797010  0.188030  0.215610  1.0  0.5441
  Cu  Cu2  1  0.186290  0.916080  0.212220  1.0  0.5741
  Cu  Cu3  1  0.702990  0.688030  0.284390  1.0  0.5442
  Cu  Cu4  1  0.313710  0.416080  0.287780  1.0  0.5743
  Cu  Cu5  1  0.202990  0.811970  0.784390  1.0  0.5449
  Cu  Cu6  1  0.813710  0.083920  0.787780  1.0  0.5743
  Cu  Cu7  1  0.297010  0.311970  0.715610  1.0  0.5449
  Cu  Cu8  1  0.686290  0.583920  0.712220  1.0  0.574
  H  H9  1  0.887200  0.078200  0.442100  1.0  0.1095
  H  H10  1  0.116000  0.951600  0.434200  1.0  0.1102
  H  H11  1  0.600600  0.986200  0.906300  1.0  0.1108
  H  H12  1  0.546800  0.074600  0.093800  1.0  0.1128
  H  H13  1  0.668400  0.175100  0.430400  1.0  0.1162
  H  H14  1  0.663300  0.145000  0.554400  1.0  0.1063
  H  H15  1  0.426400  0.266600  0.560300  1.0  0.1052
  H  H16  1  0.436000  0.300400  0.438300  1.0  0.1059
  H  H17  1  0.612800  0.578200  0.057900  1.0  0.1086
  H  H18  1  0.384000  0.451600  0.065800  1.0  0.1099
  H  H19  1  0.899400  0.486200  0.593700  1.0  0.1112
  H  H20  1  0.953200  0.574600  0.406200  1.0  0.1132
  H  H21  1  0.831600  0.675100  0.069600  1.0  0.1163
  H  H22  1  0.836700  0.645000  0.945600  1.0  0.1064
  H  H23  1  0.073600  0.766600  0.939700  1.0  0.1058
  H  H24  1  0.064000  0.800400  0.061700  1.0  0.1054
  H  H25  1  0.112800  0.921800  0.557900  1.0  0.1088
  H  H26  1  0.884000  0.048400  0.565800  1.0  0.1096
  H  H27  1  0.399400  0.013800  0.093700  1.0  0.111
  H  H28  1  0.453200  0.925400  0.906200  1.0  0.1132
  H  H29  1  0.331600  0.824900  0.569600  1.0  0.1161
  H  H30  1  0.336700  0.855000  0.445600  1.0  0.1066
  H  H31  1  0.573600  0.733400  0.439700  1.0  0.1055
  H  H32  1  0.564000  0.699600  0.561700  1.0  0.1058
  H  H33  1  0.387200  0.421800  0.942100  1.0  0.1088
  H  H34  1  0.616000  0.548400  0.934200  1.0  0.1104
  H  H35  1  0.100600  0.513800  0.406300  1.0  0.1107
  H  H36  1  0.046800  0.425400  0.593800  1.0  0.1131
  H  H37  1  0.168400  0.324900  0.930400  1.0  0.1164
  H  H38  1  0.163300  0.355000  0.054400  1.0  0.1062
  H  H39  1  0.926400  0.233400  0.060300  1.0  0.1052
  H  H40  1  0.936000  0.199600  0.938300  1.0  0.1057
  C  C41  1  0.938100  0.084600  0.308900  1.0  0.3823
  C  C42  1  0.003200  0.036600  0.344900  1.0  -0.3226
  C  C43  1  0.063000  0.003800  0.300900  1.0  0.3401
  C  C44  1  0.003000  0.019000  0.424000  1.0  0.0226
  C  C45  1  0.933900  0.046300  0.465300  1.0  -0.0621
  C  C46  1  0.068400  0.971800  0.460800  1.0  -0.0588
  C  C47  1  0.719900  0.118000  0.061000  1.0  0.3936
  C  C48  1  0.686300  0.076600  0.001000  1.0  -0.3134
  C  C49  1  0.743100  0.073400  0.941700  1.0  0.3932
  C  C50  1  0.592300  0.037700  0.000300  1.0  0.0324
  C  C51  1  0.560200  0.992300  0.944900  1.0  -0.0962
  C  C52  1  0.528300  0.044000  0.055100  1.0  -0.0658
  C  C53  1  0.620900  0.236600  0.297700  1.0  0.3003
  C  C54  1  0.550700  0.260400  0.341400  1.0  -0.269
  C  C55  1  0.475000  0.305300  0.308200  1.0  0.3872
  C  C56  1  0.552200  0.241400  0.420000  1.0  0.0278
  C  C57  1  0.619600  0.194600  0.456600  1.0  -0.0729
  C  C58  1  0.615600  0.176200  0.530600  1.0  0.0988
  C  C59  1  0.544100  0.202100  0.571000  1.0  -0.0596
  C  C60  1  0.476800  0.248200  0.534500  1.0  -0.0641
  C  C61  1  0.481800  0.268000  0.461100  1.0  -0.0527
  C  C62  1  0.538700  0.184300  0.650000  1.0  -0.1693
  C  C63  1  0.608500  0.140600  0.690300  1.0  0.3698
  C  C64  1  0.466500  0.215700  0.685400  1.0  0.3732
  C  C65  1  0.561900  0.584600  0.191100  1.0  0.3832
  C  C66  1  0.496800  0.536600  0.155100  1.0  -0.3227
  C  C67  1  0.437000  0.503800  0.199100  1.0  0.3401
  C  C68  1  0.497000  0.519000  0.076000  1.0  0.0192
  C  C69  1  0.566100  0.546300  0.034700  1.0  -0.0629
  C  C70  1  0.431600  0.471800  0.039200  1.0  -0.0577
  C  C71  1  0.780100  0.618000  0.439000  1.0  0.3933
  C  C72  1  0.813700  0.576600  0.499000  1.0  -0.3129
  C  C73  1  0.756900  0.573400  0.558300  1.0  0.3944
  C  C74  1  0.907700  0.537700  0.499700  1.0  0.0337
  C  C75  1  0.939800  0.492300  0.555100  1.0  -0.0956
  C  C76  1  0.971700  0.544000  0.444900  1.0  -0.0685
  C  C77  1  0.879100  0.736600  0.202300  1.0  0.2988
  C  C78  1  0.949300  0.760400  0.158600  1.0  -0.2704
  C  C79  1  0.025000  0.805300  0.191800  1.0  0.3883
  C  C80  1  0.947800  0.741400  0.080000  1.0  0.0273
  C  C81  1  0.880400  0.694600  0.043400  1.0  -0.0735
  C  C82  1  0.884400  0.676200  0.969400  1.0  0.0981
  C  C83  1  0.955900  0.702100  0.929000  1.0  -0.0568
  C  C84  1  0.023200  0.748200  0.965500  1.0  -0.066
  C  C85  1  0.018200  0.768000  0.038900  1.0  -0.0525
  C  C86  1  0.961300  0.684300  0.850000  1.0  -0.1711
  C  C87  1  0.891500  0.640600  0.809700  1.0  0.3693
  C  C88  1  0.033500  0.715700  0.814600  1.0  0.3772
  C  C89  1  0.061900  0.915400  0.691100  1.0  0.3827
  C  C90  1  0.996800  0.963400  0.655100  1.0  -0.3222
  C  C91  1  0.937000  0.996200  0.699100  1.0  0.3403
  C  C92  1  0.997000  0.981000  0.576000  1.0  0.0191
  C  C93  1  0.066100  0.953700  0.534700  1.0  -0.0623
  C  C94  1  0.931600  0.028200  0.539200  1.0  -0.0575
  C  C95  1  0.280100  0.882000  0.939000  1.0  0.3935
  C  C96  1  0.313700  0.923400  0.999000  1.0  -0.3129
  C  C97  1  0.256900  0.926600  0.058300  1.0  0.3941
  C  C98  1  0.407700  0.962300  0.999700  1.0  0.0331
  C  C99  1  0.439800  0.007700  0.055100  1.0  -0.096
  C  C100  1  0.471700  0.956000  0.944900  1.0  -0.0683
  C  C101  1  0.379100  0.763400  0.702300  1.0  0.299
  C  C102  1  0.449300  0.739600  0.658600  1.0  -0.2706
  C  C103  1  0.525000  0.694700  0.691800  1.0  0.3879
  C  C104  1  0.447800  0.758600  0.580000  1.0  0.0272
  C  C105  1  0.380400  0.805400  0.543400  1.0  -0.0742
  C  C106  1  0.384400  0.823800  0.469400  1.0  0.097
  C  C107  1  0.455900  0.797900  0.429000  1.0  -0.056
  C  C108  1  0.523200  0.751800  0.465500  1.0  -0.0656
  C  C109  1  0.518200  0.732000  0.538900  1.0  -0.0526
  C  C110  1  0.461300  0.815700  0.350000  1.0  -0.171
  C  C111  1  0.391500  0.859400  0.309700  1.0  0.3687
  C  C112  1  0.533500  0.784300  0.314600  1.0  0.3772
  C  C113  1  0.438100  0.415400  0.808900  1.0  0.3817
  C  C114  1  0.503200  0.463400  0.844900  1.0  -0.3227
  C  C115  1  0.563000  0.496200  0.800900  1.0  0.3402
  C  C116  1  0.503000  0.481000  0.924000  1.0  0.0218
  C  C117  1  0.433900  0.453700  0.965300  1.0  -0.0609
  C  C118  1  0.568400  0.528200  0.960800  1.0  -0.058
  C  C119  1  0.219900  0.382000  0.561000  1.0  0.3932
  C  C120  1  0.186300  0.423400  0.501000  1.0  -0.313
  C  C121  1  0.243100  0.426600  0.441700  1.0  0.3928
  C  C122  1  0.092300  0.462300  0.500300  1.0  0.032
  C  C123  1  0.060200  0.507700  0.444900  1.0  -0.0961
  C  C124  1  0.028300  0.456000  0.555100  1.0  -0.0659
  C  C125  1  0.120900  0.263400  0.797700  1.0  0.3001
  C  C126  1  0.050700  0.239600  0.841400  1.0  -0.2692
  C  C127  1  0.975000  0.194700  0.808200  1.0  0.3869
  C  C128  1  0.052200  0.258600  0.920000  1.0  0.0276
  C  C129  1  0.119600  0.305400  0.956600  1.0  -0.073
  C  C130  1  0.115600  0.323800  0.030600  1.0  0.0982
  C  C131  1  0.044100  0.297900  0.071000  1.0  -0.0597
  C  C132  1  0.976800  0.251800  0.034500  1.0  -0.0638
  C  C133  1  0.981800  0.232000  0.961100  1.0  -0.0519
  C  C134  1  0.038700  0.315700  0.150000  1.0  -0.1695
  C  C135  1  0.108500  0.359400  0.190300  1.0  0.3695
  C  C136  1  0.966500  0.284300  0.185400  1.0  0.3726
  N  N137  1  0.883800  0.123700  0.279600  1.0  -0.4222
  N  N138  1  0.113900  0.976270  0.266000  1.0  -0.433
  N  N139  1  0.745100  0.151200  0.112400  1.0  -0.4299
  N  N140  1  0.785800  0.069940  0.891200  1.0  -0.4503
  N  N141  1  0.681200  0.216640  0.263600  1.0  -0.41
  N  N142  1  0.408800  0.341500  0.287800  1.0  -0.4286
  N  N143  1  0.668100  0.104700  0.722000  1.0  -0.5115
  N  N144  1  0.404900  0.245690  0.707700  1.0  -0.4226
  N  N145  1  0.616200  0.623700  0.220400  1.0  -0.4236
  N  N146  1  0.386100  0.476270  0.234000  1.0  -0.43
  N  N147  1  0.754900  0.651200  0.387600  1.0  -0.4312
  N  N148  1  0.714200  0.569940  0.608800  1.0  -0.4505
  N  N149  1  0.818800  0.716640  0.236400  1.0  -0.4081
  N  N150  1  0.091200  0.841500  0.212200  1.0  -0.4285
  N  N151  1  0.831900  0.604700  0.778000  1.0  -0.5124
  N  N152  1  0.095100  0.745690  0.792300  1.0  -0.422
  N  N153  1  0.116200  0.876300  0.720400  1.0  -0.423
  N  N154  1  0.886100  0.023730  0.734000  1.0  -0.4296
  N  N155  1  0.254900  0.848800  0.887600  1.0  -0.4316
  N  N156  1  0.214200  0.930060  0.108800  1.0  -0.4508
  N  N157  1  0.318800  0.783360  0.736400  1.0  -0.4086
  N  N158  1  0.591200  0.658500  0.712200  1.0  -0.4279
  N  N159  1  0.331900  0.895300  0.278000  1.0  -0.5136
  N  N160  1  0.595100  0.754310  0.292300  1.0  -0.4225
  N  N161  1  0.383800  0.376300  0.779600  1.0  -0.4223
  N  N162  1  0.613900  0.523730  0.766000  1.0  -0.4324
  N  N163  1  0.245100  0.348800  0.612400  1.0  -0.4301
  N  N164  1  0.285800  0.430060  0.391200  1.0  -0.4496
  N  N165  1  0.181200  0.283360  0.763600  1.0  -0.4105
  N  N166  1  0.908800  0.158500  0.787800  1.0  -0.4282
  N  N167  1  0.168100  0.395300  0.222000  1.0  -0.514
  N  N168  1  0.904900  0.254310  0.207700  1.0  -0.423
