# generated using pymatgen
data_CuH4(C3N)4
_symmetry_space_group_name_H-M   'P 1'
_cell_length_a   12.52550000
_cell_length_b   8.17010000
_cell_length_c   20.94740000
_cell_angle_alpha   90.00000000
_cell_angle_beta   96.83500000
_cell_angle_gamma   90.00000000
_symmetry_Int_Tables_number   1
_chemical_formula_structural   CuH4(C3N)4
_chemical_formula_sum   'Cu4 H16 C48 N16'
_cell_volume   2128.40865170
_cell_formula_units_Z   4
loop_
 _symmetry_equiv_pos_site_id
 _symmetry_equiv_pos_as_xyz
  1  'x, y, z'
loop_
 _atom_site_type_symbol
 _atom_site_label
 _atom_site_symmetry_multiplicity
 _atom_site_fract_x
 _atom_site_fract_y
 _atom_site_fract_z
 _atom_site_occupancy
 _atom_site_charge
  Cu  Cu1  1  0.998850  0.141470  0.245130  1.0  0.5244
  Cu  Cu2  1  0.501150  0.641470  0.254870  1.0  0.5255
  Cu  Cu3  1  0.001150  0.858530  0.754870  1.0  0.5251
  Cu  Cu4  1  0.498850  0.358530  0.745130  1.0  0.5243
  H  H5  1  0.889400  0.824100  0.949300  1.0  0.1289
  H  H6  1  0.605500  0.583700  0.949900  1.0  0.1264
  H  H7  1  0.883000  0.900200  0.055600  1.0  0.1246
  H  H8  1  0.599100  0.663400  0.055700  1.0  0.1239
  H  H9  1  0.610600  0.324100  0.550700  1.0  0.1282
  H  H10  1  0.894500  0.083700  0.550100  1.0  0.1262
  H  H11  1  0.617000  0.400200  0.444400  1.0  0.1247
  H  H12  1  0.900900  0.163400  0.444300  1.0  0.1246
  H  H13  1  0.110600  0.175900  0.050700  1.0  0.1285
  H  H14  1  0.394500  0.416300  0.050100  1.0  0.126
  H  H15  1  0.117000  0.099800  0.944400  1.0  0.1246
  H  H16  1  0.400900  0.336600  0.944300  1.0  0.1246
  H  H17  1  0.389400  0.675900  0.449300  1.0  0.1286
  H  H18  1  0.105500  0.916300  0.449900  1.0  0.1265
  H  H19  1  0.383000  0.599800  0.555600  1.0  0.1245
  H  H20  1  0.099100  0.836600  0.555700  1.0  0.1236
  C  C21  1  0.665300  0.571400  0.833200  1.0  0.3253
  C  C22  1  0.750200  0.654100  0.869200  1.0  -0.2708
  C  C23  1  0.738700  0.795500  0.066700  1.0  0.0359
  C  C24  1  0.812100  0.949600  0.165400  1.0  0.2713
  C  C25  1  0.830200  0.791000  0.970600  1.0  -0.0545
  C  C26  1  0.732400  0.849100  0.133000  1.0  -0.2087
  C  C27  1  0.661900  0.648900  0.970900  1.0  -0.0413
  C  C28  1  0.825600  0.837900  0.034000  1.0  -0.0342
  C  C29  1  0.645600  0.815200  0.166100  1.0  0.3282
  C  C30  1  0.657800  0.697300  0.034100  1.0  -0.0492
  C  C31  1  0.747900  0.694800  0.937500  1.0  0.014
  C  C32  1  0.832600  0.705300  0.835200  1.0  0.3005
  C  C33  1  0.834700  0.071400  0.666800  1.0  0.3243
  C  C34  1  0.749800  0.154100  0.630800  1.0  -0.2711
  C  C35  1  0.761300  0.295500  0.433300  1.0  0.0372
  C  C36  1  0.687900  0.449600  0.334600  1.0  0.2705
  C  C37  1  0.669800  0.291000  0.529400  1.0  -0.0545
  C  C38  1  0.767600  0.349100  0.367000  1.0  -0.2095
  C  C39  1  0.838100  0.148900  0.529100  1.0  -0.0406
  C  C40  1  0.674400  0.337900  0.466000  1.0  -0.0338
  C  C41  1  0.854400  0.315200  0.333900  1.0  0.329
  C  C42  1  0.842200  0.197300  0.465900  1.0  -0.0486
  C  C43  1  0.752100  0.194800  0.562500  1.0  0.0128
  C  C44  1  0.667400  0.205300  0.664800  1.0  0.3
  C  C45  1  0.334700  0.428600  0.166800  1.0  0.3239
  C  C46  1  0.249800  0.345900  0.130800  1.0  -0.2705
  C  C47  1  0.261300  0.204500  0.933300  1.0  0.0372
  C  C48  1  0.187900  0.050400  0.834600  1.0  0.27
  C  C49  1  0.169800  0.209000  0.029400  1.0  -0.0544
  C  C50  1  0.267600  0.150900  0.867000  1.0  -0.2102
  C  C51  1  0.338100  0.351100  0.029100  1.0  -0.04
  C  C52  1  0.174400  0.162100  0.966000  1.0  -0.0333
  C  C53  1  0.354400  0.184800  0.833900  1.0  0.3287
  C  C54  1  0.342200  0.302700  0.965900  1.0  -0.0476
  C  C55  1  0.252100  0.305200  0.062500  1.0  0.0129
  C  C56  1  0.167400  0.294700  0.164800  1.0  0.2998
  C  C57  1  0.165300  0.928600  0.333200  1.0  0.3258
  C  C58  1  0.250200  0.845900  0.369200  1.0  -0.27
  C  C59  1  0.238700  0.704500  0.566700  1.0  0.0362
  C  C60  1  0.312100  0.550400  0.665400  1.0  0.2712
  C  C61  1  0.330200  0.709000  0.470600  1.0  -0.0539
  C  C62  1  0.232400  0.650900  0.633000  1.0  -0.2091
  C  C63  1  0.161900  0.851100  0.470900  1.0  -0.0414
  C  C64  1  0.325600  0.662100  0.534000  1.0  -0.0346
  C  C65  1  0.145600  0.684800  0.666100  1.0  0.329
  C  C66  1  0.157800  0.802700  0.534100  1.0  -0.0481
  C  C67  1  0.247900  0.805200  0.437500  1.0  0.015
  C  C68  1  0.332600  0.794700  0.335200  1.0  0.3007
  N  N69  1  0.903100  0.749300  0.807200  1.0  -0.4446
  N  N70  1  0.594600  0.506900  0.802700  1.0  -0.3807
  N  N71  1  0.880700  0.029100  0.192400  1.0  -0.4096
  N  N72  1  0.573100  0.785000  0.194600  1.0  -0.409
  N  N73  1  0.596900  0.249300  0.692800  1.0  -0.4441
  N  N74  1  0.905400  0.006900  0.697300  1.0  -0.3806
  N  N75  1  0.619300  0.529100  0.307600  1.0  -0.407
  N  N76  1  0.926900  0.285000  0.305400  1.0  -0.4103
  N  N77  1  0.096900  0.250700  0.192800  1.0  -0.441
  N  N78  1  0.405400  0.493100  0.197300  1.0  -0.3803
  N  N79  1  0.119300  0.970900  0.807600  1.0  -0.4077
  N  N80  1  0.426900  0.215000  0.805400  1.0  -0.421
  N  N81  1  0.403100  0.750700  0.307200  1.0  -0.4443
  N  N82  1  0.094600  0.993100  0.302700  1.0  -0.3797
  N  N83  1  0.380700  0.470900  0.692400  1.0  -0.4095
  N  N84  1  0.073100  0.715000  0.694600  1.0  -0.4143
