# generated using pymatgen
data_CuH4(C3N)4
_symmetry_space_group_name_H-M   'P 1'
_cell_length_a   9.75630000
_cell_length_b   11.24130000
_cell_length_c   21.59570000
_cell_angle_alpha   90.00000000
_cell_angle_beta   90.00000000
_cell_angle_gamma   90.00000000
_symmetry_Int_Tables_number   1
_chemical_formula_structural   CuH4(C3N)4
_chemical_formula_sum   'Cu4 H16 C48 N16'
_cell_volume   2368.47590007
_cell_formula_units_Z   4
loop_
 _symmetry_equiv_pos_site_id
 _symmetry_equiv_pos_as_xyz
  1  'x, y, z'
loop_
 _atom_site_type_symbol
 _atom_site_label
 _atom_site_symmetry_multiplicity
 _atom_site_fract_x
 _atom_site_fract_y
 _atom_site_fract_z
 _atom_site_occupancy
 _atom_site_charge
  Cu  Cu1  1  0.250000  0.750000  0.249190  1.0  0.497
  Cu  Cu2  1  0.750000  0.250000  0.250810  1.0  0.4961
  Cu  Cu3  1  0.750000  0.250000  0.750810  1.0  0.4961
  Cu  Cu4  1  0.250000  0.750000  0.749190  1.0  0.497
  H  H5  1  0.141100  0.870600  0.446700  1.0  0.1109
  H  H6  1  0.878100  0.144400  0.447400  1.0  0.1157
  H  H7  1  0.358900  0.629400  0.446700  1.0  0.1113
  H  H8  1  0.621900  0.355600  0.447400  1.0  0.1153
  H  H9  1  0.858900  0.370600  0.053300  1.0  0.1108
  H  H10  1  0.121900  0.644400  0.052600  1.0  0.1153
  H  H11  1  0.641100  0.129400  0.053300  1.0  0.111
  H  H12  1  0.378100  0.855600  0.052600  1.0  0.1151
  H  H13  1  0.858900  0.129400  0.553300  1.0  0.1109
  H  H14  1  0.121900  0.855600  0.552600  1.0  0.1152
  H  H15  1  0.641100  0.370600  0.553300  1.0  0.111
  H  H16  1  0.378100  0.644400  0.552600  1.0  0.1153
  H  H17  1  0.141100  0.629400  0.946700  1.0  0.1112
  H  H18  1  0.878100  0.355600  0.947400  1.0  0.1152
  H  H19  1  0.358900  0.870600  0.946700  1.0  0.1109
  H  H20  1  0.621900  0.144400  0.947400  1.0  0.1156
  C  C21  1  0.105700  0.940700  0.332580  1.0  0.3778
  C  C22  1  0.025600  0.019900  0.367000  1.0  -0.3033
  C  C23  1  0.952400  0.104000  0.333290  1.0  0.3712
  C  C24  1  0.012000  0.009300  0.434750  1.0  0.0198
  C  C25  1  0.084100  0.923100  0.467880  1.0  -0.0536
  C  C26  1  0.927500  0.086100  0.468230  1.0  -0.06
  C  C27  1  0.394300  0.559300  0.332580  1.0  0.3779
  C  C28  1  0.474400  0.480100  0.367000  1.0  -0.304
  C  C29  1  0.547600  0.396000  0.333290  1.0  0.3718
  C  C30  1  0.488000  0.490700  0.434750  1.0  0.02
  C  C31  1  0.415900  0.576900  0.467880  1.0  -0.0544
  C  C32  1  0.572500  0.413900  0.468230  1.0  -0.059
  C  C33  1  0.894300  0.440700  0.167420  1.0  0.3775
  C  C34  1  0.974400  0.519900  0.133000  1.0  -0.3035
  C  C35  1  0.047600  0.604000  0.166710  1.0  0.3701
  C  C36  1  0.988000  0.509300  0.065250  1.0  0.0181
  C  C37  1  0.915900  0.423100  0.032120  1.0  -0.053
  C  C38  1  0.072500  0.586100  0.031770  1.0  -0.0598
  C  C39  1  0.605700  0.059300  0.167420  1.0  0.3777
  C  C40  1  0.525600  0.980100  0.133000  1.0  -0.3035
  C  C41  1  0.452400  0.896000  0.166710  1.0  0.3702
  C  C42  1  0.512000  0.990700  0.065250  1.0  0.0182
  C  C43  1  0.584100  0.076900  0.032120  1.0  -0.0544
  C  C44  1  0.427500  0.913900  0.031770  1.0  -0.0577
  C  C45  1  0.894300  0.059300  0.667420  1.0  0.3775
  C  C46  1  0.974400  0.980100  0.633000  1.0  -0.3004
  C  C47  1  0.047600  0.896000  0.666667  1.0  0.3708
  C  C48  1  0.988000  0.990700  0.565250  1.0  0.0179
  C  C49  1  0.915900  0.076900  0.532120  1.0  -0.0551
  C  C50  1  0.072500  0.913900  0.531770  1.0  -0.0585
  C  C51  1  0.605700  0.440700  0.667420  1.0  0.3778
  C  C52  1  0.525600  0.519900  0.633000  1.0  -0.2998
  C  C53  1  0.452400  0.604000  0.666667  1.0  0.37
  C  C54  1  0.512000  0.509300  0.565250  1.0  0.0177
  C  C55  1  0.584100  0.423100  0.532120  1.0  -0.0542
  C  C56  1  0.427500  0.586100  0.531770  1.0  -0.0597
  C  C57  1  0.105700  0.559300  0.832580  1.0  0.378
  C  C58  1  0.025600  0.480100  0.867000  1.0  -0.3037
  C  C59  1  0.952400  0.396000  0.833290  1.0  0.3715
  C  C60  1  0.012000  0.490700  0.934750  1.0  0.0199
  C  C61  1  0.084100  0.576900  0.967880  1.0  -0.0547
  C  C62  1  0.927500  0.413900  0.968230  1.0  -0.058
  C  C63  1  0.394300  0.940700  0.832580  1.0  0.3777
  C  C64  1  0.474400  0.019900  0.867000  1.0  -0.3036
  C  C65  1  0.547600  0.104000  0.833290  1.0  0.3715
  C  C66  1  0.488000  0.009300  0.934750  1.0  0.0199
  C  C67  1  0.415900  0.923100  0.967880  1.0  -0.054
  C  C68  1  0.572500  0.086100  0.968230  1.0  -0.0596
  N  N69  1  0.169300  0.875300  0.303360  1.0  -0.4064
  N  N70  1  0.891000  0.172400  0.304580  1.0  -0.4193
  N  N71  1  0.330700  0.624700  0.303360  1.0  -0.4061
  N  N72  1  0.609000  0.327600  0.304580  1.0  -0.4172
  N  N73  1  0.830700  0.375300  0.196640  1.0  -0.4089
  N  N74  1  0.109000  0.672400  0.195420  1.0  -0.4196
  N  N75  1  0.669300  0.124700  0.196640  1.0  -0.41
  N  N76  1  0.391000  0.827600  0.195420  1.0  -0.4186
  N  N77  1  0.830700  0.124700  0.696640  1.0  -0.4058
  N  N78  1  0.109000  0.827600  0.695420  1.0  -0.4164
  N  N79  1  0.669300  0.375300  0.696640  1.0  -0.406
  N  N80  1  0.391000  0.672400  0.695420  1.0  -0.4192
  N  N81  1  0.169300  0.624700  0.803360  1.0  -0.4095
  N  N82  1  0.891000  0.327600  0.804580  1.0  -0.4184
  N  N83  1  0.330700  0.875300  0.803360  1.0  -0.4096
  N  N84  1  0.609000  0.172400  0.804580  1.0  -0.4186
