# generated using pymatgen
data_EuC17(NO2)3
_symmetry_space_group_name_H-M   'P 1'
_cell_length_a   31.81000000
_cell_length_b   14.99300000
_cell_length_c   13.22000000
_cell_angle_alpha   90.00000000
_cell_angle_beta   96.01000000
_cell_angle_gamma   90.00000000
_symmetry_Int_Tables_number   1
_chemical_formula_structural   EuC17(NO2)3
_chemical_formula_sum   'Eu8 C136 N24 O48'
_cell_volume   6270.32484489
_cell_formula_units_Z   8
loop_
 _symmetry_equiv_pos_site_id
 _symmetry_equiv_pos_as_xyz
  1  'x, y, z'
loop_
 _atom_site_type_symbol
 _atom_site_label
 _atom_site_symmetry_multiplicity
 _atom_site_fract_x
 _atom_site_fract_y
 _atom_site_fract_z
 _atom_site_occupancy
 _atom_site_charge
  Eu  Eu1  1  0.189360  0.206740  0.470450  1.0  2.126
  Eu  Eu2  1  0.689360  0.706740  0.470450  1.0  2.126
  Eu  Eu3  1  0.810640  0.206740  0.029550  1.0  2.1259
  Eu  Eu4  1  0.310640  0.706740  0.029550  1.0  2.1259
  Eu  Eu5  1  0.810640  0.793260  0.529550  1.0  2.126
  Eu  Eu6  1  0.310640  0.293260  0.529550  1.0  2.126
  Eu  Eu7  1  0.189360  0.793260  0.970450  1.0  2.1265
  Eu  Eu8  1  0.689360  0.293260  0.970450  1.0  2.1265
  C  C9  1  0.210560  0.399140  0.742110  1.0  -0.1048
  C  C10  1  0.235870  0.464340  0.792300  1.0  0.0056
  C  C11  1  0.218200  0.526630  0.853250  1.0  -0.1111
  C  C12  1  0.175230  0.523720  0.864010  1.0  0.0376
  C  C13  1  0.149910  0.458530  0.813820  1.0  0.2906
  C  C14  1  0.167580  0.396240  0.752880  1.0  0.0664
  C  C15  1  0.997530  0.290390  0.879210  1.0  0.0035
  C  C16  1  0.002630  0.384050  0.879570  1.0  0.0456
  C  C17  1  0.969950  0.438560  0.905700  1.0  0.056
  C  C18  1  0.932750  0.399700  0.932290  1.0  0.0676
  C  C19  1  0.928100  0.308600  0.932400  1.0  -0.0663
  C  C20  1  0.959940  0.254510  0.905830  1.0  0.0373
  C  C21  1  0.040730  0.422600  0.855420  1.0  0.0966
  C  C22  1  0.081230  0.386020  0.845020  1.0  -0.016
  C  C23  1  0.229050  0.335000  0.669800  1.0  0.6525
  C  C24  1  0.246230  0.596300  0.910200  1.0  0.6731
  C  C25  1  0.888410  0.269600  0.966600  1.0  0.6703
  C  C26  1  0.710560  0.899140  0.742110  1.0  -0.1048
  C  C27  1  0.735870  0.964340  0.792300  1.0  0.0056
  C  C28  1  0.718200  0.026630  0.853250  1.0  -0.1111
  C  C29  1  0.675230  0.023720  0.864010  1.0  0.0376
  C  C30  1  0.649910  0.958530  0.813820  1.0  0.2906
  C  C31  1  0.667580  0.896240  0.752880  1.0  0.0664
  C  C32  1  0.497530  0.790390  0.879210  1.0  0.0035
  C  C33  1  0.502630  0.884050  0.879570  1.0  0.0456
  C  C34  1  0.469950  0.938560  0.905700  1.0  0.056
  C  C35  1  0.432750  0.899700  0.932290  1.0  0.0676
  C  C36  1  0.428100  0.808600  0.932400  1.0  -0.0663
  C  C37  1  0.459940  0.754510  0.905830  1.0  0.0373
  C  C38  1  0.540730  0.922600  0.855420  1.0  0.0966
  C  C39  1  0.581230  0.886020  0.845020  1.0  -0.016
  C  C40  1  0.729050  0.835000  0.669800  1.0  0.6525
  C  C41  1  0.746230  0.096300  0.910200  1.0  0.6731
  C  C42  1  0.388410  0.769600  0.966600  1.0  0.6703
  C  C43  1  0.789440  0.399140  0.757890  1.0  -0.105
  C  C44  1  0.764130  0.464340  0.707700  1.0  0.0086
  C  C45  1  0.781800  0.526630  0.646750  1.0  -0.1103
  C  C46  1  0.824770  0.523720  0.635990  1.0  0.0389
  C  C47  1  0.850090  0.458530  0.686180  1.0  0.2907
  C  C48  1  0.832420  0.396240  0.747120  1.0  0.0673
  C  C49  1  0.002470  0.290390  0.620790  1.0  0.0051
  C  C50  1  0.997370  0.384050  0.620430  1.0  0.0458
  C  C51  1  0.030050  0.438560  0.594300  1.0  0.0565
  C  C52  1  0.067250  0.399700  0.567710  1.0  0.0662
  C  C53  1  0.071900  0.308600  0.567600  1.0  -0.0677
  C  C54  1  0.040060  0.254510  0.594170  1.0  0.0351
  C  C55  1  0.959270  0.422600  0.644580  1.0  0.0949
  C  C56  1  0.918770  0.386020  0.654980  1.0  -0.0184
  C  C57  1  0.770950  0.335000  0.830200  1.0  0.651
  C  C58  1  0.753770  0.596300  0.589800  1.0  0.6726
  C  C59  1  0.111590  0.269600  0.533400  1.0  0.6707
  C  C60  1  0.289440  0.899140  0.757890  1.0  -0.105
  C  C61  1  0.264130  0.964340  0.707700  1.0  0.0086
  C  C62  1  0.281800  0.026630  0.646750  1.0  -0.1103
  C  C63  1  0.324770  0.023720  0.635990  1.0  0.0389
  C  C64  1  0.350090  0.958530  0.686180  1.0  0.2907
  C  C65  1  0.332420  0.896240  0.747120  1.0  0.0673
  C  C66  1  0.502470  0.790390  0.620790  1.0  0.0051
  C  C67  1  0.497370  0.884050  0.620430  1.0  0.0458
  C  C68  1  0.530050  0.938560  0.594300  1.0  0.0565
  C  C69  1  0.567250  0.899700  0.567710  1.0  0.0662
  C  C70  1  0.571900  0.808600  0.567600  1.0  -0.0677
  C  C71  1  0.540060  0.754510  0.594170  1.0  0.0369
  C  C72  1  0.459270  0.922600  0.644580  1.0  0.0949
  C  C73  1  0.418770  0.886020  0.654980  1.0  -0.0184
  C  C74  1  0.270950  0.835000  0.830200  1.0  0.651
  C  C75  1  0.253770  0.096300  0.589800  1.0  0.6726
  C  C76  1  0.611590  0.769600  0.533400  1.0  0.6707
  C  C77  1  0.789440  0.600860  0.257890  1.0  -0.1045
  C  C78  1  0.764130  0.535660  0.207700  1.0  0.0085
  C  C79  1  0.781800  0.473370  0.146750  1.0  -0.1106
  C  C80  1  0.824770  0.476280  0.135990  1.0  0.0396
  C  C81  1  0.850090  0.541470  0.186180  1.0  0.2908
  C  C82  1  0.832420  0.603760  0.247120  1.0  0.0662
  C  C83  1  0.002470  0.709610  0.120790  1.0  0.0063
  C  C84  1  0.997370  0.615950  0.120430  1.0  0.0464
  C  C85  1  0.030050  0.561440  0.094300  1.0  0.0548
  C  C86  1  0.067250  0.600300  0.067710  1.0  0.0657
  C  C87  1  0.071900  0.691400  0.067600  1.0  -0.0688
  C  C88  1  0.040060  0.745490  0.094170  1.0  0.0395
  C  C89  1  0.959270  0.577400  0.144580  1.0  0.0961
  C  C90  1  0.918770  0.613980  0.154980  1.0  -0.0196
  C  C91  1  0.770950  0.665000  0.330200  1.0  0.6506
  C  C92  1  0.753770  0.403700  0.089800  1.0  0.6726
  C  C93  1  0.111590  0.730400  0.033400  1.0  0.6716
  C  C94  1  0.289440  0.100860  0.257890  1.0  -0.1045
  C  C95  1  0.264130  0.035660  0.207700  1.0  0.0085
  C  C96  1  0.281800  0.973370  0.146750  1.0  -0.1106
  C  C97  1  0.324770  0.976280  0.135990  1.0  0.0396
  C  C98  1  0.350090  0.041470  0.186180  1.0  0.2908
  C  C99  1  0.332420  0.103760  0.247120  1.0  0.0662
  C  C100  1  0.502470  0.209610  0.120790  1.0  0.0063
  C  C101  1  0.497370  0.115950  0.120430  1.0  0.0464
  C  C102  1  0.530050  0.061440  0.094300  1.0  0.0548
  C  C103  1  0.567250  0.100300  0.067710  1.0  0.0657
  C  C104  1  0.571900  0.191400  0.067600  1.0  -0.0688
  C  C105  1  0.540060  0.245490  0.094170  1.0  0.0395
  C  C106  1  0.459270  0.077400  0.144580  1.0  0.0961
  C  C107  1  0.418770  0.113980  0.154980  1.0  -0.0196
  C  C108  1  0.270950  0.165000  0.330200  1.0  0.6506
  C  C109  1  0.253770  0.903700  0.089800  1.0  0.6726
  C  C110  1  0.611590  0.230400  0.033400  1.0  0.6716
  C  C111  1  0.210560  0.600860  0.242110  1.0  -0.105
  C  C112  1  0.235870  0.535660  0.292300  1.0  0.0058
  C  C113  1  0.218200  0.473370  0.353250  1.0  -0.1114
  C  C114  1  0.175230  0.476280  0.364010  1.0  0.0387
  C  C115  1  0.149910  0.541470  0.313820  1.0  0.2907
  C  C116  1  0.167580  0.603760  0.252880  1.0  0.0662
  C  C117  1  0.997530  0.709610  0.379210  1.0  0.0043
  C  C118  1  0.002630  0.615950  0.379570  1.0  0.0457
  C  C119  1  0.969950  0.561440  0.405700  1.0  0.0558
  C  C120  1  0.932750  0.600300  0.432290  1.0  0.0672
  C  C121  1  0.928100  0.691400  0.432400  1.0  -0.067
  C  C122  1  0.959940  0.745490  0.405830  1.0  0.0372
  C  C123  1  0.040730  0.577400  0.355420  1.0  0.0952
  C  C124  1  0.081230  0.613980  0.345020  1.0  -0.0179
  C  C125  1  0.229050  0.665000  0.169800  1.0  0.6526
  C  C126  1  0.246230  0.403700  0.410200  1.0  0.6729
  C  C127  1  0.888410  0.730400  0.466600  1.0  0.6705
  C  C128  1  0.710560  0.100860  0.242110  1.0  -0.105
  C  C129  1  0.735870  0.035660  0.292300  1.0  0.0058
  C  C130  1  0.718200  0.973370  0.353250  1.0  -0.1114
  C  C131  1  0.675230  0.976280  0.364010  1.0  0.0387
  C  C132  1  0.649910  0.041470  0.313820  1.0  0.2907
  C  C133  1  0.667580  0.103760  0.252880  1.0  0.0662
  C  C134  1  0.497530  0.209610  0.379210  1.0  0.0043
  C  C135  1  0.502630  0.115950  0.379570  1.0  0.0457
  C  C136  1  0.469950  0.061440  0.405700  1.0  0.0558
  C  C137  1  0.432750  0.100300  0.432290  1.0  0.0672
  C  C138  1  0.428100  0.191400  0.432400  1.0  -0.067
  C  C139  1  0.459940  0.245490  0.405830  1.0  0.0397
  C  C140  1  0.540730  0.077400  0.355420  1.0  0.0952
  C  C141  1  0.581230  0.113980  0.345020  1.0  -0.0179
  C  C142  1  0.729050  0.165000  0.169800  1.0  0.6526
  C  C143  1  0.746230  0.903700  0.410200  1.0  0.6729
  C  C144  1  0.388410  0.230400  0.466600  1.0  0.6705
  N  N145  1  0.108340  0.456830  0.822230  1.0  -0.038
  N  N146  1  0.084600  0.537190  0.818540  1.0  -0.2089
  N  N147  1  0.042820  0.516030  0.839050  1.0  -0.2049
  N  N148  1  0.608340  0.956830  0.822230  1.0  -0.038
  N  N149  1  0.584600  0.037190  0.818540  1.0  -0.2089
  N  N150  1  0.542820  0.016030  0.839050  1.0  -0.2049
  N  N151  1  0.891660  0.456830  0.677770  1.0  -0.0374
  N  N152  1  0.915400  0.537190  0.681460  1.0  -0.2096
  N  N153  1  0.957180  0.516030  0.660950  1.0  -0.2056
  N  N154  1  0.391660  0.956830  0.677770  1.0  -0.0374
  N  N155  1  0.415400  0.037190  0.681460  1.0  -0.2096
  N  N156  1  0.457180  0.016030  0.660950  1.0  -0.2056
  N  N157  1  0.891660  0.543170  0.177770  1.0  -0.0373
  N  N158  1  0.915400  0.462810  0.181460  1.0  -0.207
  N  N159  1  0.957180  0.483970  0.160950  1.0  -0.2038
  N  N160  1  0.391660  0.043170  0.177770  1.0  -0.0373
  N  N161  1  0.415400  0.962810  0.181460  1.0  -0.207
  N  N162  1  0.457180  0.983970  0.160950  1.0  -0.2038
  N  N163  1  0.108340  0.543170  0.322230  1.0  -0.0379
  N  N164  1  0.084600  0.462810  0.318540  1.0  -0.2064
  N  N165  1  0.042820  0.483970  0.339050  1.0  -0.2039
  N  N166  1  0.608340  0.043170  0.322230  1.0  -0.0379
  N  N167  1  0.584600  0.962810  0.318540  1.0  -0.2064
  N  N168  1  0.542820  0.983970  0.339050  1.0  -0.2039
  O  O169  1  0.229860  0.663500  0.944100  1.0  -0.7826
  O  O170  1  0.285390  0.582320  0.921100  1.0  -0.627
  O  O171  1  0.879310  0.188600  0.953400  1.0  -0.6244
  O  O172  1  0.863570  0.321100  0.006900  1.0  -0.6471
  O  O173  1  0.205300  0.271850  0.636400  1.0  -0.6572
  O  O174  1  0.265690  0.349920  0.649300  1.0  -0.7431
  O  O175  1  0.729860  0.163500  0.944100  1.0  -0.7826
  O  O176  1  0.785390  0.082320  0.921100  1.0  -0.6272
  O  O177  1  0.379310  0.688600  0.953400  1.0  -0.6242
  O  O178  1  0.363570  0.821100  0.006900  1.0  -0.6471
  O  O179  1  0.705300  0.771850  0.636400  1.0  -0.6572
  O  O180  1  0.765690  0.849920  0.649300  1.0  -0.7431
  O  O181  1  0.770140  0.663500  0.555900  1.0  -0.7826
  O  O182  1  0.714610  0.582320  0.578900  1.0  -0.623
  O  O183  1  0.120690  0.188600  0.546600  1.0  -0.6251
  O  O184  1  0.136430  0.321100  0.493100  1.0  -0.6491
  O  O185  1  0.794700  0.271850  0.863600  1.0  -0.6579
  O  O186  1  0.734310  0.349920  0.850700  1.0  -0.7448
  O  O187  1  0.270140  0.163500  0.555900  1.0  -0.7826
  O  O188  1  0.214610  0.082320  0.578900  1.0  -0.6239
  O  O189  1  0.620690  0.688600  0.546600  1.0  -0.6251
  O  O190  1  0.636430  0.821100  0.493100  1.0  -0.6491
  O  O191  1  0.294700  0.771850  0.863600  1.0  -0.6579
  O  O192  1  0.234310  0.849920  0.850700  1.0  -0.7448
  O  O193  1  0.770140  0.336500  0.055900  1.0  -0.7822
  O  O194  1  0.714610  0.417680  0.078900  1.0  -0.6228
  O  O195  1  0.120690  0.811400  0.046600  1.0  -0.6227
  O  O196  1  0.136430  0.678900  0.993100  1.0  -0.6478
  O  O197  1  0.794700  0.728150  0.363600  1.0  -0.6566
  O  O198  1  0.734310  0.650080  0.350700  1.0  -0.7443
  O  O199  1  0.270140  0.836500  0.055900  1.0  -0.7822
  O  O200  1  0.214610  0.917680  0.078900  1.0  -0.6227
  O  O201  1  0.620690  0.311400  0.046600  1.0  -0.6228
  O  O202  1  0.636430  0.178900  0.993100  1.0  -0.6478
  O  O203  1  0.294700  0.228150  0.363600  1.0  -0.6566
  O  O204  1  0.234310  0.150080  0.350700  1.0  -0.7443
  O  O205  1  0.229860  0.336500  0.444100  1.0  -0.7822
  O  O206  1  0.285390  0.417680  0.421100  1.0  -0.6247
  O  O207  1  0.879310  0.811400  0.453400  1.0  -0.6242
  O  O208  1  0.863570  0.678900  0.506900  1.0  -0.6472
  O  O209  1  0.205300  0.728150  0.136400  1.0  -0.6566
  O  O210  1  0.265690  0.650080  0.149300  1.0  -0.7436
  O  O211  1  0.729860  0.836500  0.444100  1.0  -0.7822
  O  O212  1  0.785390  0.917680  0.421100  1.0  -0.6245
  O  O213  1  0.379310  0.311400  0.453400  1.0  -0.6242
  O  O214  1  0.363570  0.178900  0.506900  1.0  -0.6472
  O  O215  1  0.705300  0.228150  0.136400  1.0  -0.6566
  O  O216  1  0.765690  0.150080  0.149300  1.0  -0.7436
