# generated using pymatgen
data_LaC17(NO2)3
_symmetry_space_group_name_H-M   'P 1'
_cell_length_a   32.11800000
_cell_length_b   15.21330000
_cell_length_c   13.17890000
_cell_angle_alpha   90.00000000
_cell_angle_beta   95.25600000
_cell_angle_gamma   90.00000000
_symmetry_Int_Tables_number   1
_chemical_formula_structural   LaC17(NO2)3
_chemical_formula_sum   'La8 C136 N24 O48'
_cell_volume   6412.40841653
_cell_formula_units_Z   8
loop_
 _symmetry_equiv_pos_site_id
 _symmetry_equiv_pos_as_xyz
  1  'x, y, z'
loop_
 _atom_site_type_symbol
 _atom_site_label
 _atom_site_symmetry_multiplicity
 _atom_site_fract_x
 _atom_site_fract_y
 _atom_site_fract_z
 _atom_site_occupancy
 _atom_site_charge
  La  La1  1  0.811880  0.793520  0.528610  1.0  2.1379
  La  La2  1  0.311880  0.293520  0.528610  1.0  2.1379
  La  La3  1  0.188120  0.793520  0.971390  1.0  2.1383
  La  La4  1  0.688120  0.293520  0.971390  1.0  2.1383
  La  La5  1  0.188120  0.206480  0.471390  1.0  2.1368
  La  La6  1  0.688120  0.706480  0.471390  1.0  2.1368
  La  La7  1  0.811880  0.206480  0.028610  1.0  2.1364
  La  La8  1  0.311880  0.706480  0.028610  1.0  2.1364
  C  C9  1  0.929690  0.686100  0.432000  1.0  -0.0734
  C  C10  1  0.934080  0.595200  0.431000  1.0  0.0752
  C  C11  1  0.971030  0.557740  0.404400  1.0  0.0532
  C  C12  1  0.003600  0.611150  0.378930  1.0  0.1292
  C  C13  1  0.999220  0.702040  0.380000  1.0  0.0253
  C  C14  1  0.962270  0.739510  0.406500  1.0  -0.0393
  C  C15  1  0.041970  0.574020  0.353330  1.0  0.0845
  C  C16  1  0.082430  0.609480  0.345300  1.0  -0.0348
  C  C17  1  0.150050  0.538700  0.314400  1.0  0.3147
  C  C18  1  0.175320  0.475000  0.364200  1.0  0.041
  C  C19  1  0.218040  0.474200  0.354300  1.0  -0.1152
  C  C20  1  0.235490  0.537200  0.294600  1.0  0.0129
  C  C21  1  0.210220  0.600900  0.244800  1.0  -0.1219
  C  C22  1  0.167500  0.601700  0.254700  1.0  0.0573
  C  C23  1  0.890500  0.725400  0.464500  1.0  0.621
  C  C24  1  0.246000  0.407200  0.408200  1.0  0.6661
  C  C25  1  0.229100  0.667200  0.177200  1.0  0.682
  C  C26  1  0.429690  0.186100  0.432000  1.0  -0.0734
  C  C27  1  0.434080  0.095200  0.431000  1.0  0.0752
  C  C28  1  0.471030  0.057740  0.404400  1.0  0.0532
  C  C29  1  0.503600  0.111150  0.378930  1.0  0.1292
  C  C30  1  0.499220  0.202040  0.380000  1.0  0.0253
  C  C31  1  0.462270  0.239510  0.406500  1.0  -0.0393
  C  C32  1  0.541970  0.074020  0.353330  1.0  0.0845
  C  C33  1  0.582430  0.109480  0.345300  1.0  -0.0348
  C  C34  1  0.650050  0.038700  0.314400  1.0  0.3147
  C  C35  1  0.675320  0.975000  0.364200  1.0  0.041
  C  C36  1  0.718040  0.974200  0.354300  1.0  -0.1152
  C  C37  1  0.735490  0.037200  0.294600  1.0  0.0129
  C  C38  1  0.710220  0.100900  0.244800  1.0  -0.1219
  C  C39  1  0.667500  0.101700  0.254700  1.0  0.0573
  C  C40  1  0.390500  0.225400  0.464500  1.0  0.621
  C  C41  1  0.746000  0.907200  0.408200  1.0  0.6661
  C  C42  1  0.729100  0.167200  0.177200  1.0  0.682
  C  C43  1  0.070310  0.686100  0.068000  1.0  -0.0752
  C  C44  1  0.065920  0.595200  0.069000  1.0  0.0726
  C  C45  1  0.028970  0.557740  0.095600  1.0  0.053
  C  C46  1  0.996400  0.611150  0.121070  1.0  0.1287
  C  C47  1  0.000780  0.702040  0.120000  1.0  0.0279
  C  C48  1  0.037730  0.739510  0.093500  1.0  -0.0388
  C  C49  1  0.958030  0.574020  0.146670  1.0  0.0849
  C  C50  1  0.917570  0.609480  0.154700  1.0  -0.0364
  C  C51  1  0.849950  0.538700  0.185600  1.0  0.3143
  C  C52  1  0.824680  0.475000  0.135800  1.0  0.0432
  C  C53  1  0.781960  0.474200  0.145700  1.0  -0.1152
  C  C54  1  0.764510  0.537200  0.205400  1.0  0.0167
  C  C55  1  0.789780  0.600900  0.255200  1.0  -0.121
  C  C56  1  0.832500  0.601700  0.245300  1.0  0.0577
  C  C57  1  0.109500  0.725400  0.035500  1.0  0.6219
  C  C58  1  0.754000  0.407200  0.091800  1.0  0.664
  C  C59  1  0.770900  0.667200  0.322800  1.0  0.6811
  C  C60  1  0.570310  0.186100  0.068000  1.0  -0.0752
  C  C61  1  0.565920  0.095200  0.069000  1.0  0.0726
  C  C62  1  0.528970  0.057740  0.095600  1.0  0.053
  C  C63  1  0.496400  0.111150  0.121070  1.0  0.1287
  C  C64  1  0.500780  0.202040  0.120000  1.0  0.0279
  C  C65  1  0.537730  0.239510  0.093500  1.0  -0.0388
  C  C66  1  0.458030  0.074020  0.146670  1.0  0.0849
  C  C67  1  0.417570  0.109480  0.154700  1.0  -0.0364
  C  C68  1  0.349950  0.038700  0.185600  1.0  0.3143
  C  C69  1  0.324680  0.975000  0.135800  1.0  0.0432
  C  C70  1  0.281960  0.974200  0.145700  1.0  -0.1152
  C  C71  1  0.264510  0.037200  0.205400  1.0  0.0167
  C  C72  1  0.289780  0.100900  0.255200  1.0  -0.121
  C  C73  1  0.332500  0.101700  0.245300  1.0  0.0577
  C  C74  1  0.609500  0.225400  0.035500  1.0  0.6219
  C  C75  1  0.254000  0.907200  0.091800  1.0  0.664
  C  C76  1  0.270900  0.167200  0.322800  1.0  0.6811
  C  C77  1  0.070310  0.313900  0.568000  1.0  -0.0738
  C  C78  1  0.065920  0.404800  0.569000  1.0  0.072
  C  C79  1  0.028970  0.442260  0.595600  1.0  0.054
  C  C80  1  0.996400  0.388850  0.621070  1.0  0.1284
  C  C81  1  0.000780  0.297960  0.620000  1.0  0.0299
  C  C82  1  0.037730  0.260490  0.593500  1.0  -0.0393
  C  C83  1  0.958030  0.425980  0.646670  1.0  0.084
  C  C84  1  0.917570  0.390520  0.654700  1.0  -0.0347
  C  C85  1  0.849950  0.461300  0.685600  1.0  0.3142
  C  C86  1  0.824680  0.525000  0.635800  1.0  0.0428
  C  C87  1  0.781960  0.525800  0.645700  1.0  -0.1148
  C  C88  1  0.764510  0.462800  0.705400  1.0  0.0165
  C  C89  1  0.789780  0.399100  0.755200  1.0  -0.1211
  C  C90  1  0.832500  0.398300  0.745300  1.0  0.0585
  C  C91  1  0.109500  0.274600  0.535500  1.0  0.6201
  C  C92  1  0.754000  0.592800  0.591800  1.0  0.6647
  C  C93  1  0.770900  0.332800  0.822800  1.0  0.6807
  C  C94  1  0.570310  0.813900  0.568000  1.0  -0.0738
  C  C95  1  0.565920  0.904800  0.569000  1.0  0.072
  C  C96  1  0.528970  0.942260  0.595600  1.0  0.054
  C  C97  1  0.496400  0.888850  0.621070  1.0  0.1284
  C  C98  1  0.500780  0.797960  0.620000  1.0  0.0299
  C  C99  1  0.537730  0.760490  0.593500  1.0  -0.0393
  C  C100  1  0.458030  0.925980  0.646670  1.0  0.084
  C  C101  1  0.417570  0.890520  0.654700  1.0  -0.0347
  C  C102  1  0.349950  0.961300  0.685600  1.0  0.3142
  C  C103  1  0.324680  0.025000  0.635800  1.0  0.0428
  C  C104  1  0.281960  0.025800  0.645700  1.0  -0.1148
  C  C105  1  0.264510  0.962800  0.705400  1.0  0.0165
  C  C106  1  0.289780  0.899100  0.755200  1.0  -0.1211
  C  C107  1  0.332500  0.898300  0.745300  1.0  0.0585
  C  C108  1  0.609500  0.774600  0.535500  1.0  0.6201
  C  C109  1  0.254000  0.092800  0.591800  1.0  0.6647
  C  C110  1  0.270900  0.832800  0.822800  1.0  0.6807
  C  C111  1  0.929690  0.313900  0.932000  1.0  -0.0728
  C  C112  1  0.934080  0.404800  0.931000  1.0  0.075
  C  C113  1  0.971030  0.442260  0.904400  1.0  0.0531
  C  C114  1  0.003600  0.388850  0.878930  1.0  0.1292
  C  C115  1  0.999220  0.297960  0.880000  1.0  0.0276
  C  C116  1  0.962270  0.260490  0.906500  1.0  -0.0399
  C  C117  1  0.041970  0.425980  0.853330  1.0  0.0846
  C  C118  1  0.082430  0.390520  0.845300  1.0  -0.0334
  C  C119  1  0.150050  0.461300  0.814400  1.0  0.3145
  C  C120  1  0.175320  0.525000  0.864200  1.0  0.0407
  C  C121  1  0.218040  0.525800  0.854300  1.0  -0.1149
  C  C122  1  0.235490  0.462800  0.794600  1.0  0.0127
  C  C123  1  0.210220  0.399100  0.744800  1.0  -0.1218
  C  C124  1  0.167500  0.398300  0.754700  1.0  0.0572
  C  C125  1  0.890500  0.274600  0.964500  1.0  0.6204
  C  C126  1  0.246000  0.592800  0.908200  1.0  0.6666
  C  C127  1  0.229100  0.332800  0.677200  1.0  0.6814
  C  C128  1  0.429690  0.813900  0.932000  1.0  -0.0728
  C  C129  1  0.434080  0.904800  0.931000  1.0  0.075
  C  C130  1  0.471030  0.942260  0.904400  1.0  0.0531
  C  C131  1  0.503600  0.888850  0.878930  1.0  0.1292
  C  C132  1  0.499220  0.797960  0.880000  1.0  0.0276
  C  C133  1  0.462270  0.760490  0.906500  1.0  -0.0399
  C  C134  1  0.541970  0.925980  0.853330  1.0  0.0846
  C  C135  1  0.582430  0.890520  0.845300  1.0  -0.0334
  C  C136  1  0.650050  0.961300  0.814400  1.0  0.3145
  C  C137  1  0.675320  0.025000  0.864200  1.0  0.0407
  C  C138  1  0.718040  0.025800  0.854300  1.0  -0.1149
  C  C139  1  0.735490  0.962800  0.794600  1.0  0.0127
  C  C140  1  0.710220  0.899100  0.744800  1.0  -0.1218
  C  C141  1  0.667500  0.898300  0.754700  1.0  0.0572
  C  C142  1  0.390500  0.774600  0.964500  1.0  0.6204
  C  C143  1  0.746000  0.092800  0.908200  1.0  0.6666
  C  C144  1  0.729100  0.832800  0.677200  1.0  0.6814
  N  N145  1  0.109510  0.539200  0.324700  1.0  0.0834
  N  N146  1  0.085780  0.460330  0.319900  1.0  -0.2192
  N  N147  1  0.044030  0.481840  0.337600  1.0  -0.2526
  N  N148  1  0.609510  0.039200  0.324700  1.0  0.0834
  N  N149  1  0.585780  0.960330  0.319900  1.0  -0.2192
  N  N150  1  0.544030  0.981840  0.337600  1.0  -0.2526
  N  N151  1  0.890490  0.539200  0.175300  1.0  0.0851
  N  N152  1  0.914220  0.460330  0.180100  1.0  -0.2194
  N  N153  1  0.955970  0.481840  0.162400  1.0  -0.2489
  N  N154  1  0.390490  0.039200  0.175300  1.0  0.0851
  N  N155  1  0.414220  0.960330  0.180100  1.0  -0.2194
  N  N156  1  0.455970  0.981840  0.162400  1.0  -0.2489
  N  N157  1  0.890490  0.460800  0.675300  1.0  0.0851
  N  N158  1  0.914220  0.539670  0.680100  1.0  -0.2192
  N  N159  1  0.955970  0.518160  0.662400  1.0  -0.2492
  N  N160  1  0.390490  0.960800  0.675300  1.0  0.0851
  N  N161  1  0.414220  0.039670  0.680100  1.0  -0.2192
  N  N162  1  0.455970  0.018160  0.662400  1.0  -0.2492
  N  N163  1  0.109510  0.460800  0.824700  1.0  0.0834
  N  N164  1  0.085780  0.539670  0.819900  1.0  -0.2195
  N  N165  1  0.044030  0.518160  0.837600  1.0  -0.2487
  N  N166  1  0.609510  0.960800  0.824700  1.0  0.0834
  N  N167  1  0.585780  0.039670  0.819900  1.0  -0.2195
  N  N168  1  0.544030  0.018160  0.837600  1.0  -0.2487
  O  O169  1  0.863730  0.673200  0.497200  1.0  -0.6292
  O  O170  1  0.884400  0.807200  0.458300  1.0  -0.6156
  O  O171  1  0.230310  0.340100  0.446600  1.0  -0.8266
  O  O172  1  0.284460  0.420800  0.417200  1.0  -0.6274
  O  O173  1  0.206120  0.729900  0.144500  1.0  -0.6777
  O  O174  1  0.265740  0.654800  0.158500  1.0  -0.7473
  O  O175  1  0.363730  0.173200  0.497200  1.0  -0.6292
  O  O176  1  0.384400  0.307200  0.458300  1.0  -0.6174
  O  O177  1  0.730310  0.840100  0.446600  1.0  -0.8266
  O  O178  1  0.784460  0.920800  0.417200  1.0  -0.6274
  O  O179  1  0.706120  0.229900  0.144500  1.0  -0.6777
  O  O180  1  0.765740  0.154800  0.158500  1.0  -0.7473
  O  O181  1  0.136270  0.673200  0.002800  1.0  -0.6301
  O  O182  1  0.115600  0.807200  0.041700  1.0  -0.6188
  O  O183  1  0.769690  0.340100  0.053400  1.0  -0.8255
  O  O184  1  0.715540  0.420800  0.082800  1.0  -0.6345
  O  O185  1  0.793880  0.729900  0.355500  1.0  -0.6779
  O  O186  1  0.734260  0.654800  0.341500  1.0  -0.7483
  O  O187  1  0.636270  0.173200  0.002800  1.0  -0.6301
  O  O188  1  0.615600  0.307200  0.041700  1.0  -0.6188
  O  O189  1  0.269690  0.840100  0.053400  1.0  -0.8255
  O  O190  1  0.215540  0.920800  0.082800  1.0  -0.6345
  O  O191  1  0.293880  0.229900  0.355500  1.0  -0.6779
  O  O192  1  0.234260  0.154800  0.341500  1.0  -0.7483
  O  O193  1  0.136270  0.326800  0.502800  1.0  -0.631
  O  O194  1  0.115600  0.192800  0.541700  1.0  -0.6198
  O  O195  1  0.769690  0.659900  0.553400  1.0  -0.8255
  O  O196  1  0.715540  0.579200  0.582800  1.0  -0.6323
  O  O197  1  0.793880  0.270100  0.855500  1.0  -0.6784
  O  O198  1  0.734260  0.345200  0.841500  1.0  -0.7488
  O  O199  1  0.636270  0.826800  0.502800  1.0  -0.631
  O  O200  1  0.615600  0.692800  0.541700  1.0  -0.6221
  O  O201  1  0.269690  0.159900  0.553400  1.0  -0.8255
  O  O202  1  0.215540  0.079200  0.582800  1.0  -0.6323
  O  O203  1  0.293880  0.770100  0.855500  1.0  -0.6784
  O  O204  1  0.234260  0.845200  0.841500  1.0  -0.7488
  O  O205  1  0.863730  0.326800  0.997200  1.0  -0.6288
  O  O206  1  0.884400  0.192800  0.958300  1.0  -0.6236
  O  O207  1  0.230310  0.659900  0.946600  1.0  -0.8272
  O  O208  1  0.284460  0.579200  0.917200  1.0  -0.6281
  O  O209  1  0.206120  0.270100  0.644500  1.0  -0.6778
  O  O210  1  0.265740  0.345200  0.658500  1.0  -0.7468
  O  O211  1  0.363730  0.826800  0.997200  1.0  -0.6288
  O  O212  1  0.384400  0.692800  0.958300  1.0  -0.6237
  O  O213  1  0.730310  0.159900  0.946600  1.0  -0.8272
  O  O214  1  0.784460  0.079200  0.917200  1.0  -0.6281
  O  O215  1  0.706120  0.770100  0.644500  1.0  -0.6778
  O  O216  1  0.765740  0.845200  0.658500  1.0  -0.7468
