# generated using pymatgen
data_TbC17(NO2)3
_symmetry_space_group_name_H-M   'P 1'
_cell_length_a   31.64910000
_cell_length_b   14.91430000
_cell_length_c   13.26560000
_cell_angle_alpha   90.00000000
_cell_angle_beta   96.46600000
_cell_angle_gamma   90.00000000
_symmetry_Int_Tables_number   1
_chemical_formula_structural   TbC17(NO2)3
_chemical_formula_sum   'Tb8 C136 N24 O48'
_cell_volume   6221.85239058
_cell_formula_units_Z   8
loop_
 _symmetry_equiv_pos_site_id
 _symmetry_equiv_pos_as_xyz
  1  'x, y, z'
loop_
 _atom_site_type_symbol
 _atom_site_label
 _atom_site_symmetry_multiplicity
 _atom_site_fract_x
 _atom_site_fract_y
 _atom_site_fract_z
 _atom_site_occupancy
 _atom_site_charge
  Tb  Tb1  1  0.189480  0.205450  0.469360  1.0  2.2246
  Tb  Tb2  1  0.689480  0.705450  0.469360  1.0  2.2246
  Tb  Tb3  1  0.810520  0.205450  0.030640  1.0  2.2212
  Tb  Tb4  1  0.310520  0.705450  0.030640  1.0  2.2212
  Tb  Tb5  1  0.810520  0.794550  0.530640  1.0  2.2196
  Tb  Tb6  1  0.310520  0.294550  0.530640  1.0  2.2196
  Tb  Tb7  1  0.189480  0.794550  0.969360  1.0  2.2254
  Tb  Tb8  1  0.689480  0.294550  0.969360  1.0  2.2254
  C  C9  1  0.850110  0.458720  0.688810  1.0  0.203
  C  C10  1  0.824750  0.524740  0.638940  1.0  0.0263
  C  C11  1  0.781760  0.529400  0.651230  1.0  -0.1379
  C  C12  1  0.764140  0.468030  0.713390  1.0  -0.0077
  C  C13  1  0.789510  0.402010  0.763260  1.0  -0.1393
  C  C14  1  0.832490  0.397350  0.750970  1.0  0.0137
  C  C15  1  0.997390  0.381530  0.618820  1.0  -0.0115
  C  C16  1  0.002460  0.288950  0.620540  1.0  0.0044
  C  C17  1  0.039790  0.251030  0.594050  1.0  -0.0628
  C  C18  1  0.072040  0.305700  0.565840  1.0  -0.0765
  C  C19  1  0.066950  0.398280  0.564130  1.0  0.0716
  C  C20  1  0.029640  0.436190  0.590610  1.0  0.0328
  C  C21  1  0.957940  0.422640  0.644890  1.0  0.0714
  C  C22  1  0.918440  0.383900  0.657670  1.0  0.0054
  C  C23  1  0.754390  0.600200  0.594900  1.0  0.6678
  C  C24  1  0.771990  0.339580  0.837160  1.0  0.669
  C  C25  1  0.112120  0.266600  0.530900  1.0  0.6603
  C  C26  1  0.350110  0.958720  0.688810  1.0  0.203
  C  C27  1  0.324750  0.024740  0.638940  1.0  0.0263
  C  C28  1  0.281760  0.029400  0.651230  1.0  -0.1379
  C  C29  1  0.264140  0.968030  0.713390  1.0  -0.0077
  C  C30  1  0.289510  0.902010  0.763260  1.0  -0.1392
  C  C31  1  0.332490  0.897350  0.750970  1.0  0.0137
  C  C32  1  0.497390  0.881530  0.618820  1.0  -0.0115
  C  C33  1  0.502460  0.788950  0.620540  1.0  0.0044
  C  C34  1  0.539790  0.751030  0.594050  1.0  -0.0628
  C  C35  1  0.572040  0.805700  0.565840  1.0  -0.0765
  C  C36  1  0.566950  0.898280  0.564130  1.0  0.0716
  C  C37  1  0.529640  0.936190  0.590610  1.0  0.0328
  C  C38  1  0.457940  0.922640  0.644890  1.0  0.0714
  C  C39  1  0.418440  0.883900  0.657670  1.0  0.0054
  C  C40  1  0.254390  0.100200  0.594900  1.0  0.6678
  C  C41  1  0.271990  0.839580  0.837160  1.0  0.669
  C  C42  1  0.612120  0.766600  0.530900  1.0  0.6603
  C  C43  1  0.149890  0.458720  0.811190  1.0  0.2013
  C  C44  1  0.175250  0.524740  0.861060  1.0  0.025
  C  C45  1  0.218240  0.529400  0.848770  1.0  -0.1381
  C  C46  1  0.235860  0.468030  0.786610  1.0  -0.0108
  C  C47  1  0.210490  0.402010  0.736740  1.0  -0.1401
  C  C48  1  0.167510  0.397350  0.749030  1.0  0.0119
  C  C49  1  0.002610  0.381530  0.881180  1.0  -0.0107
  C  C50  1  0.997540  0.288950  0.879460  1.0  0.002
  C  C51  1  0.960210  0.251030  0.905950  1.0  -0.0568
  C  C52  1  0.927960  0.305700  0.934160  1.0  -0.0782
  C  C53  1  0.933050  0.398280  0.935870  1.0  0.0711
  C  C54  1  0.970360  0.436190  0.909390  1.0  0.0327
  C  C55  1  0.042060  0.422640  0.855110  1.0  0.0731
  C  C56  1  0.081560  0.383900  0.842330  1.0  0.006
  C  C57  1  0.245610  0.600200  0.905100  1.0  0.6688
  C  C58  1  0.228010  0.339580  0.662840  1.0  0.6684
  C  C59  1  0.887880  0.266600  0.969100  1.0  0.6595
  C  C60  1  0.649890  0.958720  0.811190  1.0  0.2013
  C  C61  1  0.675250  0.024740  0.861060  1.0  0.025
  C  C62  1  0.718240  0.029400  0.848770  1.0  -0.1381
  C  C63  1  0.735860  0.968030  0.786610  1.0  -0.0108
  C  C64  1  0.710490  0.902010  0.736740  1.0  -0.1401
  C  C65  1  0.667510  0.897350  0.749030  1.0  0.0119
  C  C66  1  0.502610  0.881530  0.881180  1.0  -0.0107
  C  C67  1  0.497540  0.788950  0.879460  1.0  0.002
  C  C68  1  0.460210  0.751030  0.905950  1.0  -0.0555
  C  C69  1  0.427960  0.805700  0.934160  1.0  -0.0783
  C  C70  1  0.433050  0.898280  0.935870  1.0  0.0711
  C  C71  1  0.470360  0.936190  0.909390  1.0  0.0327
  C  C72  1  0.542060  0.922640  0.855110  1.0  0.0719
  C  C73  1  0.581560  0.883900  0.842330  1.0  0.006
  C  C74  1  0.745610  0.100200  0.905100  1.0  0.6688
  C  C75  1  0.728010  0.839580  0.662840  1.0  0.6684
  C  C76  1  0.387880  0.766600  0.969100  1.0  0.6595
  C  C77  1  0.149890  0.541280  0.311190  1.0  0.2009
  C  C78  1  0.175250  0.475260  0.361060  1.0  0.0249
  C  C79  1  0.218240  0.470600  0.348770  1.0  -0.1378
  C  C80  1  0.235860  0.531970  0.286610  1.0  -0.0108
  C  C81  1  0.210490  0.597990  0.236740  1.0  -0.1401
  C  C82  1  0.167510  0.602650  0.249030  1.0  0.013
  C  C83  1  0.002610  0.618470  0.381180  1.0  -0.0123
  C  C84  1  0.997540  0.711050  0.379460  1.0  0.0029
  C  C85  1  0.960210  0.748970  0.405950  1.0  -0.0559
  C  C86  1  0.927960  0.694300  0.434160  1.0  -0.0788
  C  C87  1  0.933050  0.601720  0.435870  1.0  0.0741
  C  C88  1  0.970360  0.563810  0.409390  1.0  0.0356
  C  C89  1  0.042060  0.577360  0.355110  1.0  0.0729
  C  C90  1  0.081560  0.616100  0.342330  1.0  0.0031
  C  C91  1  0.245610  0.399800  0.405100  1.0  0.6689
  C  C92  1  0.228010  0.660420  0.162840  1.0  0.6688
  C  C93  1  0.887880  0.733400  0.469100  1.0  0.6605
  C  C94  1  0.649890  0.041280  0.311190  1.0  0.2009
  C  C95  1  0.675250  0.975260  0.361060  1.0  0.0249
  C  C96  1  0.718240  0.970600  0.348770  1.0  -0.1378
  C  C97  1  0.735860  0.031970  0.286610  1.0  -0.0108
  C  C98  1  0.710490  0.097990  0.236740  1.0  -0.1403
  C  C99  1  0.667510  0.102650  0.249030  1.0  0.013
  C  C100  1  0.502610  0.118470  0.381180  1.0  -0.0109
  C  C101  1  0.497540  0.211050  0.379460  1.0  0.0029
  C  C102  1  0.460210  0.248970  0.405950  1.0  -0.0552
  C  C103  1  0.427960  0.194300  0.434160  1.0  -0.0788
  C  C104  1  0.433050  0.101720  0.435870  1.0  0.0726
  C  C105  1  0.470360  0.063810  0.409390  1.0  0.0356
  C  C106  1  0.542060  0.077360  0.355110  1.0  0.0714
  C  C107  1  0.581560  0.116100  0.342330  1.0  0.0051
  C  C108  1  0.745610  0.899800  0.405100  1.0  0.6689
  C  C109  1  0.728010  0.160420  0.162840  1.0  0.6688
  C  C110  1  0.387880  0.233400  0.469100  1.0  0.6605
  C  C111  1  0.850110  0.541280  0.188810  1.0  0.2022
  C  C112  1  0.824750  0.475260  0.138940  1.0  0.0259
  C  C113  1  0.781760  0.470600  0.151230  1.0  -0.1375
  C  C114  1  0.764140  0.531970  0.213390  1.0  -0.0079
  C  C115  1  0.789510  0.597990  0.263260  1.0  -0.139
  C  C116  1  0.832490  0.602650  0.250970  1.0  0.0125
  C  C117  1  0.997390  0.618470  0.118820  1.0  -0.011
  C  C118  1  0.002460  0.711050  0.120540  1.0  0.0056
  C  C119  1  0.039790  0.748970  0.094050  1.0  -0.0606
  C  C120  1  0.072040  0.694300  0.065840  1.0  -0.078
  C  C121  1  0.066950  0.601720  0.064130  1.0  0.0751
  C  C122  1  0.029640  0.563810  0.090610  1.0  0.0342
  C  C123  1  0.957940  0.577360  0.144890  1.0  0.0711
  C  C124  1  0.918440  0.616100  0.157670  1.0  0.0022
  C  C125  1  0.754390  0.399800  0.094900  1.0  0.6678
  C  C126  1  0.771990  0.660420  0.337160  1.0  0.669
  C  C127  1  0.112120  0.733400  0.030900  1.0  0.662
  C  C128  1  0.350110  0.041280  0.188810  1.0  0.2022
  C  C129  1  0.324750  0.975260  0.138940  1.0  0.0259
  C  C130  1  0.281760  0.970600  0.151230  1.0  -0.1375
  C  C131  1  0.264140  0.031970  0.213390  1.0  -0.0079
  C  C132  1  0.289510  0.097990  0.263260  1.0  -0.1391
  C  C133  1  0.332490  0.102650  0.250970  1.0  0.0125
  C  C134  1  0.497390  0.118470  0.118820  1.0  -0.0109
  C  C135  1  0.502460  0.211050  0.120540  1.0  0.0056
  C  C136  1  0.539790  0.248970  0.094050  1.0  -0.0606
  C  C137  1  0.572040  0.194300  0.065840  1.0  -0.078
  C  C138  1  0.566950  0.101720  0.064130  1.0  0.0751
  C  C139  1  0.529640  0.063810  0.090610  1.0  0.0342
  C  C140  1  0.457940  0.077360  0.144890  1.0  0.0711
  C  C141  1  0.418440  0.116100  0.157670  1.0  0.0041
  C  C142  1  0.254390  0.899800  0.094900  1.0  0.6678
  C  C143  1  0.271990  0.160420  0.337160  1.0  0.669
  C  C144  1  0.612120  0.233400  0.030900  1.0  0.662
  N  N145  1  0.894660  0.456420  0.677050  1.0  0.1915
  N  N146  1  0.917410  0.533310  0.681340  1.0  -0.2219
  N  N147  1  0.955490  0.511860  0.662530  1.0  -0.1304
  N  N148  1  0.394660  0.956420  0.677050  1.0  0.1915
  N  N149  1  0.417410  0.033310  0.681340  1.0  -0.2219
  N  N150  1  0.455490  0.011860  0.662530  1.0  -0.1304
  N  N151  1  0.105340  0.456420  0.822950  1.0  0.1927
  N  N152  1  0.082590  0.533310  0.818660  1.0  -0.2218
  N  N153  1  0.044510  0.511860  0.837470  1.0  -0.1285
  N  N154  1  0.605340  0.956420  0.822950  1.0  0.1927
  N  N155  1  0.582590  0.033310  0.818660  1.0  -0.2218
  N  N156  1  0.544510  0.011860  0.837470  1.0  -0.1285
  N  N157  1  0.105340  0.543580  0.322950  1.0  0.1932
  N  N158  1  0.082590  0.466690  0.318660  1.0  -0.2218
  N  N159  1  0.044510  0.488140  0.337470  1.0  -0.1288
  N  N160  1  0.605340  0.043580  0.322950  1.0  0.1932
  N  N161  1  0.582590  0.966690  0.318660  1.0  -0.2218
  N  N162  1  0.544510  0.988140  0.337470  1.0  -0.1288
  N  N163  1  0.894660  0.543580  0.177050  1.0  0.1922
  N  N164  1  0.917410  0.466690  0.181340  1.0  -0.2213
  N  N165  1  0.955490  0.488140  0.162530  1.0  -0.1293
  N  N166  1  0.394660  0.043580  0.177050  1.0  0.1922
  N  N167  1  0.417410  0.966690  0.181340  1.0  -0.2213
  N  N168  1  0.455490  0.988140  0.162530  1.0  -0.1293
  O  O169  1  0.121670  0.188300  0.544800  1.0  -0.5827
  O  O170  1  0.135830  0.317100  0.485800  1.0  -0.6412
  O  O171  1  0.795550  0.276100  0.871200  1.0  -0.6797
  O  O172  1  0.734820  0.354900  0.856900  1.0  -0.7317
  O  O173  1  0.770520  0.667200  0.560200  1.0  -0.798
  O  O174  1  0.715080  0.585400  0.583000  1.0  -0.6278
  O  O175  1  0.621670  0.688300  0.544800  1.0  -0.5827
  O  O176  1  0.635830  0.817100  0.485800  1.0  -0.6412
  O  O177  1  0.295550  0.776100  0.871200  1.0  -0.6797
  O  O178  1  0.234820  0.854900  0.856900  1.0  -0.7317
  O  O179  1  0.270520  0.167200  0.560200  1.0  -0.798
  O  O180  1  0.215080  0.085400  0.583000  1.0  -0.6256
  O  O181  1  0.878330  0.188300  0.955200  1.0  -0.5801
  O  O182  1  0.864170  0.317100  0.014200  1.0  -0.6386
  O  O183  1  0.204450  0.276100  0.628800  1.0  -0.6792
  O  O184  1  0.265180  0.354900  0.643100  1.0  -0.7302
  O  O185  1  0.229480  0.667200  0.939800  1.0  -0.7988
  O  O186  1  0.284920  0.585400  0.917000  1.0  -0.625
  O  O187  1  0.378330  0.688300  0.955200  1.0  -0.5801
  O  O188  1  0.364170  0.817100  0.014200  1.0  -0.6386
  O  O189  1  0.704450  0.776100  0.628800  1.0  -0.6792
  O  O190  1  0.765180  0.854900  0.643100  1.0  -0.7302
  O  O191  1  0.729480  0.167200  0.939800  1.0  -0.7988
  O  O192  1  0.784920  0.085400  0.917000  1.0  -0.6254
  O  O193  1  0.878330  0.811700  0.455200  1.0  -0.5785
  O  O194  1  0.864170  0.682900  0.514200  1.0  -0.6386
  O  O195  1  0.204450  0.723900  0.128800  1.0  -0.6795
  O  O196  1  0.265180  0.645100  0.143100  1.0  -0.731
  O  O197  1  0.229480  0.332800  0.439800  1.0  -0.7981
  O  O198  1  0.284920  0.414600  0.417000  1.0  -0.623
  O  O199  1  0.378330  0.311700  0.455200  1.0  -0.5785
  O  O200  1  0.364170  0.182900  0.514200  1.0  -0.6386
  O  O201  1  0.704450  0.223900  0.128800  1.0  -0.6795
  O  O202  1  0.765180  0.145100  0.143100  1.0  -0.731
  O  O203  1  0.729480  0.832800  0.439800  1.0  -0.7981
  O  O204  1  0.784920  0.914600  0.417000  1.0  -0.623
  O  O205  1  0.121670  0.811700  0.044800  1.0  -0.581
  O  O206  1  0.135830  0.682900  0.985800  1.0  -0.6401
  O  O207  1  0.795550  0.723900  0.371200  1.0  -0.6791
  O  O208  1  0.734820  0.645100  0.356900  1.0  -0.7312
  O  O209  1  0.770520  0.332800  0.060200  1.0  -0.7973
  O  O210  1  0.715080  0.414600  0.083000  1.0  -0.627
  O  O211  1  0.621670  0.311700  0.044800  1.0  -0.581
  O  O212  1  0.635830  0.182900  0.985800  1.0  -0.6401
  O  O213  1  0.295550  0.223900  0.371200  1.0  -0.6791
  O  O214  1  0.234820  0.145100  0.356900  1.0  -0.7312
  O  O215  1  0.270520  0.832800  0.060200  1.0  -0.7973
  O  O216  1  0.215080  0.914600  0.083000  1.0  -0.627
