# generated using pymatgen
data_CoP2(HO3)2
_symmetry_space_group_name_H-M   'P 1'
_cell_length_a   10.10000000
_cell_length_b   10.79600000
_cell_length_c   10.98200000
_cell_angle_alpha   90.00000000
_cell_angle_beta   90.00000000
_cell_angle_gamma   90.00000000
_symmetry_Int_Tables_number   1
_chemical_formula_structural   CoP2(HO3)2
_chemical_formula_sum   'Co4 P8 H8 O24'
_cell_volume   1197.47288720
_cell_formula_units_Z   4
loop_
 _symmetry_equiv_pos_site_id
 _symmetry_equiv_pos_as_xyz
  1  'x, y, z'
loop_
 _atom_site_type_symbol
 _atom_site_label
 _atom_site_symmetry_multiplicity
 _atom_site_fract_x
 _atom_site_fract_y
 _atom_site_fract_z
 _atom_site_occupancy
 _atom_site_charge
  Co  Co1  1  0.354340  0.001720  0.285910  1.0  0.9922
  Co  Co2  1  0.145660  0.998280  0.785910  1.0  0.9886
  Co  Co3  1  0.645660  0.501720  0.214090  1.0  0.9897
  Co  Co4  1  0.854340  0.498280  0.714090  1.0  0.9912
  P  P5  1  0.357970  0.029940  0.567790  1.0  1.5002
  P  P6  1  0.431940  0.733150  0.205130  1.0  1.4746
  P  P7  1  0.142030  0.970060  0.067790  1.0  1.5011
  P  P8  1  0.068060  0.266850  0.705130  1.0  1.4743
  P  P9  1  0.642030  0.529940  0.932210  1.0  1.4991
  P  P10  1  0.568060  0.233150  0.294870  1.0  1.4728
  P  P11  1  0.857970  0.470060  0.432210  1.0  1.5003
  P  P12  1  0.931940  0.766850  0.794870  1.0  1.4725
  H  H13  1  0.332000  0.159900  0.567000  1.0  -0.0009
  H  H14  1  0.404000  0.725000  0.078100  1.0  -0.0234
  H  H15  1  0.168000  0.840100  0.067000  1.0  0.0007
  H  H16  1  0.096000  0.275000  0.578100  1.0  -0.0234
  H  H17  1  0.668000  0.659900  0.933000  1.0  -0.0019
  H  H18  1  0.596000  0.225000  0.421900  1.0  -0.0246
  H  H19  1  0.832000  0.340100  0.433000  1.0  0.0003
  H  H20  1  0.904000  0.775000  0.921900  1.0  -0.0248
  O  O21  1  0.463940  0.868410  0.224300  1.0  -0.7103
  O  O22  1  0.300920  0.973300  0.682620  1.0  -0.7013
  O  O23  1  0.507880  0.024700  0.571240  1.0  -0.5566
  O  O24  1  0.309800  0.691300  0.274170  1.0  -0.528
  O  O25  1  0.553300  0.657500  0.231900  1.0  -0.7717
  O  O26  1  0.299700  0.972100  0.454400  1.0  -0.6739
  O  O27  1  0.036060  0.131590  0.724300  1.0  -0.7089
  O  O28  1  0.199080  0.026700  0.182620  1.0  -0.702
  O  O29  1  0.992120  0.975300  0.071240  1.0  -0.5537
  O  O30  1  0.190200  0.308700  0.774170  1.0  -0.5264
  O  O31  1  0.946700  0.342500  0.731900  1.0  -0.7729
  O  O32  1  0.200300  0.027900  0.954400  1.0  -0.6738
  O  O33  1  0.536060  0.368410  0.275700  1.0  -0.7093
  O  O34  1  0.699080  0.473300  0.817380  1.0  -0.6994
  O  O35  1  0.492120  0.524700  0.928760  1.0  -0.5545
  O  O36  1  0.690200  0.191300  0.225830  1.0  -0.5261
  O  O37  1  0.446700  0.157500  0.268100  1.0  -0.7734
  O  O38  1  0.700300  0.472100  0.045600  1.0  -0.6751
  O  O39  1  0.963940  0.631590  0.775700  1.0  -0.71
  O  O40  1  0.800920  0.526700  0.317380  1.0  -0.6999
  O  O41  1  0.007880  0.475300  0.428760  1.0  -0.5565
  O  O42  1  0.809800  0.808700  0.725830  1.0  -0.5282
  O  O43  1  0.053300  0.842500  0.768100  1.0  -0.7721
  O  O44  1  0.799700  0.527900  0.545600  1.0  -0.6744
