# generated using pymatgen
data_CoP2(HO3)2
_symmetry_space_group_name_H-M   'P 1'
_cell_length_a   10.10400000
_cell_length_b   10.81000000
_cell_length_c   10.99300000
_cell_angle_alpha   90.00000000
_cell_angle_beta   90.00000000
_cell_angle_gamma   90.00000000
_symmetry_Int_Tables_number   1
_chemical_formula_structural   CoP2(HO3)2
_chemical_formula_sum   'Co4 P8 H8 O24'
_cell_volume   1200.70207032
_cell_formula_units_Z   4
loop_
 _symmetry_equiv_pos_site_id
 _symmetry_equiv_pos_as_xyz
  1  'x, y, z'
loop_
 _atom_site_type_symbol
 _atom_site_label
 _atom_site_symmetry_multiplicity
 _atom_site_fract_x
 _atom_site_fract_y
 _atom_site_fract_z
 _atom_site_occupancy
 _atom_site_charge
  Co  Co1  1  0.354450  0.001840  0.214050  1.0  0.984
  Co  Co2  1  0.145550  0.998160  0.714050  1.0  0.9816
  Co  Co3  1  0.645550  0.501840  0.285950  1.0  0.9821
  Co  Co4  1  0.854450  0.498160  0.785950  1.0  0.9829
  P  P5  1  0.141810  0.970250  0.432130  1.0  1.5298
  P  P6  1  0.431540  0.733200  0.294750  1.0  1.4625
  P  P7  1  0.358190  0.029750  0.932130  1.0  1.5276
  P  P8  1  0.068460  0.266800  0.794750  1.0  1.4626
  P  P9  1  0.858190  0.470250  0.067870  1.0  1.5263
  P  P10  1  0.568460  0.233200  0.205250  1.0  1.4663
  P  P11  1  0.641810  0.529750  0.567870  1.0  1.5238
  P  P12  1  0.931540  0.766800  0.705250  1.0  1.4654
  H  H13  1  0.168000  0.846900  0.434000  1.0  -0.0157
  H  H14  1  0.405000  0.723000  0.416600  1.0  -0.0344
  H  H15  1  0.332000  0.153100  0.934000  1.0  -0.016
  H  H16  1  0.095000  0.277000  0.916600  1.0  -0.0341
  H  H17  1  0.832000  0.346900  0.066000  1.0  -0.0158
  H  H18  1  0.595000  0.223000  0.083400  1.0  -0.0346
  H  H19  1  0.668000  0.653100  0.566000  1.0  -0.0159
  H  H20  1  0.905000  0.777000  0.583400  1.0  -0.0344
  O  O21  1  0.200190  0.027580  0.545620  1.0  -0.6745
  O  O22  1  0.553400  0.657580  0.268200  1.0  -0.7743
  O  O23  1  0.309650  0.691530  0.225550  1.0  -0.5159
  O  O24  1  0.199180  0.026420  0.317190  1.0  -0.6907
  O  O25  1  0.991660  0.975900  0.428450  1.0  -0.5609
  O  O26  1  0.463620  0.868340  0.276100  1.0  -0.7051
  O  O27  1  0.299810  0.972420  0.045620  1.0  -0.675
  O  O28  1  0.946600  0.342420  0.768200  1.0  -0.7756
  O  O29  1  0.190350  0.308470  0.725550  1.0  -0.5168
  O  O30  1  0.300820  0.973580  0.817190  1.0  -0.6891
  O  O31  1  0.508340  0.024100  0.928450  1.0  -0.5637
  O  O32  1  0.036380  0.131660  0.776100  1.0  -0.7046
  O  O33  1  0.799810  0.527580  0.954380  1.0  -0.6736
  O  O34  1  0.446600  0.157580  0.231800  1.0  -0.7751
  O  O35  1  0.690350  0.191530  0.274450  1.0  -0.5171
  O  O36  1  0.800820  0.526420  0.182810  1.0  -0.6919
  O  O37  1  0.008340  0.475900  0.071550  1.0  -0.5632
  O  O38  1  0.536380  0.368340  0.223900  1.0  -0.7042
  O  O39  1  0.700190  0.472420  0.454380  1.0  -0.6748
  O  O40  1  0.053400  0.842420  0.731800  1.0  -0.7743
  O  O41  1  0.809650  0.808470  0.774450  1.0  -0.5176
  O  O42  1  0.699180  0.473580  0.682810  1.0  -0.6904
  O  O43  1  0.491660  0.524100  0.571550  1.0  -0.5603
  O  O44  1  0.963620  0.631660  0.723900  1.0  -0.7056
