# generated using pymatgen
data_Cd2H3C19N4O5
_symmetry_space_group_name_H-M   'P 1'
_cell_length_a   19.75800000
_cell_length_b   7.22800000
_cell_length_c   17.53000000
_cell_angle_alpha   90.00000000
_cell_angle_beta   90.00000000
_cell_angle_gamma   90.00000000
_symmetry_Int_Tables_number   1
_chemical_formula_structural   Cd2H3C19N4O5
_chemical_formula_sum   'Cd8 H12 C76 N16 O20'
_cell_volume   2503.47374472
_cell_formula_units_Z   4
loop_
 _symmetry_equiv_pos_site_id
 _symmetry_equiv_pos_as_xyz
  1  'x, y, z'
loop_
 _atom_site_type_symbol
 _atom_site_label
 _atom_site_symmetry_multiplicity
 _atom_site_fract_x
 _atom_site_fract_y
 _atom_site_fract_z
 _atom_site_occupancy
 _atom_site_charge
  Cd  Cd1  1  0.440070  0.250000  0.819370  1.0  1.0307
  Cd  Cd2  1  0.059930  0.750000  0.319370  1.0  1.0307
  Cd  Cd3  1  0.559930  0.750000  0.180630  1.0  1.0314
  Cd  Cd4  1  0.940070  0.250000  0.680630  1.0  1.0313
  Cd  Cd5  1  0.500000  0.500000  0.000000  1.0  1.0315
  Cd  Cd6  1  0.000000  0.500000  0.500000  1.0  1.0315
  Cd  Cd7  1  0.500000  0.000000  0.000000  1.0  1.0315
  Cd  Cd8  1  0.000000  0.000000  0.500000  1.0  1.0315
  H  H9  1  0.242600  0.250000  0.983200  1.0  0.103
  H  H10  1  0.050400  0.250000  0.914500  1.0  0.0848
  H  H11  1  0.197300  0.250000  0.760000  1.0  0.109
  H  H12  1  0.257400  0.750000  0.483200  1.0  0.1032
  H  H13  1  0.449600  0.750000  0.414500  1.0  0.0838
  H  H14  1  0.302700  0.750000  0.260000  1.0  0.109
  H  H15  1  0.757400  0.750000  0.016800  1.0  0.103
  H  H16  1  0.949600  0.750000  0.085500  1.0  0.0838
  H  H17  1  0.802700  0.750000  0.240000  1.0  0.109
  H  H18  1  0.742600  0.250000  0.516800  1.0  0.1029
  H  H19  1  0.550400  0.250000  0.585500  1.0  0.0847
  H  H20  1  0.697300  0.250000  0.740000  1.0  0.109
  C  C21  1  0.126700  0.101000  0.171900  1.0  0.0166
  C  C22  1  0.061800  0.121000  0.150300  1.0  0.0804
  C  C23  1  0.078000  0.129000  0.072000  1.0  0.1595
  C  C24  1  0.144300  0.101000  0.093400  1.0  -0.0297
  C  C25  1  0.373300  0.899000  0.671900  1.0  0.0109
  C  C26  1  0.438200  0.879000  0.650300  1.0  0.0858
  C  C27  1  0.422000  0.871000  0.572000  1.0  0.1586
  C  C28  1  0.355700  0.899000  0.593400  1.0  -0.0353
  C  C29  1  0.873300  0.601000  0.828100  1.0  0.016
  C  C30  1  0.938200  0.621000  0.849700  1.0  0.0879
  C  C31  1  0.922000  0.629000  0.928000  1.0  0.1556
  C  C32  1  0.855700  0.601000  0.906600  1.0  -0.0388
  C  C33  1  0.626700  0.399000  0.328100  1.0  0.0149
  C  C34  1  0.561800  0.379000  0.349700  1.0  0.0785
  C  C35  1  0.578000  0.371000  0.428000  1.0  0.154
  C  C36  1  0.644300  0.399000  0.406600  1.0  -0.0344
  C  C37  1  0.873300  0.899000  0.828100  1.0  0.0164
  C  C38  1  0.938200  0.879000  0.849700  1.0  0.0858
  C  C39  1  0.922000  0.871000  0.928000  1.0  0.1555
  C  C40  1  0.855700  0.899000  0.906600  1.0  -0.0361
  C  C41  1  0.626700  0.101000  0.328100  1.0  0.0188
  C  C42  1  0.561800  0.121000  0.349700  1.0  0.0806
  C  C43  1  0.578000  0.129000  0.428000  1.0  0.1539
  C  C44  1  0.644300  0.101000  0.406600  1.0  -0.0311
  C  C45  1  0.126700  0.399000  0.171900  1.0  0.0134
  C  C46  1  0.061800  0.379000  0.150300  1.0  0.0787
  C  C47  1  0.078000  0.371000  0.072000  1.0  0.1605
  C  C48  1  0.144300  0.399000  0.093400  1.0  -0.0334
  C  C49  1  0.373300  0.601000  0.671900  1.0  0.0109
  C  C50  1  0.438200  0.621000  0.650300  1.0  0.0878
  C  C51  1  0.422000  0.629000  0.572000  1.0  0.1629
  C  C52  1  0.355700  0.601000  0.593400  1.0  -0.0374
  C  C53  1  0.065800  0.250000  0.280500  1.0  0.2505
  C  C54  1  0.305700  0.250000  0.850100  1.0  0.6634
  C  C55  1  0.231400  0.250000  0.869100  1.0  -0.1854
  C  C56  1  0.210500  0.250000  0.944400  1.0  -0.0758
  C  C57  1  0.142200  0.250000  0.962800  1.0  0.0727
  C  C58  1  0.120700  0.250000  0.044100  1.0  0.0893
  C  C59  1  0.065100  0.250000  0.763700  1.0  0.7163
  C  C60  1  0.116900  0.250000  0.829200  1.0  -0.1778
  C  C61  1  0.096500  0.250000  0.903500  1.0  -0.0847
  C  C62  1  0.183700  0.250000  0.810700  1.0  -0.0099
  C  C63  1  0.084800  0.250000  0.198700  1.0  0.071
  C  C64  1  0.434200  0.750000  0.780500  1.0  0.251
  C  C65  1  0.194300  0.750000  0.350100  1.0  0.6627
  C  C66  1  0.268600  0.750000  0.369100  1.0  -0.1852
  C  C67  1  0.289500  0.750000  0.444400  1.0  -0.0764
  C  C68  1  0.357800  0.750000  0.462800  1.0  0.0724
  C  C69  1  0.379300  0.750000  0.544100  1.0  0.09
  C  C70  1  0.434900  0.750000  0.263700  1.0  0.7157
  C  C71  1  0.383100  0.750000  0.329200  1.0  -0.1772
  C  C72  1  0.403500  0.750000  0.403500  1.0  -0.083
  C  C73  1  0.316300  0.750000  0.310700  1.0  -0.0082
  C  C74  1  0.415200  0.750000  0.698700  1.0  0.0723
  C  C75  1  0.934200  0.750000  0.719500  1.0  0.2507
  C  C76  1  0.694300  0.750000  0.149900  1.0  0.6625
  C  C77  1  0.768600  0.750000  0.130900  1.0  -0.1849
  C  C78  1  0.789500  0.750000  0.055600  1.0  -0.0768
  C  C79  1  0.857800  0.750000  0.037200  1.0  0.0718
  C  C80  1  0.879300  0.750000  0.955900  1.0  0.0885
  C  C81  1  0.934900  0.750000  0.236300  1.0  0.7152
  C  C82  1  0.883100  0.750000  0.170800  1.0  -0.1768
  C  C83  1  0.903500  0.750000  0.096500  1.0  -0.0829
  C  C84  1  0.816300  0.750000  0.189300  1.0  -0.0085
  C  C85  1  0.915200  0.750000  0.801300  1.0  0.0727
  C  C86  1  0.565800  0.250000  0.219500  1.0  0.2501
  C  C87  1  0.805700  0.250000  0.649900  1.0  0.6633
  C  C88  1  0.731400  0.250000  0.630900  1.0  -0.1854
  C  C89  1  0.710500  0.250000  0.555600  1.0  -0.076
  C  C90  1  0.642200  0.250000  0.537200  1.0  0.0722
  C  C91  1  0.620700  0.250000  0.455900  1.0  0.0878
  C  C92  1  0.565100  0.250000  0.736300  1.0  0.7161
  C  C93  1  0.616900  0.250000  0.670800  1.0  -0.1766
  C  C94  1  0.596500  0.250000  0.596500  1.0  -0.0848
  C  C95  1  0.683700  0.250000  0.689300  1.0  -0.0073
  C  C96  1  0.584800  0.250000  0.301300  1.0  0.0709
  N  N97  1  0.056000  0.097100  0.321900  1.0  -0.3303
  N  N98  1  0.039400  0.161100  0.391000  1.0  -0.0873
  N  N99  1  0.444000  0.902900  0.821900  1.0  -0.3307
  N  N100  1  0.460600  0.838900  0.891000  1.0  -0.0869
  N  N101  1  0.944000  0.597100  0.678100  1.0  -0.3303
  N  N102  1  0.960600  0.661100  0.609000  1.0  -0.0871
  N  N103  1  0.556000  0.402900  0.178100  1.0  -0.3308
  N  N104  1  0.539400  0.338900  0.109000  1.0  -0.087
  N  N105  1  0.944000  0.902900  0.678100  1.0  -0.3309
  N  N106  1  0.960600  0.838900  0.609000  1.0  -0.0868
  N  N107  1  0.556000  0.097100  0.178100  1.0  -0.33
  N  N108  1  0.539400  0.161100  0.109000  1.0  -0.0875
  N  N109  1  0.056000  0.402900  0.321900  1.0  -0.3304
  N  N110  1  0.039400  0.338900  0.391000  1.0  -0.0889
  N  N111  1  0.444000  0.597100  0.821900  1.0  -0.3307
  N  N112  1  0.460600  0.661100  0.891000  1.0  -0.0872
  O  O113  1  0.347500  0.250000  0.904700  1.0  -0.6043
  O  O114  1  0.325800  0.250000  0.782300  1.0  -0.5898
  O  O115  1  0.003700  0.250000  0.782600  1.0  -0.6219
  O  O116  1  0.085500  0.250000  0.698000  1.0  -0.5758
  O  O117  1  0.500900  0.250000  0.928000  1.0  -0.9041
  O  O118  1  0.152500  0.750000  0.404700  1.0  -0.6045
  O  O119  1  0.174200  0.750000  0.282300  1.0  -0.5887
  O  O120  1  0.496300  0.750000  0.282600  1.0  -0.6222
  O  O121  1  0.414500  0.750000  0.198000  1.0  -0.5773
  O  O122  1  0.999100  0.750000  0.428000  1.0  -0.9042
  O  O123  1  0.652500  0.750000  0.095300  1.0  -0.6046
  O  O124  1  0.674200  0.750000  0.217700  1.0  -0.5872
  O  O125  1  0.996300  0.750000  0.217400  1.0  -0.6213
  O  O126  1  0.914500  0.750000  0.302000  1.0  -0.5788
  O  O127  1  0.499100  0.750000  0.072000  1.0  -0.9052
  O  O128  1  0.847500  0.250000  0.595300  1.0  -0.6055
  O  O129  1  0.825800  0.250000  0.717700  1.0  -0.5866
  O  O130  1  0.503700  0.250000  0.717400  1.0  -0.6211
  O  O131  1  0.585500  0.250000  0.802000  1.0  -0.5773
  O  O132  1  0.000900  0.250000  0.572000  1.0  -0.9051
