# generated using pymatgen
data_MnH12(C3N)6
_symmetry_space_group_name_H-M   'P 1'
_cell_length_a   5.56550000
_cell_length_b   9.37020000
_cell_length_c   11.75430000
_cell_angle_alpha   94.32100000
_cell_angle_beta   96.73400000
_cell_angle_gamma   100.83700000
_symmetry_Int_Tables_number   1
_chemical_formula_structural   MnH12(C3N)6
_chemical_formula_sum   'Mn1 H12 C18 N6'
_cell_volume   594.91169937
_cell_formula_units_Z   1
loop_
 _symmetry_equiv_pos_site_id
 _symmetry_equiv_pos_as_xyz
  1  'x, y, z'
loop_
 _atom_site_type_symbol
 _atom_site_label
 _atom_site_symmetry_multiplicity
 _atom_site_fract_x
 _atom_site_fract_y
 _atom_site_fract_z
 _atom_site_occupancy
 _atom_site_charge
  Mn  Mn1  1  0.000000  0.000000  0.000000  1.0  0.7021
  H  H2  1  0.180600  0.324500  0.913200  1.0  0.1017
  H  H3  1  0.345000  0.568800  0.909900  1.0  0.097
  H  H4  1  0.288600  0.912900  0.791100  1.0  0.0609
  H  H5  1  0.280600  0.898400  0.596100  1.0  0.1069
  H  H6  1  0.748700  0.115700  0.774900  1.0  0.0592
  H  H7  1  0.731400  0.112600  0.580000  1.0  0.1128
  H  H8  1  0.819400  0.675500  0.086800  1.0  0.1008
  H  H9  1  0.655000  0.431200  0.090100  1.0  0.0979
  H  H10  1  0.711400  0.087100  0.208900  1.0  0.0607
  H  H11  1  0.719400  0.101600  0.403900  1.0  0.1072
  H  H12  1  0.251300  0.884300  0.225100  1.0  0.059
  H  H13  1  0.268600  0.887400  0.420000  1.0  0.1131
  C  C14  1  0.107300  0.394400  0.948250  1.0  -0.1583
  C  C15  1  0.572700  0.166400  0.020260  1.0  0.5021
  C  C16  1  0.206100  0.541700  0.946230  1.0  -0.1327
  C  C17  1  0.003500  0.003000  0.563200  1.0  0.0755
  C  C18  1  0.899000  0.350300  0.002370  1.0  0.2107
  C  C19  1  0.170200  0.952100  0.748100  1.0  0.1747
  C  C20  1  0.168500  0.944100  0.629900  1.0  -0.2068
  C  C21  1  0.858500  0.070200  0.738900  1.0  0.1645
  C  C22  1  0.846500  0.068800  0.620700  1.0  -0.2198
  C  C23  1  0.892700  0.605600  0.051750  1.0  -0.1567
  C  C24  1  0.427300  0.833600  0.979740  1.0  0.4978
  C  C25  1  0.793900  0.458300  0.053770  1.0  -0.1293
  C  C26  1  0.996500  0.997000  0.436800  1.0  0.0756
  C  C27  1  0.101000  0.649700  0.997630  1.0  0.2108
  C  C28  1  0.829800  0.047900  0.251900  1.0  0.1731
  C  C29  1  0.831500  0.055900  0.370100  1.0  -0.2046
  C  C30  1  0.141500  0.929800  0.261100  1.0  0.1642
  C  C31  1  0.153500  0.931200  0.379300  1.0  -0.2192
  N  N32  1  0.014700  0.011600  0.803870  1.0  -0.301
  N  N33  1  0.367600  0.131980  0.038020  1.0  -0.5607
  N  N34  1  0.800400  0.198000  0.001880  1.0  -0.4394
  N  N35  1  0.985300  0.988400  0.196130  1.0  -0.2997
  N  N36  1  0.632400  0.868020  0.961980  1.0  -0.5614
  N  N37  1  0.199600  0.802000  0.998120  1.0  -0.4388
