# generated using pymatgen
data_MnH14(C10N3)2
_symmetry_space_group_name_H-M   'P 1'
_cell_length_a   5.61530000
_cell_length_b   9.33360000
_cell_length_c   13.33980000
_cell_angle_alpha   106.03000000
_cell_angle_beta   93.61100000
_cell_angle_gamma   102.05000000
_symmetry_Int_Tables_number   1
_chemical_formula_structural   MnH14(C10N3)2
_chemical_formula_sum   'Mn1 H14 C20 N6'
_cell_volume   651.72611023
_cell_formula_units_Z   1
loop_
 _symmetry_equiv_pos_site_id
 _symmetry_equiv_pos_as_xyz
  1  'x, y, z'
loop_
 _atom_site_type_symbol
 _atom_site_label
 _atom_site_symmetry_multiplicity
 _atom_site_fract_x
 _atom_site_fract_y
 _atom_site_fract_z
 _atom_site_occupancy
 _atom_site_charge
  Mn  Mn1  1  0.000000  0.000000  0.000000  1.0  0.6459
  H  H2  1  0.699000  0.432000  0.514000  1.0  0.0965
  H  H3  1  0.594000  0.393700  0.929600  1.0  0.0972
  H  H4  1  0.239700  0.350900  0.049700  1.0  0.0986
  H  H5  1  0.575600  0.918900  0.799900  1.0  0.0639
  H  H6  1  0.425900  0.746900  0.638300  1.0  0.1177
  H  H7  1  0.002000  0.562400  0.660900  1.0  0.1169
  H  H8  1  0.140800  0.744600  0.818700  1.0  0.0633
  H  H9  1  0.301000  0.568000  0.486000  1.0  0.096
  H  H10  1  0.406000  0.606300  0.070400  1.0  0.0971
  H  H11  1  0.760300  0.649100  0.950300  1.0  0.0984
  H  H12  1  0.424400  0.081100  0.200100  1.0  0.0647
  H  H13  1  0.574100  0.253100  0.361700  1.0  0.1189
  H  H14  1  0.998000  0.437600  0.339100  1.0  0.1172
  H  H15  1  0.859200  0.255400  0.181300  1.0  0.0632
  C  C16  1  0.560600  0.142300  0.962300  1.0  0.5135
  C  C17  1  0.897100  0.343300  0.987600  1.0  0.2154
  C  C18  1  0.757600  0.436000  0.958100  1.0  -0.1151
  C  C19  1  0.142400  0.410200  0.029600  1.0  -0.1792
  C  C20  1  0.662400  0.845800  0.771600  1.0  0.1659
  C  C21  1  0.569200  0.741600  0.674500  1.0  -0.2144
  C  C22  1  0.691600  0.628300  0.631200  1.0  0.1272
  C  C23  1  0.601500  0.507300  0.531100  1.0  -0.132
  C  C24  1  0.910400  0.633300  0.687600  1.0  -0.2159
  C  C25  1  0.992200  0.743200  0.783000  1.0  0.1631
  C  C26  1  0.439400  0.857700  0.037700  1.0  0.5114
  C  C27  1  0.102900  0.656700  0.012400  1.0  0.2155
  C  C28  1  0.242400  0.564000  0.041900  1.0  -0.1172
  C  C29  1  0.857600  0.589800  0.970400  1.0  -0.1788
  C  C30  1  0.337600  0.154200  0.228400  1.0  0.166
  C  C31  1  0.430800  0.258400  0.325500  1.0  -0.2123
  C  C32  1  0.308400  0.371700  0.368800  1.0  0.1273
  C  C33  1  0.398500  0.492700  0.468900  1.0  -0.135
  C  C34  1  0.089600  0.366700  0.312400  1.0  -0.2188
  C  C35  1  0.007800  0.256800  0.217000  1.0  0.1631
  N  N36  1  0.344900  0.096300  0.949000  1.0  -0.5517
  N  N37  1  0.798900  0.185100  0.976200  1.0  -0.4592
  N  N38  1  0.870300  0.848000  0.827500  1.0  -0.2911
  N  N39  1  0.655100  0.903700  0.051000  1.0  -0.5518
  N  N40  1  0.201100  0.814900  0.023800  1.0  -0.4591
  N  N41  1  0.129700  0.152000  0.172500  1.0  -0.2926
