# generated using pymatgen
data_NdH2C9I3NO6
_symmetry_space_group_name_H-M   'P 1'
_cell_length_a   11.68680000
_cell_length_b   21.39120000
_cell_length_c   21.39120000
_cell_angle_alpha   63.24010000
_cell_angle_beta   79.50720000
_cell_angle_gamma   100.49300000
_symmetry_Int_Tables_number   1
_chemical_formula_structural   NdH2C9I3NO6
_chemical_formula_sum   'Nd6 H12 C54 I18 N6 O36'
_cell_volume   4477.63287065
_cell_formula_units_Z   6
loop_
 _symmetry_equiv_pos_site_id
 _symmetry_equiv_pos_as_xyz
  1  'x, y, z'
loop_
 _atom_site_type_symbol
 _atom_site_label
 _atom_site_symmetry_multiplicity
 _atom_site_fract_x
 _atom_site_fract_y
 _atom_site_fract_z
 _atom_site_occupancy
 _atom_site_charge
  Nd  Nd1  1  0.475420  0.529650  0.079990  1.0  2.201
  Nd  Nd2  1  0.555410  0.079990  0.390360  1.0  2.2115
  Nd  Nd3  1  0.945770  0.390360  0.529650  1.0  2.2202
  Nd  Nd4  1  0.524580  0.470350  0.920010  1.0  2.1983
  Nd  Nd5  1  0.444590  0.920010  0.609640  1.0  2.2119
  Nd  Nd6  1  0.054230  0.609640  0.470350  1.0  2.2199
  H  H7  1  0.928660  0.117970  0.265450  1.0  0.1758
  H  H8  1  0.928500  0.189120  0.296980  1.0  0.186
  H  H9  1  0.173270  0.242250  0.557530  1.0  0.1475
  H  H10  1  0.246320  0.320180  0.572950  1.0  0.1792
  H  H11  1  0.790950  0.533120  0.135170  1.0  0.2432
  H  H12  1  0.759130  0.597360  0.171910  1.0  0.1825
  H  H13  1  0.071500  0.810880  0.703020  1.0  0.183
  H  H14  1  0.071340  0.882030  0.734550  1.0  0.177
  H  H15  1  0.753680  0.679820  0.427050  1.0  0.1776
  H  H16  1  0.826730  0.757750  0.442470  1.0  0.15
  H  H17  1  0.240870  0.402640  0.828090  1.0  0.1855
  H  H18  1  0.209050  0.466880  0.864830  1.0  0.2425
  C  C19  1  0.370700  0.125000  0.321900  1.0  0.6313
  C  C20  1  0.299900  0.164900  0.272100  1.0  -0.0643
  C  C21  1  0.362800  0.231300  0.208900  1.0  -0.015
  C  C22  1  0.301100  0.276100  0.165800  1.0  -0.078
  C  C23  1  0.373700  0.353700  0.103300  1.0  0.6567
  C  C24  1  0.174600  0.251400  0.187300  1.0  -0.0418
  C  C25  1  0.105200  0.183400  0.252200  1.0  0.1695
  C  C26  1  0.172100  0.143000  0.292800  1.0  -0.0339
  C  C27  1  0.305200  0.510600  0.962600  1.0  0.47
  C  C28  1  0.692600  0.321900  0.553100  1.0  0.6324
  C  C29  1  0.572000  0.272100  0.563000  1.0  -0.0587
  C  C30  1  0.571700  0.208900  0.559800  1.0  -0.0098
  C  C31  1  0.466900  0.165800  0.558100  1.0  -0.0734
  C  C32  1  0.477000  0.103300  0.543000  1.0  0.655
  C  C33  1  0.361900  0.187300  0.561300  1.0  0.0163
  C  C34  1  0.357400  0.252200  0.564400  1.0  0.1666
  C  C35  1  0.464900  0.292800  0.564200  1.0  0.0108
  C  C36  1  0.267800  0.962600  0.526800  1.0  0.4515
  C  C37  1  0.245700  0.553100  0.125000  1.0  0.6318
  C  C38  1  0.135000  0.563000  0.164900  1.0  -0.0614
  C  C39  1  0.131500  0.559800  0.231300  1.0  -0.0065
  C  C40  1  0.025000  0.558100  0.276100  1.0  -0.0757
  C  C41  1  0.020000  0.543000  0.353700  1.0  0.6577
  C  C42  1  0.923200  0.561300  0.251400  1.0  -0.0569
  C  C43  1  0.921800  0.564400  0.183400  1.0  0.2045
  C  C44  1  0.029100  0.564200  0.143000  1.0  -0.03
  C  C45  1  0.794600  0.526800  0.510600  1.0  0.4588
  C  C46  1  0.629300  0.875000  0.678100  1.0  0.6302
  C  C47  1  0.700100  0.835100  0.727900  1.0  -0.0642
  C  C48  1  0.637200  0.768700  0.791100  1.0  -0.0089
  C  C49  1  0.698900  0.723900  0.834200  1.0  -0.0774
  C  C50  1  0.626300  0.646300  0.896700  1.0  0.6568
  C  C51  1  0.825400  0.748600  0.812700  1.0  -0.0443
  C  C52  1  0.894800  0.816600  0.747800  1.0  0.1698
  C  C53  1  0.827900  0.857000  0.707200  1.0  -0.0301
  C  C54  1  0.694800  0.489400  0.037400  1.0  0.4715
  C  C55  1  0.307400  0.678100  0.446900  1.0  0.6294
  C  C56  1  0.428000  0.727900  0.437000  1.0  -0.0595
  C  C57  1  0.428300  0.791100  0.440200  1.0  -0.0022
  C  C58  1  0.533100  0.834200  0.441900  1.0  -0.0736
  C  C59  1  0.523000  0.896700  0.457000  1.0  0.6555
  C  C60  1  0.638100  0.812700  0.438700  1.0  0.0155
  C  C61  1  0.642600  0.747800  0.435600  1.0  0.1667
  C  C62  1  0.535100  0.707200  0.435800  1.0  0.0121
  C  C63  1  0.732200  0.037400  0.473200  1.0  0.4509
  C  C64  1  0.754300  0.446900  0.875000  1.0  0.6302
  C  C65  1  0.865000  0.437000  0.835100  1.0  -0.0614
  C  C66  1  0.868500  0.440200  0.768700  1.0  -0.0011
  C  C67  1  0.975000  0.441900  0.723900  1.0  -0.0756
  C  C68  1  0.980000  0.457000  0.646300  1.0  0.6575
  C  C69  1  0.076800  0.438700  0.748600  1.0  -0.0582
  C  C70  1  0.078200  0.435600  0.816600  1.0  0.2046
  C  C71  1  0.970900  0.435800  0.857000  1.0  -0.0317
  C  C72  1  0.205400  0.473200  0.489400  1.0  0.4592
  I  I73  1  0.554410  0.265050  0.169810  1.0  -0.1145
  I  I74  1  0.084190  0.315690  0.119740  1.0  -0.1065
  I  I75  1  0.076070  0.044840  0.391800  1.0  -0.127
  I  I76  1  0.724220  0.169810  0.565140  1.0  -0.1028
  I  I77  1  0.203930  0.119740  0.564570  1.0  -0.1703
  I  I78  1  0.467870  0.391800  0.563360  1.0  -0.1888
  I  I79  1  0.289360  0.565140  0.265050  1.0  -0.0996
  I  I80  1  0.768500  0.564570  0.315690  1.0  -0.1412
  I  I81  1  0.031230  0.563360  0.044840  1.0  -0.171
  I  I82  1  0.445590  0.734950  0.830190  1.0  -0.1157
  I  I83  1  0.915810  0.684310  0.880260  1.0  -0.1039
  I  I84  1  0.923930  0.955160  0.608200  1.0  -0.1268
  I  I85  1  0.275780  0.830190  0.434860  1.0  -0.1044
  I  I86  1  0.796070  0.880260  0.435430  1.0  -0.1722
  I  I87  1  0.532130  0.608200  0.436640  1.0  -0.1883
  I  I88  1  0.710640  0.434860  0.734950  1.0  -0.1005
  I  I89  1  0.231500  0.435430  0.684310  1.0  -0.1437
  I  I90  1  0.968770  0.436640  0.955160  1.0  -0.1733
  N  N91  1  0.979200  0.162100  0.272900  1.0  0.0227
  N  N92  1  0.252100  0.272900  0.565000  1.0  -0.0981
  N  N93  1  0.817100  0.565000  0.162100  1.0  0.1478
  N  N94  1  0.020800  0.837900  0.727100  1.0  0.0256
  N  N95  1  0.747900  0.727100  0.435000  1.0  -0.0942
  N  N96  1  0.182900  0.435000  0.837900  1.0  0.1519
  O  O97  1  0.402430  0.146930  0.361440  1.0  -0.6207
  O  O98  1  0.402320  0.073340  0.316080  1.0  -0.6566
  O  O99  1  0.395450  0.398580  0.124930  1.0  -0.7063
  O  O100  1  0.402120  0.363990  0.039430  1.0  -0.6629
  O  O101  1  0.313000  0.488300  0.917800  1.0  -0.6481
  O  O102  1  0.385080  0.515540  0.991300  1.0  -0.6379
  O  O103  1  0.763870  0.361440  0.491630  1.0  -0.637
  O  O104  1  0.718400  0.316080  0.610580  1.0  -0.6539
  O  O105  1  0.520380  0.124930  0.476490  1.0  -0.7171
  O  O106  1  0.441550  0.039430  0.596580  1.0  -0.6581
  O  O107  1  0.230800  0.917800  0.593900  1.0  -0.6609
  O  O108  1  0.376380  0.991300  0.493160  1.0  -0.6374
  O  O109  1  0.255500  0.491630  0.146930  1.0  -0.6204
  O  O110  1  0.328980  0.610580  0.073340  1.0  -0.6475
  O  O111  1  0.996870  0.476490  0.398580  1.0  -0.7108
  O  O112  1  0.038130  0.596580  0.363990  1.0  -0.674
  O  O113  1  0.824700  0.593900  0.488300  1.0  -0.6223
  O  O114  1  0.869540  0.493160  0.515540  1.0  -0.6377
  O  O115  1  0.597570  0.853070  0.638560  1.0  -0.6229
  O  O116  1  0.597680  0.926660  0.683920  1.0  -0.6577
  O  O117  1  0.604550  0.601420  0.875070  1.0  -0.7076
  O  O118  1  0.597880  0.636010  0.960570  1.0  -0.6657
  O  O119  1  0.687000  0.511700  0.082200  1.0  -0.65
  O  O120  1  0.614920  0.484460  0.008700  1.0  -0.6368
  O  O121  1  0.236130  0.638560  0.508370  1.0  -0.6324
  O  O122  1  0.281600  0.683920  0.389420  1.0  -0.6569
  O  O123  1  0.479620  0.875070  0.523510  1.0  -0.7147
  O  O124  1  0.558450  0.960570  0.403420  1.0  -0.6577
  O  O125  1  0.769200  0.082200  0.406100  1.0  -0.6628
  O  O126  1  0.623620  0.008700  0.506840  1.0  -0.6366
  O  O127  1  0.744500  0.508370  0.853070  1.0  -0.6207
  O  O128  1  0.671020  0.389420  0.926660  1.0  -0.6482
  O  O129  1  0.003130  0.523510  0.601420  1.0  -0.7103
  O  O130  1  0.961870  0.403420  0.636010  1.0  -0.6757
  O  O131  1  0.175300  0.406100  0.511700  1.0  -0.6237
  O  O132  1  0.130460  0.506840  0.484460  1.0  -0.6367
