# generated using pymatgen
data_NdH2C9I3NO6
_symmetry_space_group_name_H-M   'P 1'
_cell_length_a   11.69410000
_cell_length_b   21.37680000
_cell_length_c   21.37680000
_cell_angle_alpha   63.24840000
_cell_angle_beta   79.49340000
_cell_angle_gamma   100.50700000
_symmetry_Int_Tables_number   1
_chemical_formula_structural   NdH2C9I3NO6
_chemical_formula_sum   'Nd6 H12 C54 I18 N6 O36'
_cell_volume   4473.99397191
_cell_formula_units_Z   6
loop_
 _symmetry_equiv_pos_site_id
 _symmetry_equiv_pos_as_xyz
  1  'x, y, z'
loop_
 _atom_site_type_symbol
 _atom_site_label
 _atom_site_symmetry_multiplicity
 _atom_site_fract_x
 _atom_site_fract_y
 _atom_site_fract_z
 _atom_site_occupancy
 _atom_site_charge
  Nd  Nd1  1  0.555100  0.079490  0.390630  1.0  2.2104
  Nd  Nd2  1  0.945730  0.390630  0.529880  1.0  2.2241
  Nd  Nd3  1  0.475610  0.529880  0.079490  1.0  2.2194
  Nd  Nd4  1  0.444900  0.920510  0.609370  1.0  2.2118
  Nd  Nd5  1  0.054270  0.609370  0.470120  1.0  2.2233
  Nd  Nd6  1  0.524390  0.470120  0.920510  1.0  2.2166
  H  H7  1  0.175480  0.243090  0.554950  1.0  0.1444
  H  H8  1  0.250980  0.321070  0.569720  1.0  0.1685
  H  H9  1  0.749020  0.678930  0.430280  1.0  0.1681
  H  H10  1  0.824520  0.756910  0.445050  1.0  0.146
  H  H11  1  0.241190  0.405750  0.825890  1.0  0.1809
  H  H12  1  0.207690  0.469580  0.862930  1.0  0.2068
  H  H13  1  0.069570  0.808930  0.702020  1.0  0.1788
  H  H14  1  0.068130  0.879890  0.733820  1.0  0.1759
  H  H15  1  0.792310  0.530420  0.137070  1.0  0.2049
  H  H16  1  0.758810  0.594250  0.174110  1.0  0.1779
  H  H17  1  0.931870  0.120110  0.266180  1.0  0.1761
  H  H18  1  0.930430  0.191070  0.297980  1.0  0.1819
  C  C19  1  0.521170  0.896340  0.457830  1.0  0.6434
  C  C20  1  0.530980  0.833050  0.443710  1.0  0.0025
  C  C21  1  0.427610  0.791220  0.441390  1.0  -0.0203
  C  C22  1  0.426900  0.727100  0.440000  1.0  -0.0333
  C  C23  1  0.306700  0.678400  0.447100  1.0  0.6556
  C  C24  1  0.533410  0.706320  0.438990  1.0  -0.0372
  C  C25  1  0.642250  0.747500  0.438950  1.0  0.1704
  C  C26  1  0.636950  0.812000  0.440450  1.0  -0.0209
  C  C27  1  0.268300  0.962900  0.527300  1.0  0.4574
  C  C28  1  0.979000  0.457830  0.645830  1.0  0.6464
  C  C29  1  0.974690  0.443710  0.723240  1.0  0.0054
  C  C30  1  0.869000  0.441390  0.767390  1.0  -0.0209
  C  C31  1  0.866900  0.440000  0.832900  1.0  -0.0355
  C  C32  1  0.753800  0.447100  0.874500  1.0  0.6566
  C  C33  1  0.972400  0.438990  0.854690  1.0  -0.0891
  C  C34  1  0.081200  0.438950  0.813550  1.0  0.2166
  C  C35  1  0.077400  0.440450  0.747550  1.0  -0.0999
  C  C36  1  0.795600  0.527300  0.509800  1.0  0.4708
  C  C37  1  0.624830  0.645830  0.896340  1.0  0.6452
  C  C38  1  0.697930  0.723240  0.833050  1.0  -1e-04
  C  C39  1  0.636390  0.767390  0.791220  1.0  -0.0246
  C  C40  1  0.699800  0.832900  0.727100  1.0  -0.0334
  C  C41  1  0.628300  0.874500  0.678400  1.0  0.6556
  C  C42  1  0.827090  0.854690  0.706320  1.0  -0.0875
  C  C43  1  0.894750  0.813550  0.747500  1.0  0.1951
  C  C44  1  0.824950  0.747550  0.812000  1.0  -0.0704
  C  C45  1  0.305400  0.509800  0.962900  1.0  0.4678
  C  C46  1  0.478830  0.103660  0.542170  1.0  0.6432
  C  C47  1  0.469020  0.166950  0.556290  1.0  0.0017
  C  C48  1  0.572390  0.208780  0.558610  1.0  -0.0246
  C  C49  1  0.573100  0.272900  0.560000  1.0  -0.0334
  C  C50  1  0.693300  0.321600  0.552900  1.0  0.6578
  C  C51  1  0.466590  0.293680  0.561010  1.0  -0.0386
  C  C52  1  0.357750  0.252500  0.561050  1.0  0.1703
  C  C53  1  0.363050  0.188000  0.559550  1.0  -0.0208
  C  C54  1  0.731700  0.037100  0.472700  1.0  0.4567
  C  C55  1  0.021000  0.542170  0.354170  1.0  0.6453
  C  C56  1  0.025310  0.556290  0.276760  1.0  0.0063
  C  C57  1  0.131000  0.558610  0.232610  1.0  -0.0234
  C  C58  1  0.133100  0.560000  0.167100  1.0  -0.0363
  C  C59  1  0.246200  0.552900  0.125500  1.0  0.657
  C  C60  1  0.027600  0.561010  0.145310  1.0  -0.0918
  C  C61  1  0.918800  0.561050  0.186450  1.0  0.2166
  C  C62  1  0.922600  0.559550  0.252450  1.0  -0.0955
  C  C63  1  0.204400  0.472700  0.490200  1.0  0.4714
  C  C64  1  0.375170  0.354170  0.103660  1.0  0.6454
  C  C65  1  0.302070  0.276760  0.166950  1.0  -0.0004
  C  C66  1  0.363610  0.232610  0.208780  1.0  -0.0287
  C  C67  1  0.300200  0.167100  0.272900  1.0  -0.0328
  C  C68  1  0.371700  0.125500  0.321600  1.0  0.6557
  C  C69  1  0.172910  0.145310  0.293680  1.0  -0.091
  C  C70  1  0.105250  0.186450  0.252500  1.0  0.1942
  C  C71  1  0.175050  0.252450  0.188000  1.0  -0.0733
  C  C72  1  0.694600  0.490200  0.037100  1.0  0.4693
  I  I73  1  0.274310  0.829600  0.435490  1.0  -0.1044
  I  I74  1  0.531700  0.608260  0.438940  1.0  -0.2061
  I  I75  1  0.793680  0.878900  0.438950  1.0  -0.1771
  I  I76  1  0.709800  0.435490  0.734910  1.0  -0.1003
  I  I77  1  0.970640  0.438940  0.952800  1.0  -0.1677
  I  I78  1  0.232630  0.438950  0.682150  1.0  -0.152
  I  I79  1  0.444710  0.734910  0.829600  1.0  -0.1183
  I  I80  1  0.923440  0.952800  0.608260  1.0  -0.1355
  I  I81  1  0.914780  0.682150  0.878900  1.0  -0.1029
  I  I82  1  0.725690  0.170400  0.564510  1.0  -0.1034
  I  I83  1  0.468300  0.391740  0.561060  1.0  -0.2059
  I  I84  1  0.206320  0.121100  0.561050  1.0  -0.1751
  I  I85  1  0.290200  0.564510  0.265090  1.0  -0.1003
  I  I86  1  0.029360  0.561060  0.047200  1.0  -0.1643
  I  I87  1  0.767370  0.561050  0.317850  1.0  -0.1509
  I  I88  1  0.555290  0.265090  0.170400  1.0  -0.1172
  I  I89  1  0.076560  0.047200  0.391740  1.0  -0.1359
  I  I90  1  0.085220  0.317850  0.121100  1.0  -0.1051
  N  N91  1  0.744760  0.726520  0.438040  1.0  -0.1571
  N  N92  1  0.182800  0.438040  0.835440  1.0  0.105
  N  N93  1  0.018240  0.835440  0.726520  1.0  0.0552
  N  N94  1  0.255240  0.273480  0.561960  1.0  -0.1598
  N  N95  1  0.817200  0.561960  0.164560  1.0  0.1038
  N  N96  1  0.981760  0.164560  0.273480  1.0  0.053
  O  O97  1  0.556940  0.959730  0.404610  1.0  -0.6612
  O  O98  1  0.476370  0.874630  0.524320  1.0  -0.7114
  O  O99  1  0.234660  0.638070  0.509490  1.0  -0.6203
  O  O100  1  0.282200  0.683470  0.390970  1.0  -0.6369
  O  O101  1  0.377820  0.992770  0.492310  1.0  -0.6532
  O  O102  1  0.230700  0.917700  0.593400  1.0  -0.6584
  O  O103  1  0.961550  0.404610  0.635660  1.0  -0.6786
  O  O104  1  0.000690  0.524320  0.601050  1.0  -0.7153
  O  O105  1  0.744150  0.509490  0.852440  1.0  -0.6169
  O  O106  1  0.673170  0.390970  0.925560  1.0  -0.6315
  O  O107  1  0.870130  0.492310  0.514920  1.0  -0.6541
  O  O108  1  0.824100  0.593400  0.488900  1.0  -0.6145
  O  O109  1  0.597210  0.635660  0.959730  1.0  -0.6668
  O  O110  1  0.601740  0.601050  0.874630  1.0  -0.7029
  O  O111  1  0.596590  0.852440  0.638070  1.0  -0.6136
  O  O112  1  0.598730  0.925560  0.683470  1.0  -0.6446
  O  O113  1  0.385050  0.514920  0.992770  1.0  -0.6538
  O  O114  1  0.313000  0.488900  0.917700  1.0  -0.6255
  O  O115  1  0.443060  0.040270  0.595390  1.0  -0.6616
  O  O116  1  0.523630  0.125370  0.475680  1.0  -0.7112
  O  O117  1  0.765340  0.361930  0.490510  1.0  -0.6228
  O  O118  1  0.717800  0.316530  0.609030  1.0  -0.6345
  O  O119  1  0.622180  0.007230  0.507690  1.0  -0.6518
  O  O120  1  0.769300  0.082300  0.406600  1.0  -0.6586
  O  O121  1  0.038450  0.595390  0.364340  1.0  -0.6772
  O  O122  1  0.999310  0.475680  0.398950  1.0  -0.7171
  O  O123  1  0.255850  0.490510  0.147560  1.0  -0.6155
  O  O124  1  0.326830  0.609030  0.074440  1.0  -0.6282
  O  O125  1  0.129870  0.507690  0.485080  1.0  -0.6529
  O  O126  1  0.175900  0.406600  0.511100  1.0  -0.6133
  O  O127  1  0.402790  0.364340  0.040270  1.0  -0.6664
  O  O128  1  0.398260  0.398950  0.125370  1.0  -0.7019
  O  O129  1  0.403410  0.147560  0.361930  1.0  -0.6124
  O  O130  1  0.401270  0.074440  0.316530  1.0  -0.6439
  O  O131  1  0.614950  0.485080  0.007230  1.0  -0.6523
  O  O132  1  0.687000  0.511100  0.082300  1.0  -0.6286
