# generated using pymatgen
data_NdHC9I3NO6
_symmetry_space_group_name_H-M   'P 1'
_cell_length_a   11.66350000
_cell_length_b   21.38070000
_cell_length_c   21.38070000
_cell_angle_alpha   63.23050000
_cell_angle_beta   79.52320000
_cell_angle_gamma   100.47700000
_symmetry_Int_Tables_number   1
_chemical_formula_structural   NdHC9I3NO6
_chemical_formula_sum   'Nd6 H6 C54 I18 N6 O36'
_cell_volume   4464.78229861
_cell_formula_units_Z   6
loop_
 _symmetry_equiv_pos_site_id
 _symmetry_equiv_pos_as_xyz
  1  'x, y, z'
loop_
 _atom_site_type_symbol
 _atom_site_label
 _atom_site_symmetry_multiplicity
 _atom_site_fract_x
 _atom_site_fract_y
 _atom_site_fract_z
 _atom_site_occupancy
 _atom_site_charge
  Nd  Nd1  1  0.444740  0.390540  0.079670  1.0  2.2363
  Nd  Nd2  1  0.524410  0.079670  0.529790  1.0  2.2317
  Nd  Nd3  1  0.054200  0.529790  0.390540  1.0  2.2234
  Nd  Nd4  1  0.555270  0.609470  0.920320  1.0  2.2356
  Nd  Nd5  1  0.475590  0.920330  0.470210  1.0  2.233
  Nd  Nd6  1  0.945800  0.470210  0.609470  1.0  2.2223
  H  H7  1  0.790000  0.502000  0.988000  1.0  0.0822
  H  H8  1  0.778000  0.988000  0.510000  1.0  0.0802
  H  H9  1  0.288000  0.510000  0.502000  1.0  0.0822
  H  H10  1  0.210000  0.498000  0.012000  1.0  0.0794
  H  H11  1  0.222000  0.012000  0.490000  1.0  0.0787
  H  H12  1  0.712000  0.490000  0.498000  1.0  0.0795
  C  C13  1  0.476600  0.458100  0.895800  1.0  0.6551
  C  C14  1  0.467700  0.443700  0.832800  1.0  -0.058
  C  C15  1  0.572000  0.441700  0.790900  1.0  -0.0065
  C  C16  1  0.570800  0.439500  0.726900  1.0  -0.0277
  C  C17  1  0.694300  0.446500  0.678700  1.0  0.649
  C  C18  1  0.466900  0.438100  0.706300  1.0  0.0718
  C  C19  1  0.356600  0.437500  0.748300  1.0  0.2314
  C  C20  1  0.363900  0.440200  0.811600  1.0  0.0878
  C  C21  1  0.732500  0.525900  0.962100  1.0  0.6411
  C  C22  1  0.372400  0.895800  0.646100  1.0  0.6535
  C  C23  1  0.300500  0.832800  0.723500  1.0  -0.0589
  C  C24  1  0.362900  0.790900  0.767400  1.0  -0.0089
  C  C25  1  0.297700  0.726900  0.833600  1.0  -0.0276
  C  C26  1  0.373000  0.678700  0.874800  1.0  0.6498
  C  C27  1  0.173200  0.706300  0.855600  1.0  0.0694
  C  C28  1  0.104900  0.748300  0.814200  1.0  0.2393
  C  C29  1  0.175500  0.811600  0.748200  1.0  0.0928
  C  C30  1  0.694600  0.962100  0.512000  1.0  0.6435
  C  C31  1  0.018500  0.646100  0.458100  1.0  0.6559
  C  C32  1  0.024000  0.723500  0.443700  1.0  -0.0584
  C  C33  1  0.130300  0.767400  0.441700  1.0  -0.0083
  C  C34  1  0.131300  0.833600  0.439500  1.0  -0.0277
  C  C35  1  0.247800  0.874800  0.446500  1.0  0.6484
  C  C36  1  0.028800  0.855600  0.438100  1.0  0.0737
  C  C37  1  0.919100  0.814200  0.437500  1.0  0.2306
  C  C38  1  0.923700  0.748200  0.440200  1.0  0.0883
  C  C39  1  0.206600  0.512000  0.525900  1.0  0.6407
  C  C40  1  0.523400  0.541900  0.104200  1.0  0.6554
  C  C41  1  0.532300  0.556300  0.167200  1.0  -0.0586
  C  C42  1  0.428000  0.558300  0.209100  1.0  -0.0066
  C  C43  1  0.429200  0.560500  0.273100  1.0  -0.027
  C  C44  1  0.305700  0.553500  0.321300  1.0  0.6489
  C  C45  1  0.533100  0.561900  0.293700  1.0  0.0719
  C  C46  1  0.643400  0.562500  0.251700  1.0  0.2292
  C  C47  1  0.636100  0.559800  0.188400  1.0  0.0824
  C  C48  1  0.267500  0.474100  0.037900  1.0  0.6414
  C  C49  1  0.627600  0.104200  0.353900  1.0  0.6555
  C  C50  1  0.699500  0.167200  0.276500  1.0  -0.0593
  C  C51  1  0.637100  0.209100  0.232600  1.0  -0.0086
  C  C52  1  0.702300  0.273100  0.166400  1.0  -0.0278
  C  C53  1  0.627000  0.321300  0.125200  1.0  0.6494
  C  C54  1  0.826800  0.293700  0.144400  1.0  0.0718
  C  C55  1  0.895100  0.251700  0.185800  1.0  0.2396
  C  C56  1  0.824500  0.188400  0.251800  1.0  0.0893
  C  C57  1  0.305400  0.037900  0.488000  1.0  0.6403
  C  C58  1  0.981500  0.353900  0.541900  1.0  0.6558
  C  C59  1  0.976000  0.276500  0.556300  1.0  -0.0578
  C  C60  1  0.869700  0.232600  0.558300  1.0  -0.0076
  C  C61  1  0.868700  0.166400  0.560500  1.0  -0.0279
  C  C62  1  0.752200  0.125200  0.553500  1.0  0.647
  C  C63  1  0.971200  0.144400  0.561900  1.0  0.0721
  C  C64  1  0.080900  0.185800  0.562500  1.0  0.2298
  C  C65  1  0.076300  0.251800  0.559800  1.0  0.0875
  C  C66  1  0.793400  0.488000  0.474100  1.0  0.6428
  I  I67  1  0.724480  0.434760  0.830100  1.0  -0.0887
  I  I68  1  0.468230  0.437640  0.608230  1.0  -0.1372
  I  I69  1  0.205690  0.437890  0.879220  1.0  -0.0678
  I  I70  1  0.554580  0.830100  0.735140  1.0  -0.0888
  I  I71  1  0.076460  0.608230  0.954130  1.0  -0.1369
  I  I72  1  0.084910  0.879220  0.682890  1.0  -0.0677
  I  I73  1  0.289720  0.735140  0.434760  1.0  -0.0889
  I  I74  1  0.030590  0.954130  0.437640  1.0  -0.1378
  I  I75  1  0.767800  0.682890  0.437890  1.0  -0.0669
  I  I76  1  0.275520  0.565240  0.169900  1.0  -0.0888
  I  I77  1  0.531770  0.562360  0.391770  1.0  -0.1373
  I  I78  1  0.794310  0.562110  0.120780  1.0  -0.0679
  I  I79  1  0.445420  0.169900  0.264860  1.0  -0.0897
  I  I80  1  0.923540  0.391770  0.045870  1.0  -0.137
  I  I81  1  0.915090  0.120780  0.317110  1.0  -0.0657
  I  I82  1  0.710280  0.264860  0.565240  1.0  -0.0886
  I  I83  1  0.969410  0.045870  0.562360  1.0  -0.1353
  I  I84  1  0.232200  0.317110  0.562110  1.0  -0.0675
  N  N85  1  0.253900  0.435800  0.727100  1.0  -0.3746
  N  N86  1  0.981000  0.727100  0.837100  1.0  -0.359
  N  N87  1  0.818100  0.837100  0.435800  1.0  -0.3759
  N  N88  1  0.746100  0.564200  0.272900  1.0  -0.3752
  N  N89  1  0.019000  0.272900  0.162900  1.0  -0.3591
  N  N90  1  0.181900  0.162900  0.564200  1.0  -0.375
  O  O91  1  0.442210  0.403880  0.959750  1.0  -0.6623
  O  O92  1  0.521830  0.524670  0.874380  1.0  -0.6999
  O  O93  1  0.716500  0.390400  0.683500  1.0  -0.5824
  O  O94  1  0.764500  0.508300  0.638500  1.0  -0.609
  O  O95  1  0.623000  0.491920  0.992620  1.0  -0.7109
  O  O96  1  0.769500  0.593700  0.918000  1.0  -0.6205
  O  O97  1  0.401960  0.959750  0.636370  1.0  -0.6655
  O  O98  1  0.396210  0.874380  0.600950  1.0  -0.7008
  O  O99  1  0.400000  0.683500  0.926100  1.0  -0.584
  O  O100  1  0.403000  0.638500  0.853200  1.0  -0.6143
  O  O101  1  0.615620  0.992620  0.515460  1.0  -0.7099
  O  O102  1  0.687500  0.918000  0.488300  1.0  -0.6215
  O  O103  1  0.038330  0.636370  0.403880  1.0  -0.6686
  O  O104  1  0.997160  0.600950  0.524670  1.0  -0.7022
  O  O105  1  0.326100  0.926100  0.390400  1.0  -0.5847
  O  O106  1  0.256200  0.853200  0.508300  1.0  -0.6107
  O  O107  1  0.131080  0.515460  0.491920  1.0  -0.7087
  O  O108  1  0.175800  0.488300  0.593700  1.0  -0.615
  O  O109  1  0.557790  0.596120  0.040250  1.0  -0.6624
  O  O110  1  0.478170  0.475330  0.125620  1.0  -0.699
  O  O111  1  0.283500  0.609600  0.316500  1.0  -0.5826
  O  O112  1  0.235500  0.491700  0.361500  1.0  -0.6122
  O  O113  1  0.377000  0.508080  0.007380  1.0  -0.712
  O  O114  1  0.230500  0.406300  0.082000  1.0  -0.6236
  O  O115  1  0.598040  0.040250  0.363630  1.0  -0.6665
  O  O116  1  0.603790  0.125620  0.399050  1.0  -0.7022
  O  O117  1  0.600000  0.316500  0.073900  1.0  -0.5836
  O  O118  1  0.597000  0.361500  0.146800  1.0  -0.614
  O  O119  1  0.384380  0.007380  0.484540  1.0  -0.7125
  O  O120  1  0.312500  0.082000  0.511700  1.0  -0.619
  O  O121  1  0.961670  0.363630  0.596120  1.0  -0.67
  O  O122  1  0.002840  0.399050  0.475330  1.0  -0.7026
  O  O123  1  0.673900  0.073900  0.609600  1.0  -0.5836
  O  O124  1  0.743800  0.146800  0.491700  1.0  -0.6147
  O  O125  1  0.868920  0.484540  0.508080  1.0  -0.7081
  O  O126  1  0.824200  0.511700  0.406300  1.0  -0.6165
