# generated using pymatgen
data_NdC9I3NO6
_symmetry_space_group_name_H-M   'P 1'
_cell_length_a   36.40500000
_cell_length_b   36.40500000
_cell_length_c   11.69410000
_cell_angle_alpha   90.00000000
_cell_angle_beta   90.00000000
_cell_angle_gamma   120.00000000
_symmetry_Int_Tables_number   1
_chemical_formula_structural   NdC9I3NO6
_chemical_formula_sum   'Nd18 C162 I54 N18 O108'
_cell_volume   13422.07019537
_cell_formula_units_Z   18
loop_
 _symmetry_equiv_pos_site_id
 _symmetry_equiv_pos_as_xyz
  1  'x, y, z'
loop_
 _atom_site_type_symbol
 _atom_site_label
 _atom_site_symmetry_multiplicity
 _atom_site_fract_x
 _atom_site_fract_y
 _atom_site_fract_z
 _atom_site_occupancy
 _atom_site_charge
  Nd  Nd1  1  0.379740  0.149830  0.674940  1.0  2.2016
  Nd  Nd2  1  0.046410  0.483170  0.008270  1.0  2.2021
  Nd  Nd3  1  0.713070  0.816500  0.341610  1.0  2.2017
  Nd  Nd4  1  0.850170  0.229900  0.674940  1.0  2.1995
  Nd  Nd5  1  0.516830  0.563240  0.008270  1.0  2.1995
  Nd  Nd6  1  0.183500  0.896570  0.341610  1.0  2.1995
  Nd  Nd7  1  0.770100  0.620260  0.674940  1.0  2.2009
  Nd  Nd8  1  0.436760  0.953590  0.008270  1.0  2.2009
  Nd  Nd9  1  0.103430  0.286930  0.341610  1.0  2.2009
  Nd  Nd10  1  0.620260  0.850170  0.325060  1.0  2.2012
  Nd  Nd11  1  0.286930  0.183500  0.658390  1.0  2.2013
  Nd  Nd12  1  0.953590  0.516830  0.991730  1.0  2.2017
  Nd  Nd13  1  0.149830  0.770100  0.325060  1.0  2.2002
  Nd  Nd14  1  0.816500  0.103430  0.658390  1.0  2.2001
  Nd  Nd15  1  0.483170  0.436760  0.991730  1.0  2.2001
  Nd  Nd16  1  0.229900  0.379740  0.325060  1.0  2.2002
  Nd  Nd17  1  0.896570  0.713070  0.658390  1.0  2.2002
  Nd  Nd18  1  0.563240  0.046410  0.991730  1.0  2.2002
  C  C19  1  0.396550  0.250260  0.623500  1.0  0.6897
  C  C20  1  0.427510  0.296740  0.598300  1.0  -0.0172
  C  C21  1  0.442860  0.325570  0.688500  1.0  0.0106
  C  C22  1  0.465490  0.369120  0.668800  1.0  -0.0077
  C  C23  1  0.476700  0.399220  0.770100  1.0  0.712
  C  C24  1  0.473590  0.383580  0.556200  1.0  0.0238
  C  C25  1  0.460400  0.355900  0.461500  1.0  0.2533
  C  C26  1  0.437240  0.311990  0.487100  1.0  0.0496
  C  C27  1  0.327600  0.182400  0.876800  1.0  0.4696
  C  C28  1  0.063220  0.583590  0.956830  1.0  0.6897
  C  C29  1  0.094180  0.630070  0.931630  1.0  -0.0172
  C  C30  1  0.109530  0.658900  0.021830  1.0  0.0106
  C  C31  1  0.132160  0.702450  0.002130  1.0  -0.0077
  C  C32  1  0.143370  0.732550  0.103430  1.0  0.7121
  C  C33  1  0.140260  0.716910  0.889530  1.0  0.0238
  C  C34  1  0.127070  0.689230  0.794830  1.0  0.2533
  C  C35  1  0.103910  0.645320  0.820430  1.0  0.0492
  C  C36  1  0.994270  0.515730  0.210130  1.0  0.4696
  C  C37  1  0.729880  0.916930  0.290170  1.0  0.6897
  C  C38  1  0.760840  0.963410  0.264970  1.0  -0.0172
  C  C39  1  0.776190  0.992240  0.355170  1.0  0.0106
  C  C40  1  0.798820  0.035790  0.335470  1.0  -0.0077
  C  C41  1  0.810030  0.065890  0.436770  1.0  0.712
  C  C42  1  0.806920  0.050250  0.222870  1.0  0.0238
  C  C43  1  0.793730  0.022570  0.128170  1.0  0.2555
  C  C44  1  0.770570  0.978660  0.153770  1.0  0.0531
  C  C45  1  0.660930  0.849070  0.543470  1.0  0.4696
  C  C46  1  0.749740  0.146290  0.623500  1.0  0.6888
  C  C47  1  0.703260  0.130770  0.598300  1.0  -0.0173
  C  C48  1  0.674430  0.117290  0.688500  1.0  0.0096
  C  C49  1  0.630880  0.096370  0.668800  1.0  -0.0068
  C  C50  1  0.600780  0.077480  0.770100  1.0  0.7125
  C  C51  1  0.616420  0.090010  0.556200  1.0  0.0266
  C  C52  1  0.644100  0.104500  0.461500  1.0  0.2527
  C  C53  1  0.688010  0.125250  0.487100  1.0  0.0503
  C  C54  1  0.817600  0.145200  0.876800  1.0  0.4676
  C  C55  1  0.416410  0.479620  0.956830  1.0  0.6888
  C  C56  1  0.369930  0.464100  0.931630  1.0  -0.0173
  C  C57  1  0.341100  0.450620  0.021830  1.0  0.0096
  C  C58  1  0.297550  0.429700  0.002130  1.0  -0.0068
  C  C59  1  0.267450  0.410810  0.103430  1.0  0.7125
  C  C60  1  0.283090  0.423340  0.889530  1.0  0.0266
  C  C61  1  0.310770  0.437830  0.794830  1.0  0.2527
  C  C62  1  0.354680  0.458580  0.820430  1.0  0.0498
  C  C63  1  0.484270  0.478530  0.210130  1.0  0.4676
  C  C64  1  0.083070  0.812960  0.290170  1.0  0.6888
  C  C65  1  0.036590  0.797440  0.264970  1.0  -0.0173
  C  C66  1  0.007760  0.783960  0.355170  1.0  0.0096
  C  C67  1  0.964210  0.763040  0.335470  1.0  -0.0068
  C  C68  1  0.934110  0.744150  0.436770  1.0  0.7125
  C  C69  1  0.949750  0.756680  0.222870  1.0  0.0263
  C  C70  1  0.977430  0.771170  0.128170  1.0  0.2455
  C  C71  1  0.021340  0.791920  0.153770  1.0  0.0571
  C  C72  1  0.150930  0.811870  0.543470  1.0  0.4676
  C  C73  1  0.853710  0.603450  0.623500  1.0  0.6894
  C  C74  1  0.869230  0.572490  0.598300  1.0  -0.0184
  C  C75  1  0.882710  0.557140  0.688500  1.0  0.0095
  C  C76  1  0.903630  0.534510  0.668800  1.0  -0.0069
  C  C77  1  0.922520  0.523300  0.770100  1.0  0.712
  C  C78  1  0.909990  0.526410  0.556200  1.0  0.0237
  C  C79  1  0.895500  0.539600  0.461500  1.0  0.2531
  C  C80  1  0.874750  0.562760  0.487100  1.0  0.0502
  C  C81  1  0.854800  0.672400  0.876800  1.0  0.4688
  C  C82  1  0.520380  0.936780  0.956830  1.0  0.6894
  C  C83  1  0.535900  0.905820  0.931630  1.0  -0.0184
  C  C84  1  0.549380  0.890470  0.021830  1.0  0.0095
  C  C85  1  0.570300  0.867840  0.002130  1.0  -0.0069
  C  C86  1  0.589190  0.856630  0.103430  1.0  0.712
  C  C87  1  0.576660  0.859740  0.889530  1.0  0.0232
  C  C88  1  0.562170  0.872930  0.794830  1.0  0.2531
  C  C89  1  0.541420  0.896090  0.820430  1.0  0.0503
  C  C90  1  0.521470  0.005730  0.210130  1.0  0.4688
  C  C91  1  0.187040  0.270120  0.290170  1.0  0.6894
  C  C92  1  0.202560  0.239160  0.264970  1.0  -0.0184
  C  C93  1  0.216040  0.223810  0.355170  1.0  0.0096
  C  C94  1  0.236960  0.201180  0.335470  1.0  -0.0069
  C  C95  1  0.255850  0.189970  0.436770  1.0  0.712
  C  C96  1  0.243320  0.193080  0.222870  1.0  0.0237
  C  C97  1  0.228830  0.206270  0.128170  1.0  0.2519
  C  C98  1  0.208080  0.229430  0.153770  1.0  0.0534
  C  C99  1  0.188130  0.339070  0.543470  1.0  0.4688
  C  C100  1  0.603450  0.749740  0.376500  1.0  0.6902
  C  C101  1  0.572490  0.703260  0.401700  1.0  -0.0172
  C  C102  1  0.557140  0.674430  0.311500  1.0  0.0077
  C  C103  1  0.534510  0.630880  0.331200  1.0  -0.0072
  C  C104  1  0.523300  0.600780  0.229900  1.0  0.7122
  C  C105  1  0.526410  0.616420  0.443800  1.0  0.0236
  C  C106  1  0.539600  0.644100  0.538500  1.0  0.2543
  C  C107  1  0.562760  0.688010  0.512900  1.0  0.0548
  C  C108  1  0.672400  0.817600  0.123200  1.0  0.4715
  C  C109  1  0.270120  0.083070  0.709830  1.0  0.6902
  C  C110  1  0.239160  0.036590  0.735030  1.0  -0.0172
  C  C111  1  0.223810  0.007760  0.644830  1.0  0.0077
  C  C112  1  0.201180  0.964210  0.664530  1.0  -0.0072
  C  C113  1  0.189970  0.934110  0.563230  1.0  0.7122
  C  C114  1  0.193080  0.949750  0.777130  1.0  0.0237
  C  C115  1  0.206270  0.977430  0.871830  1.0  0.257
  C  C116  1  0.229430  0.021340  0.846230  1.0  0.0582
  C  C117  1  0.339070  0.150930  0.456530  1.0  0.4715
  C  C118  1  0.936780  0.416410  0.043170  1.0  0.6902
  C  C119  1  0.905820  0.369930  0.068370  1.0  -0.0172
  C  C120  1  0.890470  0.341100  0.978170  1.0  0.0077
  C  C121  1  0.867840  0.297550  0.997870  1.0  -0.0072
  C  C122  1  0.856630  0.267450  0.896570  1.0  0.7123
  C  C123  1  0.859740  0.283090  0.110470  1.0  0.0236
  C  C124  1  0.872930  0.310770  0.205170  1.0  0.2543
  C  C125  1  0.896090  0.354680  0.179570  1.0  0.0542
  C  C126  1  0.005730  0.484270  0.789870  1.0  0.4715
  C  C127  1  0.250260  0.853710  0.376500  1.0  0.6883
  C  C128  1  0.296740  0.869230  0.401700  1.0  -0.0171
  C  C129  1  0.325570  0.882710  0.311500  1.0  0.0066
  C  C130  1  0.369120  0.903630  0.331200  1.0  -0.007
  C  C131  1  0.399220  0.922520  0.229900  1.0  0.7131
  C  C132  1  0.383580  0.909990  0.443800  1.0  0.0228
  C  C133  1  0.355900  0.895500  0.538500  1.0  0.2544
  C  C134  1  0.311990  0.874750  0.512900  1.0  0.0549
  C  C135  1  0.182400  0.854800  0.123200  1.0  0.4702
  C  C136  1  0.916930  0.187040  0.709830  1.0  0.6883
  C  C137  1  0.963410  0.202560  0.735030  1.0  -0.0171
  C  C138  1  0.992240  0.216040  0.644830  1.0  0.0066
  C  C139  1  0.035790  0.236960  0.664530  1.0  -0.007
  C  C140  1  0.065890  0.255850  0.563230  1.0  0.7131
  C  C141  1  0.050250  0.243320  0.777130  1.0  0.0225
  C  C142  1  0.022570  0.228830  0.871830  1.0  0.2471
  C  C143  1  0.978660  0.208080  0.846230  1.0  0.0607
  C  C144  1  0.849070  0.188130  0.456530  1.0  0.4702
  C  C145  1  0.583590  0.520380  0.043170  1.0  0.6883
  C  C146  1  0.630070  0.535900  0.068370  1.0  -0.0171
  C  C147  1  0.658900  0.549380  0.978170  1.0  0.0066
  C  C148  1  0.702450  0.570300  0.997870  1.0  -0.007
  C  C149  1  0.732550  0.589190  0.896570  1.0  0.7131
  C  C150  1  0.716910  0.576660  0.110470  1.0  0.0228
  C  C151  1  0.689230  0.562170  0.205170  1.0  0.2544
  C  C152  1  0.645320  0.541420  0.179570  1.0  0.0545
  C  C153  1  0.515730  0.521470  0.789870  1.0  0.4702
  C  C154  1  0.146290  0.396550  0.376500  1.0  0.689
  C  C155  1  0.130770  0.427510  0.401700  1.0  -0.0176
  C  C156  1  0.117290  0.442860  0.311500  1.0  0.008
  C  C157  1  0.096370  0.465490  0.331200  1.0  -0.0078
  C  C158  1  0.077480  0.476700  0.229900  1.0  0.713
  C  C159  1  0.090010  0.473590  0.443800  1.0  0.0273
  C  C160  1  0.104500  0.460400  0.538500  1.0  0.2537
  C  C161  1  0.125250  0.437240  0.512900  1.0  0.0556
  C  C162  1  0.145200  0.327600  0.123200  1.0  0.4701
  C  C163  1  0.812960  0.729880  0.709830  1.0  0.689
  C  C164  1  0.797440  0.760840  0.735030  1.0  -0.0176
  C  C165  1  0.783960  0.776190  0.644830  1.0  0.0081
  C  C166  1  0.763040  0.798820  0.664530  1.0  -0.0078
  C  C167  1  0.744150  0.810030  0.563230  1.0  0.713
  C  C168  1  0.756680  0.806920  0.777130  1.0  0.0273
  C  C169  1  0.771170  0.793730  0.871830  1.0  0.2527
  C  C170  1  0.791920  0.770570  0.846230  1.0  0.0588
  C  C171  1  0.811870  0.660930  0.456530  1.0  0.4701
  C  C172  1  0.479620  0.063220  0.043170  1.0  0.689
  C  C173  1  0.464100  0.094180  0.068370  1.0  -0.0177
  C  C174  1  0.450620  0.109530  0.978170  1.0  0.008
  C  C175  1  0.429700  0.132160  0.997870  1.0  -0.0078
  C  C176  1  0.410810  0.143370  0.896570  1.0  0.713
  C  C177  1  0.423340  0.140260  0.110470  1.0  0.0269
  C  C178  1  0.437830  0.127070  0.205170  1.0  0.2537
  C  C179  1  0.458580  0.103910  0.179570  1.0  0.0556
  C  C180  1  0.478530  0.994270  0.789870  1.0  0.4701
  I  I181  1  0.433290  0.301900  0.856250  1.0  -0.0799
  I  I182  1  0.506270  0.449230  0.525250  1.0  -0.0869
  I  I183  1  0.417190  0.268100  0.352740  1.0  -0.0762
  I  I184  1  0.099960  0.635230  0.189580  1.0  -0.0799
  I  I185  1  0.172940  0.782560  0.858580  1.0  -0.0869
  I  I186  1  0.083860  0.601440  0.686070  1.0  -0.0762
  I  I187  1  0.766620  0.968560  0.522920  1.0  -0.0799
  I  I188  1  0.839610  0.115890  0.191920  1.0  -0.0866
  I  I189  1  0.750520  0.934770  0.019410  1.0  -0.0762
  I  I190  1  0.698100  0.131390  0.856250  1.0  -0.0805
  I  I191  1  0.550770  0.057050  0.525250  1.0  -0.0854
  I  I192  1  0.731900  0.149090  0.352740  1.0  -0.0778
  I  I193  1  0.364770  0.464730  0.189580  1.0  -0.0805
  I  I194  1  0.217440  0.390380  0.858580  1.0  -0.0854
  I  I195  1  0.398560  0.482420  0.686070  1.0  -0.0775
  I  I196  1  0.031440  0.798060  0.522920  1.0  -0.0805
  I  I197  1  0.884110  0.723710  0.191920  1.0  -0.085
  I  I198  1  0.065230  0.815750  0.019410  1.0  -0.0778
  I  I199  1  0.868610  0.566710  0.856250  1.0  -0.081
  I  I200  1  0.942950  0.493730  0.525250  1.0  -0.0843
  I  I201  1  0.850910  0.582810  0.352740  1.0  -0.0746
  I  I202  1  0.535270  0.900040  0.189580  1.0  -0.081
  I  I203  1  0.609620  0.827060  0.858580  1.0  -0.0843
  I  I204  1  0.517580  0.916140  0.686070  1.0  -0.0746
  I  I205  1  0.201940  0.233380  0.522920  1.0  -0.0809
  I  I206  1  0.276290  0.160390  0.191920  1.0  -0.0845
  I  I207  1  0.184250  0.249480  0.019410  1.0  -0.0745
  I  I208  1  0.566710  0.698100  0.143750  1.0  -0.0815
  I  I209  1  0.493730  0.550770  0.474750  1.0  -0.0866
  I  I210  1  0.582810  0.731900  0.647260  1.0  -0.077
  I  I211  1  0.233380  0.031440  0.477080  1.0  -0.0815
  I  I212  1  0.160390  0.884110  0.808080  1.0  -0.0863
  I  I213  1  0.249480  0.065230  0.980590  1.0  -0.077
  I  I214  1  0.900040  0.364770  0.810420  1.0  -0.0815
  I  I215  1  0.827060  0.217440  0.141420  1.0  -0.0866
  I  I216  1  0.916140  0.398560  0.313930  1.0  -0.0768
  I  I217  1  0.301900  0.868610  0.143750  1.0  -0.0812
  I  I218  1  0.449230  0.942950  0.474750  1.0  -0.0854
  I  I219  1  0.268100  0.850910  0.647260  1.0  -0.0758
  I  I220  1  0.968560  0.201940  0.477080  1.0  -0.0812
  I  I221  1  0.115890  0.276290  0.808080  1.0  -0.0851
  I  I222  1  0.934770  0.184250  0.980590  1.0  -0.0758
  I  I223  1  0.635230  0.535270  0.810420  1.0  -0.0812
  I  I224  1  0.782560  0.609620  0.141420  1.0  -0.0854
  I  I225  1  0.601440  0.517580  0.313930  1.0  -0.0755
  I  I226  1  0.131390  0.433290  0.143750  1.0  -0.0802
  I  I227  1  0.057050  0.506270  0.474750  1.0  -0.0844
  I  I228  1  0.149090  0.417190  0.647260  1.0  -0.0756
  I  I229  1  0.798060  0.766620  0.477080  1.0  -0.0801
  I  I230  1  0.723710  0.839610  0.808080  1.0  -0.0847
  I  I231  1  0.815750  0.750520  0.980590  1.0  -0.0753
  I  I232  1  0.464730  0.099960  0.810420  1.0  -0.0802
  I  I233  1  0.390380  0.172940  0.141420  1.0  -0.0844
  I  I234  1  0.482420  0.083860  0.313930  1.0  -0.0756
  N  N235  1  0.468500  0.370370  0.351200  1.0  -0.3646
  N  N236  1  0.135170  0.703700  0.684530  1.0  -0.3646
  N  N237  1  0.801830  0.037040  0.017870  1.0  -0.3712
  N  N238  1  0.629630  0.098130  0.351200  1.0  -0.3696
  N  N239  1  0.296300  0.431460  0.684530  1.0  -0.3696
  N  N240  1  0.962960  0.764800  0.017870  1.0  -0.3769
  N  N241  1  0.901870  0.531500  0.351200  1.0  -0.3706
  N  N242  1  0.568540  0.864830  0.684530  1.0  -0.3707
  N  N243  1  0.235200  0.198170  0.017870  1.0  -0.3709
  N  N244  1  0.531500  0.629630  0.648800  1.0  -0.3649
  N  N245  1  0.198170  0.962960  0.982130  1.0  -0.3721
  N  N246  1  0.864830  0.296300  0.315470  1.0  -0.3649
  N  N247  1  0.370370  0.901870  0.648800  1.0  -0.37
  N  N248  1  0.037040  0.235200  0.982130  1.0  -0.3785
  N  N249  1  0.703700  0.568540  0.315470  1.0  -0.37
  N  N250  1  0.098130  0.468500  0.648800  1.0  -0.3722
  N  N251  1  0.764800  0.801830  0.982130  1.0  -0.3732
  N  N252  1  0.431460  0.135170  0.315470  1.0  -0.3722
  O  O253  1  0.410560  0.225100  0.627800  1.0  -0.6585
  O  O254  1  0.359410  0.242580  0.637900  1.0  -0.6857
  O  O255  1  0.447940  0.405120  0.806600  1.0  -0.6137
  O  O256  1  0.512270  0.414410  0.816600  1.0  -0.5687
  O  O257  1  0.340830  0.174500  0.788500  1.0  -0.6258
  O  O258  1  0.298300  0.190500  0.877700  1.0  -0.6184
  O  O259  1  0.077230  0.558430  0.961130  1.0  -0.6587
  O  O260  1  0.026080  0.575910  0.971230  1.0  -0.6857
  O  O261  1  0.114610  0.738450  0.139930  1.0  -0.6136
  O  O262  1  0.178940  0.747740  0.149930  1.0  -0.5687
  O  O263  1  0.007500  0.507830  0.121830  1.0  -0.6258
  O  O264  1  0.964970  0.523830  0.211030  1.0  -0.6184
  O  O265  1  0.743890  0.891770  0.294470  1.0  -0.6585
  O  O266  1  0.692740  0.909250  0.304570  1.0  -0.6857
  O  O267  1  0.781270  0.071790  0.473270  1.0  -0.6137
  O  O268  1  0.845600  0.081080  0.483270  1.0  -0.5796
  O  O269  1  0.674160  0.841170  0.455170  1.0  -0.6259
  O  O270  1  0.631630  0.857170  0.544370  1.0  -0.6184
  O  O271  1  0.774900  0.185460  0.627800  1.0  -0.6484
  O  O272  1  0.757420  0.116830  0.637900  1.0  -0.6816
  O  O273  1  0.594880  0.042820  0.806600  1.0  -0.6157
  O  O274  1  0.585590  0.097860  0.816600  1.0  -0.5805
  O  O275  1  0.825500  0.166330  0.788500  1.0  -0.6277
  O  O276  1  0.809500  0.107800  0.877700  1.0  -0.6159
  O  O277  1  0.441570  0.518790  0.961130  1.0  -0.6489
  O  O278  1  0.424090  0.450160  0.971230  1.0  -0.6812
  O  O279  1  0.261550  0.376150  0.139930  1.0  -0.6157
  O  O280  1  0.252260  0.431190  0.149930  1.0  -0.5805
  O  O281  1  0.492170  0.499660  0.121830  1.0  -0.6275
  O  O282  1  0.476170  0.441130  0.211030  1.0  -0.6159
  O  O283  1  0.108230  0.852130  0.294470  1.0  -0.6426
  O  O284  1  0.090750  0.783500  0.304570  1.0  -0.6816
  O  O285  1  0.928210  0.709490  0.473270  1.0  -0.6155
  O  O286  1  0.918920  0.764530  0.483270  1.0  -0.5807
  O  O287  1  0.158830  0.833000  0.455170  1.0  -0.6275
  O  O288  1  0.142830  0.774470  0.544370  1.0  -0.6159
  O  O289  1  0.814540  0.589440  0.627800  1.0  -0.6564
  O  O290  1  0.883170  0.640590  0.637900  1.0  -0.6852
  O  O291  1  0.957180  0.552060  0.806600  1.0  -0.6145
  O  O292  1  0.902140  0.487730  0.816600  1.0  -0.5818
  O  O293  1  0.833670  0.659170  0.788500  1.0  -0.6276
  O  O294  1  0.892200  0.701700  0.877700  1.0  -0.6205
  O  O295  1  0.481210  0.922770  0.961130  1.0  -0.6564
  O  O296  1  0.549840  0.973920  0.971230  1.0  -0.6852
  O  O297  1  0.623850  0.885390  0.139930  1.0  -0.6145
  O  O298  1  0.568810  0.821060  0.149930  1.0  -0.5818
  O  O299  1  0.500340  0.992500  0.121830  1.0  -0.6276
  O  O300  1  0.558870  0.035030  0.211030  1.0  -0.6205
  O  O301  1  0.147870  0.256110  0.294470  1.0  -0.6509
  O  O302  1  0.216500  0.307260  0.304570  1.0  -0.6846
  O  O303  1  0.290510  0.218730  0.473270  1.0  -0.6145
  O  O304  1  0.235470  0.154400  0.483270  1.0  -0.5805
  O  O305  1  0.167000  0.325840  0.455170  1.0  -0.6274
  O  O306  1  0.225530  0.368370  0.544370  1.0  -0.6205
  O  O307  1  0.589440  0.774900  0.372200  1.0  -0.6541
  O  O308  1  0.640590  0.757420  0.362100  1.0  -0.6856
  O  O309  1  0.552060  0.594880  0.193400  1.0  -0.6128
  O  O310  1  0.487730  0.585590  0.183400  1.0  -0.5687
  O  O311  1  0.659170  0.825500  0.211500  1.0  -0.6261
  O  O312  1  0.701700  0.809500  0.122300  1.0  -0.6184
  O  O313  1  0.256110  0.108230  0.705530  1.0  -0.6541
  O  O314  1  0.307260  0.090750  0.695430  1.0  -0.6856
  O  O315  1  0.218730  0.928210  0.526730  1.0  -0.6129
  O  O316  1  0.154400  0.918920  0.516730  1.0  -0.5788
  O  O317  1  0.325840  0.158830  0.544830  1.0  -0.6262
  O  O318  1  0.368370  0.142830  0.455630  1.0  -0.6184
  O  O319  1  0.922770  0.441570  0.038870  1.0  -0.654
  O  O320  1  0.973920  0.424090  0.028770  1.0  -0.6856
  O  O321  1  0.885390  0.261550  0.860070  1.0  -0.6126
  O  O322  1  0.821060  0.252260  0.850070  1.0  -0.5687
  O  O323  1  0.992500  0.492170  0.878170  1.0  -0.6261
  O  O324  1  0.035030  0.476170  0.788970  1.0  -0.6184
  O  O325  1  0.225100  0.814540  0.372200  1.0  -0.6485
  O  O326  1  0.242580  0.883170  0.362100  1.0  -0.6816
  O  O327  1  0.405120  0.957180  0.193400  1.0  -0.6153
  O  O328  1  0.414410  0.902140  0.183400  1.0  -0.5822
  O  O329  1  0.174500  0.833670  0.211500  1.0  -0.6294
  O  O330  1  0.190500  0.892200  0.122300  1.0  -0.6156
  O  O331  1  0.891770  0.147870  0.705530  1.0  -0.6431
  O  O332  1  0.909250  0.216500  0.695430  1.0  -0.6816
  O  O333  1  0.071790  0.290510  0.526730  1.0  -0.615
  O  O334  1  0.081080  0.235470  0.516730  1.0  -0.5817
  O  O335  1  0.841170  0.167000  0.544830  1.0  -0.6293
  O  O336  1  0.857170  0.225530  0.455630  1.0  -0.6156
  O  O337  1  0.558430  0.481210  0.038870  1.0  -0.649
  O  O338  1  0.575910  0.549840  0.028770  1.0  -0.6812
  O  O339  1  0.738450  0.623850  0.860070  1.0  -0.6152
  O  O340  1  0.747740  0.568810  0.850070  1.0  -0.5822
  O  O341  1  0.507830  0.500340  0.878170  1.0  -0.6293
  O  O342  1  0.523830  0.558870  0.788970  1.0  -0.6156
  O  O343  1  0.185460  0.410560  0.372200  1.0  -0.6575
  O  O344  1  0.116830  0.359410  0.362100  1.0  -0.6858
  O  O345  1  0.042820  0.447940  0.193400  1.0  -0.6143
  O  O346  1  0.097860  0.512270  0.183400  1.0  -0.58
  O  O347  1  0.166330  0.340830  0.211500  1.0  -0.6297
  O  O348  1  0.107800  0.298300  0.122300  1.0  -0.6185
  O  O349  1  0.852130  0.743890  0.705530  1.0  -0.6516
  O  O350  1  0.783500  0.692740  0.695430  1.0  -0.6851
  O  O351  1  0.709490  0.781270  0.526730  1.0  -0.6143
  O  O352  1  0.764530  0.845600  0.516730  1.0  -0.579
  O  O353  1  0.833000  0.674160  0.544830  1.0  -0.6295
  O  O354  1  0.774470  0.631630  0.455630  1.0  -0.6185
  O  O355  1  0.518790  0.077230  0.038870  1.0  -0.6576
  O  O356  1  0.450160  0.026080  0.028770  1.0  -0.6858
  O  O357  1  0.376150  0.114610  0.860070  1.0  -0.6143
  O  O358  1  0.431190  0.178940  0.850070  1.0  -0.58
  O  O359  1  0.499660  0.007500  0.878170  1.0  -0.6297
  O  O360  1  0.441130  0.964970  0.788970  1.0  -0.6185
