# generated using pymatgen
data_CoHC4O3
_symmetry_space_group_name_H-M   'P 1'
_cell_length_a   6.82020000
_cell_length_b   15.13160000
_cell_length_c   15.13160000
_cell_angle_alpha   62.21590000
_cell_angle_beta   81.35910000
_cell_angle_gamma   98.64090000
_symmetry_Int_Tables_number   1
_chemical_formula_structural   CoHC4O3
_chemical_formula_sum   'Co6 H6 C24 O18'
_cell_volume   1321.84984991
_cell_formula_units_Z   6
loop_
 _symmetry_equiv_pos_site_id
 _symmetry_equiv_pos_as_xyz
  1  'x, y, z'
loop_
 _atom_site_type_symbol
 _atom_site_label
 _atom_site_symmetry_multiplicity
 _atom_site_fract_x
 _atom_site_fract_y
 _atom_site_fract_z
 _atom_site_occupancy
 _atom_site_charge
  Co  Co1  1  0.802080  0.265830  0.322990  1.0  1.0438
  Co  Co2  1  0.125070  0.322990  0.411180  1.0  1.0412
  Co  Co3  1  0.536250  0.411180  0.265830  1.0  1.0415
  Co  Co4  1  0.197920  0.734170  0.677010  1.0  1.0423
  Co  Co5  1  0.874930  0.677010  0.588820  1.0  1.043
  Co  Co6  1  0.463750  0.588820  0.734170  1.0  1.0383
  H  H7  1  0.825670  0.468860  0.551580  1.0  0.1352
  H  H8  1  0.377250  0.551580  0.979560  1.0  0.1348
  H  H9  1  0.356810  0.979560  0.468860  1.0  0.1351
  H  H10  1  0.174330  0.531140  0.448420  1.0  0.1354
  H  H11  1  0.622750  0.448420  0.020440  1.0  0.1353
  H  H12  1  0.643190  0.020440  0.531140  1.0  0.1351
  C  C13  1  0.743540  0.388340  0.437670  1.0  0.752
  C  C14  1  0.615010  0.446200  0.465620  1.0  -0.239
  C  C15  1  0.431650  0.464970  0.432760  1.0  0.3585
  C  C16  1  0.678460  0.481580  0.528720  1.0  -0.1492
  C  C17  1  0.181210  0.437670  0.173990  1.0  0.7525
  C  C18  1  0.080630  0.465620  0.088180  1.0  -0.2388
  C  C19  1  0.864410  0.432760  0.102270  1.0  0.3537
  C  C20  1  0.207180  0.528720  0.989700  1.0  -0.1482
  C  C21  1  0.355200  0.173990  0.388340  1.0  0.75
  C  C22  1  0.168810  0.088180  0.446200  1.0  -0.2388
  C  C23  1  0.966680  0.102270  0.464970  1.0  0.3542
  C  C24  1  0.196880  0.989700  0.481580  1.0  -0.1483
  C  C25  1  0.256460  0.611660  0.562330  1.0  0.7508
  C  C26  1  0.384990  0.553800  0.534380  1.0  -0.2382
  C  C27  1  0.568350  0.535030  0.567240  1.0  0.3562
  C  C28  1  0.321540  0.518420  0.471280  1.0  -0.1525
  C  C29  1  0.818790  0.562330  0.826010  1.0  0.7525
  C  C30  1  0.919370  0.534380  0.911820  1.0  -0.239
  C  C31  1  0.135590  0.567240  0.897730  1.0  0.3535
  C  C32  1  0.792820  0.471280  0.010300  1.0  -0.15
  C  C33  1  0.644800  0.826010  0.611660  1.0  0.75
  C  C34  1  0.831190  0.911820  0.553800  1.0  -0.2385
  C  C35  1  0.033320  0.897730  0.535030  1.0  0.3531
  C  C36  1  0.803120  0.010300  0.518420  1.0  -0.1508
  O  O37  1  0.693080  0.364050  0.374290  1.0  -0.6512
  O  O38  1  0.900650  0.372510  0.472810  1.0  -0.6062
  O  O39  1  0.359220  0.438520  0.368990  1.0  -0.6375
  O  O40  1  0.067370  0.374290  0.261660  1.0  -0.6526
  O  O41  1  0.373460  0.472810  0.154680  1.0  -0.6058
  O  O42  1  0.728210  0.368990  0.192490  1.0  -0.6365
  O  O43  1  0.329030  0.261660  0.364050  1.0  -0.6518
  O  O44  1  0.528140  0.154680  0.372510  1.0  -0.6035
  O  O45  1  0.920700  0.192490  0.438520  1.0  -0.6365
  O  O46  1  0.306920  0.635950  0.625710  1.0  -0.6523
  O  O47  1  0.099350  0.627490  0.527190  1.0  -0.6063
  O  O48  1  0.640780  0.561480  0.631010  1.0  -0.6377
  O  O49  1  0.932630  0.625710  0.738340  1.0  -0.6527
  O  O50  1  0.626540  0.527190  0.845320  1.0  -0.6048
  O  O51  1  0.271790  0.631010  0.807510  1.0  -0.6364
  O  O52  1  0.670970  0.738340  0.635950  1.0  -0.6521
  O  O53  1  0.471860  0.845320  0.627490  1.0  -0.6051
  O  O54  1  0.079300  0.807510  0.561480  1.0  -0.6378
