# generated using pymatgen
data_Mn3H40C75N4(O2F3)6
_symmetry_space_group_name_H-M   'P 1'
_cell_length_a   13.64300000
_cell_length_b   19.75980000
_cell_length_c   22.18340000
_cell_angle_alpha   77.88820000
_cell_angle_beta   72.09110000
_cell_angle_gamma   69.80470000
_symmetry_Int_Tables_number   1
_chemical_formula_structural   Mn3H40C75N4(O2F3)6
_chemical_formula_sum   'Mn6 H80 C150 N8 O24 F36'
_cell_volume   5304.55589289
_cell_formula_units_Z   2
loop_
 _symmetry_equiv_pos_site_id
 _symmetry_equiv_pos_as_xyz
  1  'x, y, z'
loop_
 _atom_site_type_symbol
 _atom_site_label
 _atom_site_symmetry_multiplicity
 _atom_site_fract_x
 _atom_site_fract_y
 _atom_site_fract_z
 _atom_site_occupancy
 _atom_site_charge
  Mn  Mn1  1  0.285110  0.452810  0.473590  1.0  0.9715
  Mn  Mn2  1  0.711510  0.047190  0.026410  1.0  0.9715
  Mn  Mn3  1  0.714890  0.547190  0.526410  1.0  0.9706
  Mn  Mn4  1  0.288490  0.952810  0.973590  1.0  0.9724
  Mn  Mn5  1  0.500000  0.500000  0.500000  1.0  1.2067
  Mn  Mn6  1  0.000000  0.000000  0.000000  1.0  1.2067
  H  H7  1  0.129100  0.679100  0.397500  1.0  0.1062
  H  H8  1  0.063100  0.800500  0.366100  1.0  0.1081
  H  H9  1  0.264600  0.843200  0.439000  1.0  0.1117
  H  H10  1  0.339100  0.720000  0.464800  1.0  0.1015
  H  H11  1  0.086000  0.558100  0.414900  1.0  0.084
  H  H12  1  0.918100  0.446800  0.387400  1.0  0.1129
  H  H13  1  0.972700  0.303300  0.427300  1.0  0.0867
  H  H14  1  0.966900  0.016700  0.204500  1.0  0.0988
  H  H15  1  0.961700  0.002600  0.310200  1.0  0.0985
  H  H16  1  0.249500  0.853300  0.279300  1.0  0.1066
  H  H17  1  0.260500  0.870700  0.172100  1.0  0.1094
  H  H18  1  0.547200  0.387500  0.278300  1.0  0.1105
  H  H19  1  0.713600  0.324600  0.220400  1.0  0.1111
  H  H20  1  0.831500  0.285300  0.372500  1.0  0.1044
  H  H21  1  0.665800  0.350500  0.429500  1.0  0.0963
  H  H22  1  0.944100  0.551600  0.385000  1.0  0.1054
  H  H23  1  0.397700  0.286100  0.530900  1.0  0.0898
  H  H24  1  0.250100  0.153000  0.509200  1.0  0.1098
  H  H25  1  0.373000  0.169000  0.547400  1.0  0.1276
  H  H26  1  0.094200  0.209700  0.453300  1.0  0.1116
  H  H27  1  0.705700  0.820900  0.102500  1.0  0.1068
  H  H28  1  0.729700  0.699500  0.133900  1.0  0.1079
  H  H29  1  0.046800  0.656800  0.061000  1.0  0.1113
  H  H30  1  0.023900  0.780000  0.035200  1.0  0.1027
  H  H31  1  0.559000  0.941900  0.085100  1.0  0.0866
  H  H32  1  0.252300  0.053200  0.112600  1.0  0.1148
  H  H33  1  0.203300  0.196700  0.072700  1.0  0.0939
  H  H34  1  0.688100  0.483300  0.295500  1.0  0.098
  H  H35  1  0.774500  0.497400  0.189800  1.0  0.0989
  H  H36  1  0.882100  0.646700  0.220700  1.0  0.1077
  H  H37  1  0.803300  0.629300  0.327900  1.0  0.1086
  H  H38  1  0.713000  0.112500  0.221700  1.0  0.1111
  H  H39  1  0.758600  0.175400  0.279600  1.0  0.111
  H  H40  1  0.989300  0.214700  0.127500  1.0  0.1032
  H  H41  1  0.945800  0.149500  0.070500  1.0  0.0947
  H  H42  1  0.380700  0.948400  0.115000  1.0  0.1063
  H  H43  1  0.714700  0.213900  0.969100  1.0  0.0932
  H  H44  1  0.412300  0.347000  0.990800  1.0  0.1102
  H  H45  1  0.589400  0.331000  0.952600  1.0  0.1259
  H  H46  1  0.257200  0.290300  0.046700  1.0  0.1114
  H  H47  1  0.870900  0.320900  0.602500  1.0  0.1064
  H  H48  1  0.936900  0.199500  0.633900  1.0  0.1072
  H  H49  1  0.735400  0.156800  0.561000  1.0  0.1119
  H  H50  1  0.660900  0.280000  0.535200  1.0  0.1017
  H  H51  1  0.914000  0.441900  0.585100  1.0  0.0837
  H  H52  1  0.081900  0.553200  0.612600  1.0  0.1133
  H  H53  1  0.027300  0.696700  0.572700  1.0  0.0874
  H  H54  1  0.033100  0.983300  0.795500  1.0  0.0983
  H  H55  1  0.038300  0.997400  0.689800  1.0  0.0988
  H  H56  1  0.750500  0.146700  0.720700  1.0  0.1068
  H  H57  1  0.739500  0.129300  0.827900  1.0  0.1093
  H  H58  1  0.452800  0.612500  0.721700  1.0  0.111
  H  H59  1  0.286400  0.675400  0.779600  1.0  0.1097
  H  H60  1  0.168500  0.714700  0.627500  1.0  0.1039
  H  H61  1  0.334200  0.649500  0.570500  1.0  0.0962
  H  H62  1  0.055900  0.448400  0.615000  1.0  0.1057
  H  H63  1  0.602300  0.713900  0.469100  1.0  0.093
  H  H64  1  0.749900  0.847000  0.490800  1.0  0.11
  H  H65  1  0.627000  0.831000  0.452600  1.0  0.1285
  H  H66  1  0.905800  0.790300  0.546700  1.0  0.1116
  H  H67  1  0.294300  0.179100  0.897500  1.0  0.1059
  H  H68  1  0.270300  0.300500  0.866100  1.0  0.1081
  H  H69  1  0.953200  0.343200  0.939000  1.0  0.1105
  H  H70  1  0.976100  0.220000  0.964800  1.0  0.1028
  H  H71  1  0.441000  0.058100  0.914900  1.0  0.0862
  H  H72  1  0.747700  0.946800  0.887400  1.0  0.1147
  H  H73  1  0.796700  0.803300  0.927300  1.0  0.0921
  H  H74  1  0.311900  0.516700  0.704500  1.0  0.0983
  H  H75  1  0.225500  0.502600  0.810200  1.0  0.0988
  H  H76  1  0.117900  0.353300  0.779300  1.0  0.1073
  H  H77  1  0.196700  0.370700  0.672100  1.0  0.1089
  H  H78  1  0.287000  0.887500  0.778300  1.0  0.1111
  H  H79  1  0.241400  0.824600  0.720400  1.0  0.1113
  H  H80  1  0.010700  0.785300  0.872500  1.0  0.1031
  H  H81  1  0.054200  0.850500  0.929500  1.0  0.0944
  H  H82  1  0.619300  0.051600  0.885000  1.0  0.1056
  H  H83  1  0.285300  0.786100  0.030900  1.0  0.0916
  H  H84  1  0.587700  0.653000  0.009200  1.0  0.1099
  H  H85  1  0.410600  0.669000  0.047400  1.0  0.1289
  H  H86  1  0.742800  0.709700  0.953300  1.0  0.1121
  C  C87  1  0.289000  0.606730  0.454270  1.0  0.7059
  C  C88  1  0.241530  0.686560  0.435180  1.0  -0.1398
  C  C89  1  0.158140  0.711720  0.405200  1.0  -0.0323
  C  C90  1  0.118460  0.784580  0.386700  1.0  -0.1639
  C  C91  1  0.157570  0.834320  0.397740  1.0  0.0909
  C  C92  1  0.238770  0.810160  0.429100  1.0  -0.162
  C  C93  1  0.281640  0.736220  0.445900  1.0  -0.0244
  C  C94  1  0.075400  0.513200  0.418800  1.0  0.1812
  C  C95  1  0.974000  0.448000  0.402400  1.0  -0.0207
  C  C96  1  0.031100  0.309200  0.436400  1.0  -0.0654
  C  C97  1  0.125100  0.389800  0.447400  1.0  0.1514
  C  C98  1  0.192500  0.328300  0.473700  1.0  0.1526
  C  C99  1  0.025120  0.984390  0.219170  1.0  -0.017
  C  C100  1  0.021460  0.974980  0.282500  1.0  -0.1504
  C  C101  1  0.103820  0.925940  0.306220  1.0  0.0743
  C  C102  1  0.192740  0.887020  0.264100  1.0  -0.1399
  C  C103  1  0.199240  0.897020  0.199900  1.0  -0.0472
  C  C104  1  0.115280  0.945970  0.176670  1.0  -0.1387
  C  C105  1  0.122380  0.957420  0.107020  1.0  0.7125
  C  C106  1  0.105600  0.915700  0.376700  1.0  -0.2976
  C  C107  1  0.993890  0.938620  0.422200  1.0  0.6964
  C  C108  1  0.166400  0.964500  0.382100  1.0  0.6945
  C  C109  1  0.477730  0.410640  0.399500  1.0  0.6647
  C  C110  1  0.589310  0.374150  0.360430  1.0  -0.1349
  C  C111  1  0.604250  0.366610  0.297490  1.0  -0.0345
  C  C112  1  0.703730  0.328220  0.263120  1.0  -0.1417
  C  C113  1  0.789100  0.295040  0.290960  1.0  0.082
  C  C114  1  0.774290  0.305000  0.353420  1.0  -0.1465
  C  C115  1  0.674980  0.344160  0.387480  1.0  -0.0195
  C  C116  1  0.955600  0.304000  0.210200  1.0  0.7101
  C  C117  1  0.990800  0.509000  0.400000  1.0  -0.153
  C  C118  1  0.039700  0.383600  0.427400  1.0  -0.0226
  C  C119  1  0.342400  0.280000  0.518400  1.0  0.1523
  C  C120  1  0.253900  0.199700  0.506900  1.0  -0.0452
  C  C121  1  0.328800  0.208300  0.527300  1.0  -0.1572
  C  C122  1  0.096800  0.255600  0.455400  1.0  -0.0912
  C  C123  1  0.176200  0.261400  0.480400  1.0  -0.0017
  C  C124  1  0.850000  0.893270  0.045730  1.0  0.702
  C  C125  1  0.863270  0.813440  0.064820  1.0  -0.1391
  C  C126  1  0.775060  0.788280  0.094800  1.0  -0.0325
  C  C127  1  0.789740  0.715420  0.113300  1.0  -0.1563
  C  C128  1  0.889630  0.665680  0.102260  1.0  0.0911
  C  C129  1  0.978030  0.689840  0.070900  1.0  -0.16
  C  C130  1  0.963760  0.763780  0.054100  1.0  -0.0212
  C  C131  1  0.507400  0.986800  0.081200  1.0  0.1812
  C  C132  1  0.324400  0.052000  0.097600  1.0  -0.0225
  C  C133  1  0.276700  0.190800  0.063600  1.0  -0.0674
  C  C134  1  0.462300  0.110200  0.052600  1.0  0.1444
  C  C135  1  0.494500  0.171700  0.026300  1.0  0.1518
  C  C136  1  0.728680  0.515610  0.280830  1.0  -0.0175
  C  C137  1  0.778940  0.525020  0.217500  1.0  -0.1549
  C  C138  1  0.835980  0.574060  0.193780  1.0  0.0724
  C  C139  1  0.843860  0.612980  0.235900  1.0  -0.1407
  C  C140  1  0.796160  0.602980  0.300100  1.0  -0.0491
  C  C141  1  0.737920  0.554030  0.323330  1.0  -0.1411
  C  C142  1  0.686820  0.542580  0.392980  1.0  0.7069
  C  C143  1  0.898000  0.584300  0.123300  1.0  -0.2981
  C  C144  1  0.854710  0.561380  0.077800  1.0  0.7029
  C  C145  1  0.013000  0.535500  0.117900  1.0  0.7044
  C  C146  1  0.787870  0.089360  0.100500  1.0  0.6674
  C  C147  1  0.823890  0.125850  0.139570  1.0  -0.1345
  C  C148  1  0.768350  0.133390  0.202510  1.0  -0.0302
  C  C149  1  0.795070  0.171780  0.236880  1.0  -0.1421
  C  C150  1  0.875100  0.204960  0.209040  1.0  0.0829
  C  C151  1  0.932710  0.195000  0.146580  1.0  -0.1489
  C  C152  1  0.906620  0.155840  0.112520  1.0  -0.0204
  C  C153  1  0.969800  0.196000  0.289800  1.0  0.7069
  C  C154  1  0.399800  0.991000  0.100000  1.0  -0.159
  C  C155  1  0.350700  0.116400  0.072600  1.0  -0.0195
  C  C156  1  0.640800  0.220000  0.981600  1.0  0.1491
  C  C157  1  0.460500  0.300300  0.993100  1.0  -0.0444
  C  C158  1  0.564400  0.291700  0.972700  1.0  -0.1552
  C  C159  1  0.307800  0.244400  0.044600  1.0  -0.0936
  C  C160  1  0.418000  0.238600  0.019600  1.0  -0.0005
  C  C161  1  0.711000  0.393270  0.545730  1.0  0.703
  C  C162  1  0.758470  0.313440  0.564820  1.0  -0.139
  C  C163  1  0.841860  0.288280  0.594800  1.0  -0.0314
  C  C164  1  0.881540  0.215420  0.613300  1.0  -0.1571
  C  C165  1  0.842430  0.165680  0.602260  1.0  0.0892
  C  C166  1  0.761230  0.189840  0.570900  1.0  -0.162
  C  C167  1  0.718360  0.263780  0.554100  1.0  -0.0279
  C  C168  1  0.924600  0.486800  0.581200  1.0  0.1788
  C  C169  1  0.026000  0.552000  0.597600  1.0  -0.0293
  C  C170  1  0.968900  0.690800  0.563600  1.0  -0.065
  C  C171  1  0.874900  0.610200  0.552600  1.0  0.1428
  C  C172  1  0.807500  0.671700  0.526300  1.0  0.1479
  C  C173  1  0.974880  0.015610  0.780830  1.0  -0.02
  C  C174  1  0.978540  0.025020  0.717500  1.0  -0.1534
  C  C175  1  0.896180  0.074060  0.693780  1.0  0.0746
  C  C176  1  0.807260  0.112980  0.735900  1.0  -0.1466
  C  C177  1  0.800760  0.102980  0.800100  1.0  -0.0475
  C  C178  1  0.884720  0.054030  0.823330  1.0  -0.1403
  C  C179  1  0.877620  0.042580  0.892980  1.0  0.7109
  C  C180  1  0.894400  0.084300  0.623300  1.0  -0.2981
  C  C181  1  0.006110  0.061380  0.577800  1.0  0.6979
  C  C182  1  0.833600  0.035500  0.617900  1.0  0.7025
  C  C183  1  0.522270  0.589360  0.600500  1.0  0.6648
  C  C184  1  0.410690  0.625850  0.639570  1.0  -0.1352
  C  C185  1  0.395750  0.633390  0.702510  1.0  -0.0362
  C  C186  1  0.296270  0.671780  0.736880  1.0  -0.1385
  C  C187  1  0.210900  0.704960  0.709040  1.0  0.0831
  C  C188  1  0.225710  0.695000  0.646580  1.0  -0.1492
  C  C189  1  0.325020  0.655840  0.612520  1.0  -0.0205
  C  C190  1  0.044400  0.696000  0.789800  1.0  0.7095
  C  C191  1  0.009200  0.491000  0.600000  1.0  -0.1571
  C  C192  1  0.960300  0.616400  0.572600  1.0  -0.0225
  C  C193  1  0.657600  0.720000  0.481600  1.0  0.1503
  C  C194  1  0.746100  0.800300  0.493100  1.0  -0.0463
  C  C195  1  0.671200  0.791700  0.472700  1.0  -0.1574
  C  C196  1  0.903200  0.744400  0.544600  1.0  -0.0929
  C  C197  1  0.823800  0.738600  0.519600  1.0  -0.001
  C  C198  1  0.150000  0.106730  0.954270  1.0  0.7027
  C  C199  1  0.136730  0.186560  0.935180  1.0  -0.1404
  C  C200  1  0.224940  0.211720  0.905200  1.0  -0.0327
  C  C201  1  0.210260  0.284580  0.886700  1.0  -0.16
  C  C202  1  0.110370  0.334320  0.897740  1.0  0.0889
  C  C203  1  0.021970  0.310160  0.929100  1.0  -0.1594
  C  C204  1  0.036240  0.236220  0.945900  1.0  -0.0214
  C  C205  1  0.492600  0.013200  0.918800  1.0  0.1799
  C  C206  1  0.675600  0.948000  0.902400  1.0  -0.0171
  C  C207  1  0.723300  0.809200  0.936400  1.0  -0.0651
  C  C208  1  0.537700  0.889800  0.947400  1.0  0.1491
  C  C209  1  0.505500  0.828300  0.973700  1.0  0.1506
  C  C210  1  0.271320  0.484390  0.719170  1.0  -0.0182
  C  C211  1  0.221060  0.474980  0.782500  1.0  -0.1502
  C  C212  1  0.164020  0.425940  0.806220  1.0  0.0738
  C  C213  1  0.156140  0.387020  0.764100  1.0  -0.1469
  C  C214  1  0.203840  0.397020  0.699900  1.0  -0.0483
  C  C215  1  0.262080  0.445970  0.676670  1.0  -0.1415
  C  C216  1  0.313180  0.457420  0.607020  1.0  0.6942
  C  C217  1  0.102000  0.415700  0.876700  1.0  -0.2978
  C  C218  1  0.145290  0.438620  0.922200  1.0  0.693
  C  C219  1  0.987000  0.464500  0.882100  1.0  0.7045
  C  C220  1  0.212130  0.910640  0.899500  1.0  0.665
  C  C221  1  0.176110  0.874150  0.860430  1.0  -0.1354
  C  C222  1  0.231650  0.866610  0.797490  1.0  -0.0323
  C  C223  1  0.204930  0.828220  0.763120  1.0  -0.1377
  C  C224  1  0.124900  0.795040  0.790960  1.0  0.0836
  C  C225  1  0.067290  0.805000  0.853420  1.0  -0.1537
  C  C226  1  0.093380  0.844160  0.887480  1.0  -0.0252
  C  C227  1  0.030200  0.804000  0.710200  1.0  0.7128
  C  C228  1  0.600200  0.009000  0.900000  1.0  -0.1509
  C  C229  1  0.649300  0.883600  0.927400  1.0  -0.0209
  C  C230  1  0.359200  0.780000  0.018400  1.0  0.1487
  C  C231  1  0.539500  0.699700  0.006900  1.0  -0.0467
  C  C232  1  0.435600  0.708300  0.027300  1.0  -0.162
  C  C233  1  0.692200  0.755600  0.955400  1.0  -0.0952
  C  C234  1  0.582000  0.761400  0.980400  1.0  -0.0005
  C  C235  1  0.898500  0.250000  0.250000  1.0  -0.2959
  C  C236  1  0.101500  0.750000  0.750000  1.0  -0.2964
  N  N237  1  0.142310  0.454380  0.442600  1.0  -0.3508
  N  N238  1  0.275050  0.337300  0.492200  1.0  -0.3427
  N  N239  1  0.539290  0.045620  0.057400  1.0  -0.3506
  N  N240  1  0.604550  0.162700  0.007800  1.0  -0.3443
  N  N241  1  0.857690  0.545620  0.557400  1.0  -0.3516
  N  N242  1  0.724950  0.662700  0.507800  1.0  -0.3466
  N  N243  1  0.460710  0.954380  0.942600  1.0  -0.3458
  N  N244  1  0.395450  0.837300  0.992200  1.0  -0.3465
  O  O245  1  0.373140  0.588380  0.471340  1.0  -0.6074
  O  O246  1  0.238630  0.565270  0.451470  1.0  -0.6107
  O  O247  1  0.466840  0.421310  0.455550  1.0  -0.6518
  O  O248  1  0.400080  0.426410  0.376830  1.0  -0.5704
  O  O249  1  0.036200  0.978820  0.090180  1.0  -0.6063
  O  O250  1  0.216480  0.944300  0.070740  1.0  -0.6164
  O  O251  1  0.932860  0.911620  0.028660  1.0  -0.6094
  O  O252  1  0.755370  0.934730  0.048530  1.0  -0.6115
  O  O253  1  0.843700  0.078690  0.044450  1.0  -0.6533
  O  O254  1  0.703320  0.073590  0.123170  1.0  -0.5715
  O  O255  1  0.605200  0.521180  0.409820  1.0  -0.6061
  O  O256  1  0.731520  0.555700  0.429260  1.0  -0.6154
  O  O257  1  0.626860  0.411620  0.528660  1.0  -0.609
  O  O258  1  0.761370  0.434730  0.548530  1.0  -0.6116
  O  O259  1  0.533160  0.578690  0.544450  1.0  -0.6522
  O  O260  1  0.599920  0.573590  0.623170  1.0  -0.5689
  O  O261  1  0.963800  0.021180  0.909820  1.0  -0.6058
  O  O262  1  0.783520  0.055700  0.929260  1.0  -0.615
  O  O263  1  0.067140  0.088380  0.971340  1.0  -0.6088
  O  O264  1  0.244630  0.065270  0.951470  1.0  -0.6091
  O  O265  1  0.156300  0.921310  0.955550  1.0  -0.6542
  O  O266  1  0.296680  0.926410  0.876830  1.0  -0.5704
  O  O267  1  0.394800  0.478820  0.590180  1.0  -0.6063
  O  O268  1  0.268480  0.444300  0.570740  1.0  -0.6152
  F  F269  1  0.271710  0.940920  0.350260  1.0  -0.2201
  F  F270  1  0.167020  0.967810  0.440950  1.0  -0.2016
  F  F271  1  0.130720  0.032190  0.356570  1.0  -0.2033
  F  F272  1  0.946220  0.010780  0.418580  1.0  -0.2107
  F  F273  1  0.995520  0.916910  0.482450  1.0  -0.2021
  F  F274  1  0.924550  0.911150  0.411150  1.0  -0.2101
  F  F275  1  0.957660  0.350920  0.245160  1.0  -0.2065
  F  F276  1  0.906830  0.344870  0.165070  1.0  -0.2028
  F  F277  1  0.058040  0.274110  0.179810  1.0  -0.2102
  F  F278  1  0.062890  0.559080  0.149740  1.0  -0.2224
  F  F279  1  0.075780  0.532190  0.059050  1.0  -0.1972
  F  F280  1  0.019480  0.467810  0.143430  1.0  -0.2067
  F  F281  1  0.875580  0.489220  0.081420  1.0  -0.2112
  F  F282  1  0.894880  0.583090  0.017550  1.0  -0.2046
  F  F283  1  0.746850  0.588850  0.088850  1.0  -0.2099
  F  F284  1  0.053740  0.149080  0.254840  1.0  -0.2023
  F  F285  1  0.916770  0.155130  0.334930  1.0  -0.2
  F  F286  1  0.011960  0.225890  0.320190  1.0  -0.2119
  F  F287  1  0.728290  0.059080  0.649740  1.0  -0.2201
  F  F288  1  0.832980  0.032190  0.559050  1.0  -0.2023
  F  F289  1  0.869280  0.967810  0.643430  1.0  -0.2053
  F  F290  1  0.053780  0.989220  0.581420  1.0  -0.2115
  F  F291  1  0.004480  0.083090  0.517550  1.0  -0.2023
  F  F292  1  0.075450  0.088850  0.588850  1.0  -0.209
  F  F293  1  0.042340  0.649080  0.754840  1.0  -0.206
  F  F294  1  0.093170  0.655130  0.834930  1.0  -0.2022
  F  F295  1  0.941960  0.725890  0.820190  1.0  -0.2098
  F  F296  1  0.937110  0.440920  0.850260  1.0  -0.2215
  F  F297  1  0.924220  0.467810  0.940950  1.0  -0.1997
  F  F298  1  0.980520  0.532190  0.856570  1.0  -0.2059
  F  F299  1  0.124420  0.510780  0.918580  1.0  -0.2115
  F  F300  1  0.105120  0.416910  0.982450  1.0  -0.2034
  F  F301  1  0.253150  0.411150  0.911150  1.0  -0.2086
  F  F302  1  0.946260  0.850920  0.745160  1.0  -0.203
  F  F303  1  0.083230  0.844870  0.665070  1.0  -0.2004
  F  F304  1  0.988040  0.774110  0.679810  1.0  -0.211
