# generated using pymatgen
data_Co3H27C44NO16
_symmetry_space_group_name_H-M   'P 1'
_cell_length_a   15.89830000
_cell_length_b   26.42200000
_cell_length_c   16.34180000
_cell_angle_alpha   90.00000000
_cell_angle_beta   116.88100000
_cell_angle_gamma   90.00000000
_symmetry_Int_Tables_number   1
_chemical_formula_structural   Co3H27C44NO16
_chemical_formula_sum   'Co12 H108 C176 N4 O64'
_cell_volume   6122.87743924
_cell_formula_units_Z   4
loop_
 _symmetry_equiv_pos_site_id
 _symmetry_equiv_pos_as_xyz
  1  'x, y, z'
loop_
 _atom_site_type_symbol
 _atom_site_label
 _atom_site_symmetry_multiplicity
 _atom_site_fract_x
 _atom_site_fract_y
 _atom_site_fract_z
 _atom_site_occupancy
 _atom_site_charge
  Co  Co1  1  0.230190  0.503470  0.522200  1.0  1.0198
  Co  Co2  1  0.446860  0.508410  0.679910  1.0  1.0684
  Co  Co3  1  0.391050  0.523690  0.440820  1.0  1.002
  Co  Co4  1  0.769810  0.003470  0.977800  1.0  1.0193
  Co  Co5  1  0.553140  0.008410  0.820090  1.0  1.0699
  Co  Co6  1  0.608950  0.023690  0.059180  1.0  1.0013
  Co  Co7  1  0.769810  0.496530  0.477800  1.0  1.0192
  Co  Co8  1  0.553140  0.491590  0.320090  1.0  1.0704
  Co  Co9  1  0.608950  0.476310  0.559180  1.0  1.0
  Co  Co10  1  0.230190  0.996530  0.022200  1.0  1.0196
  Co  Co11  1  0.446860  0.991590  0.179910  1.0  1.0692
  Co  Co12  1  0.391050  0.976310  0.940820  1.0  1.0002
  H  H13  1  0.148300  0.378100  0.642100  1.0  0.0927
  H  H14  1  0.119200  0.308400  0.710800  1.0  0.1247
  H  H15  1  0.391200  0.305000  0.900100  1.0  0.1211
  H  H16  1  0.423800  0.376400  0.828500  1.0  0.1122
  H  H17  1  0.337600  0.231000  0.766600  1.0  0.12
  H  H18  1  0.422900  0.158100  0.786800  1.0  0.1047
  H  H19  1  0.343100  0.109900  0.973500  1.0  0.0994
  H  H20  1  0.253200  0.182500  0.950100  1.0  0.1309
  H  H21  1  0.156800  0.615500  0.658600  1.0  0.1062
  H  H22  1  0.100500  0.667600  0.736700  1.0  0.1258
  H  H23  1  0.329000  0.636200  0.975300  1.0  0.1331
  H  H24  1  0.387400  0.585200  0.896500  1.0  0.1109
  H  H25  1  0.081700  0.757800  0.936400  1.0  0.1298
  H  H26  1  0.116200  0.844500  0.954600  1.0  0.1059
  H  H27  1  0.337300  0.821500  0.903700  1.0  0.1106
  H  H28  1  0.301400  0.735800  0.879700  1.0  0.1211
  H  H29  1  0.269800  0.599500  0.278200  1.0  0.1004
  H  H30  1  0.123500  0.633600  0.175400  1.0  0.1409
  H  H31  1  0.146700  0.564700  0.965200  1.0  0.1199
  H  H32  1  0.293800  0.532400  0.069300  1.0  0.1187
  H  H33  1  0.953100  0.538900  0.974700  1.0  0.1198
  H  H34  1  0.848600  0.503300  0.832700  1.0  0.0875
  H  H35  1  0.901200  0.618400  0.700600  1.0  0.1131
  H  H36  1  0.996400  0.656600  0.840700  1.0  0.1206
  H  H37  1  0.056000  0.433000  0.475000  1.0  0.1447
  H  H38  1  0.079000  0.574100  0.521000  1.0  0.1084
  H  H39  1  0.387000  0.469000  0.551000  1.0  0.4239
  H  H40  1  0.851700  0.878100  0.857900  1.0  0.0922
  H  H41  1  0.880800  0.808400  0.789200  1.0  0.1244
  H  H42  1  0.608800  0.805000  0.599900  1.0  0.1214
  H  H43  1  0.576200  0.876400  0.671500  1.0  0.1128
  H  H44  1  0.662400  0.731000  0.733400  1.0  0.1194
  H  H45  1  0.577100  0.658100  0.713200  1.0  0.1041
  H  H46  1  0.656900  0.609900  0.526500  1.0  0.0989
  H  H47  1  0.746800  0.682500  0.549900  1.0  0.131
  H  H48  1  0.843200  0.115500  0.841400  1.0  0.1061
  H  H49  1  0.899500  0.167600  0.763300  1.0  0.126
  H  H50  1  0.671000  0.136200  0.524700  1.0  0.1342
  H  H51  1  0.612600  0.085200  0.603500  1.0  0.1106
  H  H52  1  0.918300  0.257800  0.563600  1.0  0.1301
  H  H53  1  0.883800  0.344500  0.545400  1.0  0.1061
  H  H54  1  0.662700  0.321500  0.596300  1.0  0.1102
  H  H55  1  0.698600  0.235800  0.620300  1.0  0.121
  H  H56  1  0.730200  0.099500  0.221800  1.0  0.1006
  H  H57  1  0.876500  0.133600  0.324600  1.0  0.1403
  H  H58  1  0.853300  0.064700  0.534800  1.0  0.1198
  H  H59  1  0.706200  0.032400  0.430700  1.0  0.1188
  H  H60  1  0.046900  0.038900  0.525300  1.0  0.1209
  H  H61  1  0.151400  0.003300  0.667300  1.0  0.0872
  H  H62  1  0.098800  0.118400  0.799400  1.0  0.1117
  H  H63  1  0.003600  0.156600  0.659300  1.0  0.1206
  H  H64  1  0.944000  0.933000  0.025000  1.0  0.1463
  H  H65  1  0.921000  0.074100  0.979000  1.0  0.1092
  H  H66  1  0.613000  0.969000  0.949000  1.0  0.4227
  H  H67  1  0.851700  0.621900  0.357900  1.0  0.0922
  H  H68  1  0.880800  0.691600  0.289200  1.0  0.1243
  H  H69  1  0.608800  0.695000  0.099900  1.0  0.1213
  H  H70  1  0.576200  0.623600  0.171500  1.0  0.1126
  H  H71  1  0.662400  0.769000  0.233400  1.0  0.12
  H  H72  1  0.577100  0.841900  0.213200  1.0  0.1045
  H  H73  1  0.656900  0.890100  0.026500  1.0  0.0991
  H  H74  1  0.746800  0.817500  0.049900  1.0  0.1313
  H  H75  1  0.843200  0.384500  0.341400  1.0  0.1066
  H  H76  1  0.899500  0.332400  0.263300  1.0  0.126
  H  H77  1  0.671000  0.363800  0.024700  1.0  0.1344
  H  H78  1  0.612600  0.414800  0.103500  1.0  0.1106
  H  H79  1  0.918300  0.242200  0.063600  1.0  0.1302
  H  H80  1  0.883800  0.155500  0.045400  1.0  0.1062
  H  H81  1  0.662700  0.178500  0.096300  1.0  0.11
  H  H82  1  0.698600  0.264200  0.120300  1.0  0.121
  H  H83  1  0.730200  0.400500  0.721800  1.0  0.1005
  H  H84  1  0.876500  0.366400  0.824600  1.0  0.14
  H  H85  1  0.853300  0.435300  0.034800  1.0  0.1194
  H  H86  1  0.706200  0.467600  0.930700  1.0  0.1191
  H  H87  1  0.046900  0.461100  0.025300  1.0  0.1207
  H  H88  1  0.151400  0.496700  0.167300  1.0  0.0873
  H  H89  1  0.098800  0.381600  0.299400  1.0  0.111
  H  H90  1  0.003600  0.343400  0.159300  1.0  0.12
  H  H91  1  0.944000  0.567000  0.525000  1.0  0.147
  H  H92  1  0.921000  0.425900  0.479000  1.0  0.1094
  H  H93  1  0.613000  0.531000  0.449000  1.0  0.423
  H  H94  1  0.148300  0.121900  0.142100  1.0  0.0927
  H  H95  1  0.119200  0.191600  0.210800  1.0  0.1246
  H  H96  1  0.391200  0.195000  0.400100  1.0  0.121
  H  H97  1  0.423800  0.123600  0.328500  1.0  0.1124
  H  H98  1  0.337600  0.269000  0.266600  1.0  0.1204
  H  H99  1  0.422900  0.341900  0.286800  1.0  0.1047
  H  H100  1  0.343100  0.390100  0.473500  1.0  0.0992
  H  H101  1  0.253200  0.317500  0.450100  1.0  0.1311
  H  H102  1  0.156800  0.884500  0.158600  1.0  0.106
  H  H103  1  0.100500  0.832400  0.236700  1.0  0.1259
  H  H104  1  0.329000  0.863800  0.475300  1.0  0.1335
  H  H105  1  0.387400  0.914800  0.396500  1.0  0.1108
  H  H106  1  0.081700  0.742200  0.436400  1.0  0.1298
  H  H107  1  0.116200  0.655500  0.454600  1.0  0.106
  H  H108  1  0.337300  0.678500  0.403700  1.0  0.1102
  H  H109  1  0.301400  0.764200  0.379700  1.0  0.1213
  H  H110  1  0.269800  0.900500  0.778200  1.0  0.1008
  H  H111  1  0.123500  0.866400  0.675400  1.0  0.141
  H  H112  1  0.146700  0.935300  0.465200  1.0  0.1199
  H  H113  1  0.293800  0.967600  0.569300  1.0  0.1192
  H  H114  1  0.953100  0.961100  0.474700  1.0  0.1198
  H  H115  1  0.848600  0.996700  0.332700  1.0  0.0877
  H  H116  1  0.901200  0.881600  0.200600  1.0  0.1128
  H  H117  1  0.996400  0.843400  0.340700  1.0  0.1203
  H  H118  1  0.056000  0.067000  0.975000  1.0  0.1475
  H  H119  1  0.079000  0.925900  0.021000  1.0  0.1089
  H  H120  1  0.387000  0.031000  0.051000  1.0  0.4232
  C  C121  1  0.309200  0.425780  0.676200  1.0  0.7402
  C  C122  1  0.289200  0.383700  0.726200  1.0  -0.1418
  C  C123  1  0.198900  0.363100  0.693800  1.0  -0.0252
  C  C124  1  0.181100  0.322000  0.734600  1.0  -0.1806
  C  C125  1  0.253600  0.300400  0.810200  1.0  0.2636
  C  C126  1  0.342400  0.319800  0.846700  1.0  -0.1173
  C  C127  1  0.362000  0.362600  0.804000  1.0  -0.035
  C  C128  1  0.290000  0.214700  0.858200  1.0  0.3217
  C  C129  1  0.339000  0.206500  0.809800  1.0  -0.1639
  C  C130  1  0.390600  0.163300  0.822800  1.0  -0.0741
  C  C131  1  0.397700  0.126700  0.885700  1.0  -0.0683
  C  C132  1  0.343400  0.134800  0.931700  1.0  -0.0507
  C  C133  1  0.290000  0.178000  0.918200  1.0  -0.1365
  C  C134  1  0.455700  0.080200  0.896400  1.0  0.6847
  C  C135  1  0.315800  0.563950  0.716500  1.0  0.7271
  C  C136  1  0.280900  0.595910  0.769600  1.0  -0.1087
  C  C137  1  0.192900  0.620200  0.722900  1.0  -0.0473
  C  C138  1  0.158900  0.650500  0.769300  1.0  -0.2073
  C  C139  1  0.208500  0.656200  0.861900  1.0  0.2842
  C  C140  1  0.294500  0.632100  0.910700  1.0  -0.2358
  C  C141  1  0.328900  0.602100  0.863400  1.0  -0.0265
  C  C142  1  0.190300  0.738700  0.909800  1.0  0.2923
  C  C143  1  0.134100  0.770700  0.929800  1.0  -0.1723
  C  C144  1  0.154600  0.822300  0.940300  1.0  -0.0353
  C  C145  1  0.229700  0.841600  0.930200  1.0  -0.1697
  C  C146  1  0.284500  0.808700  0.909500  1.0  -0.0199
  C  C147  1  0.264600  0.757600  0.897000  1.0  -0.1622
  C  C148  1  0.258000  0.897300  0.945400  1.0  0.7042
  C  C149  1  0.385600  0.538170  0.249300  1.0  0.6527
  C  C150  1  0.293500  0.562370  0.183600  1.0  -0.0743
  C  C151  1  0.244600  0.592390  0.214500  1.0  -0.0636
  C  C152  1  0.158100  0.612900  0.153700  1.0  -0.2379
  C  C153  1  0.123100  0.602470  0.060300  1.0  0.3049
  C  C154  1  0.171700  0.572200  0.028800  1.0  -0.1615
  C  C155  1  0.258400  0.552600  0.090800  1.0  -0.0382
  C  C156  1  0.981400  0.601700  0.918300  1.0  0.2676
  C  C157  1  0.940400  0.555500  0.918700  1.0  -0.1893
  C  C158  1  0.879800  0.534300  0.834300  1.0  -0.0034
  C  C159  1  0.864400  0.557400  0.753400  1.0  -0.1103
  C  C160  1  0.909800  0.602700  0.756100  1.0  -0.0462
  C  C161  1  0.967000  0.625000  0.839000  1.0  -0.1832
  C  C162  1  0.798400  0.533700  0.662600  1.0  0.6931
  C  C163  1  0.040700  0.459100  0.487200  1.0  0.1534
  C  C164  1  0.045100  0.543800  0.513400  1.0  0.0899
  C  C165  1  0.690800  0.925780  0.823800  1.0  0.7405
  C  C166  1  0.710800  0.883700  0.773800  1.0  -0.1407
  C  C167  1  0.801100  0.863100  0.806200  1.0  -0.0255
  C  C168  1  0.818900  0.822000  0.765400  1.0  -0.1797
  C  C169  1  0.746400  0.800400  0.689800  1.0  0.2645
  C  C170  1  0.657600  0.819800  0.653300  1.0  -0.1173
  C  C171  1  0.638000  0.862600  0.696000  1.0  -0.0363
  C  C172  1  0.710000  0.714700  0.641800  1.0  0.3205
  C  C173  1  0.661000  0.706500  0.690200  1.0  -0.1658
  C  C174  1  0.609400  0.663300  0.677200  1.0  -0.0769
  C  C175  1  0.602300  0.626700  0.614300  1.0  -0.0707
  C  C176  1  0.656600  0.634800  0.568300  1.0  -0.0521
  C  C177  1  0.710000  0.678000  0.581800  1.0  -0.1363
  C  C178  1  0.544300  0.580200  0.603600  1.0  0.6857
  C  C179  1  0.684200  0.063950  0.783500  1.0  0.7264
  C  C180  1  0.719100  0.095910  0.730400  1.0  -0.1079
  C  C181  1  0.807100  0.120200  0.777100  1.0  -0.0486
  C  C182  1  0.841100  0.150500  0.730700  1.0  -0.2059
  C  C183  1  0.791500  0.156200  0.638100  1.0  0.2853
  C  C184  1  0.705500  0.132100  0.589300  1.0  -0.2358
  C  C185  1  0.671100  0.102100  0.636600  1.0  -0.0258
  C  C186  1  0.809700  0.238700  0.590200  1.0  0.2933
  C  C187  1  0.865900  0.270700  0.570200  1.0  -0.1715
  C  C188  1  0.845400  0.322300  0.559700  1.0  -0.036
  C  C189  1  0.770300  0.341600  0.569800  1.0  -0.1695
  C  C190  1  0.715500  0.308700  0.590500  1.0  -0.0212
  C  C191  1  0.735400  0.257600  0.603000  1.0  -0.1646
  C  C192  1  0.742000  0.397300  0.554600  1.0  0.705
  C  C193  1  0.614400  0.038170  0.250700  1.0  0.6508
  C  C194  1  0.706500  0.062370  0.316400  1.0  -0.0767
  C  C195  1  0.755400  0.092390  0.285500  1.0  -0.0623
  C  C196  1  0.841900  0.112900  0.346300  1.0  -0.2398
  C  C197  1  0.876900  0.102470  0.439700  1.0  0.3049
  C  C198  1  0.828300  0.072200  0.471200  1.0  -0.1615
  C  C199  1  0.741600  0.052600  0.409200  1.0  -0.0376
  C  C200  1  0.018600  0.101700  0.581700  1.0  0.2708
  C  C201  1  0.059600  0.055500  0.581300  1.0  -0.1926
  C  C202  1  0.120200  0.034300  0.665700  1.0  -0.0034
  C  C203  1  0.135600  0.057400  0.746600  1.0  -0.1099
  C  C204  1  0.090200  0.102700  0.743900  1.0  -0.0468
  C  C205  1  0.033000  0.125000  0.661000  1.0  -0.1867
  C  C206  1  0.201600  0.033700  0.837400  1.0  0.6932
  C  C207  1  0.959300  0.959100  0.012800  1.0  0.1531
  C  C208  1  0.954900  0.043800  0.986600  1.0  0.0904
  C  C209  1  0.690800  0.574220  0.323800  1.0  0.7403
  C  C210  1  0.710800  0.616300  0.273800  1.0  -0.1404
  C  C211  1  0.801100  0.636900  0.306200  1.0  -0.0251
  C  C212  1  0.818900  0.678000  0.265400  1.0  -0.1797
  C  C213  1  0.746400  0.699600  0.189800  1.0  0.2652
  C  C214  1  0.657600  0.680200  0.153300  1.0  -0.1179
  C  C215  1  0.638000  0.637400  0.196000  1.0  -0.0357
  C  C216  1  0.710000  0.785300  0.141800  1.0  0.3193
  C  C217  1  0.661000  0.793500  0.190200  1.0  -0.1652
  C  C218  1  0.609400  0.836700  0.177200  1.0  -0.0766
  C  C219  1  0.602300  0.873300  0.114300  1.0  -0.0703
  C  C220  1  0.656600  0.865200  0.068300  1.0  -0.0511
  C  C221  1  0.710000  0.822000  0.081800  1.0  -0.136
  C  C222  1  0.544300  0.919800  0.103600  1.0  0.6847
  C  C223  1  0.684200  0.436050  0.283500  1.0  0.7269
  C  C224  1  0.719100  0.404090  0.230400  1.0  -0.1076
  C  C225  1  0.807100  0.379800  0.277100  1.0  -0.048
  C  C226  1  0.841100  0.349500  0.230700  1.0  -0.2052
  C  C227  1  0.791500  0.343800  0.138100  1.0  0.2853
  C  C228  1  0.705500  0.367900  0.089300  1.0  -0.2364
  C  C229  1  0.671100  0.397900  0.136600  1.0  -0.0264
  C  C230  1  0.809700  0.261300  0.090200  1.0  0.2933
  C  C231  1  0.865900  0.229300  0.070200  1.0  -0.1714
  C  C232  1  0.845400  0.177700  0.059700  1.0  -0.0361
  C  C233  1  0.770300  0.158400  0.069800  1.0  -0.1695
  C  C234  1  0.715500  0.191300  0.090500  1.0  -0.0218
  C  C235  1  0.735400  0.242400  0.103000  1.0  -0.1646
  C  C236  1  0.742000  0.102700  0.054600  1.0  0.7045
  C  C237  1  0.614400  0.461830  0.750700  1.0  0.6509
  C  C238  1  0.706500  0.437630  0.816400  1.0  -0.0771
  C  C239  1  0.755400  0.407610  0.785500  1.0  -0.0636
  C  C240  1  0.841900  0.387100  0.846300  1.0  -0.2401
  C  C241  1  0.876900  0.397530  0.939700  1.0  0.3032
  C  C242  1  0.828300  0.427800  0.971200  1.0  -0.1622
  C  C243  1  0.741600  0.447400  0.909200  1.0  -0.0387
  C  C244  1  0.018600  0.398300  0.081700  1.0  0.2689
  C  C245  1  0.059600  0.444500  0.081300  1.0  -0.1927
  C  C246  1  0.120200  0.465700  0.165700  1.0  -0.004
  C  C247  1  0.135600  0.442600  0.246600  1.0  -0.1099
  C  C248  1  0.090200  0.397300  0.243900  1.0  -0.0457
  C  C249  1  0.033000  0.375000  0.161000  1.0  -0.187
  C  C250  1  0.201600  0.466300  0.337400  1.0  0.6935
  C  C251  1  0.959300  0.540900  0.512800  1.0  0.1537
  C  C252  1  0.954900  0.456200  0.486600  1.0  0.0905
  C  C253  1  0.309200  0.074220  0.176200  1.0  0.74
  C  C254  1  0.289200  0.116300  0.226200  1.0  -0.1416
  C  C255  1  0.198900  0.136900  0.193800  1.0  -0.0246
  C  C256  1  0.181100  0.178000  0.234600  1.0  -0.1805
  C  C257  1  0.253600  0.199600  0.310200  1.0  0.2636
  C  C258  1  0.342400  0.180200  0.346700  1.0  -0.1172
  C  C259  1  0.362000  0.137400  0.304000  1.0  -0.0346
  C  C260  1  0.290000  0.285300  0.358200  1.0  0.3215
  C  C261  1  0.339000  0.293500  0.309800  1.0  -0.1633
  C  C262  1  0.390600  0.336700  0.322800  1.0  -0.0729
  C  C263  1  0.397700  0.373300  0.385700  1.0  -0.0678
  C  C264  1  0.343400  0.365200  0.431700  1.0  -0.05
  C  C265  1  0.290000  0.322000  0.418200  1.0  -0.1367
  C  C266  1  0.455700  0.419800  0.396400  1.0  0.6838
  C  C267  1  0.315800  0.936050  0.216500  1.0  0.7275
  C  C268  1  0.280900  0.904090  0.269600  1.0  -0.1086
  C  C269  1  0.192900  0.879800  0.222900  1.0  -0.0471
  C  C270  1  0.158900  0.849500  0.269300  1.0  -0.2073
  C  C271  1  0.208500  0.843800  0.361900  1.0  0.2842
  C  C272  1  0.294500  0.867900  0.410700  1.0  -0.2363
  C  C273  1  0.328900  0.897900  0.363400  1.0  -0.0267
  C  C274  1  0.190300  0.761300  0.409800  1.0  0.2916
  C  C275  1  0.134100  0.729300  0.429800  1.0  -0.1725
  C  C276  1  0.154600  0.677700  0.440300  1.0  -0.0358
  C  C277  1  0.229700  0.658400  0.430200  1.0  -0.1697
  C  C278  1  0.284500  0.691300  0.409500  1.0  -0.0194
  C  C279  1  0.264600  0.742400  0.397000  1.0  -0.1617
  C  C280  1  0.258000  0.602700  0.445400  1.0  0.7039
  C  C281  1  0.385600  0.961830  0.749300  1.0  0.6526
  C  C282  1  0.293500  0.937630  0.683600  1.0  -0.0745
  C  C283  1  0.244600  0.907610  0.714500  1.0  -0.0638
  C  C284  1  0.158100  0.887100  0.653700  1.0  -0.2377
  C  C285  1  0.123100  0.897530  0.560300  1.0  0.303
  C  C286  1  0.171700  0.927800  0.528800  1.0  -0.1617
  C  C287  1  0.258400  0.947400  0.590800  1.0  -0.0393
  C  C288  1  0.981400  0.898300  0.418300  1.0  0.2671
  C  C289  1  0.940400  0.944500  0.418700  1.0  -0.1892
  C  C290  1  0.879800  0.965700  0.334300  1.0  -0.0041
  C  C291  1  0.864400  0.942600  0.253400  1.0  -0.1101
  C  C292  1  0.909800  0.897300  0.256100  1.0  -0.046
  C  C293  1  0.967000  0.875000  0.339000  1.0  -0.184
  C  C294  1  0.798400  0.966300  0.162600  1.0  0.6933
  C  C295  1  0.040700  0.040900  0.987200  1.0  0.1538
  C  C296  1  0.045100  0.956200  0.013400  1.0  0.0901
  N  N297  1  0.087700  0.502480  0.501500  1.0  -0.3312
  N  N298  1  0.912300  0.002480  0.998500  1.0  -0.3313
  N  N299  1  0.912300  0.497520  0.498500  1.0  -0.3312
  N  N300  1  0.087700  0.997520  0.001500  1.0  -0.3312
  O  O301  1  0.391500  0.443250  0.711200  1.0  -0.6042
  O  O302  1  0.242600  0.438730  0.601500  1.0  -0.5958
  O  O303  1  0.235100  0.257340  0.848700  1.0  -0.2785
  O  O304  1  0.486100  0.073360  0.840000  1.0  -0.5865
  O  O305  1  0.468200  0.050130  0.962700  1.0  -0.6934
  O  O306  1  0.258800  0.548570  0.639400  1.0  -0.6287
  O  O307  1  0.403900  0.554820  0.752900  1.0  -0.5806
  O  O308  1  0.171600  0.687480  0.906800  1.0  -0.2696
  O  O309  1  0.202400  0.926810  0.955600  1.0  -0.5896
  O  O310  1  0.335200  0.907650  0.946400  1.0  -0.5867
  O  O311  1  0.420700  0.546160  0.335000  1.0  -0.6454
  O  O312  1  0.426400  0.510520  0.215600  1.0  -0.5904
  O  O313  1  0.037300  0.625160  0.003900  1.0  -0.2938
  O  O314  1  0.816200  0.539810  0.596600  1.0  -0.586
  O  O315  1  0.728900  0.509980  0.661600  1.0  -0.5929
  O  O316  1  0.369700  0.496220  0.546200  1.0  -0.965
  O  O317  1  0.608500  0.943250  0.788800  1.0  -0.6035
  O  O318  1  0.757400  0.938730  0.898500  1.0  -0.5964
  O  O319  1  0.764900  0.757340  0.651300  1.0  -0.2816
  O  O320  1  0.513900  0.573360  0.660000  1.0  -0.5848
  O  O321  1  0.531800  0.550130  0.537300  1.0  -0.6935
  O  O322  1  0.741200  0.048570  0.860600  1.0  -0.6312
  O  O323  1  0.596100  0.054820  0.747100  1.0  -0.5805
  O  O324  1  0.828400  0.187480  0.593200  1.0  -0.2687
  O  O325  1  0.797600  0.426810  0.544400  1.0  -0.5889
  O  O326  1  0.664800  0.407650  0.553600  1.0  -0.5863
  O  O327  1  0.579300  0.046160  0.165000  1.0  -0.6444
  O  O328  1  0.573600  0.010520  0.284400  1.0  -0.59
  O  O329  1  0.962700  0.125160  0.496100  1.0  -0.2955
  O  O330  1  0.183800  0.039810  0.903400  1.0  -0.5865
  O  O331  1  0.271100  0.009980  0.838400  1.0  -0.5946
  O  O332  1  0.630300  0.996220  0.953800  1.0  -0.9668
  O  O333  1  0.608500  0.556750  0.288800  1.0  -0.6038
  O  O334  1  0.757400  0.561270  0.398500  1.0  -0.5967
  O  O335  1  0.764900  0.742660  0.151300  1.0  -0.281
  O  O336  1  0.513900  0.926640  0.160000  1.0  -0.5847
  O  O337  1  0.531800  0.949870  0.037300  1.0  -0.6933
  O  O338  1  0.741200  0.451430  0.360600  1.0  -0.6309
  O  O339  1  0.596100  0.445180  0.247100  1.0  -0.5801
  O  O340  1  0.828400  0.312520  0.093200  1.0  -0.2683
  O  O341  1  0.797600  0.073190  0.044400  1.0  -0.5893
  O  O342  1  0.664800  0.092350  0.053600  1.0  -0.5867
  O  O343  1  0.579300  0.453840  0.665000  1.0  -0.6439
  O  O344  1  0.573600  0.489480  0.784400  1.0  -0.59
  O  O345  1  0.962700  0.374840  0.996100  1.0  -0.2953
  O  O346  1  0.183800  0.460190  0.403400  1.0  -0.5865
  O  O347  1  0.271100  0.490020  0.338400  1.0  -0.5942
  O  O348  1  0.630300  0.503780  0.453800  1.0  -0.9666
  O  O349  1  0.391500  0.056750  0.211200  1.0  -0.6045
  O  O350  1  0.242600  0.061270  0.101500  1.0  -0.5961
  O  O351  1  0.235100  0.242660  0.348700  1.0  -0.2786
  O  O352  1  0.486100  0.426640  0.340000  1.0  -0.5858
  O  O353  1  0.468200  0.449870  0.462700  1.0  -0.6926
  O  O354  1  0.258800  0.951430  0.139400  1.0  -0.6282
  O  O355  1  0.403900  0.945180  0.252900  1.0  -0.5804
  O  O356  1  0.171600  0.812520  0.406800  1.0  -0.2694
  O  O357  1  0.202400  0.573190  0.455600  1.0  -0.5897
  O  O358  1  0.335200  0.592350  0.446400  1.0  -0.5874
  O  O359  1  0.420700  0.953840  0.835000  1.0  -0.645
  O  O360  1  0.426400  0.989480  0.715600  1.0  -0.5926
  O  O361  1  0.037300  0.874840  0.503900  1.0  -0.2974
  O  O362  1  0.816200  0.960190  0.096600  1.0  -0.5866
  O  O363  1  0.728900  0.990020  0.161600  1.0  -0.593
  O  O364  1  0.369700  0.003780  0.046200  1.0  -0.9653
