# generated using pymatgen
data_Co6H42C70O27
_symmetry_space_group_name_H-M   'P 1'
_cell_length_a   28.83400000
_cell_length_b   16.38100000
_cell_length_c   23.19900000
_cell_angle_alpha   90.00000000
_cell_angle_beta   92.89300000
_cell_angle_gamma   90.00000000
_symmetry_Int_Tables_number   1
_chemical_formula_structural   Co6H42C70O27
_chemical_formula_sum   'Co24 H168 C280 O108'
_cell_volume   10943.61286769
_cell_formula_units_Z   4
loop_
 _symmetry_equiv_pos_site_id
 _symmetry_equiv_pos_as_xyz
  1  'x, y, z'
loop_
 _atom_site_type_symbol
 _atom_site_label
 _atom_site_symmetry_multiplicity
 _atom_site_fract_x
 _atom_site_fract_y
 _atom_site_fract_z
 _atom_site_occupancy
 _atom_site_charge
  Co  Co1  1  0.798060  0.718630  0.035160  1.0  1.037
  Co  Co2  1  0.795110  0.606350  0.156660  1.0  1.077
  Co  Co3  1  0.708840  0.755470  0.129810  1.0  1.0761
  Co  Co4  1  0.298060  0.218630  0.035160  1.0  1.0361
  Co  Co5  1  0.295110  0.106350  0.156660  1.0  1.077
  Co  Co6  1  0.208840  0.255470  0.129810  1.0  1.0761
  Co  Co7  1  0.201940  0.718630  0.464840  1.0  1.0396
  Co  Co8  1  0.204890  0.606350  0.343340  1.0  1.078
  Co  Co9  1  0.291160  0.755470  0.370190  1.0  1.0778
  Co  Co10  1  0.701940  0.218630  0.464840  1.0  1.0387
  Co  Co11  1  0.704890  0.106350  0.343340  1.0  1.078
  Co  Co12  1  0.791160  0.255470  0.370190  1.0  1.0778
  Co  Co13  1  0.201940  0.281370  0.964840  1.0  1.0378
  Co  Co14  1  0.204890  0.393650  0.843340  1.0  1.0775
  Co  Co15  1  0.291160  0.244530  0.870190  1.0  1.0779
  Co  Co16  1  0.701940  0.781370  0.964840  1.0  1.0397
  Co  Co17  1  0.704890  0.893650  0.843340  1.0  1.0775
  Co  Co18  1  0.791160  0.744530  0.870190  1.0  1.0779
  Co  Co19  1  0.798060  0.281370  0.535160  1.0  1.0355
  Co  Co20  1  0.795110  0.393650  0.656660  1.0  1.0811
  Co  Co21  1  0.708840  0.244530  0.629810  1.0  1.0757
  Co  Co22  1  0.298060  0.781370  0.535160  1.0  1.0372
  Co  Co23  1  0.295110  0.893650  0.656660  1.0  1.0811
  Co  Co24  1  0.208840  0.744530  0.629810  1.0  1.0757
  H  H25  1  0.737300  0.642100  0.081300  1.0  0.4287
  H  H26  1  0.836700  0.383100  0.064900  1.0  0.099
  H  H27  1  0.885500  0.283000  0.028600  1.0  0.1266
  H  H28  1  0.952200  0.456700  0.940500  1.0  0.1311
  H  H29  1  0.902100  0.555900  0.975500  1.0  0.0929
  H  H30  1  0.056900  0.329800  0.109400  1.0  0.1059
  H  H31  1  0.982600  0.348100  0.066200  1.0  0.1124
  H  H32  1  0.023500  0.234100  0.922200  1.0  0.1149
  H  H33  1  0.098000  0.219800  0.964200  1.0  0.0863
  H  H34  1  0.897000  0.895500  0.107700  1.0  0.0994
  H  H35  1  0.955900  0.972000  0.153800  1.0  0.1282
  H  H36  1  0.959800  0.812600  0.287500  1.0  0.1278
  H  H37  1  0.901200  0.734900  0.239900  1.0  0.1078
  H  H38  1  0.726400  0.033600  0.088200  1.0  0.1093
  H  H39  1  0.749400  0.158500  0.049500  1.0  0.1218
  H  H40  1  0.841600  0.039800  0.953300  1.0  0.1351
  H  H41  1  0.817600  0.914500  0.990100  1.0  0.1089
  H  H42  1  0.721600  0.151000  0.812000  1.0  0.1025
  H  H43  1  0.745100  0.111900  0.905900  1.0  0.1118
  H  H44  1  0.841800  0.292200  0.910900  1.0  0.1159
  H  H45  1  0.818200  0.330200  0.816800  1.0  0.1078
  H  H46  1  0.237300  0.142100  0.081300  1.0  0.4288
  H  H47  1  0.336700  0.883100  0.064900  1.0  0.099
  H  H48  1  0.385500  0.783000  0.028600  1.0  0.1266
  H  H49  1  0.452200  0.956700  0.940500  1.0  0.1311
  H  H50  1  0.402100  0.055900  0.975500  1.0  0.0929
  H  H51  1  0.556900  0.829800  0.109400  1.0  0.1059
  H  H52  1  0.482600  0.848100  0.066200  1.0  0.1124
  H  H53  1  0.523500  0.734100  0.922200  1.0  0.1149
  H  H54  1  0.598000  0.719800  0.964200  1.0  0.0863
  H  H55  1  0.397000  0.395500  0.107700  1.0  0.0994
  H  H56  1  0.455900  0.472000  0.153800  1.0  0.1282
  H  H57  1  0.459800  0.312600  0.287500  1.0  0.1278
  H  H58  1  0.401200  0.234900  0.239900  1.0  0.1078
  H  H59  1  0.226400  0.533600  0.088200  1.0  0.1093
  H  H60  1  0.249400  0.658500  0.049500  1.0  0.1218
  H  H61  1  0.341600  0.539800  0.953300  1.0  0.1351
  H  H62  1  0.317600  0.414500  0.990100  1.0  0.1089
  H  H63  1  0.221600  0.651000  0.812000  1.0  0.1025
  H  H64  1  0.245100  0.611900  0.905900  1.0  0.1118
  H  H65  1  0.341800  0.792200  0.910900  1.0  0.1159
  H  H66  1  0.318200  0.830200  0.816800  1.0  0.1078
  H  H67  1  0.262700  0.642100  0.418700  1.0  0.4295
  H  H68  1  0.163300  0.383100  0.435100  1.0  0.0989
  H  H69  1  0.114500  0.283000  0.471400  1.0  0.1257
  H  H70  1  0.047800  0.456700  0.559500  1.0  0.1312
  H  H71  1  0.097900  0.555900  0.524500  1.0  0.0928
  H  H72  1  0.943100  0.329800  0.390600  1.0  0.1059
  H  H73  1  0.017400  0.348100  0.433800  1.0  0.1124
  H  H74  1  0.976500  0.234100  0.577800  1.0  0.1149
  H  H75  1  0.902000  0.219800  0.535800  1.0  0.0865
  H  H76  1  0.103000  0.895500  0.392300  1.0  0.0987
  H  H77  1  0.044100  0.972000  0.346200  1.0  0.1281
  H  H78  1  0.040200  0.812600  0.212500  1.0  0.1274
  H  H79  1  0.098800  0.734900  0.260100  1.0  0.1076
  H  H80  1  0.273600  0.033600  0.411800  1.0  0.1098
  H  H81  1  0.250600  0.158500  0.450500  1.0  0.1222
  H  H82  1  0.158400  0.039800  0.546700  1.0  0.1351
  H  H83  1  0.182400  0.914500  0.509900  1.0  0.1081
  H  H84  1  0.278400  0.151000  0.688000  1.0  0.1027
  H  H85  1  0.254900  0.111900  0.594100  1.0  0.1116
  H  H86  1  0.158200  0.292200  0.589100  1.0  0.1161
  H  H87  1  0.181800  0.330200  0.683200  1.0  0.1084
  H  H88  1  0.762700  0.142100  0.418700  1.0  0.4296
  H  H89  1  0.663300  0.883100  0.435100  1.0  0.0989
  H  H90  1  0.614500  0.783000  0.471400  1.0  0.1257
  H  H91  1  0.547800  0.956700  0.559500  1.0  0.1312
  H  H92  1  0.597900  0.055900  0.524500  1.0  0.0928
  H  H93  1  0.443100  0.829800  0.390600  1.0  0.1059
  H  H94  1  0.517400  0.848100  0.433800  1.0  0.1124
  H  H95  1  0.476500  0.734100  0.577800  1.0  0.1149
  H  H96  1  0.402000  0.719800  0.535800  1.0  0.0865
  H  H97  1  0.603000  0.395500  0.392300  1.0  0.0987
  H  H98  1  0.544100  0.472000  0.346200  1.0  0.1281
  H  H99  1  0.540200  0.312600  0.212500  1.0  0.1274
  H  H100  1  0.598800  0.234900  0.260100  1.0  0.1076
  H  H101  1  0.773600  0.533600  0.411800  1.0  0.1098
  H  H102  1  0.750600  0.658500  0.450500  1.0  0.1222
  H  H103  1  0.658400  0.539800  0.546700  1.0  0.1351
  H  H104  1  0.682400  0.414500  0.509900  1.0  0.1081
  H  H105  1  0.778400  0.651000  0.688000  1.0  0.1027
  H  H106  1  0.754900  0.611900  0.594100  1.0  0.1116
  H  H107  1  0.658200  0.792200  0.589100  1.0  0.1161
  H  H108  1  0.681800  0.830200  0.683200  1.0  0.1084
  H  H109  1  0.262700  0.357900  0.918700  1.0  0.4295
  H  H110  1  0.163300  0.616900  0.935100  1.0  0.0994
  H  H111  1  0.114500  0.717000  0.971400  1.0  0.1263
  H  H112  1  0.047800  0.543300  0.059500  1.0  0.1312
  H  H113  1  0.097900  0.444100  0.024500  1.0  0.0923
  H  H114  1  0.943100  0.670200  0.890600  1.0  0.1058
  H  H115  1  0.017400  0.651900  0.933800  1.0  0.1125
  H  H116  1  0.976500  0.765900  0.077800  1.0  0.1148
  H  H117  1  0.902000  0.780200  0.035800  1.0  0.0869
  H  H118  1  0.103000  0.104500  0.892300  1.0  0.0984
  H  H119  1  0.044100  0.028000  0.846200  1.0  0.1274
  H  H120  1  0.040200  0.187400  0.712500  1.0  0.1282
  H  H121  1  0.098800  0.265100  0.760100  1.0  0.108
  H  H122  1  0.273600  0.966400  0.911800  1.0  0.1098
  H  H123  1  0.250600  0.841500  0.950500  1.0  0.1229
  H  H124  1  0.158400  0.960200  0.046700  1.0  0.135
  H  H125  1  0.182400  0.085500  0.009900  1.0  0.1079
  H  H126  1  0.278400  0.849000  0.188000  1.0  0.1026
  H  H127  1  0.254900  0.888100  0.094100  1.0  0.1114
  H  H128  1  0.158200  0.707800  0.089100  1.0  0.1164
  H  H129  1  0.181800  0.669800  0.183200  1.0  0.1074
  H  H130  1  0.762700  0.857900  0.918700  1.0  0.4292
  H  H131  1  0.663300  0.116900  0.935100  1.0  0.0994
  H  H132  1  0.614500  0.217000  0.971400  1.0  0.1263
  H  H133  1  0.547800  0.043300  0.059500  1.0  0.1312
  H  H134  1  0.597900  0.944100  0.024500  1.0  0.0923
  H  H135  1  0.443100  0.170200  0.890600  1.0  0.1058
  H  H136  1  0.517400  0.151900  0.933800  1.0  0.1125
  H  H137  1  0.476500  0.265900  0.077800  1.0  0.1148
  H  H138  1  0.402000  0.280200  0.035800  1.0  0.0869
  H  H139  1  0.603000  0.604500  0.892300  1.0  0.0984
  H  H140  1  0.544100  0.528000  0.846200  1.0  0.1274
  H  H141  1  0.540200  0.687400  0.712500  1.0  0.1282
  H  H142  1  0.598800  0.765100  0.760100  1.0  0.108
  H  H143  1  0.773600  0.466400  0.911800  1.0  0.1098
  H  H144  1  0.750600  0.341500  0.950500  1.0  0.1229
  H  H145  1  0.658400  0.460200  0.046700  1.0  0.135
  H  H146  1  0.682400  0.585500  0.009900  1.0  0.1079
  H  H147  1  0.778400  0.349000  0.188000  1.0  0.1026
  H  H148  1  0.754900  0.388100  0.094100  1.0  0.1114
  H  H149  1  0.658200  0.207800  0.089100  1.0  0.1164
  H  H150  1  0.681800  0.169800  0.183200  1.0  0.1074
  H  H151  1  0.737300  0.357900  0.581300  1.0  0.4281
  H  H152  1  0.836700  0.616900  0.564900  1.0  0.0991
  H  H153  1  0.885500  0.717000  0.528600  1.0  0.1265
  H  H154  1  0.952200  0.543300  0.440500  1.0  0.131
  H  H155  1  0.902100  0.444100  0.475500  1.0  0.0919
  H  H156  1  0.056900  0.670200  0.609400  1.0  0.106
  H  H157  1  0.982600  0.651900  0.566200  1.0  0.1125
  H  H158  1  0.023500  0.765900  0.422200  1.0  0.115
  H  H159  1  0.098000  0.780200  0.464200  1.0  0.0867
  H  H160  1  0.897000  0.104500  0.607700  1.0  0.0988
  H  H161  1  0.955900  0.028000  0.653800  1.0  0.1269
  H  H162  1  0.959800  0.187400  0.787500  1.0  0.1263
  H  H163  1  0.901200  0.265100  0.739900  1.0  0.108
  H  H164  1  0.726400  0.966400  0.588200  1.0  0.1094
  H  H165  1  0.749400  0.841500  0.549500  1.0  0.1223
  H  H166  1  0.841600  0.960200  0.453300  1.0  0.135
  H  H167  1  0.817600  0.085500  0.490100  1.0  0.1085
  H  H168  1  0.721600  0.849000  0.312000  1.0  0.1028
  H  H169  1  0.745100  0.888100  0.405900  1.0  0.1115
  H  H170  1  0.841800  0.707800  0.410900  1.0  0.1165
  H  H171  1  0.818200  0.669800  0.316800  1.0  0.1075
  H  H172  1  0.237300  0.857900  0.581300  1.0  0.4279
  H  H173  1  0.336700  0.116900  0.564900  1.0  0.0991
  H  H174  1  0.385500  0.217000  0.528600  1.0  0.1265
  H  H175  1  0.452200  0.043300  0.440500  1.0  0.131
  H  H176  1  0.402100  0.944100  0.475500  1.0  0.0919
  H  H177  1  0.556900  0.170200  0.609400  1.0  0.106
  H  H178  1  0.482600  0.151900  0.566200  1.0  0.1125
  H  H179  1  0.523500  0.265900  0.422200  1.0  0.115
  H  H180  1  0.598000  0.280200  0.464200  1.0  0.0867
  H  H181  1  0.397000  0.604500  0.607700  1.0  0.0988
  H  H182  1  0.455900  0.528000  0.653800  1.0  0.1269
  H  H183  1  0.459800  0.687400  0.787500  1.0  0.1263
  H  H184  1  0.401200  0.765100  0.739900  1.0  0.108
  H  H185  1  0.226400  0.466400  0.588200  1.0  0.1094
  H  H186  1  0.249400  0.341500  0.549500  1.0  0.1223
  H  H187  1  0.341600  0.460200  0.453300  1.0  0.135
  H  H188  1  0.317600  0.585500  0.490100  1.0  0.1085
  H  H189  1  0.221600  0.349000  0.312000  1.0  0.1028
  H  H190  1  0.245100  0.388100  0.405900  1.0  0.1115
  H  H191  1  0.341800  0.207800  0.410900  1.0  0.1165
  H  H192  1  0.318200  0.169800  0.316800  1.0  0.1075
  C  C193  1  0.835980  0.544600  0.050090  1.0  0.677
  C  C194  1  0.865260  0.479200  0.024740  1.0  -0.126
  C  C195  1  0.860210  0.398300  0.039740  1.0  -0.0358
  C  C196  1  0.889250  0.338700  0.018500  1.0  -0.2005
  C  C197  1  0.923510  0.361700  0.982600  1.0  0.2565
  C  C198  1  0.928780  0.441800  0.965900  1.0  -0.1845
  C  C199  1  0.899120  0.500600  0.987000  1.0  -0.0168
  C  C200  1  0.133060  0.266200  0.066660  1.0  0.6696
  C  C201  1  0.085420  0.274000  0.040600  1.0  -0.1714
  C  C202  1  0.050300  0.311500  0.071000  1.0  -0.0822
  C  C203  1  0.006080  0.322000  0.045600  1.0  -0.1098
  C  C204  1  0.996350  0.294300  0.990000  1.0  0.2515
  C  C205  1  0.030520  0.254800  0.959900  1.0  -0.1545
  C  C206  1  0.074670  0.245700  0.985100  1.0  -0.0274
  C  C207  1  0.858210  0.753700  0.136980  1.0  0.7178
  C  C208  1  0.894670  0.805900  0.168000  1.0  -0.1477
  C  C209  1  0.910430  0.877700  0.143790  1.0  -0.0468
  C  C210  1  0.945130  0.923500  0.171100  1.0  -0.1587
  C  C211  1  0.964060  0.897600  0.224100  1.0  0.2467
  C  C212  1  0.947510  0.828600  0.250400  1.0  -0.174
  C  C213  1  0.912690  0.782500  0.222100  1.0  -0.0377
  C  C214  1  0.750970  0.881000  0.059630  1.0  0.7091
  C  C215  1  0.768550  0.962200  0.041500  1.0  -0.1333
  C  C216  1  0.749130  0.034700  0.059970  1.0  -0.0418
  C  C217  1  0.762780  0.108800  0.037300  1.0  -0.184
  C  C218  1  0.796420  0.108800  0.996590  1.0  0.2424
  C  C219  1  0.817580  0.038000  0.979800  1.0  -0.1901
  C  C220  1  0.803530  0.963900  0.001860  1.0  -0.0795
  C  C221  1  0.754310  0.267800  0.743590  1.0  0.7221
  C  C222  1  0.767580  0.243600  0.804840  1.0  -0.1335
  C  C223  1  0.746110  0.179600  0.831990  1.0  -0.0433
  C  C224  1  0.759810  0.156400  0.887910  1.0  -0.0962
  C  C225  1  0.795170  0.199200  0.916900  1.0  0.2735
  C  C226  1  0.817320  0.263700  0.890700  1.0  -0.1655
  C  C227  1  0.803350  0.285900  0.834820  1.0  -0.0304
  C  C228  1  0.335980  0.044600  0.050090  1.0  0.677
  C  C229  1  0.365260  0.979200  0.024740  1.0  -0.126
  C  C230  1  0.360210  0.898300  0.039740  1.0  -0.0358
  C  C231  1  0.389250  0.838700  0.018500  1.0  -0.2005
  C  C232  1  0.423510  0.861700  0.982600  1.0  0.2565
  C  C233  1  0.428780  0.941800  0.965900  1.0  -0.1845
  C  C234  1  0.399120  0.000600  0.987000  1.0  -0.0168
  C  C235  1  0.633060  0.766200  0.066660  1.0  0.6696
  C  C236  1  0.585420  0.774000  0.040600  1.0  -0.1714
  C  C237  1  0.550300  0.811500  0.071000  1.0  -0.0822
  C  C238  1  0.506080  0.822000  0.045600  1.0  -0.1098
  C  C239  1  0.496350  0.794300  0.990000  1.0  0.2515
  C  C240  1  0.530520  0.754800  0.959900  1.0  -0.1545
  C  C241  1  0.574670  0.745700  0.985100  1.0  -0.0274
  C  C242  1  0.358210  0.253700  0.136980  1.0  0.7178
  C  C243  1  0.394670  0.305900  0.168000  1.0  -0.1477
  C  C244  1  0.410430  0.377700  0.143790  1.0  -0.0468
  C  C245  1  0.445130  0.423500  0.171100  1.0  -0.1587
  C  C246  1  0.464060  0.397600  0.224100  1.0  0.2467
  C  C247  1  0.447510  0.328600  0.250400  1.0  -0.174
  C  C248  1  0.412690  0.282500  0.222100  1.0  -0.0377
  C  C249  1  0.250970  0.381000  0.059630  1.0  0.7091
  C  C250  1  0.268550  0.462200  0.041500  1.0  -0.1333
  C  C251  1  0.249130  0.534700  0.059970  1.0  -0.0418
  C  C252  1  0.262780  0.608800  0.037300  1.0  -0.184
  C  C253  1  0.296420  0.608800  0.996590  1.0  0.2424
  C  C254  1  0.317580  0.538000  0.979800  1.0  -0.1901
  C  C255  1  0.303530  0.463900  0.001860  1.0  -0.0795
  C  C256  1  0.254310  0.767800  0.743590  1.0  0.7221
  C  C257  1  0.267580  0.743600  0.804840  1.0  -0.1335
  C  C258  1  0.246110  0.679600  0.831990  1.0  -0.0433
  C  C259  1  0.259810  0.656400  0.887910  1.0  -0.0962
  C  C260  1  0.295170  0.699200  0.916900  1.0  0.2735
  C  C261  1  0.317320  0.763700  0.890700  1.0  -0.1655
  C  C262  1  0.303350  0.785900  0.834820  1.0  -0.0304
  C  C263  1  0.164020  0.544600  0.449910  1.0  0.6782
  C  C264  1  0.134740  0.479200  0.475260  1.0  -0.1257
  C  C265  1  0.139790  0.398300  0.460260  1.0  -0.0352
  C  C266  1  0.110750  0.338700  0.481500  1.0  -0.201
  C  C267  1  0.076490  0.361700  0.517400  1.0  0.2549
  C  C268  1  0.071220  0.441800  0.534100  1.0  -0.1869
  C  C269  1  0.100880  0.500600  0.513000  1.0  -0.0165
  C  C270  1  0.866940  0.266200  0.433340  1.0  0.6686
  C  C271  1  0.914580  0.274000  0.459400  1.0  -0.1699
  C  C272  1  0.949700  0.311500  0.429000  1.0  -0.0814
  C  C273  1  0.993920  0.322000  0.454400  1.0  -0.107
  C  C274  1  0.003650  0.294300  0.510000  1.0  0.2508
  C  C275  1  0.969480  0.254800  0.540100  1.0  -0.1563
  C  C276  1  0.925330  0.245700  0.514900  1.0  -0.0262
  C  C277  1  0.141790  0.753700  0.363020  1.0  0.7157
  C  C278  1  0.105330  0.805900  0.332000  1.0  -0.1472
  C  C279  1  0.089570  0.877700  0.356210  1.0  -0.0468
  C  C280  1  0.054870  0.923500  0.328900  1.0  -0.16
  C  C281  1  0.035940  0.897600  0.275900  1.0  0.2472
  C  C282  1  0.052490  0.828600  0.249600  1.0  -0.1734
  C  C283  1  0.087310  0.782500  0.277900  1.0  -0.0376
  C  C284  1  0.249030  0.881000  0.440370  1.0  0.7089
  C  C285  1  0.231450  0.962200  0.458500  1.0  -0.1331
  C  C286  1  0.250870  0.034700  0.440030  1.0  -0.0406
  C  C287  1  0.237220  0.108800  0.462700  1.0  -0.183
  C  C288  1  0.203580  0.108800  0.503410  1.0  0.2431
  C  C289  1  0.182420  0.038000  0.520200  1.0  -0.1923
  C  C290  1  0.196470  0.963900  0.498140  1.0  -0.0792
  C  C291  1  0.245690  0.267800  0.756410  1.0  0.7243
  C  C292  1  0.232420  0.243600  0.695160  1.0  -0.1347
  C  C293  1  0.253890  0.179600  0.668010  1.0  -0.0444
  C  C294  1  0.240190  0.156400  0.612090  1.0  -0.0968
  C  C295  1  0.204830  0.199200  0.583100  1.0  0.2725
  C  C296  1  0.182680  0.263700  0.609300  1.0  -0.1698
  C  C297  1  0.196650  0.285900  0.665180  1.0  -0.0314
  C  C298  1  0.664020  0.044600  0.449910  1.0  0.6782
  C  C299  1  0.634740  0.979200  0.475260  1.0  -0.1257
  C  C300  1  0.639790  0.898300  0.460260  1.0  -0.0352
  C  C301  1  0.610750  0.838700  0.481500  1.0  -0.201
  C  C302  1  0.576490  0.861700  0.517400  1.0  0.2549
  C  C303  1  0.571220  0.941800  0.534100  1.0  -0.1869
  C  C304  1  0.600880  0.000600  0.513000  1.0  -0.0165
  C  C305  1  0.366940  0.766200  0.433340  1.0  0.6686
  C  C306  1  0.414580  0.774000  0.459400  1.0  -0.1699
  C  C307  1  0.449700  0.811500  0.429000  1.0  -0.0814
  C  C308  1  0.493920  0.822000  0.454400  1.0  -0.107
  C  C309  1  0.503650  0.794300  0.510000  1.0  0.2508
  C  C310  1  0.469480  0.754800  0.540100  1.0  -0.1563
  C  C311  1  0.425330  0.745700  0.514900  1.0  -0.0262
  C  C312  1  0.641790  0.253700  0.363020  1.0  0.7157
  C  C313  1  0.605330  0.305900  0.332000  1.0  -0.1472
  C  C314  1  0.589570  0.377700  0.356210  1.0  -0.0468
  C  C315  1  0.554870  0.423500  0.328900  1.0  -0.16
  C  C316  1  0.535940  0.397600  0.275900  1.0  0.2472
  C  C317  1  0.552490  0.328600  0.249600  1.0  -0.1734
  C  C318  1  0.587310  0.282500  0.277900  1.0  -0.0376
  C  C319  1  0.749030  0.381000  0.440370  1.0  0.7089
  C  C320  1  0.731450  0.462200  0.458500  1.0  -0.1331
  C  C321  1  0.750870  0.534700  0.440030  1.0  -0.0406
  C  C322  1  0.737220  0.608800  0.462700  1.0  -0.183
  C  C323  1  0.703580  0.608800  0.503410  1.0  0.2431
  C  C324  1  0.682420  0.538000  0.520200  1.0  -0.1923
  C  C325  1  0.696470  0.463900  0.498140  1.0  -0.0792
  C  C326  1  0.745690  0.767800  0.756410  1.0  0.7243
  C  C327  1  0.732420  0.743600  0.695160  1.0  -0.1347
  C  C328  1  0.753890  0.679600  0.668010  1.0  -0.0444
  C  C329  1  0.740190  0.656400  0.612090  1.0  -0.0968
  C  C330  1  0.704830  0.699200  0.583100  1.0  0.2725
  C  C331  1  0.682680  0.763700  0.609300  1.0  -0.1698
  C  C332  1  0.696650  0.785900  0.665180  1.0  -0.0314
  C  C333  1  0.164020  0.455400  0.949910  1.0  0.6776
  C  C334  1  0.134740  0.520800  0.975260  1.0  -0.1267
  C  C335  1  0.139790  0.601700  0.960260  1.0  -0.0357
  C  C336  1  0.110750  0.661300  0.981500  1.0  -0.2009
  C  C337  1  0.076490  0.638300  0.017400  1.0  0.255
  C  C338  1  0.071220  0.558200  0.034100  1.0  -0.1867
  C  C339  1  0.100880  0.499400  0.013000  1.0  -0.0164
  C  C340  1  0.866940  0.733800  0.933340  1.0  0.6684
  C  C341  1  0.914580  0.726000  0.959400  1.0  -0.1672
  C  C342  1  0.949700  0.688500  0.929000  1.0  -0.0813
  C  C343  1  0.993920  0.678000  0.954400  1.0  -0.1069
  C  C344  1  0.003650  0.705700  0.010000  1.0  0.2509
  C  C345  1  0.969480  0.745200  0.040100  1.0  -0.1566
  C  C346  1  0.925330  0.754300  0.014900  1.0  -0.0257
  C  C347  1  0.141790  0.246300  0.863020  1.0  0.7161
  C  C348  1  0.105330  0.194100  0.832000  1.0  -0.1472
  C  C349  1  0.089570  0.122300  0.856210  1.0  -0.047
  C  C350  1  0.054870  0.076500  0.828900  1.0  -0.1587
  C  C351  1  0.035940  0.102400  0.775900  1.0  0.2457
  C  C352  1  0.052490  0.171400  0.749600  1.0  -0.1736
  C  C353  1  0.087310  0.217500  0.777900  1.0  -0.0389
  C  C354  1  0.249030  0.119000  0.940370  1.0  0.7086
  C  C355  1  0.231450  0.037800  0.958500  1.0  -0.1315
  C  C356  1  0.250870  0.965300  0.940030  1.0  -0.0403
  C  C357  1  0.237220  0.891200  0.962700  1.0  -0.1818
  C  C358  1  0.203580  0.891200  0.003410  1.0  0.2436
  C  C359  1  0.182420  0.962000  0.020200  1.0  -0.1924
  C  C360  1  0.196470  0.036100  0.998140  1.0  -0.0792
  C  C361  1  0.245690  0.732200  0.256410  1.0  0.7247
  C  C362  1  0.232420  0.756400  0.195160  1.0  -0.1347
  C  C363  1  0.253890  0.820400  0.168010  1.0  -0.0438
  C  C364  1  0.240190  0.843600  0.112090  1.0  -0.0969
  C  C365  1  0.204830  0.800800  0.083100  1.0  0.2729
  C  C366  1  0.182680  0.736300  0.109300  1.0  -0.17
  C  C367  1  0.196650  0.714100  0.165180  1.0  -0.0297
  C  C368  1  0.664020  0.955400  0.949910  1.0  0.6776
  C  C369  1  0.634740  0.020800  0.975260  1.0  -0.1267
  C  C370  1  0.639790  0.101700  0.960260  1.0  -0.0357
  C  C371  1  0.610750  0.161300  0.981500  1.0  -0.2009
  C  C372  1  0.576490  0.138300  0.017400  1.0  0.255
  C  C373  1  0.571220  0.058200  0.034100  1.0  -0.1867
  C  C374  1  0.600880  0.999400  0.013000  1.0  -0.0164
  C  C375  1  0.366940  0.233800  0.933340  1.0  0.6684
  C  C376  1  0.414580  0.226000  0.959400  1.0  -0.1672
  C  C377  1  0.449700  0.188500  0.929000  1.0  -0.0813
  C  C378  1  0.493920  0.178000  0.954400  1.0  -0.1069
  C  C379  1  0.503650  0.205700  0.010000  1.0  0.2509
  C  C380  1  0.469480  0.245200  0.040100  1.0  -0.1566
  C  C381  1  0.425330  0.254300  0.014900  1.0  -0.0257
  C  C382  1  0.641790  0.746300  0.863020  1.0  0.7161
  C  C383  1  0.605330  0.694100  0.832000  1.0  -0.1472
  C  C384  1  0.589570  0.622300  0.856210  1.0  -0.047
  C  C385  1  0.554870  0.576500  0.828900  1.0  -0.1587
  C  C386  1  0.535940  0.602400  0.775900  1.0  0.2457
  C  C387  1  0.552490  0.671400  0.749600  1.0  -0.1736
  C  C388  1  0.587310  0.717500  0.777900  1.0  -0.0389
  C  C389  1  0.749030  0.619000  0.940370  1.0  0.7086
  C  C390  1  0.731450  0.537800  0.958500  1.0  -0.1315
  C  C391  1  0.750870  0.465300  0.940030  1.0  -0.0403
  C  C392  1  0.737220  0.391200  0.962700  1.0  -0.1818
  C  C393  1  0.703580  0.391200  0.003410  1.0  0.2436
  C  C394  1  0.682420  0.462000  0.020200  1.0  -0.1924
  C  C395  1  0.696470  0.536100  0.998140  1.0  -0.0792
  C  C396  1  0.745690  0.232200  0.256410  1.0  0.7247
  C  C397  1  0.732420  0.256400  0.195160  1.0  -0.1347
  C  C398  1  0.753890  0.320400  0.168010  1.0  -0.0438
  C  C399  1  0.740190  0.343600  0.112090  1.0  -0.0969
  C  C400  1  0.704830  0.300800  0.083100  1.0  0.2729
  C  C401  1  0.682680  0.236300  0.109300  1.0  -0.17
  C  C402  1  0.696650  0.214100  0.165180  1.0  -0.0297
  C  C403  1  0.835980  0.455400  0.550090  1.0  0.6767
  C  C404  1  0.865260  0.520800  0.524740  1.0  -0.1261
  C  C405  1  0.860210  0.601700  0.539740  1.0  -0.0362
  C  C406  1  0.889250  0.661300  0.518500  1.0  -0.2014
  C  C407  1  0.923510  0.638300  0.482600  1.0  0.2574
  C  C408  1  0.928780  0.558200  0.465900  1.0  -0.1844
  C  C409  1  0.899120  0.499400  0.487000  1.0  -0.0169
  C  C410  1  0.133060  0.733800  0.566660  1.0  0.6692
  C  C411  1  0.085420  0.726000  0.540600  1.0  -0.1727
  C  C412  1  0.050300  0.688500  0.571000  1.0  -0.0822
  C  C413  1  0.006080  0.678000  0.545600  1.0  -0.1098
  C  C414  1  0.996350  0.705700  0.490000  1.0  0.2526
  C  C415  1  0.030520  0.745200  0.459900  1.0  -0.1541
  C  C416  1  0.074670  0.754300  0.485100  1.0  -0.027
  C  C417  1  0.858210  0.246300  0.636980  1.0  0.7178
  C  C418  1  0.894670  0.194100  0.668000  1.0  -0.1477
  C  C419  1  0.910430  0.122300  0.643790  1.0  -0.0481
  C  C420  1  0.945130  0.076500  0.671100  1.0  -0.1597
  C  C421  1  0.964060  0.102400  0.724100  1.0  0.2455
  C  C422  1  0.947510  0.171400  0.750400  1.0  -0.1739
  C  C423  1  0.912690  0.217500  0.722100  1.0  -0.0383
  C  C424  1  0.750970  0.119000  0.559630  1.0  0.7093
  C  C425  1  0.768550  0.037800  0.541500  1.0  -0.134
  C  C426  1  0.749130  0.965300  0.559970  1.0  -0.0417
  C  C427  1  0.762780  0.891200  0.537300  1.0  -0.1831
  C  C428  1  0.796420  0.891200  0.496590  1.0  0.2434
  C  C429  1  0.817580  0.962000  0.479800  1.0  -0.1902
  C  C430  1  0.803530  0.036100  0.501860  1.0  -0.0793
  C  C431  1  0.754310  0.732200  0.243590  1.0  0.7222
  C  C432  1  0.767580  0.756400  0.304840  1.0  -0.1338
  C  C433  1  0.746110  0.820400  0.331990  1.0  -0.0435
  C  C434  1  0.759810  0.843600  0.387910  1.0  -0.0964
  C  C435  1  0.795170  0.800800  0.416900  1.0  0.2733
  C  C436  1  0.817320  0.736300  0.390700  1.0  -0.1656
  C  C437  1  0.803350  0.714100  0.334820  1.0  -0.0301
  C  C438  1  0.335980  0.955400  0.550090  1.0  0.6767
  C  C439  1  0.365260  0.020800  0.524740  1.0  -0.1261
  C  C440  1  0.360210  0.101700  0.539740  1.0  -0.0362
  C  C441  1  0.389250  0.161300  0.518500  1.0  -0.2014
  C  C442  1  0.423510  0.138300  0.482600  1.0  0.2574
  C  C443  1  0.428780  0.058200  0.465900  1.0  -0.1844
  C  C444  1  0.399120  0.999400  0.487000  1.0  -0.0169
  C  C445  1  0.633060  0.233800  0.566660  1.0  0.6692
  C  C446  1  0.585420  0.226000  0.540600  1.0  -0.1727
  C  C447  1  0.550300  0.188500  0.571000  1.0  -0.0822
  C  C448  1  0.506080  0.178000  0.545600  1.0  -0.1098
  C  C449  1  0.496350  0.205700  0.490000  1.0  0.2526
  C  C450  1  0.530520  0.245200  0.459900  1.0  -0.1541
  C  C451  1  0.574670  0.254300  0.485100  1.0  -0.027
  C  C452  1  0.358210  0.746300  0.636980  1.0  0.7178
  C  C453  1  0.394670  0.694100  0.668000  1.0  -0.1477
  C  C454  1  0.410430  0.622300  0.643790  1.0  -0.0481
  C  C455  1  0.445130  0.576500  0.671100  1.0  -0.1597
  C  C456  1  0.464060  0.602400  0.724100  1.0  0.2455
  C  C457  1  0.447510  0.671400  0.750400  1.0  -0.1739
  C  C458  1  0.412690  0.717500  0.722100  1.0  -0.0383
  C  C459  1  0.250970  0.619000  0.559630  1.0  0.7093
  C  C460  1  0.268550  0.537800  0.541500  1.0  -0.134
  C  C461  1  0.249130  0.465300  0.559970  1.0  -0.0417
  C  C462  1  0.262780  0.391200  0.537300  1.0  -0.1831
  C  C463  1  0.296420  0.391200  0.496590  1.0  0.2434
  C  C464  1  0.317580  0.462000  0.479800  1.0  -0.1902
  C  C465  1  0.303530  0.536100  0.501860  1.0  -0.0793
  C  C466  1  0.254310  0.232200  0.243590  1.0  0.7222
  C  C467  1  0.267580  0.256400  0.304840  1.0  -0.1338
  C  C468  1  0.246110  0.320400  0.331990  1.0  -0.0435
  C  C469  1  0.259810  0.343600  0.387910  1.0  -0.0964
  C  C470  1  0.295170  0.300800  0.416900  1.0  0.2733
  C  C471  1  0.317320  0.236300  0.390700  1.0  -0.1656
  C  C472  1  0.303350  0.214100  0.334820  1.0  -0.0301
  O  O473  1  0.835540  0.613500  0.025500  1.0  -0.6038
  O  O474  1  0.814820  0.525970  0.094620  1.0  -0.5982
  O  O475  1  0.953390  0.302300  0.961410  1.0  -0.2951
  O  O476  1  0.166220  0.238880  0.037740  1.0  -0.6546
  O  O477  1  0.140360  0.285900  0.119150  1.0  -0.592
  O  O478  1  0.837780  0.784280  0.093160  1.0  -0.5717
  O  O479  1  0.852300  0.683660  0.156870  1.0  -0.6302
  O  O480  1  0.755950  0.822990  0.023970  1.0  -0.7056
  O  O481  1  0.732080  0.872130  0.106980  1.0  -0.583
  O  O482  1  0.810550  0.183400  0.973650  1.0  -0.2655
  O  O483  1  0.727080  0.222100  0.713800  1.0  -0.5911
  O  O484  1  0.772260  0.332100  0.726450  1.0  -0.6751
  O  O485  1  0.755270  0.676010  0.098840  1.0  -0.96
  O  O486  1  0.335540  0.113500  0.025500  1.0  -0.6038
  O  O487  1  0.314820  0.025970  0.094620  1.0  -0.5982
  O  O488  1  0.453390  0.802300  0.961410  1.0  -0.2951
  O  O489  1  0.666220  0.738880  0.037740  1.0  -0.6546
  O  O490  1  0.640360  0.785900  0.119150  1.0  -0.5914
  O  O491  1  0.337780  0.284280  0.093160  1.0  -0.5717
  O  O492  1  0.352300  0.183660  0.156870  1.0  -0.6302
  O  O493  1  0.255950  0.322990  0.023970  1.0  -0.7056
  O  O494  1  0.232080  0.372130  0.106980  1.0  -0.583
  O  O495  1  0.310550  0.683400  0.973650  1.0  -0.2655
  O  O496  1  0.227080  0.722100  0.713800  1.0  -0.5911
  O  O497  1  0.272260  0.832100  0.726450  1.0  -0.6751
  O  O498  1  0.255270  0.176010  0.098840  1.0  -0.96
  O  O499  1  0.164460  0.613500  0.474500  1.0  -0.6042
  O  O500  1  0.185180  0.525970  0.405380  1.0  -0.6002
  O  O501  1  0.046610  0.302300  0.538590  1.0  -0.2945
  O  O502  1  0.833780  0.238880  0.462260  1.0  -0.656
  O  O503  1  0.859640  0.285900  0.380850  1.0  -0.5947
  O  O504  1  0.162220  0.784280  0.406840  1.0  -0.5727
  O  O505  1  0.147700  0.683660  0.343130  1.0  -0.63
  O  O506  1  0.244050  0.822990  0.476030  1.0  -0.7051
  O  O507  1  0.267920  0.872130  0.393020  1.0  -0.5817
  O  O508  1  0.189450  0.183400  0.526350  1.0  -0.2676
  O  O509  1  0.272920  0.222100  0.786200  1.0  -0.5902
  O  O510  1  0.227740  0.332100  0.773550  1.0  -0.6736
  O  O511  1  0.244730  0.676010  0.401160  1.0  -0.958
  O  O512  1  0.664460  0.113500  0.474500  1.0  -0.6042
  O  O513  1  0.685180  0.025970  0.405380  1.0  -0.6002
  O  O514  1  0.546610  0.802300  0.538590  1.0  -0.2945
  O  O515  1  0.333780  0.738880  0.462260  1.0  -0.656
  O  O516  1  0.359640  0.785900  0.380850  1.0  -0.594
  O  O517  1  0.662220  0.284280  0.406840  1.0  -0.5727
  O  O518  1  0.647700  0.183660  0.343130  1.0  -0.63
  O  O519  1  0.744050  0.322990  0.476030  1.0  -0.7051
  O  O520  1  0.767920  0.372130  0.393020  1.0  -0.5817
  O  O521  1  0.689450  0.683400  0.526350  1.0  -0.2676
  O  O522  1  0.772920  0.722100  0.786200  1.0  -0.5902
  O  O523  1  0.727740  0.832100  0.773550  1.0  -0.6736
  O  O524  1  0.744730  0.176010  0.401160  1.0  -0.958
  O  O525  1  0.164460  0.386500  0.974500  1.0  -0.6037
  O  O526  1  0.185180  0.474030  0.905380  1.0  -0.6003
  O  O527  1  0.046610  0.697700  0.038590  1.0  -0.2946
  O  O528  1  0.833780  0.761120  0.962260  1.0  -0.6554
  O  O529  1  0.859640  0.714100  0.880850  1.0  -0.5936
  O  O530  1  0.162220  0.215720  0.906840  1.0  -0.573
  O  O531  1  0.147700  0.316340  0.843130  1.0  -0.6297
  O  O532  1  0.244050  0.177010  0.976030  1.0  -0.705
  O  O533  1  0.267920  0.127870  0.893020  1.0  -0.5795
  O  O534  1  0.189450  0.816600  0.026350  1.0  -0.269
  O  O535  1  0.272920  0.777900  0.286200  1.0  -0.5909
  O  O536  1  0.227740  0.667900  0.273550  1.0  -0.6705
  O  O537  1  0.244730  0.323990  0.901160  1.0  -0.9579
  O  O538  1  0.664460  0.886500  0.974500  1.0  -0.6037
  O  O539  1  0.685180  0.974030  0.905380  1.0  -0.6003
  O  O540  1  0.546610  0.197700  0.038590  1.0  -0.2946
  O  O541  1  0.333780  0.261120  0.962260  1.0  -0.6554
  O  O542  1  0.359640  0.214100  0.880850  1.0  -0.5946
  O  O543  1  0.662220  0.715720  0.906840  1.0  -0.573
  O  O544  1  0.647700  0.816340  0.843130  1.0  -0.6297
  O  O545  1  0.744050  0.677010  0.976030  1.0  -0.705
  O  O546  1  0.767920  0.627870  0.893020  1.0  -0.5799
  O  O547  1  0.689450  0.316600  0.026350  1.0  -0.269
  O  O548  1  0.772920  0.277900  0.286200  1.0  -0.5909
  O  O549  1  0.727740  0.167900  0.273550  1.0  -0.6705
  O  O550  1  0.744730  0.823990  0.901160  1.0  -0.9579
  O  O551  1  0.835540  0.386500  0.525500  1.0  -0.603
  O  O552  1  0.814820  0.474030  0.594620  1.0  -0.5979
  O  O553  1  0.953390  0.697700  0.461410  1.0  -0.2942
  O  O554  1  0.166220  0.761120  0.537740  1.0  -0.6544
  O  O555  1  0.140360  0.714100  0.619150  1.0  -0.5913
  O  O556  1  0.837780  0.215720  0.593160  1.0  -0.5719
  O  O557  1  0.852300  0.316340  0.656870  1.0  -0.6286
  O  O558  1  0.755950  0.177010  0.523970  1.0  -0.7053
  O  O559  1  0.732080  0.127870  0.606980  1.0  -0.5825
  O  O560  1  0.810550  0.816600  0.473650  1.0  -0.2662
  O  O561  1  0.727080  0.777900  0.213800  1.0  -0.5908
  O  O562  1  0.772260  0.667900  0.226450  1.0  -0.6709
  O  O563  1  0.755270  0.323990  0.598840  1.0  -0.9595
  O  O564  1  0.335540  0.886500  0.525500  1.0  -0.603
  O  O565  1  0.314820  0.974030  0.594620  1.0  -0.5979
  O  O566  1  0.453390  0.197700  0.461410  1.0  -0.2942
  O  O567  1  0.666220  0.261120  0.537740  1.0  -0.6544
  O  O568  1  0.640360  0.214100  0.619150  1.0  -0.5919
  O  O569  1  0.337780  0.715720  0.593160  1.0  -0.5719
  O  O570  1  0.352300  0.816340  0.656870  1.0  -0.6286
  O  O571  1  0.255950  0.677010  0.523970  1.0  -0.7053
  O  O572  1  0.232080  0.627870  0.606980  1.0  -0.583
  O  O573  1  0.310550  0.316600  0.473650  1.0  -0.2662
  O  O574  1  0.227080  0.277900  0.213800  1.0  -0.5908
  O  O575  1  0.272260  0.167900  0.226450  1.0  -0.6709
  O  O576  1  0.255270  0.823990  0.598840  1.0  -0.9595
  O  O577  1  0.000000  0.943300  0.250000  1.0  -0.2672
  O  O578  1  0.500000  0.443300  0.250000  1.0  -0.2672
  O  O579  1  0.000000  0.056700  0.750000  1.0  -0.2695
  O  O580  1  0.500000  0.556700  0.750000  1.0  -0.2695
