# generated using pymatgen
data_EuH8C16N5O6
_symmetry_space_group_name_H-M   'P 1'
_cell_length_a   10.41570000
_cell_length_b   11.21760000
_cell_length_c   11.80600000
_cell_angle_alpha   93.29800000
_cell_angle_beta   109.63500000
_cell_angle_gamma   106.94900000
_symmetry_Int_Tables_number   1
_chemical_formula_structural   EuH8C16N5O6
_chemical_formula_sum   'Eu2 H16 C32 N10 O12'
_cell_volume   1224.11525649
_cell_formula_units_Z   2
loop_
 _symmetry_equiv_pos_site_id
 _symmetry_equiv_pos_as_xyz
  1  'x, y, z'
loop_
 _atom_site_type_symbol
 _atom_site_label
 _atom_site_symmetry_multiplicity
 _atom_site_fract_x
 _atom_site_fract_y
 _atom_site_fract_z
 _atom_site_occupancy
 _atom_site_charge
  Eu  Eu1  1  0.392720  0.465380  0.817180  1.0  2.1557
  Eu  Eu2  1  0.607280  0.534620  0.182820  1.0  2.1564
  H  H3  1  0.221700  0.096500  0.487100  1.0  0.1229
  H  H4  1  0.930900  0.627500  0.111000  1.0  0.1262
  H  H5  1  0.488300  0.886300  0.825900  1.0  0.1319
  H  H6  1  0.311700  0.695300  0.612500  1.0  0.128
  H  H7  1  0.574500  0.515100  0.608400  1.0  0.1409
  H  H8  1  0.480300  0.821200  0.385900  1.0  0.1696
  H  H9  1  0.462100  0.901000  0.489400  1.0  0.1504
  H  H10  1  0.325800  0.804200  0.386700  1.0  0.1565
  H  H11  1  0.778300  0.903500  0.512900  1.0  0.1233
  H  H12  1  0.069100  0.372500  0.889000  1.0  0.1268
  H  H13  1  0.511700  0.113700  0.174100  1.0  0.131
  H  H14  1  0.688300  0.304700  0.387500  1.0  0.1275
  H  H15  1  0.425500  0.484900  0.391600  1.0  0.1404
  H  H16  1  0.519700  0.178800  0.614100  1.0  0.1699
  H  H17  1  0.537900  0.099000  0.510600  1.0  0.1509
  H  H18  1  0.674200  0.195800  0.613300  1.0  0.1578
  C  C19  1  0.194800  0.239900  0.650200  1.0  0.7521
  C  C20  1  0.092400  0.116400  0.575300  1.0  -0.1316
  C  C21  1  0.132600  0.058400  0.493100  1.0  -0.0303
  C  C22  1  0.960000  0.057900  0.581600  1.0  0.1243
  C  C23  1  0.703500  0.495200  0.921000  1.0  0.7472
  C  C24  1  0.856600  0.498800  0.960500  1.0  -0.099
  C  C25  1  0.898500  0.424200  0.893000  1.0  0.1121
  C  C26  1  0.957400  0.575100  0.065700  1.0  -0.0585
  C  C27  1  0.525300  0.750100  0.999800  1.0  0.7527
  C  C28  1  0.513100  0.879300  0.004100  1.0  -0.1352
  C  C29  1  0.490800  0.931400  0.895700  1.0  -0.0077
  C  C30  1  0.527800  0.948200  0.108000  1.0  0.1883
  C  C31  1  0.380000  0.668400  0.593800  1.0  0.134
  C  C32  1  0.437000  0.718500  0.512900  1.0  0.1562
  C  C33  1  0.521000  0.569800  0.593100  1.0  0.1614
  C  C34  1  0.425000  0.820000  0.437000  1.0  -0.3488
  C  C35  1  0.805200  0.760100  0.349800  1.0  0.7526
  C  C36  1  0.907600  0.883600  0.424700  1.0  -0.1322
  C  C37  1  0.867400  0.941600  0.506900  1.0  -0.031
  C  C38  1  0.040000  0.942100  0.418400  1.0  0.1193
  C  C39  1  0.296500  0.504800  0.079000  1.0  0.7477
  C  C40  1  0.143400  0.501200  0.039500  1.0  -0.0988
  C  C41  1  0.101500  0.575800  0.107000  1.0  0.109
  C  C42  1  0.042600  0.424900  0.934300  1.0  -0.0575
  C  C43  1  0.474700  0.249900  0.000200  1.0  0.7495
  C  C44  1  0.486900  0.120700  0.995900  1.0  -0.1352
  C  C45  1  0.509200  0.068600  0.104300  1.0  -0.0087
  C  C46  1  0.472200  0.051800  0.892000  1.0  0.1896
  C  C47  1  0.620000  0.331600  0.406200  1.0  0.1332
  C  C48  1  0.563000  0.281500  0.487100  1.0  0.1565
  C  C49  1  0.479000  0.430200  0.406900  1.0  0.1606
  C  C50  1  0.575000  0.180000  0.563000  1.0  -0.35
  N  N51  1  0.891000  0.132000  0.629000  1.0  -0.2486
  N  N52  1  0.794000  0.342000  0.781000  1.0  -0.3331
  N  N53  1  0.557000  0.907000  0.225000  1.0  -0.2509
  N  N54  1  0.426400  0.577200  0.646000  1.0  -0.4147
  N  N55  1  0.527400  0.652800  0.514700  1.0  -0.3037
  N  N56  1  0.109000  0.868000  0.371000  1.0  -0.2508
  N  N57  1  0.206000  0.658000  0.219000  1.0  -0.3329
  N  N58  1  0.443000  0.093000  0.775000  1.0  -0.2529
  N  N59  1  0.573600  0.422800  0.354000  1.0  -0.4154
  N  N60  1  0.472600  0.347200  0.485300  1.0  -0.3012
  O  O61  1  0.159900  0.288600  0.732300  1.0  -0.6162
  O  O62  1  0.306100  0.294100  0.638100  1.0  -0.6234
  O  O63  1  0.626100  0.467200  0.812000  1.0  -0.64
  O  O64  1  0.657900  0.524500  0.004300  1.0  -0.8091
  O  O65  1  0.491600  0.684400  0.898400  1.0  -0.6756
  O  O66  1  0.568300  0.717100  0.100900  1.0  -0.6764
  O  O67  1  0.840100  0.711400  0.267700  1.0  -0.6177
  O  O68  1  0.693900  0.705900  0.361900  1.0  -0.6234
  O  O69  1  0.373900  0.532800  0.188000  1.0  -0.6411
  O  O70  1  0.342100  0.475500  0.995700  1.0  -0.8079
  O  O71  1  0.508400  0.315600  0.101600  1.0  -0.6752
  O  O72  1  0.431700  0.282900  0.899100  1.0  -0.6779
