# generated using pymatgen
data_EuH3C14N7O6
_symmetry_space_group_name_H-M   'P 1'
_cell_length_a   10.39230000
_cell_length_b   11.29420000
_cell_length_c   12.32820000
_cell_angle_alpha   98.46400000
_cell_angle_beta   109.47800000
_cell_angle_gamma   102.78800000
_symmetry_Int_Tables_number   1
_chemical_formula_structural   EuH3C14N7O6
_chemical_formula_sum   'Eu2 H6 C28 N14 O12'
_cell_volume   1291.34021820
_cell_formula_units_Z   2
loop_
 _symmetry_equiv_pos_site_id
 _symmetry_equiv_pos_as_xyz
  1  'x, y, z'
loop_
 _atom_site_type_symbol
 _atom_site_label
 _atom_site_symmetry_multiplicity
 _atom_site_fract_x
 _atom_site_fract_y
 _atom_site_fract_z
 _atom_site_occupancy
 _atom_site_charge
  Eu  Eu1  1  0.393290  0.453840  0.825550  1.0  2.1472
  Eu  Eu2  1  0.606710  0.546160  0.174450  1.0  2.1477
  H  H3  1  0.212900  0.086200  0.484600  1.0  0.1424
  H  H4  1  0.913200  0.611900  0.117300  1.0  0.1522
  H  H5  1  0.546600  0.138500  0.173200  1.0  0.1593
  H  H6  1  0.787100  0.913800  0.515400  1.0  0.1417
  H  H7  1  0.086800  0.388100  0.882700  1.0  0.1528
  H  H8  1  0.453400  0.861500  0.826800  1.0  0.1589
  C  C9  1  0.195300  0.230700  0.664800  1.0  0.736
  C  C10  1  0.095900  0.110000  0.580000  1.0  -0.1058
  C  C11  1  0.126900  0.051600  0.491600  1.0  -0.0237
  C  C12  1  0.966500  0.058700  0.588900  1.0  0.1149
  C  C13  1  0.701100  0.481500  0.922300  1.0  0.7493
  C  C14  1  0.853700  0.489400  0.960900  1.0  -0.1324
  C  C15  1  0.906000  0.420700  0.890500  1.0  0.3181
  C  C16  1  0.948000  0.567000  0.069800  1.0  -0.0348
  C  C17  1  0.480700  0.251900  0.000600  1.0  0.7881
  C  C18  1  0.490000  0.121000  0.997400  1.0  -0.1379
  C  C19  1  0.527700  0.082200  0.102800  1.0  -0.037
  C  C20  1  0.461900  0.036700  0.893700  1.0  0.2489
  C  C21  1  0.436500  0.492000  0.560500  1.0  0.2005
  C  C22  1  0.541000  0.664000  0.578300  1.0  0.1648
  C  C23  1  0.804700  0.769300  0.335200  1.0  0.7369
  C  C24  1  0.904100  0.890000  0.420000  1.0  -0.1068
  C  C25  1  0.873100  0.948400  0.508400  1.0  -0.0248
  C  C26  1  0.033500  0.941300  0.411100  1.0  0.1122
  C  C27  1  0.298900  0.518500  0.077700  1.0  0.7501
  C  C28  1  0.146300  0.510600  0.039100  1.0  -0.1313
  C  C29  1  0.094000  0.579300  0.109500  1.0  0.3143
  C  C30  1  0.052000  0.433000  0.930200  1.0  -0.034
  C  C31  1  0.519300  0.748100  0.999400  1.0  0.7876
  C  C32  1  0.510000  0.879000  0.002600  1.0  -0.1385
  C  C33  1  0.472300  0.917800  0.897200  1.0  -0.0375
  C  C34  1  0.538100  0.963300  0.106300  1.0  0.2433
  C  C35  1  0.563500  0.508000  0.439500  1.0  0.2021
  C  C36  1  0.459000  0.336000  0.421700  1.0  0.1672
  N  N37  1  0.907000  0.149000  0.636000  1.0  -0.2108
  N  N38  1  0.442000  0.069000  0.780600  1.0  -0.224
  N  N39  1  0.825000  0.341000  0.789000  1.0  -0.2682
  N  N40  1  0.429500  0.540800  0.664900  1.0  -0.308
  N  N41  1  0.502600  0.658300  0.672300  1.0  -0.1853
  N  N42  1  0.500000  0.555000  0.497000  1.0  -0.0935
  N  N43  1  0.661000  0.750000  0.570000  1.0  -0.2556
  N  N44  1  0.093000  0.851000  0.364000  1.0  -0.2115
  N  N45  1  0.558000  0.931000  0.219400  1.0  -0.2246
  N  N46  1  0.175000  0.659000  0.211000  1.0  -0.2687
  N  N47  1  0.570500  0.459200  0.335100  1.0  -0.3108
  N  N48  1  0.497400  0.341700  0.327700  1.0  -0.1883
  N  N49  1  0.500000  0.445000  0.503000  1.0  -0.0828
  N  N50  1  0.339000  0.250000  0.430000  1.0  -0.2545
  O  O51  1  0.167900  0.281100  0.746100  1.0  -0.6113
  O  O52  1  0.309900  0.279200  0.650700  1.0  -0.5797
  O  O53  1  0.620200  0.434600  0.815900  1.0  -0.5856
  O  O54  1  0.650700  0.517000  0.998400  1.0  -0.805
  O  O55  1  0.436500  0.278800  0.903700  1.0  -0.6547
  O  O56  1  0.520200  0.324900  0.101200  1.0  -0.6681
  O  O57  1  0.832100  0.718900  0.253900  1.0  -0.6105
  O  O58  1  0.690100  0.720800  0.349300  1.0  -0.5781
  O  O59  1  0.379800  0.565400  0.184100  1.0  -0.5864
  O  O60  1  0.349300  0.483000  0.001600  1.0  -0.8039
  O  O61  1  0.563500  0.721200  0.096300  1.0  -0.6539
  O  O62  1  0.479800  0.675100  0.898800  1.0  -0.6678
