# generated using pymatgen
data_EuH8C16N5O7
_symmetry_space_group_name_H-M   'P 1'
_cell_length_a   10.43610000
_cell_length_b   11.20020000
_cell_length_c   11.73490000
_cell_angle_alpha   93.47300000
_cell_angle_beta   110.05400000
_cell_angle_gamma   106.43600000
_symmetry_Int_Tables_number   1
_chemical_formula_structural   EuH8C16N5O7
_chemical_formula_sum   'Eu2 H16 C32 N10 O14'
_cell_volume   1216.78111512
_cell_formula_units_Z   2
loop_
 _symmetry_equiv_pos_site_id
 _symmetry_equiv_pos_as_xyz
  1  'x, y, z'
loop_
 _atom_site_type_symbol
 _atom_site_label
 _atom_site_symmetry_multiplicity
 _atom_site_fract_x
 _atom_site_fract_y
 _atom_site_fract_z
 _atom_site_occupancy
 _atom_site_charge
  Eu  Eu1  1  0.107450  0.534580  0.683750  1.0  2.169
  Eu  Eu2  1  0.892550  0.465420  0.316250  1.0  2.1687
  H  H3  1  0.074600  0.242800  0.197400  1.0  0.3878
  H  H4  1  0.281200  0.905000  0.011700  1.0  0.1216
  H  H5  1  0.425300  0.617500  0.614600  1.0  0.1301
  H  H6  1  0.015100  0.115700  0.674400  1.0  0.1388
  H  H7  1  0.905900  0.463100  0.881200  1.0  0.1393
  H  H8  1  0.202800  0.314500  0.888100  1.0  0.1344
  H  H9  1  0.993600  0.095300  0.982500  1.0  0.139
  H  H10  1  0.156400  0.155000  0.070100  1.0  0.1545
  H  H11  1  0.925400  0.757200  0.802600  1.0  0.3872
  H  H12  1  0.718800  0.095000  0.988300  1.0  0.1208
  H  H13  1  0.574700  0.382500  0.385400  1.0  0.1295
  H  H14  1  0.984900  0.884300  0.325600  1.0  0.1395
  H  H15  1  0.094100  0.536900  0.118800  1.0  0.139
  H  H16  1  0.797200  0.685500  0.111900  1.0  0.1339
  H  H17  1  0.006400  0.904700  0.017500  1.0  0.1384
  H  H18  1  0.843600  0.845000  0.929900  1.0  0.1572
  C  C19  1  0.310000  0.757600  0.849400  1.0  0.7279
  C  C20  1  0.409800  0.883800  0.927100  1.0  -0.0889
  C  C21  1  0.370200  0.943400  0.006800  1.0  -0.0719
  C  C22  1  0.541400  0.938700  0.917400  1.0  0.2914
  C  C23  1  0.203100  0.490500  0.420100  1.0  0.7416
  C  C24  1  0.355400  0.495900  0.460500  1.0  -0.0623
  C  C25  1  0.398100  0.422500  0.390200  1.0  0.2919
  C  C26  1  0.454800  0.569700  0.567200  1.0  -0.0469
  C  C27  1  0.971400  0.249200  0.500300  1.0  0.7646
  C  C28  1  0.985000  0.121300  0.496600  1.0  -0.1815
  C  C29  1  0.009500  0.069100  0.603500  1.0  -0.068
  C  C30  1  0.974300  0.049300  0.390900  1.0  0.2042
  C  C31  1  0.973000  0.421000  0.906000  1.0  0.2236
  C  C32  1  0.071000  0.286000  0.988000  1.0  0.1802
  C  C33  1  0.132000  0.337000  0.907000  1.0  0.0913
  C  C34  1  0.063000  0.168000  0.044000  1.0  0.0586
  C  C35  1  0.690000  0.242400  0.150600  1.0  0.7283
  C  C36  1  0.590200  0.116200  0.072900  1.0  -0.089
  C  C37  1  0.629800  0.056600  0.993200  1.0  -0.0707
  C  C38  1  0.458600  0.061300  0.082600  1.0  0.2912
  C  C39  1  0.796900  0.509500  0.579900  1.0  0.7422
  C  C40  1  0.644600  0.504100  0.539500  1.0  -0.0612
  C  C41  1  0.601900  0.577500  0.609800  1.0  0.2907
  C  C42  1  0.545200  0.430300  0.432800  1.0  -0.0453
  C  C43  1  0.028600  0.750800  0.499700  1.0  0.7641
  C  C44  1  0.015000  0.878700  0.503400  1.0  -0.181
  C  C45  1  0.990500  0.930900  0.396500  1.0  -0.0684
  C  C46  1  0.025700  0.950700  0.609100  1.0  0.203
  C  C47  1  0.027000  0.579000  0.094000  1.0  0.2228
  C  C48  1  0.929000  0.714000  0.012000  1.0  0.1796
  C  C49  1  0.868000  0.663000  0.093000  1.0  0.0895
  C  C50  1  0.937000  0.832000  0.956000  1.0  0.0592
  N  N51  1  0.585000  0.876000  0.849000  1.0  -0.3252
  N  N52  1  0.304000  0.341000  0.288000  1.0  -0.3583
  N  N53  1  0.966000  0.096000  0.277000  1.0  -0.4345
  N  N54  1  0.074500  0.425200  0.857900  1.0  -0.3971
  N  N55  1  0.979000  0.347000  0.994000  1.0  -0.3536
  N  N56  1  0.415000  0.124000  0.151000  1.0  -0.3239
  N  N57  1  0.696000  0.659000  0.712000  1.0  -0.3614
  N  N58  1  0.034000  0.904000  0.723000  1.0  -0.4344
  N  N59  1  0.925500  0.574800  0.142100  1.0  -0.3978
  N  N60  1  0.021000  0.653000  0.006000  1.0  -0.354
  O  O61  1  0.191200  0.707200  0.861600  1.0  -0.6498
  O  O62  1  0.340700  0.706200  0.769400  1.0  -0.6604
  O  O63  1  0.155100  0.518900  0.502800  1.0  -0.8552
  O  O64  1  0.124400  0.459600  0.310000  1.0  -0.6269
  O  O65  1  0.007900  0.315500  0.602100  1.0  -0.6451
  O  O66  1  0.926200  0.283000  0.397900  1.0  -0.6661
  O  O67  1  0.021000  0.178000  0.149000  1.0  -0.596
  O  O68  1  0.808800  0.292800  0.138400  1.0  -0.6508
  O  O69  1  0.659300  0.293800  0.230600  1.0  -0.6608
  O  O70  1  0.844900  0.481100  0.497200  1.0  -0.8537
  O  O71  1  0.875600  0.540400  0.690000  1.0  -0.6274
  O  O72  1  0.992100  0.684500  0.397900  1.0  -0.6458
  O  O73  1  0.073800  0.717000  0.602100  1.0  -0.6651
  O  O74  1  0.979000  0.822000  0.851000  1.0  -0.5957
