# generated using pymatgen
data_EuH8C19N5O6
_symmetry_space_group_name_H-M   'P 1'
_cell_length_a   10.33630000
_cell_length_b   11.23950000
_cell_length_c   11.77290000
_cell_angle_alpha   91.93100000
_cell_angle_beta   108.44300000
_cell_angle_gamma   109.72900000
_symmetry_Int_Tables_number   1
_chemical_formula_structural   EuH8C19N5O6
_chemical_formula_sum   'Eu2 H16 C38 N10 O12'
_cell_volume   1206.09533044
_cell_formula_units_Z   2
loop_
 _symmetry_equiv_pos_site_id
 _symmetry_equiv_pos_as_xyz
  1  'x, y, z'
loop_
 _atom_site_type_symbol
 _atom_site_label
 _atom_site_symmetry_multiplicity
 _atom_site_fract_x
 _atom_site_fract_y
 _atom_site_fract_z
 _atom_site_occupancy
 _atom_site_charge
  Eu  Eu1  1  0.106050  0.533680  0.678940  1.0  2.1348
  Eu  Eu2  1  0.893950  0.466320  0.321060  1.0  2.1357
  H  H3  1  0.292400  0.871500  0.032900  1.0  0.1225
  H  H4  1  0.561400  0.365300  0.393500  1.0  0.1226
  H  H5  1  0.988600  0.891000  0.324700  1.0  0.1151
  H  H6  1  0.937500  0.496000  0.893900  1.0  0.2265
  H  H7  1  0.227300  0.272200  0.831000  1.0  0.1147
  H  H8  1  0.268700  0.119700  0.953000  1.0  0.1371
  H  H9  1  0.168800  0.085100  0.101000  1.0  0.1293
  H  H10  1  0.022500  0.187800  0.144700  1.0  0.1489
  H  H11  1  0.707600  0.128500  0.967100  1.0  0.1224
  H  H12  1  0.438600  0.634700  0.606500  1.0  0.1223
  H  H13  1  0.011400  0.109000  0.675300  1.0  0.1155
  H  H14  1  0.062500  0.504000  0.106100  1.0  0.2283
  H  H15  1  0.772700  0.727800  0.169000  1.0  0.1144
  H  H16  1  0.731300  0.880300  0.047000  1.0  0.1376
  H  H17  1  0.831200  0.914900  0.899000  1.0  0.1291
  H  H18  1  0.977500  0.812200  0.855300  1.0  0.1471
  C  C19  1  0.311000  0.759000  0.841800  1.0  0.7259
  C  C20  1  0.408000  0.884000  0.922900  1.0  -0.0902
  C  C21  1  0.376200  0.922800  0.019400  1.0  -0.0494
  C  C22  1  0.532600  0.962000  0.902100  1.0  0.1461
  C  C23  1  0.794500  0.501000  0.581500  1.0  0.739
  C  C24  1  0.642800  0.500400  0.540700  1.0  -0.1162
  C  C25  1  0.603900  0.578800  0.605700  1.0  0.2276
  C  C26  1  0.537100  0.420500  0.436200  1.0  -0.0564
  C  C27  1  0.026800  0.752800  0.500200  1.0  0.7568
  C  C28  1  0.015800  0.880600  0.501900  1.0  -0.1551
  C  C29  1  0.991800  0.934300  0.394800  1.0  -0.0359
  C  C30  1  0.027100  0.950200  0.608500  1.0  0.1255
  C  C31  1  0.982100  0.436300  0.912000  1.0  0.1616
  C  C32  1  0.047400  0.290500  0.003500  1.0  0.1414
  C  C33  1  0.101300  0.322500  0.909500  1.0  0.2417
  C  C34  1  0.186900  0.255900  0.891700  1.0  -0.0169
  C  C35  1  0.212000  0.165300  0.964000  1.0  -0.1697
  C  C36  1  0.150000  0.146000  0.054000  1.0  -0.0953
  C  C37  1  0.062000  0.203800  0.083700  1.0  -0.0809
  C  C38  1  0.689000  0.241000  0.158200  1.0  0.7268
  C  C39  1  0.592000  0.116000  0.077100  1.0  -0.0862
  C  C40  1  0.623800  0.077200  0.980600  1.0  -0.0492
  C  C41  1  0.467400  0.038000  0.097900  1.0  0.1459
  C  C42  1  0.205500  0.499000  0.418500  1.0  0.7399
  C  C43  1  0.357200  0.499600  0.459300  1.0  -0.1149
  C  C44  1  0.396100  0.421200  0.394300  1.0  0.2251
  C  C45  1  0.462900  0.579500  0.563800  1.0  -0.0572
  C  C46  1  0.973200  0.247200  0.499800  1.0  0.7575
  C  C47  1  0.984200  0.119400  0.498100  1.0  -0.1545
  C  C48  1  0.008200  0.065700  0.605200  1.0  -0.0355
  C  C49  1  0.972900  0.049800  0.391500  1.0  0.1246
  C  C50  1  0.017900  0.563700  0.088000  1.0  0.1615
  C  C51  1  0.952600  0.709500  0.996500  1.0  0.1406
  C  C52  1  0.898700  0.677500  0.090500  1.0  0.2398
  C  C53  1  0.813100  0.744100  0.108300  1.0  -0.0169
  C  C54  1  0.788000  0.834700  0.036000  1.0  -0.1699
  C  C55  1  0.850000  0.854000  0.946000  1.0  -0.0959
  C  C56  1  0.938000  0.796200  0.916300  1.0  -0.0802
  N  N57  1  0.572000  0.946000  0.796200  1.0  -0.2394
  N  N58  1  0.707300  0.665000  0.714600  1.0  -0.2676
  N  N59  1  0.040000  0.901000  0.722000  1.0  -0.3306
  N  N60  1  0.063300  0.413600  0.849900  1.0  -0.4987
  N  N61  1  0.969900  0.366700  0.002400  1.0  -0.1822
  N  N62  1  0.428000  0.054000  0.203800  1.0  -0.2413
  N  N63  1  0.292700  0.335000  0.285400  1.0  -0.2692
  N  N64  1  0.960000  0.099000  0.278000  1.0  -0.332
  N  N65  1  0.936700  0.586400  0.150100  1.0  -0.4979
  N  N66  1  0.030100  0.633300  0.997600  1.0  -0.1817
  O  O67  1  0.195100  0.695200  0.859300  1.0  -0.6559
  O  O68  1  0.343800  0.720100  0.758200  1.0  -0.6015
  O  O69  1  0.870200  0.529500  0.691000  1.0  -0.6709
  O  O70  1  0.842800  0.469000  0.502800  1.0  -0.8571
  O  O71  1  0.987300  0.685700  0.399600  1.0  -0.667
  O  O72  1  0.070000  0.716300  0.601100  1.0  -0.6816
  O  O73  1  0.804900  0.304800  0.140700  1.0  -0.6563
  O  O74  1  0.656200  0.279900  0.241800  1.0  -0.6012
  O  O75  1  0.129800  0.470500  0.309000  1.0  -0.6707
  O  O76  1  0.157200  0.531000  0.497200  1.0  -0.8555
  O  O77  1  0.012700  0.314300  0.600400  1.0  -0.6654
  O  O78  1  0.930000  0.283700  0.398900  1.0  -0.6813
