# generated using pymatgen
data_EuH11C19N4O7
_symmetry_space_group_name_H-M   'P 1'
_cell_length_a   10.39120000
_cell_length_b   11.33710000
_cell_length_c   12.81680000
_cell_angle_alpha   106.32200000
_cell_angle_beta   98.73000000
_cell_angle_gamma   103.04200000
_symmetry_Int_Tables_number   1
_chemical_formula_structural   EuH11C19N4O7
_chemical_formula_sum   'Eu2 H22 C38 N8 O14'
_cell_volume   1373.76239359
_cell_formula_units_Z   2
loop_
 _symmetry_equiv_pos_site_id
 _symmetry_equiv_pos_as_xyz
  1  'x, y, z'
loop_
 _atom_site_type_symbol
 _atom_site_label
 _atom_site_symmetry_multiplicity
 _atom_site_fract_x
 _atom_site_fract_y
 _atom_site_fract_z
 _atom_site_occupancy
 _atom_site_charge
  Eu  Eu1  1  0.478390  0.445000  0.336090  1.0  2.1137
  Eu  Eu2  1  0.521610  0.555000  0.663910  1.0  2.1114
  H  H3  1  0.301100  0.060600  0.993700  1.0  0.1577
  H  H4  1  0.211300  0.592000  0.622000  1.0  0.1152
  H  H5  1  0.575800  0.170900  0.664800  1.0  0.1278
  H  H6  1  0.702300  0.670500  0.181700  1.0  0.122
  H  H7  1  0.642800  0.747100  0.275500  1.0  0.1318
  H  H8  1  0.309400  0.634500  0.939200  1.0  0.118
  H  H9  1  0.151700  0.472300  0.967100  1.0  0.1467
  H  H10  1  0.225400  0.397000  0.115100  1.0  0.0956
  H  H11  1  0.626200  0.797400  0.080600  1.0  0.1
  H  H12  1  0.491900  0.821200  0.028200  1.0  0.1049
  H  H13  1  0.552800  0.721600  0.955300  1.0  0.1185
  H  H14  1  0.698900  0.939400  0.006300  1.0  0.1664
  H  H15  1  0.788700  0.408000  0.378000  1.0  0.1146
  H  H16  1  0.424200  0.829100  0.335200  1.0  0.1283
  H  H17  1  0.297700  0.329500  0.818300  1.0  0.1219
  H  H18  1  0.357200  0.252900  0.724500  1.0  0.1328
  H  H19  1  0.690600  0.365500  0.060800  1.0  0.1176
  H  H20  1  0.848300  0.527700  0.032900  1.0  0.146
  H  H21  1  0.774600  0.603000  0.884900  1.0  0.0949
  H  H22  1  0.373800  0.202600  0.919400  1.0  0.1025
  H  H23  1  0.508100  0.178800  0.971800  1.0  0.1071
  H  H24  1  0.447200  0.278400  0.044700  1.0  0.1178
  C  C25  1  0.488900  0.227900  0.166300  1.0  0.6454
  C  C26  1  0.494400  0.109200  0.079900  1.0  0.13
  C  C27  1  0.381300  0.036900  0.996000  1.0  -0.0841
  C  C28  1  0.612800  0.071900  0.085500  1.0  0.3169
  C  C29  1  0.238700  0.453600  0.428100  1.0  0.7278
  C  C30  1  0.114100  0.477300  0.463900  1.0  -0.1651
  C  C31  1  0.987100  0.425100  0.388700  1.0  0.2721
  C  C32  1  0.126000  0.554300  0.573800  1.0  -0.0418
  C  C33  1  0.496100  0.254400  0.497900  1.0  0.7756
  C  C34  1  0.496200  0.122300  0.498300  1.0  -0.1678
  C  C35  1  0.545300  0.101900  0.598600  1.0  -0.0259
  C  C36  1  0.451200  0.016900  0.399600  1.0  0.1812
  C  C37  1  0.635300  0.662200  0.226400  1.0  -0.0335
  C  C38  1  0.496500  0.606900  0.150800  1.0  0.1774
  C  C39  1  0.458400  0.654500  0.063100  1.0  0.1101
  C  C40  1  0.333200  0.603500  0.997100  1.0  -0.1584
  C  C41  1  0.239200  0.507000  0.012000  1.0  -0.1643
  C  C42  1  0.285500  0.463200  0.102600  1.0  0.1841
  C  C43  1  0.540000  0.758000  0.028700  1.0  -0.3594
  C  C44  1  0.511100  0.772100  0.833700  1.0  0.6506
  C  C45  1  0.505600  0.890800  0.920100  1.0  0.134
  C  C46  1  0.618700  0.963100  0.004000  1.0  -0.0835
  C  C47  1  0.387200  0.928100  0.914500  1.0  0.3198
  C  C48  1  0.761300  0.546400  0.571900  1.0  0.7267
  C  C49  1  0.885900  0.522700  0.536100  1.0  -0.1649
  C  C50  1  0.012900  0.574900  0.611300  1.0  0.2714
  C  C51  1  0.874000  0.445700  0.426200  1.0  -0.0428
  C  C52  1  0.503900  0.745600  0.502100  1.0  0.7593
  C  C53  1  0.503800  0.877700  0.501700  1.0  -0.1667
  C  C54  1  0.454700  0.898100  0.401400  1.0  -0.028
  C  C55  1  0.548800  0.983100  0.600400  1.0  0.1791
  C  C56  1  0.364700  0.337800  0.773600  1.0  -0.0336
  C  C57  1  0.503500  0.393100  0.849200  1.0  0.1767
  C  C58  1  0.541600  0.345500  0.936900  1.0  0.111
  C  C59  1  0.666800  0.396500  0.002900  1.0  -0.1555
  C  C60  1  0.760800  0.493000  0.988000  1.0  -0.1655
  C  C61  1  0.714500  0.536800  0.897400  1.0  0.1812
  C  C62  1  0.460000  0.242000  0.971300  1.0  -0.3595
  N  N63  1  0.712000  0.108000  0.171000  1.0  -0.2983
  N  N64  1  0.967800  0.353500  0.278500  1.0  -0.2468
  N  N65  1  0.382000  0.024000  0.296300  1.0  -0.2397
  N  N66  1  0.408300  0.511800  0.168300  1.0  -0.3588
  N  N67  1  0.288000  0.892000  0.829000  1.0  -0.2943
  N  N68  1  0.032200  0.646500  0.721500  1.0  -0.2473
  N  N69  1  0.618000  0.976000  0.703700  1.0  -0.2424
  N  N70  1  0.591700  0.488200  0.831700  1.0  -0.3573
  O  O71  1  0.374600  0.246400  0.174400  1.0  -0.5822
  O  O72  1  0.596500  0.306600  0.228700  1.0  -0.6146
  O  O73  1  0.237600  0.411000  0.326100  1.0  -0.6158
  O  O74  1  0.346500  0.478800  0.502300  1.0  -0.8345
  O  O75  1  0.460100  0.271000  0.407000  1.0  -0.6798
  O  O76  1  0.532700  0.340700  0.591700  1.0  -0.6898
  O  O77  1  0.662300  0.588700  0.288500  1.0  -0.6143
  O  O78  1  0.625400  0.753600  0.825600  1.0  -0.5786
  O  O79  1  0.403500  0.693400  0.771300  1.0  -0.6144
  O  O80  1  0.762400  0.589000  0.673900  1.0  -0.6172
  O  O81  1  0.653500  0.521200  0.497700  1.0  -0.834
  O  O82  1  0.539900  0.729000  0.593000  1.0  -0.6788
  O  O83  1  0.467300  0.659300  0.408300  1.0  -0.6903
  O  O84  1  0.337700  0.411300  0.711500  1.0  -0.614
