# generated using pymatgen
data_EuH8C16NO6
_symmetry_space_group_name_H-M   'P 1'
_cell_length_a   28.73500000
_cell_length_b   14.21120000
_cell_length_c   14.33220000
_cell_angle_alpha   90.00000000
_cell_angle_beta   95.12600000
_cell_angle_gamma   90.00000000
_symmetry_Int_Tables_number   1
_chemical_formula_structural   EuH8C16NO6
_chemical_formula_sum   'Eu8 H64 C128 N8 O48'
_cell_volume   5829.27338171
_cell_formula_units_Z   8
loop_
 _symmetry_equiv_pos_site_id
 _symmetry_equiv_pos_as_xyz
  1  'x, y, z'
loop_
 _atom_site_type_symbol
 _atom_site_label
 _atom_site_symmetry_multiplicity
 _atom_site_fract_x
 _atom_site_fract_y
 _atom_site_fract_z
 _atom_site_occupancy
 _atom_site_charge
  Eu  Eu1  1  0.314780  0.195780  0.523890  1.0  2.1186
  Eu  Eu2  1  0.814780  0.695780  0.523890  1.0  2.1186
  Eu  Eu3  1  0.685220  0.195780  0.976110  1.0  2.1163
  Eu  Eu4  1  0.185220  0.695780  0.976110  1.0  2.1163
  Eu  Eu5  1  0.685220  0.804220  0.476110  1.0  2.1166
  Eu  Eu6  1  0.185220  0.304220  0.476110  1.0  2.1168
  Eu  Eu7  1  0.314780  0.804220  0.023890  1.0  2.1116
  Eu  Eu8  1  0.814780  0.304220  0.023890  1.0  2.1114
  H  H9  1  0.463400  0.161700  0.380800  1.0  0.1113
  H  H10  1  0.536300  0.207300  0.340500  1.0  0.1111
  H  H11  1  0.511300  0.469200  0.404600  1.0  0.0895
  H  H12  1  0.440800  0.424600  0.463100  1.0  0.1112
  H  H13  1  0.594000  0.316000  0.354000  1.0  0.079
  H  H14  1  0.652700  0.571500  0.390700  1.0  0.1028
  H  H15  1  0.636800  0.364600  0.202400  1.0  0.1001
  H  H16  1  0.761700  0.488800  0.255300  1.0  0.116
  H  H17  1  0.963400  0.661700  0.380800  1.0  0.1113
  H  H18  1  0.036300  0.707300  0.340500  1.0  0.1111
  H  H19  1  0.011300  0.969200  0.404600  1.0  0.0895
  H  H20  1  0.940800  0.924600  0.463100  1.0  0.1112
  H  H21  1  0.094000  0.816000  0.354000  1.0  0.079
  H  H22  1  0.152700  0.071500  0.390700  1.0  0.1028
  H  H23  1  0.136800  0.864600  0.202400  1.0  0.1001
  H  H24  1  0.261700  0.988800  0.255300  1.0  0.116
  H  H25  1  0.536600  0.161700  0.119200  1.0  0.1114
  H  H26  1  0.463700  0.207300  0.159500  1.0  0.1107
  H  H27  1  0.488700  0.469200  0.095400  1.0  0.0894
  H  H28  1  0.559200  0.424600  0.036900  1.0  0.111
  H  H29  1  0.406000  0.316000  0.146000  1.0  0.0789
  H  H30  1  0.347300  0.571500  0.109300  1.0  0.1035
  H  H31  1  0.363200  0.364600  0.297600  1.0  0.0999
  H  H32  1  0.238300  0.488800  0.244700  1.0  0.1162
  H  H33  1  0.036600  0.661700  0.119200  1.0  0.1114
  H  H34  1  0.963700  0.707300  0.159500  1.0  0.1107
  H  H35  1  0.988700  0.969200  0.095400  1.0  0.0894
  H  H36  1  0.059200  0.924600  0.036900  1.0  0.111
  H  H37  1  0.906000  0.816000  0.146000  1.0  0.0789
  H  H38  1  0.847300  0.071500  0.109300  1.0  0.1035
  H  H39  1  0.863200  0.864600  0.297600  1.0  0.0999
  H  H40  1  0.738300  0.988800  0.244700  1.0  0.1162
  H  H41  1  0.536600  0.838300  0.619200  1.0  0.1112
  H  H42  1  0.463700  0.792700  0.659500  1.0  0.112
  H  H43  1  0.488700  0.530800  0.595400  1.0  0.0896
  H  H44  1  0.559200  0.575400  0.536900  1.0  0.1109
  H  H45  1  0.406000  0.684000  0.646000  1.0  0.0791
  H  H46  1  0.347300  0.428500  0.609300  1.0  0.1029
  H  H47  1  0.363200  0.635400  0.797600  1.0  0.0993
  H  H48  1  0.238300  0.511200  0.744700  1.0  0.1165
  H  H49  1  0.036600  0.338300  0.619200  1.0  0.1112
  H  H50  1  0.963700  0.292700  0.659500  1.0  0.112
  H  H51  1  0.988700  0.030800  0.595400  1.0  0.0896
  H  H52  1  0.059200  0.075400  0.536900  1.0  0.1109
  H  H53  1  0.906000  0.184000  0.646000  1.0  0.0791
  H  H54  1  0.847300  0.928500  0.609300  1.0  0.1029
  H  H55  1  0.863200  0.135400  0.797600  1.0  0.0993
  H  H56  1  0.738300  0.011200  0.744700  1.0  0.1165
  H  H57  1  0.463400  0.838300  0.880800  1.0  0.1114
  H  H58  1  0.536300  0.792700  0.840500  1.0  0.1113
  H  H59  1  0.511300  0.530800  0.904600  1.0  0.0899
  H  H60  1  0.440800  0.575400  0.963100  1.0  0.1112
  H  H61  1  0.594000  0.684000  0.854000  1.0  0.0794
  H  H62  1  0.652700  0.428500  0.890700  1.0  0.1028
  H  H63  1  0.636800  0.635400  0.702400  1.0  0.1001
  H  H64  1  0.761700  0.511200  0.755300  1.0  0.116
  H  H65  1  0.963400  0.338300  0.880800  1.0  0.1114
  H  H66  1  0.036300  0.292700  0.840500  1.0  0.1113
  H  H67  1  0.011300  0.030800  0.904600  1.0  0.0899
  H  H68  1  0.940800  0.075400  0.963100  1.0  0.1112
  H  H69  1  0.094000  0.184000  0.854000  1.0  0.0794
  H  H70  1  0.152700  0.928500  0.890700  1.0  0.1028
  H  H71  1  0.136800  0.135400  0.702400  1.0  0.1001
  H  H72  1  0.261700  0.011200  0.755300  1.0  0.116
  C  C73  1  0.402400  0.253500  0.469800  1.0  0.6788
  C  C74  1  0.446100  0.286600  0.431400  1.0  -0.1027
  C  C75  1  0.473400  0.223500  0.390300  1.0  -0.0901
  C  C76  1  0.516400  0.252000  0.362500  1.0  -0.0958
  C  C77  1  0.529700  0.342700  0.366800  1.0  0.0719
  C  C78  1  0.502300  0.406400  0.402400  1.0  -0.0507
  C  C79  1  0.459500  0.380000  0.437100  1.0  -0.1056
  C  C80  1  0.576500  0.370900  0.334000  1.0  0.1351
  C  C81  1  0.743900  0.602900  0.392200  1.0  0.7195
  C  C82  1  0.712400  0.538800  0.333800  1.0  -0.1539
  C  C83  1  0.665500  0.530300  0.349500  1.0  -0.0539
  C  C84  1  0.637700  0.462400  0.305500  1.0  0.2011
  C  C85  1  0.655800  0.408000  0.236000  1.0  -0.0658
  C  C86  1  0.702300  0.418300  0.216600  1.0  -0.1415
  C  C87  1  0.730500  0.482900  0.266700  1.0  0.0269
  C  C88  1  0.721900  0.355000  0.145400  1.0  0.774
  C  C89  1  0.902400  0.753500  0.469800  1.0  0.6788
  C  C90  1  0.946100  0.786600  0.431400  1.0  -0.1027
  C  C91  1  0.973400  0.723500  0.390300  1.0  -0.0901
  C  C92  1  0.016400  0.752000  0.362500  1.0  -0.0958
  C  C93  1  0.029700  0.842700  0.366800  1.0  0.0719
  C  C94  1  0.002300  0.906400  0.402400  1.0  -0.0507
  C  C95  1  0.959500  0.880000  0.437100  1.0  -0.1056
  C  C96  1  0.076500  0.870900  0.334000  1.0  0.1351
  C  C97  1  0.243900  0.102900  0.392200  1.0  0.7195
  C  C98  1  0.212400  0.038800  0.333800  1.0  -0.1539
  C  C99  1  0.165500  0.030300  0.349500  1.0  -0.0539
  C  C100  1  0.137700  0.962400  0.305500  1.0  0.2011
  C  C101  1  0.155800  0.908000  0.236000  1.0  -0.0658
  C  C102  1  0.202300  0.918300  0.216600  1.0  -0.1415
  C  C103  1  0.230500  0.982900  0.266700  1.0  0.0269
  C  C104  1  0.221900  0.855000  0.145400  1.0  0.774
  C  C105  1  0.597600  0.253500  0.030200  1.0  0.6771
  C  C106  1  0.553900  0.286600  0.068600  1.0  -0.1035
  C  C107  1  0.526600  0.223500  0.109700  1.0  -0.0909
  C  C108  1  0.483600  0.252000  0.137500  1.0  -0.0948
  C  C109  1  0.470300  0.342700  0.133200  1.0  0.0737
  C  C110  1  0.497700  0.406400  0.097600  1.0  -0.05
  C  C111  1  0.540500  0.380000  0.062900  1.0  -0.1045
  C  C112  1  0.423500  0.370900  0.166000  1.0  0.1381
  C  C113  1  0.256100  0.602900  0.107800  1.0  0.7193
  C  C114  1  0.287600  0.538800  0.166200  1.0  -0.1531
  C  C115  1  0.334500  0.530300  0.150500  1.0  -0.0523
  C  C116  1  0.362300  0.462400  0.194500  1.0  0.202
  C  C117  1  0.344200  0.408000  0.264000  1.0  -0.0642
  C  C118  1  0.297700  0.418300  0.283400  1.0  -0.1426
  C  C119  1  0.269500  0.482900  0.233300  1.0  0.0242
  C  C120  1  0.278100  0.355000  0.354600  1.0  0.7748
  C  C121  1  0.097600  0.753500  0.030200  1.0  0.6771
  C  C122  1  0.053900  0.786600  0.068600  1.0  -0.1035
  C  C123  1  0.026600  0.723500  0.109700  1.0  -0.0909
  C  C124  1  0.983600  0.752000  0.137500  1.0  -0.0948
  C  C125  1  0.970300  0.842700  0.133200  1.0  0.0737
  C  C126  1  0.997700  0.906400  0.097600  1.0  -0.05
  C  C127  1  0.040500  0.880000  0.062900  1.0  -0.1045
  C  C128  1  0.923500  0.870900  0.166000  1.0  0.1381
  C  C129  1  0.756100  0.102900  0.107800  1.0  0.7193
  C  C130  1  0.787600  0.038800  0.166200  1.0  -0.1531
  C  C131  1  0.834500  0.030300  0.150500  1.0  -0.0523
  C  C132  1  0.862300  0.962400  0.194500  1.0  0.202
  C  C133  1  0.844200  0.908000  0.264000  1.0  -0.0642
  C  C134  1  0.797700  0.918300  0.283400  1.0  -0.1426
  C  C135  1  0.769500  0.982900  0.233300  1.0  0.0242
  C  C136  1  0.778100  0.855000  0.354600  1.0  0.7748
  C  C137  1  0.597600  0.746500  0.530200  1.0  0.6782
  C  C138  1  0.553900  0.713400  0.568600  1.0  -0.1036
  C  C139  1  0.526600  0.776500  0.609700  1.0  -0.0895
  C  C140  1  0.483600  0.748000  0.637500  1.0  -0.094
  C  C141  1  0.470300  0.657300  0.633200  1.0  0.0734
  C  C142  1  0.497700  0.593600  0.597600  1.0  -0.0503
  C  C143  1  0.540500  0.620000  0.562900  1.0  -0.1032
  C  C144  1  0.423500  0.629100  0.666000  1.0  0.1375
  C  C145  1  0.256100  0.397100  0.607800  1.0  0.7197
  C  C146  1  0.287600  0.461200  0.666200  1.0  -0.1536
  C  C147  1  0.334500  0.469700  0.650500  1.0  -0.0515
  C  C148  1  0.362300  0.537600  0.694500  1.0  0.202
  C  C149  1  0.344200  0.592000  0.764000  1.0  -0.0654
  C  C150  1  0.297700  0.581700  0.783400  1.0  -0.1423
  C  C151  1  0.269500  0.517100  0.733300  1.0  0.0242
  C  C152  1  0.278100  0.645000  0.854600  1.0  0.7752
  C  C153  1  0.097600  0.246500  0.530200  1.0  0.6782
  C  C154  1  0.053900  0.213400  0.568600  1.0  -0.1036
  C  C155  1  0.026600  0.276500  0.609700  1.0  -0.0895
  C  C156  1  0.983600  0.248000  0.637500  1.0  -0.094
  C  C157  1  0.970300  0.157300  0.633200  1.0  0.0734
  C  C158  1  0.997700  0.093600  0.597600  1.0  -0.0503
  C  C159  1  0.040500  0.120000  0.562900  1.0  -0.1032
  C  C160  1  0.923500  0.129100  0.666000  1.0  0.1375
  C  C161  1  0.756100  0.897100  0.607800  1.0  0.7197
  C  C162  1  0.787600  0.961200  0.666200  1.0  -0.1536
  C  C163  1  0.834500  0.969700  0.650500  1.0  -0.0515
  C  C164  1  0.862300  0.037600  0.694500  1.0  0.202
  C  C165  1  0.844200  0.092000  0.764000  1.0  -0.0654
  C  C166  1  0.797700  0.081700  0.783400  1.0  -0.1423
  C  C167  1  0.769500  0.017100  0.733300  1.0  0.0242
  C  C168  1  0.778100  0.145000  0.854600  1.0  0.7752
  C  C169  1  0.402400  0.746500  0.969800  1.0  0.6794
  C  C170  1  0.446100  0.713400  0.931400  1.0  -0.1019
  C  C171  1  0.473400  0.776500  0.890300  1.0  -0.0898
  C  C172  1  0.516400  0.748000  0.862500  1.0  -0.0944
  C  C173  1  0.529700  0.657300  0.866800  1.0  0.0722
  C  C174  1  0.502300  0.593600  0.902400  1.0  -0.0512
  C  C175  1  0.459500  0.620000  0.937100  1.0  -0.1037
  C  C176  1  0.576500  0.629100  0.834000  1.0  0.1343
  C  C177  1  0.743900  0.397100  0.892200  1.0  0.7195
  C  C178  1  0.712400  0.461200  0.833800  1.0  -0.1538
  C  C179  1  0.665500  0.469700  0.849500  1.0  -0.0526
  C  C180  1  0.637700  0.537600  0.805500  1.0  0.2011
  C  C181  1  0.655800  0.592000  0.736000  1.0  -0.0667
  C  C182  1  0.702300  0.581700  0.716600  1.0  -0.1414
  C  C183  1  0.730500  0.517100  0.766700  1.0  0.027
  C  C184  1  0.721900  0.645000  0.645400  1.0  0.7744
  C  C185  1  0.902400  0.246500  0.969800  1.0  0.6794
  C  C186  1  0.946100  0.213400  0.931400  1.0  -0.1019
  C  C187  1  0.973400  0.276500  0.890300  1.0  -0.0898
  C  C188  1  0.016400  0.248000  0.862500  1.0  -0.0944
  C  C189  1  0.029700  0.157300  0.866800  1.0  0.0722
  C  C190  1  0.002300  0.093600  0.902400  1.0  -0.0512
  C  C191  1  0.959500  0.120000  0.937100  1.0  -0.1037
  C  C192  1  0.076500  0.129100  0.834000  1.0  0.1343
  C  C193  1  0.243900  0.897100  0.892200  1.0  0.7195
  C  C194  1  0.212400  0.961200  0.833800  1.0  -0.1538
  C  C195  1  0.165500  0.969700  0.849500  1.0  -0.0526
  C  C196  1  0.137700  0.037600  0.805500  1.0  0.2011
  C  C197  1  0.155800  0.092000  0.736000  1.0  -0.0667
  C  C198  1  0.202300  0.081700  0.716600  1.0  -0.1414
  C  C199  1  0.230500  0.017100  0.766700  1.0  0.027
  C  C200  1  0.221900  0.145000  0.645400  1.0  0.7744
  N  N201  1  0.591800  0.449800  0.333100  1.0  -0.2366
  N  N202  1  0.091800  0.949800  0.333100  1.0  -0.2366
  N  N203  1  0.408200  0.449800  0.166900  1.0  -0.2373
  N  N204  1  0.908200  0.949800  0.166900  1.0  -0.2373
  N  N205  1  0.408200  0.550200  0.666900  1.0  -0.2363
  N  N206  1  0.908200  0.050200  0.666900  1.0  -0.2363
  N  N207  1  0.591800  0.550200  0.833100  1.0  -0.2371
  N  N208  1  0.091800  0.050200  0.833100  1.0  -0.2371
  O  O209  1  0.381500  0.308000  0.521900  1.0  -0.759
  O  O210  1  0.387600  0.173700  0.450800  1.0  -0.6712
  O  O211  1  0.787100  0.585100  0.402900  1.0  -0.6592
  O  O212  1  0.727000  0.672100  0.434000  1.0  -0.8671
  O  O213  1  0.762300  0.373100  0.123800  1.0  -0.7839
  O  O214  1  0.695800  0.289900  0.112100  1.0  -0.7143
  O  O215  1  0.881500  0.808000  0.521900  1.0  -0.759
  O  O216  1  0.887600  0.673700  0.450800  1.0  -0.6708
  O  O217  1  0.287100  0.085100  0.402900  1.0  -0.6592
  O  O218  1  0.227000  0.172100  0.434000  1.0  -0.8671
  O  O219  1  0.262300  0.873100  0.123800  1.0  -0.7839
  O  O220  1  0.195800  0.789900  0.112100  1.0  -0.7143
  O  O221  1  0.618500  0.308000  0.978100  1.0  -0.7606
  O  O222  1  0.612400  0.173700  0.049200  1.0  -0.6697
  O  O223  1  0.212900  0.585100  0.097100  1.0  -0.6555
  O  O224  1  0.273000  0.672100  0.066000  1.0  -0.8654
  O  O225  1  0.237700  0.373100  0.376200  1.0  -0.7848
  O  O226  1  0.304200  0.289900  0.387900  1.0  -0.7147
  O  O227  1  0.118500  0.808000  0.978100  1.0  -0.7606
  O  O228  1  0.112400  0.673700  0.049200  1.0  -0.6699
  O  O229  1  0.712900  0.085100  0.097100  1.0  -0.6555
  O  O230  1  0.773000  0.172100  0.066000  1.0  -0.8654
  O  O231  1  0.737700  0.873100  0.376200  1.0  -0.7848
  O  O232  1  0.804200  0.789900  0.387900  1.0  -0.7147
  O  O233  1  0.618500  0.692000  0.478100  1.0  -0.7612
  O  O234  1  0.612400  0.826300  0.549200  1.0  -0.6699
  O  O235  1  0.212900  0.414900  0.597100  1.0  -0.6553
  O  O236  1  0.273000  0.327900  0.566000  1.0  -0.8642
  O  O237  1  0.237700  0.626900  0.876200  1.0  -0.7849
  O  O238  1  0.304200  0.710100  0.887900  1.0  -0.7145
  O  O239  1  0.118500  0.192000  0.478100  1.0  -0.7612
  O  O240  1  0.112400  0.326300  0.549200  1.0  -0.6696
  O  O241  1  0.712900  0.914900  0.597100  1.0  -0.6553
  O  O242  1  0.773000  0.827900  0.566000  1.0  -0.8642
  O  O243  1  0.737700  0.126900  0.876200  1.0  -0.7849
  O  O244  1  0.804200  0.210100  0.887900  1.0  -0.7145
  O  O245  1  0.381500  0.692000  0.021900  1.0  -0.7597
  O  O246  1  0.387600  0.826300  0.950800  1.0  -0.6696
  O  O247  1  0.787100  0.414900  0.902900  1.0  -0.661
  O  O248  1  0.727000  0.327900  0.934000  1.0  -0.8656
  O  O249  1  0.762300  0.626900  0.623800  1.0  -0.7851
  O  O250  1  0.695800  0.710100  0.612100  1.0  -0.7143
  O  O251  1  0.881500  0.192000  0.021900  1.0  -0.7597
  O  O252  1  0.887600  0.326300  0.950800  1.0  -0.6698
  O  O253  1  0.287100  0.914900  0.902900  1.0  -0.661
  O  O254  1  0.227000  0.827900  0.934000  1.0  -0.8656
  O  O255  1  0.262300  0.126900  0.623800  1.0  -0.7851
  O  O256  1  0.195800  0.210100  0.612100  1.0  -0.7143
