# generated using pymatgen
data_EuH9C18(NO)6
_symmetry_space_group_name_H-M   'P 1'
_cell_length_a   29.60240000
_cell_length_b   13.47800000
_cell_length_c   13.35240000
_cell_angle_alpha   90.00000000
_cell_angle_beta   96.59400000
_cell_angle_gamma   90.00000000
_symmetry_Int_Tables_number   1
_chemical_formula_structural   EuH9C18(NO)6
_chemical_formula_sum   'Eu8 H72 C144 N48 O48'
_cell_volume   5292.11432585
_cell_formula_units_Z   8
loop_
 _symmetry_equiv_pos_site_id
 _symmetry_equiv_pos_as_xyz
  1  'x, y, z'
loop_
 _atom_site_type_symbol
 _atom_site_label
 _atom_site_symmetry_multiplicity
 _atom_site_fract_x
 _atom_site_fract_y
 _atom_site_fract_z
 _atom_site_occupancy
 _atom_site_charge
  Eu  Eu1  1  0.813850  0.202910  0.541400  1.0  2.1651
  Eu  Eu2  1  0.313850  0.702910  0.541400  1.0  2.1651
  Eu  Eu3  1  0.186150  0.202910  0.958600  1.0  2.1629
  Eu  Eu4  1  0.686150  0.702910  0.958600  1.0  2.1629
  Eu  Eu5  1  0.186150  0.797090  0.458600  1.0  2.1626
  Eu  Eu6  1  0.686150  0.297090  0.458600  1.0  2.1626
  Eu  Eu7  1  0.813850  0.797090  0.041400  1.0  2.1651
  Eu  Eu8  1  0.313850  0.297090  0.041400  1.0  2.1651
  H  H9  1  0.942300  0.409100  0.458800  1.0  0.1085
  H  H10  1  0.013300  0.445300  0.410600  1.0  0.1104
  H  H11  1  0.031300  0.156100  0.353600  1.0  0.1196
  H  H12  1  0.958900  0.122000  0.393100  1.0  0.1095
  H  H13  1  0.090000  0.259000  0.332000  1.0  0.097
  H  H14  1  0.156400  0.532500  0.440800  1.0  0.1175
  H  H15  1  0.142100  0.310900  0.237100  1.0  0.1008
  H  H16  1  0.263300  0.440800  0.306900  1.0  0.1066
  H  H17  1  0.874000  0.925000  0.842000  1.0  0.2887
  H  H18  1  0.442300  0.909100  0.458800  1.0  0.1085
  H  H19  1  0.513300  0.945300  0.410600  1.0  0.1104
  H  H20  1  0.531300  0.656100  0.353600  1.0  0.1196
  H  H21  1  0.458900  0.622000  0.393100  1.0  0.1095
  H  H22  1  0.590000  0.759000  0.332000  1.0  0.097
  H  H23  1  0.656400  0.032500  0.440800  1.0  0.1175
  H  H24  1  0.642100  0.810900  0.237100  1.0  0.1008
  H  H25  1  0.763300  0.940800  0.306900  1.0  0.1066
  H  H26  1  0.374000  0.425000  0.842000  1.0  0.2887
  H  H27  1  0.057700  0.409100  0.041200  1.0  0.1086
  H  H28  1  0.986700  0.445300  0.089400  1.0  0.1103
  H  H29  1  0.968700  0.156100  0.146400  1.0  0.1193
  H  H30  1  0.041100  0.122000  0.106900  1.0  0.1097
  H  H31  1  0.910000  0.259000  0.168000  1.0  0.0966
  H  H32  1  0.843600  0.532500  0.059200  1.0  0.1178
  H  H33  1  0.857900  0.310900  0.262900  1.0  0.101
  H  H34  1  0.736700  0.440800  0.193100  1.0  0.1066
  H  H35  1  0.126000  0.925000  0.658000  1.0  0.2892
  H  H36  1  0.557700  0.909100  0.041200  1.0  0.1086
  H  H37  1  0.486700  0.945300  0.089400  1.0  0.1103
  H  H38  1  0.468700  0.656100  0.146400  1.0  0.1193
  H  H39  1  0.541100  0.622000  0.106900  1.0  0.1097
  H  H40  1  0.410000  0.759000  0.168000  1.0  0.0966
  H  H41  1  0.343600  0.032500  0.059200  1.0  0.1178
  H  H42  1  0.357900  0.810900  0.262900  1.0  0.101
  H  H43  1  0.236700  0.940800  0.193100  1.0  0.1066
  H  H44  1  0.626000  0.425000  0.658000  1.0  0.2892
  H  H45  1  0.057700  0.590900  0.541200  1.0  0.1085
  H  H46  1  0.986700  0.554700  0.589400  1.0  0.1103
  H  H47  1  0.968700  0.843900  0.646400  1.0  0.1201
  H  H48  1  0.041100  0.878000  0.606900  1.0  0.11
  H  H49  1  0.910000  0.741000  0.668000  1.0  0.0967
  H  H50  1  0.843600  0.467500  0.559200  1.0  0.1178
  H  H51  1  0.857900  0.689100  0.762900  1.0  0.1001
  H  H52  1  0.736700  0.559200  0.693100  1.0  0.107
  H  H53  1  0.126000  0.075000  0.158000  1.0  0.2889
  H  H54  1  0.557700  0.090900  0.541200  1.0  0.1085
  H  H55  1  0.486700  0.054700  0.589400  1.0  0.1103
  H  H56  1  0.468700  0.343900  0.646400  1.0  0.1201
  H  H57  1  0.541100  0.378000  0.606900  1.0  0.11
  H  H58  1  0.410000  0.241000  0.668000  1.0  0.0967
  H  H59  1  0.343600  0.967500  0.559200  1.0  0.1178
  H  H60  1  0.357900  0.189100  0.762900  1.0  0.1001
  H  H61  1  0.236700  0.059200  0.693100  1.0  0.107
  H  H62  1  0.626000  0.575000  0.158000  1.0  0.2889
  H  H63  1  0.942300  0.590900  0.958800  1.0  0.1084
  H  H64  1  0.013300  0.554700  0.910600  1.0  0.1103
  H  H65  1  0.031300  0.843900  0.853600  1.0  0.12
  H  H66  1  0.958900  0.878000  0.893100  1.0  0.11
  H  H67  1  0.090000  0.741000  0.832000  1.0  0.097
  H  H68  1  0.156400  0.467500  0.940800  1.0  0.1177
  H  H69  1  0.142100  0.689100  0.737100  1.0  0.1004
  H  H70  1  0.263300  0.559200  0.806900  1.0  0.107
  H  H71  1  0.874000  0.075000  0.342000  1.0  0.2893
  H  H72  1  0.442300  0.090900  0.958800  1.0  0.1084
  H  H73  1  0.513300  0.054700  0.910600  1.0  0.1103
  H  H74  1  0.531300  0.343900  0.853600  1.0  0.12
  H  H75  1  0.458900  0.378000  0.893100  1.0  0.11
  H  H76  1  0.590000  0.241000  0.832000  1.0  0.097
  H  H77  1  0.656400  0.967500  0.940800  1.0  0.1177
  H  H78  1  0.642100  0.189100  0.737100  1.0  0.1004
  H  H79  1  0.763300  0.059200  0.806900  1.0  0.107
  H  H80  1  0.374000  0.575000  0.342000  1.0  0.2893
  C  C81  1  0.898370  0.240300  0.465600  1.0  0.7102
  C  C82  1  0.943500  0.261700  0.431500  1.0  -0.1303
  C  C83  1  0.960100  0.358400  0.436900  1.0  -0.012
  C  C84  1  0.003100  0.380000  0.410100  1.0  -0.0595
  C  C85  1  0.030800  0.303600  0.382600  1.0  -0.0259
  C  C86  1  0.013500  0.207100  0.374900  1.0  -0.0698
  C  C87  1  0.970100  0.186500  0.398900  1.0  -0.0425
  C  C88  1  0.078200  0.320200  0.363300  1.0  0.129
  C  C89  1  0.245320  0.569500  0.441600  1.0  0.7472
  C  C90  1  0.214520  0.495600  0.384100  1.0  -0.119
  C  C91  1  0.168910  0.489100  0.397400  1.0  -0.097
  C  C92  1  0.141780  0.416900  0.345200  1.0  0.1613
  C  C93  1  0.160300  0.357300  0.274200  1.0  -0.0808
  C  C94  1  0.205450  0.367200  0.259100  1.0  -0.1502
  C  C95  1  0.232670  0.435500  0.315500  1.0  0.0147
  C  C96  1  0.225960  0.305700  0.181000  1.0  0.728
  C  C97  1  0.854500  0.046000  0.752700  1.0  0.3615
  C  C98  1  0.872700  0.981900  0.620500  1.0  0.5473
  C  C99  1  0.398370  0.740300  0.465600  1.0  0.7102
  C  C100  1  0.443500  0.761700  0.431500  1.0  -0.1303
  C  C101  1  0.460100  0.858400  0.436900  1.0  -0.012
  C  C102  1  0.503100  0.880000  0.410100  1.0  -0.0595
  C  C103  1  0.530800  0.803600  0.382600  1.0  -0.0259
  C  C104  1  0.513500  0.707100  0.374900  1.0  -0.0698
  C  C105  1  0.470100  0.686500  0.398900  1.0  -0.0425
  C  C106  1  0.578200  0.820200  0.363300  1.0  0.129
  C  C107  1  0.745320  0.069500  0.441600  1.0  0.7472
  C  C108  1  0.714520  0.995600  0.384100  1.0  -0.119
  C  C109  1  0.668910  0.989100  0.397400  1.0  -0.097
  C  C110  1  0.641780  0.916900  0.345200  1.0  0.1613
  C  C111  1  0.660300  0.857300  0.274200  1.0  -0.0808
  C  C112  1  0.705450  0.867200  0.259100  1.0  -0.1502
  C  C113  1  0.732670  0.935500  0.315500  1.0  0.0147
  C  C114  1  0.725960  0.805700  0.181000  1.0  0.728
  C  C115  1  0.354500  0.546000  0.752700  1.0  0.3615
  C  C116  1  0.372700  0.481900  0.620500  1.0  0.5474
  C  C117  1  0.101630  0.240300  0.034400  1.0  0.711
  C  C118  1  0.056500  0.261700  0.068500  1.0  -0.13
  C  C119  1  0.039900  0.358400  0.063100  1.0  -0.0132
  C  C120  1  0.996900  0.380000  0.089900  1.0  -0.0618
  C  C121  1  0.969200  0.303600  0.117400  1.0  -0.0264
  C  C122  1  0.986500  0.207100  0.125100  1.0  -0.0707
  C  C123  1  0.029900  0.186500  0.101100  1.0  -0.0409
  C  C124  1  0.921800  0.320200  0.136700  1.0  0.1298
  C  C125  1  0.754680  0.569500  0.058400  1.0  0.7483
  C  C126  1  0.785480  0.495600  0.115900  1.0  -0.1199
  C  C127  1  0.831090  0.489100  0.102600  1.0  -0.0957
  C  C128  1  0.858220  0.416900  0.154800  1.0  0.1606
  C  C129  1  0.839700  0.357300  0.225800  1.0  -0.0806
  C  C130  1  0.794550  0.367200  0.240900  1.0  -0.1512
  C  C131  1  0.767330  0.435500  0.184500  1.0  0.0153
  C  C132  1  0.774040  0.305700  0.319000  1.0  0.7277
  C  C133  1  0.145500  0.046000  0.747300  1.0  0.3594
  C  C134  1  0.127300  0.981900  0.879500  1.0  0.5456
  C  C135  1  0.601630  0.740300  0.034400  1.0  0.711
  C  C136  1  0.556500  0.761700  0.068500  1.0  -0.13
  C  C137  1  0.539900  0.858400  0.063100  1.0  -0.0132
  C  C138  1  0.496900  0.880000  0.089900  1.0  -0.0618
  C  C139  1  0.469200  0.803600  0.117400  1.0  -0.0264
  C  C140  1  0.486500  0.707100  0.125100  1.0  -0.0707
  C  C141  1  0.529900  0.686500  0.101100  1.0  -0.0409
  C  C142  1  0.421800  0.820200  0.136700  1.0  0.1298
  C  C143  1  0.254680  0.069500  0.058400  1.0  0.7483
  C  C144  1  0.285480  0.995600  0.115900  1.0  -0.1199
  C  C145  1  0.331090  0.989100  0.102600  1.0  -0.0957
  C  C146  1  0.358220  0.916900  0.154800  1.0  0.1606
  C  C147  1  0.339700  0.857300  0.225800  1.0  -0.0806
  C  C148  1  0.294550  0.867200  0.240900  1.0  -0.1512
  C  C149  1  0.267330  0.935500  0.184500  1.0  0.0153
  C  C150  1  0.274040  0.805700  0.319000  1.0  0.7277
  C  C151  1  0.645500  0.546000  0.747300  1.0  0.3594
  C  C152  1  0.627300  0.481900  0.879500  1.0  0.5456
  C  C153  1  0.101630  0.759700  0.534400  1.0  0.7111
  C  C154  1  0.056500  0.738300  0.568500  1.0  -0.1297
  C  C155  1  0.039900  0.641600  0.563100  1.0  -0.0124
  C  C156  1  0.996900  0.620000  0.589900  1.0  -0.0609
  C  C157  1  0.969200  0.696400  0.617400  1.0  -0.0285
  C  C158  1  0.986500  0.792900  0.625100  1.0  -0.0695
  C  C159  1  0.029900  0.813500  0.601100  1.0  -0.0398
  C  C160  1  0.921800  0.679800  0.636700  1.0  0.1301
  C  C161  1  0.754680  0.430500  0.558400  1.0  0.7479
  C  C162  1  0.785480  0.504400  0.615900  1.0  -0.1203
  C  C163  1  0.831090  0.510900  0.602600  1.0  -0.0961
  C  C164  1  0.858220  0.583100  0.654800  1.0  0.1601
  C  C165  1  0.839700  0.642700  0.725800  1.0  -0.0815
  C  C166  1  0.794550  0.632800  0.740900  1.0  -0.1509
  C  C167  1  0.767330  0.564500  0.684500  1.0  0.0152
  C  C168  1  0.774040  0.694300  0.819000  1.0  0.7286
  C  C169  1  0.145500  0.954000  0.247300  1.0  0.3579
  C  C170  1  0.127300  0.018100  0.379500  1.0  0.5456
  C  C171  1  0.601630  0.259700  0.534400  1.0  0.7111
  C  C172  1  0.556500  0.238300  0.568500  1.0  -0.1297
  C  C173  1  0.539900  0.141600  0.563100  1.0  -0.0124
  C  C174  1  0.496900  0.120000  0.589900  1.0  -0.0609
  C  C175  1  0.469200  0.196400  0.617400  1.0  -0.0285
  C  C176  1  0.486500  0.292900  0.625100  1.0  -0.0695
  C  C177  1  0.529900  0.313500  0.601100  1.0  -0.0398
  C  C178  1  0.421800  0.179800  0.636700  1.0  0.1301
  C  C179  1  0.254680  0.930500  0.558400  1.0  0.7479
  C  C180  1  0.285480  0.004400  0.615900  1.0  -0.1203
  C  C181  1  0.331090  0.010900  0.602600  1.0  -0.0961
  C  C182  1  0.358220  0.083100  0.654800  1.0  0.1601
  C  C183  1  0.339700  0.142700  0.725800  1.0  -0.0815
  C  C184  1  0.294550  0.132800  0.740900  1.0  -0.1509
  C  C185  1  0.267330  0.064500  0.684500  1.0  0.0152
  C  C186  1  0.274040  0.194300  0.819000  1.0  0.7286
  C  C187  1  0.645500  0.454000  0.247300  1.0  0.3579
  C  C188  1  0.627300  0.518100  0.379500  1.0  0.5456
  C  C189  1  0.898370  0.759700  0.965600  1.0  0.7101
  C  C190  1  0.943500  0.738300  0.931500  1.0  -0.1306
  C  C191  1  0.960100  0.641600  0.936900  1.0  -0.0116
  C  C192  1  0.003100  0.620000  0.910100  1.0  -0.06
  C  C193  1  0.030800  0.696400  0.882600  1.0  -0.0251
  C  C194  1  0.013500  0.792900  0.874900  1.0  -0.07
  C  C195  1  0.970100  0.813500  0.898900  1.0  -0.0427
  C  C196  1  0.078200  0.679800  0.863300  1.0  0.1306
  C  C197  1  0.245320  0.430500  0.941600  1.0  0.7469
  C  C198  1  0.214520  0.504400  0.884100  1.0  -0.1192
  C  C199  1  0.168910  0.510900  0.897400  1.0  -0.0976
  C  C200  1  0.141780  0.583100  0.845200  1.0  0.1604
  C  C201  1  0.160300  0.642700  0.774200  1.0  -0.0806
  C  C202  1  0.205450  0.632800  0.759100  1.0  -0.1501
  C  C203  1  0.232670  0.564500  0.815500  1.0  0.0149
  C  C204  1  0.225960  0.694300  0.681000  1.0  0.7289
  C  C205  1  0.854500  0.954000  0.252700  1.0  0.3594
  C  C206  1  0.872700  0.018100  0.120500  1.0  0.547
  C  C207  1  0.398370  0.259700  0.965600  1.0  0.7101
  C  C208  1  0.443500  0.238300  0.931500  1.0  -0.1306
  C  C209  1  0.460100  0.141600  0.936900  1.0  -0.0116
  C  C210  1  0.503100  0.120000  0.910100  1.0  -0.06
  C  C211  1  0.530800  0.196400  0.882600  1.0  -0.0251
  C  C212  1  0.513500  0.292900  0.874900  1.0  -0.07
  C  C213  1  0.470100  0.313500  0.898900  1.0  -0.0427
  C  C214  1  0.578200  0.179800  0.863300  1.0  0.1306
  C  C215  1  0.745320  0.930500  0.941600  1.0  0.7469
  C  C216  1  0.714520  0.004400  0.884100  1.0  -0.1192
  C  C217  1  0.668910  0.010900  0.897400  1.0  -0.0976
  C  C218  1  0.641780  0.083100  0.845200  1.0  0.1604
  C  C219  1  0.660300  0.142700  0.774200  1.0  -0.0806
  C  C220  1  0.705450  0.132800  0.759100  1.0  -0.1501
  C  C221  1  0.732670  0.064500  0.815500  1.0  0.0149
  C  C222  1  0.725960  0.194300  0.681000  1.0  0.7289
  C  C223  1  0.354500  0.454000  0.252700  1.0  0.3594
  C  C224  1  0.372700  0.518100  0.120500  1.0  0.5471
  N  N225  1  0.095630  0.409200  0.363700  1.0  -0.4156
  N  N226  1  0.854660  0.064200  0.653800  1.0  -0.4082
  N  N227  1  0.870400  0.956000  0.773800  1.0  -0.0935
  N  N228  1  0.882500  0.911600  0.689500  1.0  -0.3373
  N  N229  1  0.844500  0.108900  0.828600  1.0  -0.2659
  N  N230  1  0.888000  0.960300  0.530100  1.0  -0.2556
  N  N231  1  0.595630  0.909200  0.363700  1.0  -0.4156
  N  N232  1  0.354660  0.564200  0.653800  1.0  -0.4082
  N  N233  1  0.370400  0.456000  0.773800  1.0  -0.0935
  N  N234  1  0.382500  0.411600  0.689500  1.0  -0.3373
  N  N235  1  0.344500  0.608900  0.828600  1.0  -0.2659
  N  N236  1  0.388000  0.460300  0.530100  1.0  -0.2556
  N  N237  1  0.904370  0.409200  0.136300  1.0  -0.4163
  N  N238  1  0.145340  0.064200  0.846200  1.0  -0.4087
  N  N239  1  0.129600  0.956000  0.726200  1.0  -0.0935
  N  N240  1  0.117500  0.911600  0.810500  1.0  -0.3377
  N  N241  1  0.155500  0.108900  0.671400  1.0  -0.2681
  N  N242  1  0.112000  0.960300  0.969900  1.0  -0.2533
  N  N243  1  0.404370  0.909200  0.136300  1.0  -0.4163
  N  N244  1  0.645340  0.564200  0.846200  1.0  -0.4087
  N  N245  1  0.629600  0.456000  0.726200  1.0  -0.0935
  N  N246  1  0.617500  0.411600  0.810500  1.0  -0.3377
  N  N247  1  0.655500  0.608900  0.671400  1.0  -0.2681
  N  N248  1  0.612000  0.460300  0.969900  1.0  -0.2533
  N  N249  1  0.904370  0.590800  0.636300  1.0  -0.4173
  N  N250  1  0.145340  0.935800  0.346200  1.0  -0.409
  N  N251  1  0.129600  0.044000  0.226200  1.0  -0.092
  N  N252  1  0.117500  0.088400  0.310500  1.0  -0.337
  N  N253  1  0.155500  0.891100  0.171400  1.0  -0.266
  N  N254  1  0.112000  0.039700  0.469900  1.0  -0.2524
  N  N255  1  0.404370  0.090800  0.636300  1.0  -0.4173
  N  N256  1  0.645340  0.435800  0.346200  1.0  -0.409
  N  N257  1  0.629600  0.544000  0.226200  1.0  -0.092
  N  N258  1  0.617500  0.588400  0.310500  1.0  -0.337
  N  N259  1  0.655500  0.391100  0.171400  1.0  -0.266
  N  N260  1  0.612000  0.539700  0.469900  1.0  -0.2524
  N  N261  1  0.095630  0.590800  0.863700  1.0  -0.4174
  N  N262  1  0.854660  0.935800  0.153800  1.0  -0.4089
  N  N263  1  0.870400  0.044000  0.273800  1.0  -0.0923
  N  N264  1  0.882500  0.088400  0.189500  1.0  -0.3369
  N  N265  1  0.844500  0.891100  0.328600  1.0  -0.2636
  N  N266  1  0.888000  0.039700  0.030100  1.0  -0.2535
  N  N267  1  0.595630  0.090800  0.863700  1.0  -0.4174
  N  N268  1  0.354660  0.435800  0.153800  1.0  -0.4089
  N  N269  1  0.370400  0.544000  0.273800  1.0  -0.0923
  N  N270  1  0.382500  0.588400  0.189500  1.0  -0.3369
  N  N271  1  0.344500  0.391100  0.328600  1.0  -0.2636
  N  N272  1  0.388000  0.539700  0.030100  1.0  -0.2535
  O  O273  1  0.882610  0.152100  0.459300  1.0  -0.6584
  O  O274  1  0.877010  0.308700  0.502300  1.0  -0.6807
  O  O275  1  0.229420  0.649900  0.469700  1.0  -0.8112
  O  O276  1  0.286780  0.549400  0.459800  1.0  -0.6224
  O  O277  1  0.200180  0.243600  0.133100  1.0  -0.7003
  O  O278  1  0.266350  0.323600  0.169600  1.0  -0.6818
  O  O279  1  0.382610  0.652100  0.459300  1.0  -0.6584
  O  O280  1  0.377010  0.808700  0.502300  1.0  -0.6807
  O  O281  1  0.729420  0.149900  0.469700  1.0  -0.8112
  O  O282  1  0.786780  0.049400  0.459800  1.0  -0.6224
  O  O283  1  0.700180  0.743600  0.133100  1.0  -0.7003
  O  O284  1  0.766350  0.823600  0.169600  1.0  -0.6818
  O  O285  1  0.117390  0.152100  0.040700  1.0  -0.6603
  O  O286  1  0.122990  0.308700  0.997700  1.0  -0.686
  O  O287  1  0.770580  0.649900  0.030300  1.0  -0.8111
  O  O288  1  0.713220  0.549400  0.040200  1.0  -0.6213
  O  O289  1  0.799820  0.243600  0.366900  1.0  -0.7004
  O  O290  1  0.733650  0.323600  0.330400  1.0  -0.6836
  O  O291  1  0.617390  0.652100  0.040700  1.0  -0.6603
  O  O292  1  0.622990  0.808700  0.997700  1.0  -0.686
  O  O293  1  0.270580  0.149900  0.030300  1.0  -0.8111
  O  O294  1  0.213220  0.049400  0.040200  1.0  -0.6213
  O  O295  1  0.299820  0.743600  0.366900  1.0  -0.7004
  O  O296  1  0.233650  0.823600  0.330400  1.0  -0.6836
  O  O297  1  0.117390  0.847900  0.540700  1.0  -0.6598
  O  O298  1  0.122990  0.691300  0.497700  1.0  -0.6835
  O  O299  1  0.770580  0.350100  0.530300  1.0  -0.8108
  O  O300  1  0.713220  0.450600  0.540200  1.0  -0.621
  O  O301  1  0.799820  0.756400  0.866900  1.0  -0.6998
  O  O302  1  0.733650  0.676400  0.830400  1.0  -0.6832
  O  O303  1  0.617390  0.347900  0.540700  1.0  -0.6598
  O  O304  1  0.622990  0.191300  0.497700  1.0  -0.6835
  O  O305  1  0.270580  0.850100  0.530300  1.0  -0.8108
  O  O306  1  0.213220  0.950600  0.540200  1.0  -0.621
  O  O307  1  0.299820  0.256400  0.866900  1.0  -0.6998
  O  O308  1  0.233650  0.176400  0.830400  1.0  -0.6832
  O  O309  1  0.882610  0.847900  0.959300  1.0  -0.6587
  O  O310  1  0.877010  0.691300  0.002300  1.0  -0.6806
  O  O311  1  0.229420  0.350100  0.969700  1.0  -0.8109
  O  O312  1  0.286780  0.450600  0.959800  1.0  -0.6228
  O  O313  1  0.200180  0.756400  0.633100  1.0  -0.6997
  O  O314  1  0.266350  0.676400  0.669600  1.0  -0.6817
  O  O315  1  0.382610  0.347900  0.959300  1.0  -0.6587
  O  O316  1  0.377010  0.191300  0.002300  1.0  -0.6806
  O  O317  1  0.729420  0.850100  0.969700  1.0  -0.8109
  O  O318  1  0.786780  0.950600  0.959800  1.0  -0.6228
  O  O319  1  0.700180  0.256400  0.633100  1.0  -0.6997
  O  O320  1  0.766350  0.176400  0.669600  1.0  -0.6817
