# generated using pymatgen
data_EuH14C20(NO2)3
_symmetry_space_group_name_H-M   'P 1'
_cell_length_a   29.70500000
_cell_length_b   12.96990000
_cell_length_c   13.82850000
_cell_angle_alpha   90.00000000
_cell_angle_beta   95.24700000
_cell_angle_gamma   90.00000000
_symmetry_Int_Tables_number   1
_chemical_formula_structural   EuH14C20(NO2)3
_chemical_formula_sum   'Eu8 H112 C160 N24 O48'
_cell_volume   5305.39371069
_cell_formula_units_Z   8
loop_
 _symmetry_equiv_pos_site_id
 _symmetry_equiv_pos_as_xyz
  1  'x, y, z'
loop_
 _atom_site_type_symbol
 _atom_site_label
 _atom_site_symmetry_multiplicity
 _atom_site_fract_x
 _atom_site_fract_y
 _atom_site_fract_z
 _atom_site_occupancy
 _atom_site_charge
  Eu  Eu1  1  0.314380  0.800060  0.036560  1.0  2.1346
  Eu  Eu2  1  0.814380  0.300060  0.036560  1.0  2.1346
  Eu  Eu3  1  0.685620  0.800060  0.463440  1.0  2.1332
  Eu  Eu4  1  0.185620  0.300060  0.463440  1.0  2.1332
  Eu  Eu5  1  0.685620  0.199940  0.963440  1.0  2.1325
  Eu  Eu6  1  0.185620  0.699940  0.963440  1.0  2.1325
  Eu  Eu7  1  0.314380  0.199940  0.536560  1.0  2.1338
  Eu  Eu8  1  0.814380  0.699940  0.536560  1.0  2.1338
  H  H9  1  0.561500  0.579400  0.571100  1.0  0.103
  H  H10  1  0.489000  0.545700  0.610700  1.0  0.1135
  H  H11  1  0.535900  0.882500  0.572800  1.0  0.1042
  H  H12  1  0.463900  0.849500  0.614600  1.0  0.0973
  H  H13  1  0.234600  0.577900  0.681200  1.0  0.113
  H  H14  1  0.357400  0.689100  0.769500  1.0  0.0972
  H  H15  1  0.344600  0.466400  0.566900  1.0  0.1147
  H  H16  1  0.288700  0.013800  0.173100  1.0  0.1036
  H  H17  1  0.410300  0.093400  0.284400  1.0  0.121
  H  H18  1  0.425400  0.879400  0.108800  1.0  0.1405
  H  H19  1  0.448600  0.901100  0.213300  1.0  0.1439
  H  H20  1  0.452100  0.982400  0.130500  1.0  0.136
  H  H21  1  0.403300  0.739000  0.645000  1.0  0.0896
  H  H22  1  0.326800  0.129000  0.290000  1.0  0.2213
  H  H23  1  0.061500  0.079400  0.571100  1.0  0.103
  H  H24  1  0.989000  0.045700  0.610700  1.0  0.1135
  H  H25  1  0.035900  0.382500  0.572800  1.0  0.1042
  H  H26  1  0.963900  0.349500  0.614600  1.0  0.0973
  H  H27  1  0.734600  0.077900  0.681200  1.0  0.113
  H  H28  1  0.857400  0.189100  0.769500  1.0  0.0972
  H  H29  1  0.844600  0.966400  0.566900  1.0  0.1147
  H  H30  1  0.788700  0.513800  0.173100  1.0  0.1036
  H  H31  1  0.910300  0.593400  0.284400  1.0  0.121
  H  H32  1  0.925400  0.379400  0.108800  1.0  0.1405
  H  H33  1  0.948600  0.401100  0.213300  1.0  0.1439
  H  H34  1  0.952100  0.482400  0.130500  1.0  0.136
  H  H35  1  0.903300  0.239000  0.645000  1.0  0.0896
  H  H36  1  0.826800  0.629000  0.290000  1.0  0.2213
  H  H37  1  0.438500  0.579400  0.928900  1.0  0.1029
  H  H38  1  0.511000  0.545700  0.889300  1.0  0.1135
  H  H39  1  0.464100  0.882500  0.927200  1.0  0.1041
  H  H40  1  0.536100  0.849500  0.885400  1.0  0.0979
  H  H41  1  0.765400  0.577900  0.818800  1.0  0.1123
  H  H42  1  0.642600  0.689100  0.730500  1.0  0.0971
  H  H43  1  0.655400  0.466400  0.933100  1.0  0.1151
  H  H44  1  0.711300  0.013800  0.326900  1.0  0.101
  H  H45  1  0.589700  0.093400  0.215600  1.0  0.1206
  H  H46  1  0.574600  0.879400  0.391200  1.0  0.1403
  H  H47  1  0.551400  0.901100  0.286700  1.0  0.1435
  H  H48  1  0.547900  0.982400  0.369500  1.0  0.1357
  H  H49  1  0.596700  0.739000  0.855000  1.0  0.0898
  H  H50  1  0.673200  0.129000  0.210000  1.0  0.2211
  H  H51  1  0.938500  0.079400  0.928900  1.0  0.1029
  H  H52  1  0.011000  0.045700  0.889300  1.0  0.1135
  H  H53  1  0.964100  0.382500  0.927200  1.0  0.1041
  H  H54  1  0.036100  0.349500  0.885400  1.0  0.0979
  H  H55  1  0.265400  0.077900  0.818800  1.0  0.1123
  H  H56  1  0.142600  0.189100  0.730500  1.0  0.0971
  H  H57  1  0.155400  0.966400  0.933100  1.0  0.1151
  H  H58  1  0.211300  0.513800  0.326900  1.0  0.101
  H  H59  1  0.089700  0.593400  0.215600  1.0  0.1206
  H  H60  1  0.074600  0.379400  0.391200  1.0  0.1403
  H  H61  1  0.051400  0.401100  0.286700  1.0  0.1435
  H  H62  1  0.047900  0.482400  0.369500  1.0  0.1357
  H  H63  1  0.096700  0.239000  0.855000  1.0  0.0898
  H  H64  1  0.173200  0.629000  0.210000  1.0  0.2211
  H  H65  1  0.438500  0.420600  0.428900  1.0  0.1031
  H  H66  1  0.511000  0.454300  0.389300  1.0  0.1134
  H  H67  1  0.464100  0.117500  0.427200  1.0  0.1043
  H  H68  1  0.536100  0.150500  0.385400  1.0  0.098
  H  H69  1  0.765400  0.422100  0.318800  1.0  0.1124
  H  H70  1  0.642600  0.310900  0.230500  1.0  0.0971
  H  H71  1  0.655400  0.533600  0.433100  1.0  0.115
  H  H72  1  0.711300  0.986200  0.826900  1.0  0.1015
  H  H73  1  0.589700  0.906600  0.715600  1.0  0.1208
  H  H74  1  0.574600  0.120600  0.891200  1.0  0.1403
  H  H75  1  0.551400  0.098900  0.786700  1.0  0.1437
  H  H76  1  0.547900  0.017600  0.869500  1.0  0.1356
  H  H77  1  0.596700  0.261000  0.355000  1.0  0.0907
  H  H78  1  0.673200  0.871000  0.710000  1.0  0.2208
  H  H79  1  0.938500  0.920600  0.428900  1.0  0.1031
  H  H80  1  0.011000  0.954300  0.389300  1.0  0.1134
  H  H81  1  0.964100  0.617500  0.427200  1.0  0.1043
  H  H82  1  0.036100  0.650500  0.385400  1.0  0.098
  H  H83  1  0.265400  0.922100  0.318800  1.0  0.1124
  H  H84  1  0.142600  0.810900  0.230500  1.0  0.0971
  H  H85  1  0.155400  0.033600  0.433100  1.0  0.115
  H  H86  1  0.211300  0.486200  0.826900  1.0  0.1015
  H  H87  1  0.089700  0.406600  0.715600  1.0  0.1208
  H  H88  1  0.074600  0.620600  0.891200  1.0  0.1403
  H  H89  1  0.051400  0.598900  0.786700  1.0  0.1437
  H  H90  1  0.047900  0.517600  0.869500  1.0  0.1356
  H  H91  1  0.096700  0.761000  0.355000  1.0  0.0907
  H  H92  1  0.173200  0.371000  0.710000  1.0  0.2208
  H  H93  1  0.561500  0.420600  0.071100  1.0  0.1028
  H  H94  1  0.489000  0.454300  0.110700  1.0  0.1136
  H  H95  1  0.535900  0.117500  0.072800  1.0  0.1043
  H  H96  1  0.463900  0.150500  0.114600  1.0  0.0972
  H  H97  1  0.234600  0.422100  0.181200  1.0  0.113
  H  H98  1  0.357400  0.310900  0.269500  1.0  0.0972
  H  H99  1  0.344600  0.533600  0.066900  1.0  0.1146
  H  H100  1  0.288700  0.986200  0.673100  1.0  0.1033
  H  H101  1  0.410300  0.906600  0.784400  1.0  0.1207
  H  H102  1  0.425400  0.120600  0.608800  1.0  0.1407
  H  H103  1  0.448600  0.098900  0.713300  1.0  0.1439
  H  H104  1  0.452100  0.017600  0.630500  1.0  0.1362
  H  H105  1  0.403300  0.261000  0.145000  1.0  0.0902
  H  H106  1  0.326800  0.871000  0.790000  1.0  0.2211
  H  H107  1  0.061500  0.920600  0.071100  1.0  0.1028
  H  H108  1  0.989000  0.954300  0.110700  1.0  0.1136
  H  H109  1  0.035900  0.617500  0.072800  1.0  0.1043
  H  H110  1  0.963900  0.650500  0.114600  1.0  0.0972
  H  H111  1  0.734600  0.922100  0.181200  1.0  0.113
  H  H112  1  0.857400  0.810900  0.269500  1.0  0.0972
  H  H113  1  0.844600  0.033600  0.066900  1.0  0.1146
  H  H114  1  0.788700  0.486200  0.673100  1.0  0.1033
  H  H115  1  0.910300  0.406600  0.784400  1.0  0.1207
  H  H116  1  0.925400  0.620600  0.608800  1.0  0.1407
  H  H117  1  0.948600  0.598900  0.713300  1.0  0.1439
  H  H118  1  0.952100  0.517600  0.630500  1.0  0.1362
  H  H119  1  0.903300  0.761000  0.145000  1.0  0.0902
  H  H120  1  0.826800  0.371000  0.790000  1.0  0.2211
  C  C121  1  0.602640  0.755200  0.539100  1.0  0.632
  C  C122  1  0.556500  0.734300  0.568400  1.0  -0.1709
  C  C123  1  0.541850  0.633900  0.579700  1.0  -0.0359
  C  C124  1  0.498460  0.613500  0.603600  1.0  -0.0494
  C  C125  1  0.526680  0.814800  0.581000  1.0  -0.0854
  C  C126  1  0.468980  0.694500  0.617000  1.0  -0.0784
  C  C127  1  0.483400  0.795000  0.605600  1.0  -0.1318
  C  C128  1  0.421880  0.676300  0.637600  1.0  0.1536
  C  C129  1  0.255750  0.437800  0.555000  1.0  0.7119
  C  C130  1  0.285250  0.510300  0.615200  1.0  -0.1299
  C  C131  1  0.265770  0.576600  0.679000  1.0  -0.0197
  C  C132  1  0.293250  0.640700  0.739400  1.0  -0.1457
  C  C133  1  0.339160  0.644700  0.730300  1.0  -0.099
  C  C134  1  0.358260  0.582500  0.662700  1.0  0.2229
  C  C135  1  0.331550  0.512100  0.608000  1.0  -0.0979
  C  C136  1  0.272690  0.701900  0.817500  1.0  0.6925
  C  C137  1  0.320000  0.015900  0.185500  1.0  0.2093
  C  C138  1  0.386800  0.060200  0.247800  1.0  -0.078
  C  C139  1  0.390700  0.982500  0.183400  1.0  0.1688
  C  C140  1  0.432990  0.931800  0.156600  1.0  -0.3866
  C  C141  1  0.102640  0.255200  0.539100  1.0  0.632
  C  C142  1  0.056500  0.234300  0.568400  1.0  -0.1709
  C  C143  1  0.041850  0.133900  0.579700  1.0  -0.0359
  C  C144  1  0.998460  0.113500  0.603600  1.0  -0.0494
  C  C145  1  0.026680  0.314800  0.581000  1.0  -0.0854
  C  C146  1  0.968980  0.194500  0.617000  1.0  -0.0784
  C  C147  1  0.983400  0.295000  0.605600  1.0  -0.1318
  C  C148  1  0.921880  0.176300  0.637600  1.0  0.1536
  C  C149  1  0.755750  0.937800  0.555000  1.0  0.7119
  C  C150  1  0.785250  0.010300  0.615200  1.0  -0.1299
  C  C151  1  0.765770  0.076600  0.679000  1.0  -0.0197
  C  C152  1  0.793250  0.140700  0.739400  1.0  -0.1457
  C  C153  1  0.839160  0.144700  0.730300  1.0  -0.099
  C  C154  1  0.858260  0.082500  0.662700  1.0  0.2229
  C  C155  1  0.831550  0.012100  0.608000  1.0  -0.0979
  C  C156  1  0.772690  0.201900  0.817500  1.0  0.6925
  C  C157  1  0.820000  0.515900  0.185500  1.0  0.2093
  C  C158  1  0.886800  0.560200  0.247800  1.0  -0.078
  C  C159  1  0.890700  0.482500  0.183400  1.0  0.1688
  C  C160  1  0.932990  0.431800  0.156600  1.0  -0.3866
  C  C161  1  0.397360  0.755200  0.960900  1.0  0.6322
  C  C162  1  0.443500  0.734300  0.931600  1.0  -0.1698
  C  C163  1  0.458150  0.633900  0.920300  1.0  -0.0353
  C  C164  1  0.501540  0.613500  0.896400  1.0  -0.0495
  C  C165  1  0.473320  0.814800  0.919000  1.0  -0.0869
  C  C166  1  0.531020  0.694500  0.883000  1.0  -0.0781
  C  C167  1  0.516600  0.795000  0.894400  1.0  -0.1324
  C  C168  1  0.578120  0.676300  0.862400  1.0  0.1521
  C  C169  1  0.744250  0.437800  0.945000  1.0  0.7109
  C  C170  1  0.714750  0.510300  0.884800  1.0  -0.1304
  C  C171  1  0.734230  0.576600  0.821000  1.0  -0.0209
  C  C172  1  0.706750  0.640700  0.760600  1.0  -0.1457
  C  C173  1  0.660840  0.644700  0.769700  1.0  -0.099
  C  C174  1  0.641740  0.582500  0.837300  1.0  0.2233
  C  C175  1  0.668450  0.512100  0.892000  1.0  -0.0991
  C  C176  1  0.727310  0.701900  0.682500  1.0  0.6922
  C  C177  1  0.680000  0.015900  0.314500  1.0  0.2122
  C  C178  1  0.613200  0.060200  0.252200  1.0  -0.0788
  C  C179  1  0.609300  0.982500  0.316600  1.0  0.1689
  C  C180  1  0.567010  0.931800  0.343400  1.0  -0.384
  C  C181  1  0.897360  0.255200  0.960900  1.0  0.6322
  C  C182  1  0.943500  0.234300  0.931600  1.0  -0.1698
  C  C183  1  0.958150  0.133900  0.920300  1.0  -0.0353
  C  C184  1  0.001540  0.113500  0.896400  1.0  -0.0495
  C  C185  1  0.973320  0.314800  0.919000  1.0  -0.0869
  C  C186  1  0.031020  0.194500  0.883000  1.0  -0.0781
  C  C187  1  0.016600  0.295000  0.894400  1.0  -0.1324
  C  C188  1  0.078120  0.176300  0.862400  1.0  0.1521
  C  C189  1  0.244250  0.937800  0.945000  1.0  0.7109
  C  C190  1  0.214750  0.010300  0.884800  1.0  -0.1304
  C  C191  1  0.234230  0.076600  0.821000  1.0  -0.0209
  C  C192  1  0.206750  0.140700  0.760600  1.0  -0.1457
  C  C193  1  0.160840  0.144700  0.769700  1.0  -0.099
  C  C194  1  0.141740  0.082500  0.837300  1.0  0.2233
  C  C195  1  0.168450  0.012100  0.892000  1.0  -0.0991
  C  C196  1  0.227310  0.201900  0.682500  1.0  0.6922
  C  C197  1  0.180000  0.515900  0.314500  1.0  0.2122
  C  C198  1  0.113200  0.560200  0.252200  1.0  -0.0788
  C  C199  1  0.109300  0.482500  0.316600  1.0  0.1689
  C  C200  1  0.067010  0.431800  0.343400  1.0  -0.384
  C  C201  1  0.397360  0.244800  0.460900  1.0  0.6309
  C  C202  1  0.443500  0.265700  0.431600  1.0  -0.1695
  C  C203  1  0.458150  0.366100  0.420300  1.0  -0.036
  C  C204  1  0.501540  0.386500  0.396400  1.0  -0.0497
  C  C205  1  0.473320  0.185200  0.419000  1.0  -0.0863
  C  C206  1  0.531020  0.305500  0.383000  1.0  -0.0777
  C  C207  1  0.516600  0.205000  0.394400  1.0  -0.1323
  C  C208  1  0.578120  0.323700  0.362400  1.0  0.1526
  C  C209  1  0.744250  0.562200  0.445000  1.0  0.7114
  C  C210  1  0.714750  0.489700  0.384800  1.0  -0.1307
  C  C211  1  0.734230  0.423400  0.321000  1.0  -0.0206
  C  C212  1  0.706750  0.359300  0.260600  1.0  -0.1458
  C  C213  1  0.660840  0.355300  0.269700  1.0  -0.099
  C  C214  1  0.641740  0.417500  0.337300  1.0  0.2237
  C  C215  1  0.668450  0.487900  0.392000  1.0  -0.0994
  C  C216  1  0.727310  0.298100  0.182500  1.0  0.6923
  C  C217  1  0.680000  0.984100  0.814500  1.0  0.2119
  C  C218  1  0.613200  0.939800  0.752200  1.0  -0.0781
  C  C219  1  0.609300  0.017500  0.816600  1.0  0.1694
  C  C220  1  0.567010  0.068200  0.843400  1.0  -0.3847
  C  C221  1  0.897360  0.744800  0.460900  1.0  0.6309
  C  C222  1  0.943500  0.765700  0.431600  1.0  -0.1695
  C  C223  1  0.958150  0.866100  0.420300  1.0  -0.036
  C  C224  1  0.001540  0.886500  0.396400  1.0  -0.0497
  C  C225  1  0.973320  0.685200  0.419000  1.0  -0.0863
  C  C226  1  0.031020  0.805500  0.383000  1.0  -0.0777
  C  C227  1  0.016600  0.705000  0.394400  1.0  -0.1323
  C  C228  1  0.078120  0.823700  0.362400  1.0  0.1526
  C  C229  1  0.244250  0.062200  0.445000  1.0  0.7114
  C  C230  1  0.214750  0.989700  0.384800  1.0  -0.1307
  C  C231  1  0.234230  0.923400  0.321000  1.0  -0.0206
  C  C232  1  0.206750  0.859300  0.260600  1.0  -0.1458
  C  C233  1  0.160840  0.855300  0.269700  1.0  -0.099
  C  C234  1  0.141740  0.917500  0.337300  1.0  0.2237
  C  C235  1  0.168450  0.987900  0.392000  1.0  -0.0994
  C  C236  1  0.227310  0.798100  0.182500  1.0  0.6923
  C  C237  1  0.180000  0.484100  0.814500  1.0  0.2119
  C  C238  1  0.113200  0.439800  0.752200  1.0  -0.0781
  C  C239  1  0.109300  0.517500  0.816600  1.0  0.1694
  C  C240  1  0.067010  0.568200  0.843400  1.0  -0.3847
  C  C241  1  0.602640  0.244800  0.039100  1.0  0.6333
  C  C242  1  0.556500  0.265700  0.068400  1.0  -0.1707
  C  C243  1  0.541850  0.366100  0.079700  1.0  -0.0359
  C  C244  1  0.498460  0.386500  0.103600  1.0  -0.0509
  C  C245  1  0.526680  0.185200  0.081000  1.0  -0.0856
  C  C246  1  0.468980  0.305500  0.117000  1.0  -0.0775
  C  C247  1  0.483400  0.205000  0.105600  1.0  -0.1323
  C  C248  1  0.421880  0.323700  0.137600  1.0  0.154
  C  C249  1  0.255750  0.562200  0.055000  1.0  0.7118
  C  C250  1  0.285250  0.489700  0.115200  1.0  -0.1299
  C  C251  1  0.265770  0.423400  0.179000  1.0  -0.0196
  C  C252  1  0.293250  0.359300  0.239400  1.0  -0.1459
  C  C253  1  0.339160  0.355300  0.230300  1.0  -0.0985
  C  C254  1  0.358260  0.417500  0.162700  1.0  0.2234
  C  C255  1  0.331550  0.487900  0.108000  1.0  -0.0977
  C  C256  1  0.272690  0.298100  0.317500  1.0  0.6925
  C  C257  1  0.320000  0.984100  0.685500  1.0  0.2095
  C  C258  1  0.386800  0.939800  0.747800  1.0  -0.0772
  C  C259  1  0.390700  0.017500  0.683400  1.0  0.1687
  C  C260  1  0.432990  0.068200  0.656600  1.0  -0.3871
  C  C261  1  0.102640  0.744800  0.039100  1.0  0.6333
  C  C262  1  0.056500  0.765700  0.068400  1.0  -0.1707
  C  C263  1  0.041850  0.866100  0.079700  1.0  -0.0359
  C  C264  1  0.998460  0.886500  0.103600  1.0  -0.0509
  C  C265  1  0.026680  0.685200  0.081000  1.0  -0.0856
  C  C266  1  0.968980  0.805500  0.117000  1.0  -0.0775
  C  C267  1  0.983400  0.705000  0.105600  1.0  -0.1323
  C  C268  1  0.921880  0.823700  0.137600  1.0  0.154
  C  C269  1  0.755750  0.062200  0.055000  1.0  0.7118
  C  C270  1  0.785250  0.989700  0.115200  1.0  -0.1299
  C  C271  1  0.765770  0.923400  0.179000  1.0  -0.0196
  C  C272  1  0.793250  0.859300  0.239400  1.0  -0.1459
  C  C273  1  0.839160  0.855300  0.230300  1.0  -0.0985
  C  C274  1  0.858260  0.917500  0.162700  1.0  0.2234
  C  C275  1  0.831550  0.987900  0.108000  1.0  -0.0977
  C  C276  1  0.772690  0.798100  0.317500  1.0  0.6925
  C  C277  1  0.820000  0.484100  0.685500  1.0  0.2095
  C  C278  1  0.886800  0.439800  0.747800  1.0  -0.0772
  C  C279  1  0.890700  0.517500  0.683400  1.0  0.1687
  C  C280  1  0.932990  0.568200  0.656600  1.0  -0.3871
  N  N281  1  0.405120  0.587700  0.646400  1.0  -0.3455
  N  N282  1  0.347720  0.955000  0.142300  1.0  -0.3736
  N  N283  1  0.341530  0.080500  0.248500  1.0  -0.351
  N  N284  1  0.905120  0.087700  0.646400  1.0  -0.3455
  N  N285  1  0.847720  0.455000  0.142300  1.0  -0.3736
  N  N286  1  0.841530  0.580500  0.248500  1.0  -0.351
  N  N287  1  0.594880  0.587700  0.853600  1.0  -0.3458
  N  N288  1  0.652280  0.955000  0.357700  1.0  -0.3732
  N  N289  1  0.658470  0.080500  0.251500  1.0  -0.3494
  N  N290  1  0.094880  0.087700  0.853600  1.0  -0.3458
  N  N291  1  0.152280  0.455000  0.357700  1.0  -0.3732
  N  N292  1  0.158470  0.580500  0.251500  1.0  -0.3494
  N  N293  1  0.594880  0.412300  0.353600  1.0  -0.3455
  N  N294  1  0.652280  0.045000  0.857700  1.0  -0.3733
  N  N295  1  0.658470  0.919500  0.751500  1.0  -0.3486
  N  N296  1  0.094880  0.912300  0.353600  1.0  -0.3455
  N  N297  1  0.152280  0.545000  0.857700  1.0  -0.3733
  N  N298  1  0.158470  0.419500  0.751500  1.0  -0.3486
  N  N299  1  0.405120  0.412300  0.146400  1.0  -0.3467
  N  N300  1  0.347720  0.045000  0.642300  1.0  -0.3731
  N  N301  1  0.341530  0.919500  0.748500  1.0  -0.3499
  N  N302  1  0.905120  0.912300  0.146400  1.0  -0.3467
  N  N303  1  0.847720  0.545000  0.642300  1.0  -0.3731
  N  N304  1  0.841530  0.419500  0.748500  1.0  -0.3499
  O  O305  1  0.616350  0.847700  0.536600  1.0  -0.6123
  O  O306  1  0.627020  0.681000  0.516500  1.0  -0.6756
  O  O307  1  0.272250  0.354600  0.525400  1.0  -0.7915
  O  O308  1  0.215070  0.459800  0.535200  1.0  -0.6251
  O  O309  1  0.233160  0.681600  0.833300  1.0  -0.7056
  O  O310  1  0.297860  0.769600  0.862400  1.0  -0.6364
  O  O311  1  0.116350  0.347700  0.536600  1.0  -0.6123
  O  O312  1  0.127020  0.181000  0.516500  1.0  -0.6756
  O  O313  1  0.772250  0.854600  0.525400  1.0  -0.7915
  O  O314  1  0.715070  0.959800  0.535200  1.0  -0.6251
  O  O315  1  0.733160  0.181600  0.833300  1.0  -0.7056
  O  O316  1  0.797860  0.269600  0.862400  1.0  -0.6364
  O  O317  1  0.383650  0.847700  0.963400  1.0  -0.6127
  O  O318  1  0.372980  0.681000  0.983500  1.0  -0.6762
  O  O319  1  0.727750  0.354600  0.974600  1.0  -0.7921
  O  O320  1  0.784930  0.459800  0.964800  1.0  -0.6242
  O  O321  1  0.766840  0.681600  0.666667  1.0  -0.7038
  O  O322  1  0.702140  0.769600  0.637600  1.0  -0.6357
  O  O323  1  0.883650  0.347700  0.963400  1.0  -0.6127
  O  O324  1  0.872980  0.181000  0.983500  1.0  -0.6762
  O  O325  1  0.227750  0.854600  0.974600  1.0  -0.7921
  O  O326  1  0.284930  0.959800  0.964800  1.0  -0.6242
  O  O327  1  0.266840  0.181600  0.666667  1.0  -0.7038
  O  O328  1  0.202140  0.269600  0.637600  1.0  -0.6357
  O  O329  1  0.383650  0.152300  0.463400  1.0  -0.6121
  O  O330  1  0.372980  0.319000  0.483500  1.0  -0.6767
  O  O331  1  0.727750  0.645400  0.474600  1.0  -0.7926
  O  O332  1  0.784930  0.540200  0.464800  1.0  -0.6232
  O  O333  1  0.766840  0.318400  0.166700  1.0  -0.703
  O  O334  1  0.702140  0.230400  0.137600  1.0  -0.6363
  O  O335  1  0.883650  0.652300  0.463400  1.0  -0.6121
  O  O336  1  0.872980  0.819000  0.483500  1.0  -0.6767
  O  O337  1  0.227750  0.145400  0.474600  1.0  -0.7926
  O  O338  1  0.284930  0.040200  0.464800  1.0  -0.6232
  O  O339  1  0.266840  0.818400  0.166700  1.0  -0.703
  O  O340  1  0.202140  0.730400  0.137600  1.0  -0.6363
  O  O341  1  0.616350  0.152300  0.036600  1.0  -0.6106
  O  O342  1  0.627020  0.319000  0.016500  1.0  -0.6754
  O  O343  1  0.272250  0.645400  0.025400  1.0  -0.7922
  O  O344  1  0.215070  0.540200  0.035200  1.0  -0.6237
  O  O345  1  0.233160  0.318400  0.333333  1.0  -0.7052
  O  O346  1  0.297860  0.230400  0.362400  1.0  -0.6362
  O  O347  1  0.116350  0.652300  0.036600  1.0  -0.6106
  O  O348  1  0.127020  0.819000  0.016500  1.0  -0.6754
  O  O349  1  0.772250  0.145400  0.025400  1.0  -0.7922
  O  O350  1  0.715070  0.040200  0.035200  1.0  -0.6237
  O  O351  1  0.733160  0.818400  0.333333  1.0  -0.7052
  O  O352  1  0.797860  0.730400  0.362400  1.0  -0.6362
