# generated using pymatgen
data_EuH11C19(NO2)3
_symmetry_space_group_name_H-M   'P 1'
_cell_length_a   29.79310000
_cell_length_b   12.79290000
_cell_length_c   13.78930000
_cell_angle_alpha   90.00000000
_cell_angle_beta   95.18500000
_cell_angle_gamma   90.00000000
_symmetry_Int_Tables_number   1
_chemical_formula_structural   EuH11C19(NO2)3
_chemical_formula_sum   'Eu8 H88 C152 N24 O48'
_cell_volume   5234.15019644
_cell_formula_units_Z   8
loop_
 _symmetry_equiv_pos_site_id
 _symmetry_equiv_pos_as_xyz
  1  'x, y, z'
loop_
 _atom_site_type_symbol
 _atom_site_label
 _atom_site_symmetry_multiplicity
 _atom_site_fract_x
 _atom_site_fract_y
 _atom_site_fract_z
 _atom_site_occupancy
 _atom_site_charge
  Eu  Eu1  1  0.186580  0.699450  0.962090  1.0  2.1278
  Eu  Eu2  1  0.686580  0.199450  0.962090  1.0  2.1278
  Eu  Eu3  1  0.813420  0.699450  0.537910  1.0  2.1282
  Eu  Eu4  1  0.313420  0.199450  0.537910  1.0  2.1282
  Eu  Eu5  1  0.813420  0.300550  0.037910  1.0  2.1285
  Eu  Eu6  1  0.313420  0.800550  0.037910  1.0  2.1285
  Eu  Eu7  1  0.186580  0.300550  0.462090  1.0  2.1278
  Eu  Eu8  1  0.686580  0.800550  0.462090  1.0  2.1278
  H  H9  1  0.535400  0.106700  0.063100  1.0  0.1217
  H  H10  1  0.463700  0.140700  0.108600  1.0  0.1081
  H  H11  1  0.490600  0.444900  0.126200  1.0  0.1163
  H  H12  1  0.563200  0.414000  0.081500  1.0  0.1123
  H  H13  1  0.405000  0.247000  0.154000  1.0  0.1033
  H  H14  1  0.344600  0.525100  0.059700  1.0  0.1081
  H  H15  1  0.358000  0.301800  0.264200  1.0  0.1061
  H  H16  1  0.235400  0.422700  0.183400  1.0  0.1112
  H  H17  1  0.086900  0.563400  0.837800  1.0  0.0982
  H  H18  1  0.088100  0.432000  0.707000  1.0  0.1184
  H  H19  1  0.211000  0.467600  0.828300  1.0  0.109
  H  H20  1  0.035400  0.606700  0.063100  1.0  0.1217
  H  H21  1  0.963700  0.640700  0.108600  1.0  0.1081
  H  H22  1  0.990600  0.944900  0.126200  1.0  0.1163
  H  H23  1  0.063200  0.914000  0.081500  1.0  0.1123
  H  H24  1  0.905000  0.747000  0.154000  1.0  0.1033
  H  H25  1  0.844600  0.025100  0.059700  1.0  0.1081
  H  H26  1  0.858000  0.801800  0.264200  1.0  0.1061
  H  H27  1  0.735400  0.922700  0.183400  1.0  0.1112
  H  H28  1  0.586900  0.063400  0.837800  1.0  0.0982
  H  H29  1  0.588100  0.932000  0.707000  1.0  0.1184
  H  H30  1  0.711000  0.967600  0.828300  1.0  0.109
  H  H31  1  0.464600  0.106700  0.436900  1.0  0.1215
  H  H32  1  0.536300  0.140700  0.391400  1.0  0.1085
  H  H33  1  0.509400  0.444900  0.373800  1.0  0.1162
  H  H34  1  0.436800  0.414000  0.418500  1.0  0.1129
  H  H35  1  0.595000  0.247000  0.346000  1.0  0.1035
  H  H36  1  0.655400  0.525100  0.440300  1.0  0.1075
  H  H37  1  0.642000  0.301800  0.235800  1.0  0.1062
  H  H38  1  0.764600  0.422700  0.316600  1.0  0.1121
  H  H39  1  0.913100  0.563400  0.662200  1.0  0.0983
  H  H40  1  0.911900  0.432000  0.793000  1.0  0.1218
  H  H41  1  0.789000  0.467600  0.671700  1.0  0.1099
  H  H42  1  0.964600  0.606700  0.436900  1.0  0.1215
  H  H43  1  0.036300  0.640700  0.391400  1.0  0.1085
  H  H44  1  0.009400  0.944900  0.373800  1.0  0.1162
  H  H45  1  0.936800  0.914000  0.418500  1.0  0.1129
  H  H46  1  0.095000  0.747000  0.346000  1.0  0.1035
  H  H47  1  0.155400  0.025100  0.440300  1.0  0.1075
  H  H48  1  0.142000  0.801800  0.235800  1.0  0.1062
  H  H49  1  0.264600  0.922700  0.316600  1.0  0.1121
  H  H50  1  0.413100  0.063400  0.662200  1.0  0.0983
  H  H51  1  0.411900  0.932000  0.793000  1.0  0.1218
  H  H52  1  0.289000  0.967600  0.671700  1.0  0.1099
  H  H53  1  0.464600  0.893300  0.936900  1.0  0.1212
  H  H54  1  0.536300  0.859300  0.891400  1.0  0.1084
  H  H55  1  0.509400  0.555100  0.873800  1.0  0.1164
  H  H56  1  0.436800  0.586000  0.918500  1.0  0.1122
  H  H57  1  0.595000  0.753000  0.846000  1.0  0.1035
  H  H58  1  0.655400  0.474900  0.940300  1.0  0.1077
  H  H59  1  0.642000  0.698200  0.735800  1.0  0.1061
  H  H60  1  0.764600  0.577300  0.816600  1.0  0.1122
  H  H61  1  0.913100  0.436600  0.162200  1.0  0.0983
  H  H62  1  0.911900  0.568000  0.293000  1.0  0.1192
  H  H63  1  0.789000  0.532400  0.171700  1.0  0.1101
  H  H64  1  0.964600  0.393300  0.936900  1.0  0.1212
  H  H65  1  0.036300  0.359300  0.891400  1.0  0.1084
  H  H66  1  0.009400  0.055100  0.873800  1.0  0.1164
  H  H67  1  0.936800  0.086000  0.918500  1.0  0.1122
  H  H68  1  0.095000  0.253000  0.846000  1.0  0.1035
  H  H69  1  0.155400  0.974900  0.940300  1.0  0.1077
  H  H70  1  0.142000  0.198200  0.735800  1.0  0.1061
  H  H71  1  0.264600  0.077300  0.816600  1.0  0.1122
  H  H72  1  0.413100  0.936600  0.162200  1.0  0.0983
  H  H73  1  0.411900  0.068000  0.293000  1.0  0.1192
  H  H74  1  0.289000  0.032400  0.171700  1.0  0.1101
  H  H75  1  0.535400  0.893300  0.563100  1.0  0.1211
  H  H76  1  0.463700  0.859300  0.608600  1.0  0.1088
  H  H77  1  0.490600  0.555100  0.626200  1.0  0.1164
  H  H78  1  0.563200  0.586000  0.581500  1.0  0.1124
  H  H79  1  0.405000  0.753000  0.654000  1.0  0.1039
  H  H80  1  0.344600  0.474900  0.559700  1.0  0.108
  H  H81  1  0.358000  0.698200  0.764200  1.0  0.1058
  H  H82  1  0.235400  0.577300  0.683400  1.0  0.1115
  H  H83  1  0.086900  0.436600  0.337800  1.0  0.0982
  H  H84  1  0.088100  0.568000  0.207000  1.0  0.1213
  H  H85  1  0.211000  0.532400  0.328300  1.0  0.109
  H  H86  1  0.035400  0.393300  0.563100  1.0  0.1211
  H  H87  1  0.963700  0.359300  0.608600  1.0  0.1088
  H  H88  1  0.990600  0.055100  0.626200  1.0  0.1164
  H  H89  1  0.063200  0.086000  0.581500  1.0  0.1124
  H  H90  1  0.905000  0.253000  0.654000  1.0  0.1039
  H  H91  1  0.844600  0.974900  0.559700  1.0  0.108
  H  H92  1  0.858000  0.198200  0.764200  1.0  0.1058
  H  H93  1  0.735400  0.077300  0.683400  1.0  0.1115
  H  H94  1  0.586900  0.936600  0.337800  1.0  0.0982
  H  H95  1  0.588100  0.068000  0.207000  1.0  0.1213
  H  H96  1  0.711000  0.032400  0.328300  1.0  0.109
  C  C97  1  0.603200  0.238200  0.037100  1.0  0.6916
  C  C98  1  0.556800  0.258200  0.068300  1.0  -0.1289
  C  C99  1  0.526700  0.174800  0.075500  1.0  -0.0955
  C  C100  1  0.483500  0.195700  0.101600  1.0  -0.1052
  C  C101  1  0.469900  0.296200  0.117000  1.0  -0.0549
  C  C102  1  0.499500  0.377300  0.112300  1.0  -0.0563
  C  C103  1  0.543300  0.358600  0.086400  1.0  -0.0178
  C  C104  1  0.422100  0.311300  0.137300  1.0  0.2165
  C  C105  1  0.255600  0.557300  0.052200  1.0  0.7228
  C  C106  1  0.285300  0.486400  0.112000  1.0  -0.1372
  C  C107  1  0.331700  0.481000  0.102800  1.0  -0.0881
  C  C108  1  0.358400  0.409700  0.158100  1.0  0.2125
  C  C109  1  0.339800  0.348100  0.226400  1.0  -0.1606
  C  C110  1  0.293700  0.354600  0.239200  1.0  -0.1609
  C  C111  1  0.266300  0.421500  0.178900  1.0  -0.0449
  C  C112  1  0.273700  0.291800  0.316400  1.0  0.7438
  C  C113  1  0.112400  0.529900  0.819300  1.0  0.0132
  C  C114  1  0.112800  0.455000  0.747400  1.0  -0.0351
  C  C115  1  0.180100  0.476400  0.813800  1.0  0.2669
  C  C116  1  0.103200  0.738200  0.037100  1.0  0.6916
  C  C117  1  0.056800  0.758200  0.068300  1.0  -0.1289
  C  C118  1  0.026700  0.674800  0.075500  1.0  -0.0955
  C  C119  1  0.983500  0.695700  0.101600  1.0  -0.1052
  C  C120  1  0.969900  0.796200  0.117000  1.0  -0.0549
  C  C121  1  0.999500  0.877300  0.112300  1.0  -0.0563
  C  C122  1  0.043300  0.858600  0.086400  1.0  -0.0178
  C  C123  1  0.922100  0.811300  0.137300  1.0  0.2165
  C  C124  1  0.755600  0.057300  0.052200  1.0  0.7228
  C  C125  1  0.785300  0.986400  0.112000  1.0  -0.1372
  C  C126  1  0.831700  0.981000  0.102800  1.0  -0.0881
  C  C127  1  0.858400  0.909700  0.158100  1.0  0.2125
  C  C128  1  0.839800  0.848100  0.226400  1.0  -0.1606
  C  C129  1  0.793700  0.854600  0.239200  1.0  -0.1609
  C  C130  1  0.766300  0.921500  0.178900  1.0  -0.0449
  C  C131  1  0.773700  0.791800  0.316400  1.0  0.7438
  C  C132  1  0.612400  0.029900  0.819300  1.0  0.0132
  C  C133  1  0.612800  0.955000  0.747400  1.0  -0.0351
  C  C134  1  0.680100  0.976400  0.813800  1.0  0.2669
  C  C135  1  0.396800  0.238200  0.462900  1.0  0.6903
  C  C136  1  0.443200  0.258200  0.431700  1.0  -0.129
  C  C137  1  0.473300  0.174800  0.424500  1.0  -0.0974
  C  C138  1  0.516500  0.195700  0.398400  1.0  -0.1057
  C  C139  1  0.530100  0.296200  0.383000  1.0  -0.0547
  C  C140  1  0.500500  0.377300  0.387700  1.0  -0.0551
  C  C141  1  0.456700  0.358600  0.413600  1.0  -0.0167
  C  C142  1  0.577900  0.311300  0.362700  1.0  0.2162
  C  C143  1  0.744400  0.557300  0.447800  1.0  0.7241
  C  C144  1  0.714700  0.486400  0.388000  1.0  -0.1389
  C  C145  1  0.668300  0.481000  0.397200  1.0  -0.089
  C  C146  1  0.641600  0.409700  0.341900  1.0  0.2127
  C  C147  1  0.660200  0.348100  0.273600  1.0  -0.1611
  C  C148  1  0.706300  0.354600  0.260800  1.0  -0.1612
  C  C149  1  0.733700  0.421500  0.321100  1.0  -0.0454
  C  C150  1  0.726300  0.291800  0.183600  1.0  0.7428
  C  C151  1  0.887600  0.529900  0.680700  1.0  0.0139
  C  C152  1  0.887200  0.455000  0.752600  1.0  -0.0348
  C  C153  1  0.819900  0.476400  0.686200  1.0  0.2676
  C  C154  1  0.896800  0.738200  0.462900  1.0  0.6903
  C  C155  1  0.943200  0.758200  0.431700  1.0  -0.129
  C  C156  1  0.973300  0.674800  0.424500  1.0  -0.0974
  C  C157  1  0.016500  0.695700  0.398400  1.0  -0.1057
  C  C158  1  0.030100  0.796200  0.383000  1.0  -0.0547
  C  C159  1  0.000500  0.877300  0.387700  1.0  -0.0551
  C  C160  1  0.956700  0.858600  0.413600  1.0  -0.0167
  C  C161  1  0.077900  0.811300  0.362700  1.0  0.2162
  C  C162  1  0.244400  0.057300  0.447800  1.0  0.7241
  C  C163  1  0.214700  0.986400  0.388000  1.0  -0.1389
  C  C164  1  0.168300  0.981000  0.397200  1.0  -0.089
  C  C165  1  0.141600  0.909700  0.341900  1.0  0.2127
  C  C166  1  0.160200  0.848100  0.273600  1.0  -0.1611
  C  C167  1  0.206300  0.854600  0.260800  1.0  -0.1612
  C  C168  1  0.233700  0.921500  0.321100  1.0  -0.0454
  C  C169  1  0.226300  0.791800  0.183600  1.0  0.7428
  C  C170  1  0.387600  0.029900  0.680700  1.0  0.0139
  C  C171  1  0.387200  0.955000  0.752600  1.0  -0.0348
  C  C172  1  0.319900  0.976400  0.686200  1.0  0.2676
  C  C173  1  0.396800  0.761800  0.962900  1.0  0.6906
  C  C174  1  0.443200  0.741800  0.931700  1.0  -0.1292
  C  C175  1  0.473300  0.825200  0.924500  1.0  -0.098
  C  C176  1  0.516500  0.804300  0.898400  1.0  -0.1047
  C  C177  1  0.530100  0.703800  0.883000  1.0  -0.0541
  C  C178  1  0.500500  0.622700  0.887700  1.0  -0.055
  C  C179  1  0.456700  0.641400  0.913600  1.0  -0.0162
  C  C180  1  0.577900  0.688700  0.862700  1.0  0.2164
  C  C181  1  0.744400  0.442700  0.947800  1.0  0.7237
  C  C182  1  0.714700  0.513600  0.888000  1.0  -0.1387
  C  C183  1  0.668300  0.519000  0.897200  1.0  -0.0895
  C  C184  1  0.641600  0.590300  0.841900  1.0  0.2122
  C  C185  1  0.660200  0.651900  0.773600  1.0  -0.1612
  C  C186  1  0.706300  0.645400  0.760800  1.0  -0.1614
  C  C187  1  0.733700  0.578500  0.821100  1.0  -0.0455
  C  C188  1  0.726300  0.708200  0.683600  1.0  0.7432
  C  C189  1  0.887600  0.470100  0.180700  1.0  0.0127
  C  C190  1  0.887200  0.545000  0.252600  1.0  -0.0348
  C  C191  1  0.819900  0.523600  0.186200  1.0  0.2674
  C  C192  1  0.896800  0.261800  0.962900  1.0  0.6906
  C  C193  1  0.943200  0.241800  0.931700  1.0  -0.1292
  C  C194  1  0.973300  0.325200  0.924500  1.0  -0.098
  C  C195  1  0.016500  0.304300  0.898400  1.0  -0.1047
  C  C196  1  0.030100  0.203800  0.883000  1.0  -0.0541
  C  C197  1  0.000500  0.122700  0.887700  1.0  -0.055
  C  C198  1  0.956700  0.141400  0.913600  1.0  -0.0162
  C  C199  1  0.077900  0.188700  0.862700  1.0  0.2164
  C  C200  1  0.244400  0.942700  0.947800  1.0  0.7237
  C  C201  1  0.214700  0.013600  0.888000  1.0  -0.1387
  C  C202  1  0.168300  0.019000  0.897200  1.0  -0.0895
  C  C203  1  0.141600  0.090300  0.841900  1.0  0.2122
  C  C204  1  0.160200  0.151900  0.773600  1.0  -0.1612
  C  C205  1  0.206300  0.145400  0.760800  1.0  -0.1614
  C  C206  1  0.233700  0.078500  0.821100  1.0  -0.0455
  C  C207  1  0.226300  0.208200  0.683600  1.0  0.7432
  C  C208  1  0.387600  0.970100  0.180700  1.0  0.0127
  C  C209  1  0.387200  0.045000  0.252600  1.0  -0.0348
  C  C210  1  0.319900  0.023600  0.186200  1.0  0.2674
  C  C211  1  0.603200  0.761800  0.537100  1.0  0.6913
  C  C212  1  0.556800  0.741800  0.568300  1.0  -0.1287
  C  C213  1  0.526700  0.825200  0.575500  1.0  -0.0961
  C  C214  1  0.483500  0.804300  0.601600  1.0  -0.1049
  C  C215  1  0.469900  0.703800  0.617000  1.0  -0.0561
  C  C216  1  0.499500  0.622700  0.612300  1.0  -0.0554
  C  C217  1  0.543300  0.641400  0.586400  1.0  -0.0182
  C  C218  1  0.422100  0.688700  0.637300  1.0  0.2158
  C  C219  1  0.255600  0.442700  0.552200  1.0  0.7227
  C  C220  1  0.285300  0.513600  0.612000  1.0  -0.1371
  C  C221  1  0.331700  0.519000  0.602800  1.0  -0.0888
  C  C222  1  0.358400  0.590300  0.658100  1.0  0.2123
  C  C223  1  0.339800  0.651900  0.726400  1.0  -0.1612
  C  C224  1  0.293700  0.645400  0.739200  1.0  -0.1608
  C  C225  1  0.266300  0.578500  0.678900  1.0  -0.0452
  C  C226  1  0.273700  0.708200  0.816400  1.0  0.7441
  C  C227  1  0.112400  0.470100  0.319300  1.0  0.0132
  C  C228  1  0.112800  0.545000  0.247400  1.0  -0.0349
  C  C229  1  0.180100  0.523600  0.313800  1.0  0.2671
  C  C230  1  0.103200  0.261800  0.537100  1.0  0.6913
  C  C231  1  0.056800  0.241800  0.568300  1.0  -0.1287
  C  C232  1  0.026700  0.325200  0.575500  1.0  -0.0961
  C  C233  1  0.983500  0.304300  0.601600  1.0  -0.1049
  C  C234  1  0.969900  0.203800  0.617000  1.0  -0.0561
  C  C235  1  0.999500  0.122700  0.612300  1.0  -0.0554
  C  C236  1  0.043300  0.141400  0.586400  1.0  -0.0182
  C  C237  1  0.922100  0.188700  0.637300  1.0  0.2158
  C  C238  1  0.755600  0.942700  0.552200  1.0  0.7227
  C  C239  1  0.785300  0.013600  0.612000  1.0  -0.1371
  C  C240  1  0.831700  0.019000  0.602800  1.0  -0.0888
  C  C241  1  0.858400  0.090300  0.658100  1.0  0.2123
  C  C242  1  0.839800  0.151900  0.726400  1.0  -0.1612
  C  C243  1  0.793700  0.145400  0.739200  1.0  -0.1608
  C  C244  1  0.766300  0.078500  0.678900  1.0  -0.0452
  C  C245  1  0.773700  0.208200  0.816400  1.0  0.7441
  C  C246  1  0.612400  0.970100  0.319300  1.0  0.0132
  C  C247  1  0.612800  0.045000  0.247400  1.0  -0.0349
  C  C248  1  0.680100  0.023600  0.313800  1.0  0.2671
  N  N249  1  0.404800  0.403200  0.143000  1.0  -0.3971
  N  N250  1  0.154700  0.546900  0.858500  1.0  -0.3578
  N  N251  1  0.155200  0.421800  0.746800  1.0  -0.2575
  N  N252  1  0.904800  0.903200  0.143000  1.0  -0.3971
  N  N253  1  0.654700  0.046900  0.858500  1.0  -0.3578
  N  N254  1  0.655200  0.921800  0.746800  1.0  -0.2575
  N  N255  1  0.595200  0.403200  0.357000  1.0  -0.3957
  N  N256  1  0.845300  0.546900  0.641500  1.0  -0.3572
  N  N257  1  0.844800  0.421800  0.753200  1.0  -0.2601
  N  N258  1  0.095200  0.903200  0.357000  1.0  -0.3957
  N  N259  1  0.345300  0.046900  0.641500  1.0  -0.3572
  N  N260  1  0.344800  0.921800  0.753200  1.0  -0.2601
  N  N261  1  0.595200  0.596800  0.857000  1.0  -0.3965
  N  N262  1  0.845300  0.453100  0.141500  1.0  -0.3574
  N  N263  1  0.844800  0.578200  0.253200  1.0  -0.2596
  N  N264  1  0.095200  0.096800  0.857000  1.0  -0.3965
  N  N265  1  0.345300  0.953100  0.141500  1.0  -0.3574
  N  N266  1  0.344800  0.078200  0.253200  1.0  -0.2596
  N  N267  1  0.404800  0.596800  0.643000  1.0  -0.3972
  N  N268  1  0.154700  0.453100  0.358500  1.0  -0.3579
  N  N269  1  0.155200  0.578200  0.246800  1.0  -0.2571
  N  N270  1  0.904800  0.096800  0.643000  1.0  -0.3972
  N  N271  1  0.654700  0.953100  0.358500  1.0  -0.3579
  N  N272  1  0.655200  0.078200  0.246800  1.0  -0.2571
  O  O273  1  0.616370  0.146500  0.029800  1.0  -0.6027
  O  O274  1  0.627100  0.315400  0.017300  1.0  -0.6516
  O  O275  1  0.214900  0.536000  0.034800  1.0  -0.6242
  O  O276  1  0.271730  0.642600  0.022300  1.0  -0.8216
  O  O277  1  0.298060  0.226500  0.363900  1.0  -0.6889
  O  O278  1  0.232900  0.312000  0.329300  1.0  -0.7209
  O  O279  1  0.116370  0.646500  0.029800  1.0  -0.6027
  O  O280  1  0.127100  0.815400  0.017300  1.0  -0.6516
  O  O281  1  0.714900  0.036000  0.034800  1.0  -0.6242
  O  O282  1  0.771730  0.142600  0.022300  1.0  -0.8216
  O  O283  1  0.798060  0.726500  0.363900  1.0  -0.6889
  O  O284  1  0.732900  0.812000  0.329300  1.0  -0.7209
  O  O285  1  0.383630  0.146500  0.470200  1.0  -0.6022
  O  O286  1  0.372900  0.315400  0.482700  1.0  -0.6523
  O  O287  1  0.785100  0.536000  0.465200  1.0  -0.6242
  O  O288  1  0.728270  0.642600  0.477700  1.0  -0.8217
  O  O289  1  0.701940  0.226500  0.136100  1.0  -0.6875
  O  O290  1  0.767100  0.312000  0.170700  1.0  -0.7196
  O  O291  1  0.883630  0.646500  0.470200  1.0  -0.6021
  O  O292  1  0.872900  0.815400  0.482700  1.0  -0.6523
  O  O293  1  0.285100  0.036000  0.465200  1.0  -0.6242
  O  O294  1  0.228270  0.142600  0.477700  1.0  -0.8217
  O  O295  1  0.201940  0.726500  0.136100  1.0  -0.6875
  O  O296  1  0.267100  0.812000  0.170700  1.0  -0.7196
  O  O297  1  0.383630  0.853500  0.970200  1.0  -0.603
  O  O298  1  0.372900  0.684600  0.982700  1.0  -0.6532
  O  O299  1  0.785100  0.464000  0.965200  1.0  -0.624
  O  O300  1  0.728270  0.357400  0.977700  1.0  -0.8219
  O  O301  1  0.701940  0.773500  0.636100  1.0  -0.6879
  O  O302  1  0.767100  0.688000  0.670700  1.0  -0.72
  O  O303  1  0.883630  0.353500  0.970200  1.0  -0.603
  O  O304  1  0.872900  0.184600  0.982700  1.0  -0.6532
  O  O305  1  0.285100  0.964000  0.965200  1.0  -0.624
  O  O306  1  0.228270  0.857400  0.977700  1.0  -0.8219
  O  O307  1  0.201940  0.273500  0.636100  1.0  -0.6879
  O  O308  1  0.267100  0.188000  0.670700  1.0  -0.72
  O  O309  1  0.616370  0.853500  0.529800  1.0  -0.6027
  O  O310  1  0.627100  0.684600  0.517300  1.0  -0.6543
  O  O311  1  0.214900  0.464000  0.534800  1.0  -0.6248
  O  O312  1  0.271730  0.357400  0.522300  1.0  -0.8221
  O  O313  1  0.298060  0.773500  0.863900  1.0  -0.6895
  O  O314  1  0.232900  0.688000  0.829300  1.0  -0.7213
  O  O315  1  0.116370  0.353500  0.529800  1.0  -0.6027
  O  O316  1  0.127100  0.184600  0.517300  1.0  -0.6543
  O  O317  1  0.714900  0.964000  0.534800  1.0  -0.6248
  O  O318  1  0.771730  0.857400  0.522300  1.0  -0.8221
  O  O319  1  0.798060  0.273500  0.863900  1.0  -0.6895
  O  O320  1  0.732900  0.188000  0.829300  1.0  -0.7213
