# generated using pymatgen
data_EuH8C16NO6
_symmetry_space_group_name_H-M   'P 1'
_cell_length_a   29.54670000
_cell_length_b   12.96850000
_cell_length_c   14.23610000
_cell_angle_alpha   90.00000000
_cell_angle_beta   94.61000000
_cell_angle_gamma   90.00000000
_symmetry_Int_Tables_number   1
_chemical_formula_structural   EuH8C16NO6
_chemical_formula_sum   'Eu8 H64 C128 N8 O48'
_cell_volume   5437.28979498
_cell_formula_units_Z   8
loop_
 _symmetry_equiv_pos_site_id
 _symmetry_equiv_pos_as_xyz
  1  'x, y, z'
loop_
 _atom_site_type_symbol
 _atom_site_label
 _atom_site_symmetry_multiplicity
 _atom_site_fract_x
 _atom_site_fract_y
 _atom_site_fract_z
 _atom_site_occupancy
 _atom_site_charge
  Eu  Eu1  1  0.186590  0.700050  0.967550  1.0  2.1084
  Eu  Eu2  1  0.686590  0.200050  0.967550  1.0  2.1084
  Eu  Eu3  1  0.813410  0.700050  0.532450  1.0  2.1114
  Eu  Eu4  1  0.313410  0.200050  0.532450  1.0  2.1114
  Eu  Eu5  1  0.813410  0.299950  0.032450  1.0  2.1122
  Eu  Eu6  1  0.313410  0.799950  0.032450  1.0  2.1122
  Eu  Eu7  1  0.186590  0.299950  0.467550  1.0  2.1086
  Eu  Eu8  1  0.686590  0.799950  0.467550  1.0  2.1086
  H  H9  1  0.042800  0.622900  0.113100  1.0  0.1098
  H  H10  1  0.968800  0.653200  0.150500  1.0  0.1312
  H  H11  1  0.986500  0.954600  0.100600  1.0  0.1149
  H  H12  1  0.058600  0.921400  0.057600  1.0  0.1098
  H  H13  1  0.843200  0.030800  0.068700  1.0  0.1165
  H  H14  1  0.856400  0.813900  0.269900  1.0  0.1082
  H  H15  1  0.734500  0.939100  0.199200  1.0  0.123
  H  H16  1  0.911000  0.756000  0.163000  1.0  0.0882
  H  H17  1  0.542800  0.122900  0.113100  1.0  0.1098
  H  H18  1  0.468800  0.153200  0.150500  1.0  0.1312
  H  H19  1  0.486500  0.454600  0.100600  1.0  0.1149
  H  H20  1  0.558600  0.421400  0.057600  1.0  0.1098
  H  H21  1  0.343200  0.530800  0.068700  1.0  0.1165
  H  H22  1  0.356400  0.313900  0.269900  1.0  0.1082
  H  H23  1  0.234500  0.439100  0.199200  1.0  0.123
  H  H24  1  0.411000  0.256000  0.163000  1.0  0.0882
  H  H25  1  0.957200  0.622900  0.386900  1.0  0.1095
  H  H26  1  0.031200  0.653200  0.349500  1.0  0.1318
  H  H27  1  0.013500  0.954600  0.399400  1.0  0.1146
  H  H28  1  0.941400  0.921400  0.442400  1.0  0.1101
  H  H29  1  0.156800  0.030800  0.431300  1.0  0.1157
  H  H30  1  0.143600  0.813900  0.230100  1.0  0.1084
  H  H31  1  0.265500  0.939100  0.300800  1.0  0.1229
  H  H32  1  0.089000  0.756000  0.337000  1.0  0.0887
  H  H33  1  0.457200  0.122900  0.386900  1.0  0.1095
  H  H34  1  0.531200  0.153200  0.349500  1.0  0.1318
  H  H35  1  0.513500  0.454600  0.399400  1.0  0.1146
  H  H36  1  0.441400  0.421400  0.442400  1.0  0.1101
  H  H37  1  0.656800  0.530800  0.431300  1.0  0.1157
  H  H38  1  0.643600  0.313900  0.230100  1.0  0.1084
  H  H39  1  0.765500  0.439100  0.300800  1.0  0.1229
  H  H40  1  0.589000  0.256000  0.337000  1.0  0.0887
  H  H41  1  0.957200  0.377100  0.886900  1.0  0.1099
  H  H42  1  0.031200  0.346800  0.849500  1.0  0.1316
  H  H43  1  0.013500  0.045400  0.899400  1.0  0.115
  H  H44  1  0.941400  0.078600  0.942400  1.0  0.1098
  H  H45  1  0.156800  0.969200  0.931300  1.0  0.1159
  H  H46  1  0.143600  0.186100  0.730100  1.0  0.1086
  H  H47  1  0.265500  0.060900  0.800800  1.0  0.1229
  H  H48  1  0.089000  0.244000  0.837000  1.0  0.0892
  H  H49  1  0.457200  0.877100  0.886900  1.0  0.1099
  H  H50  1  0.531200  0.846800  0.849500  1.0  0.1316
  H  H51  1  0.513500  0.545400  0.899400  1.0  0.115
  H  H52  1  0.441400  0.578600  0.942400  1.0  0.1098
  H  H53  1  0.656800  0.469200  0.931300  1.0  0.1159
  H  H54  1  0.643600  0.686100  0.730100  1.0  0.1086
  H  H55  1  0.765500  0.560900  0.800800  1.0  0.1229
  H  H56  1  0.589000  0.744000  0.837000  1.0  0.0892
  H  H57  1  0.042800  0.377100  0.613100  1.0  0.1097
  H  H58  1  0.968800  0.346800  0.650500  1.0  0.1314
  H  H59  1  0.986500  0.045400  0.600600  1.0  0.1152
  H  H60  1  0.058600  0.078600  0.557600  1.0  0.1095
  H  H61  1  0.843200  0.969200  0.568700  1.0  0.1167
  H  H62  1  0.856400  0.186100  0.769900  1.0  0.1078
  H  H63  1  0.734500  0.060900  0.699200  1.0  0.1232
  H  H64  1  0.911000  0.244000  0.663000  1.0  0.0896
  H  H65  1  0.542800  0.877100  0.613100  1.0  0.1097
  H  H66  1  0.468800  0.846800  0.650500  1.0  0.1314
  H  H67  1  0.486500  0.545400  0.600600  1.0  0.1152
  H  H68  1  0.558600  0.578600  0.557600  1.0  0.1095
  H  H69  1  0.343200  0.469200  0.568700  1.0  0.1167
  H  H70  1  0.356400  0.686100  0.769900  1.0  0.1078
  H  H71  1  0.234500  0.560900  0.699200  1.0  0.1232
  H  H72  1  0.411000  0.744000  0.663000  1.0  0.0896
  C  C73  1  0.102300  0.744700  0.040600  1.0  0.6906
  C  C74  1  0.057300  0.768200  0.077600  1.0  -0.1358
  C  C75  1  0.031000  0.689400  0.108400  1.0  -0.0378
  C  C76  1  0.986900  0.707500  0.132800  1.0  -0.1919
  C  C77  1  0.970200  0.807200  0.130200  1.0  -0.0136
  C  C78  1  0.997500  0.887300  0.102000  1.0  -0.0516
  C  C79  1  0.040600  0.867400  0.076200  1.0  -0.0441
  C  C80  1  0.922900  0.823300  0.150700  1.0  0.1433
  C  C81  1  0.754800  0.065600  0.065100  1.0  0.7285
  C  C82  1  0.784440  0.993900  0.124500  1.0  -0.1239
  C  C83  1  0.830500  0.988200  0.112000  1.0  -0.099
  C  C84  1  0.857300  0.918400  0.164800  1.0  0.2173
  C  C85  1  0.838300  0.859600  0.233200  1.0  -0.0921
  C  C86  1  0.792410  0.868300  0.247300  1.0  -0.1461
  C  C87  1  0.765400  0.934500  0.191600  1.0  0.0198
  C  C88  1  0.772700  0.808900  0.325100  1.0  0.7865
  C  C89  1  0.602300  0.244700  0.040600  1.0  0.6906
  C  C90  1  0.557300  0.268200  0.077600  1.0  -0.1358
  C  C91  1  0.531000  0.189400  0.108400  1.0  -0.0378
  C  C92  1  0.486900  0.207500  0.132800  1.0  -0.1919
  C  C93  1  0.470200  0.307200  0.130200  1.0  -0.0136
  C  C94  1  0.497500  0.387300  0.102000  1.0  -0.0516
  C  C95  1  0.540600  0.367400  0.076200  1.0  -0.0441
  C  C96  1  0.422900  0.323300  0.150700  1.0  0.1433
  C  C97  1  0.254800  0.565600  0.065100  1.0  0.7285
  C  C98  1  0.284440  0.493900  0.124500  1.0  -0.1239
  C  C99  1  0.330500  0.488200  0.112000  1.0  -0.099
  C  C100  1  0.357300  0.418400  0.164800  1.0  0.2173
  C  C101  1  0.338300  0.359600  0.233200  1.0  -0.0921
  C  C102  1  0.292410  0.368300  0.247300  1.0  -0.1461
  C  C103  1  0.265400  0.434500  0.191600  1.0  0.0198
  C  C104  1  0.272700  0.308900  0.325100  1.0  0.7865
  C  C105  1  0.897700  0.744700  0.459400  1.0  0.69
  C  C106  1  0.942700  0.768200  0.422400  1.0  -0.1373
  C  C107  1  0.969000  0.689400  0.391600  1.0  -0.0382
  C  C108  1  0.013100  0.707500  0.367200  1.0  -0.1921
  C  C109  1  0.029800  0.807200  0.369800  1.0  -0.0134
  C  C110  1  0.002500  0.887300  0.398000  1.0  -0.0509
  C  C111  1  0.959400  0.867400  0.423800  1.0  -0.0441
  C  C112  1  0.077100  0.823300  0.349300  1.0  0.1412
  C  C113  1  0.245200  0.065600  0.434900  1.0  0.7285
  C  C114  1  0.215560  0.993900  0.375500  1.0  -0.1248
  C  C115  1  0.169500  0.988200  0.388000  1.0  -0.0998
  C  C116  1  0.142700  0.918400  0.335200  1.0  0.2172
  C  C117  1  0.161700  0.859600  0.266800  1.0  -0.0934
  C  C118  1  0.207590  0.868300  0.252700  1.0  -0.1455
  C  C119  1  0.234600  0.934500  0.308400  1.0  0.022
  C  C120  1  0.227300  0.808900  0.174900  1.0  0.7849
  C  C121  1  0.397700  0.244700  0.459400  1.0  0.69
  C  C122  1  0.442700  0.268200  0.422400  1.0  -0.1373
  C  C123  1  0.469000  0.189400  0.391600  1.0  -0.0382
  C  C124  1  0.513100  0.207500  0.367200  1.0  -0.1921
  C  C125  1  0.529800  0.307200  0.369800  1.0  -0.0134
  C  C126  1  0.502500  0.387300  0.398000  1.0  -0.0509
  C  C127  1  0.459400  0.367400  0.423800  1.0  -0.0441
  C  C128  1  0.577100  0.323300  0.349300  1.0  0.1412
  C  C129  1  0.745200  0.565600  0.434900  1.0  0.7285
  C  C130  1  0.715560  0.493900  0.375500  1.0  -0.1248
  C  C131  1  0.669500  0.488200  0.388000  1.0  -0.0998
  C  C132  1  0.642700  0.418400  0.335200  1.0  0.2172
  C  C133  1  0.661700  0.359600  0.266800  1.0  -0.0934
  C  C134  1  0.707590  0.368300  0.252700  1.0  -0.1455
  C  C135  1  0.734600  0.434500  0.308400  1.0  0.022
  C  C136  1  0.727300  0.308900  0.174900  1.0  0.7849
  C  C137  1  0.897700  0.255300  0.959400  1.0  0.6901
  C  C138  1  0.942700  0.231800  0.922400  1.0  -0.1365
  C  C139  1  0.969000  0.310600  0.891600  1.0  -0.0387
  C  C140  1  0.013100  0.292500  0.867200  1.0  -0.1913
  C  C141  1  0.029800  0.192800  0.869800  1.0  -0.0124
  C  C142  1  0.002500  0.112700  0.898000  1.0  -0.0516
  C  C143  1  0.959400  0.132600  0.923800  1.0  -0.043
  C  C144  1  0.077100  0.176700  0.849300  1.0  0.1395
  C  C145  1  0.245200  0.934400  0.934900  1.0  0.7291
  C  C146  1  0.215560  0.006100  0.875500  1.0  -0.1248
  C  C147  1  0.169500  0.011800  0.888000  1.0  -0.1003
  C  C148  1  0.142700  0.081600  0.835200  1.0  0.2171
  C  C149  1  0.161700  0.140400  0.766800  1.0  -0.0935
  C  C150  1  0.207590  0.131700  0.752700  1.0  -0.1453
  C  C151  1  0.234600  0.065500  0.808400  1.0  0.0222
  C  C152  1  0.227300  0.191100  0.674900  1.0  0.7854
  C  C153  1  0.397700  0.755300  0.959400  1.0  0.6901
  C  C154  1  0.442700  0.731800  0.922400  1.0  -0.1365
  C  C155  1  0.469000  0.810600  0.891600  1.0  -0.0387
  C  C156  1  0.513100  0.792500  0.867200  1.0  -0.1913
  C  C157  1  0.529800  0.692800  0.869800  1.0  -0.0124
  C  C158  1  0.502500  0.612700  0.898000  1.0  -0.0516
  C  C159  1  0.459400  0.632600  0.923800  1.0  -0.043
  C  C160  1  0.577100  0.676700  0.849300  1.0  0.1395
  C  C161  1  0.745200  0.434400  0.934900  1.0  0.7291
  C  C162  1  0.715560  0.506100  0.875500  1.0  -0.1248
  C  C163  1  0.669500  0.511800  0.888000  1.0  -0.1003
  C  C164  1  0.642700  0.581600  0.835200  1.0  0.2171
  C  C165  1  0.661700  0.640400  0.766800  1.0  -0.0935
  C  C166  1  0.707590  0.631700  0.752700  1.0  -0.1453
  C  C167  1  0.734600  0.565500  0.808400  1.0  0.0222
  C  C168  1  0.727300  0.691100  0.674900  1.0  0.7854
  C  C169  1  0.102300  0.255300  0.540600  1.0  0.6908
  C  C170  1  0.057300  0.231800  0.577600  1.0  -0.1355
  C  C171  1  0.031000  0.310600  0.608400  1.0  -0.038
  C  C172  1  0.986900  0.292500  0.632800  1.0  -0.1916
  C  C173  1  0.970200  0.192800  0.630200  1.0  -0.0138
  C  C174  1  0.997500  0.112700  0.602000  1.0  -0.0525
  C  C175  1  0.040600  0.132600  0.576200  1.0  -0.044
  C  C176  1  0.922900  0.176700  0.650700  1.0  0.1408
  C  C177  1  0.754800  0.934400  0.565100  1.0  0.729
  C  C178  1  0.784440  0.006100  0.624500  1.0  -0.1243
  C  C179  1  0.830500  0.011800  0.612000  1.0  -0.0995
  C  C180  1  0.857300  0.081600  0.664800  1.0  0.2173
  C  C181  1  0.838300  0.140400  0.733200  1.0  -0.0928
  C  C182  1  0.792410  0.131700  0.747300  1.0  -0.1455
  C  C183  1  0.765400  0.065500  0.691600  1.0  0.0202
  C  C184  1  0.772700  0.191100  0.825100  1.0  0.787
  C  C185  1  0.602300  0.755300  0.540600  1.0  0.6908
  C  C186  1  0.557300  0.731800  0.577600  1.0  -0.1355
  C  C187  1  0.531000  0.810600  0.608400  1.0  -0.038
  C  C188  1  0.486900  0.792500  0.632800  1.0  -0.1916
  C  C189  1  0.470200  0.692800  0.630200  1.0  -0.0138
  C  C190  1  0.497500  0.612700  0.602000  1.0  -0.0525
  C  C191  1  0.540600  0.632600  0.576200  1.0  -0.044
  C  C192  1  0.422900  0.676700  0.650700  1.0  0.1408
  C  C193  1  0.254800  0.434400  0.565100  1.0  0.729
  C  C194  1  0.284440  0.506100  0.624500  1.0  -0.1243
  C  C195  1  0.330500  0.511800  0.612000  1.0  -0.0995
  C  C196  1  0.357300  0.581600  0.664800  1.0  0.2173
  C  C197  1  0.338300  0.640400  0.733200  1.0  -0.0928
  C  C198  1  0.292410  0.631700  0.747300  1.0  -0.1455
  C  C199  1  0.265400  0.565500  0.691600  1.0  0.0202
  C  C200  1  0.272700  0.691100  0.825100  1.0  0.787
  N  N201  1  0.903950  0.911900  0.147900  1.0  -0.3764
  N  N202  1  0.403950  0.411900  0.147900  1.0  -0.3764
  N  N203  1  0.096050  0.911900  0.352100  1.0  -0.377
  N  N204  1  0.596050  0.411900  0.352100  1.0  -0.377
  N  N205  1  0.096050  0.088100  0.852100  1.0  -0.378
  N  N206  1  0.596050  0.588100  0.852100  1.0  -0.378
  N  N207  1  0.903950  0.088100  0.647900  1.0  -0.378
  N  N208  1  0.403950  0.588100  0.647900  1.0  -0.378
  O  O209  1  0.125040  0.816800  0.008700  1.0  -0.6972
  O  O210  1  0.116690  0.653200  0.043100  1.0  -0.6793
  O  O211  1  0.713190  0.044900  0.050300  1.0  -0.6147
  O  O212  1  0.770960  0.146100  0.029600  1.0  -0.8133
  O  O213  1  0.798150  0.746000  0.370100  1.0  -0.7003
  O  O214  1  0.732560  0.828800  0.340800  1.0  -0.7725
  O  O215  1  0.625040  0.316800  0.008700  1.0  -0.6972
  O  O216  1  0.616690  0.153200  0.043100  1.0  -0.6796
  O  O217  1  0.213190  0.544900  0.050300  1.0  -0.6147
  O  O218  1  0.270960  0.646100  0.029600  1.0  -0.8133
  O  O219  1  0.298150  0.246000  0.370100  1.0  -0.7003
  O  O220  1  0.232560  0.328800  0.340800  1.0  -0.7725
  O  O221  1  0.874960  0.816800  0.491300  1.0  -0.6977
  O  O222  1  0.883310  0.653200  0.456900  1.0  -0.685
  O  O223  1  0.286810  0.044900  0.449700  1.0  -0.6163
  O  O224  1  0.229040  0.146100  0.470400  1.0  -0.814
  O  O225  1  0.201850  0.746000  0.129900  1.0  -0.7003
  O  O226  1  0.267440  0.828800  0.159200  1.0  -0.7698
  O  O227  1  0.374960  0.316800  0.491300  1.0  -0.6977
  O  O228  1  0.383310  0.153200  0.456900  1.0  -0.685
  O  O229  1  0.786810  0.544900  0.449700  1.0  -0.6163
  O  O230  1  0.729040  0.646100  0.470400  1.0  -0.814
  O  O231  1  0.701850  0.246000  0.129900  1.0  -0.7003
  O  O232  1  0.767440  0.328800  0.159200  1.0  -0.7698
  O  O233  1  0.874960  0.183200  0.991300  1.0  -0.6965
  O  O234  1  0.883310  0.346800  0.956900  1.0  -0.6838
  O  O235  1  0.286810  0.955100  0.949700  1.0  -0.6181
  O  O236  1  0.229040  0.853900  0.970400  1.0  -0.814
  O  O237  1  0.201850  0.254000  0.629900  1.0  -0.6999
  O  O238  1  0.267440  0.171200  0.659200  1.0  -0.7699
  O  O239  1  0.374960  0.683200  0.991300  1.0  -0.6965
  O  O240  1  0.383310  0.846800  0.956900  1.0  -0.6842
  O  O241  1  0.786810  0.455100  0.949700  1.0  -0.6181
  O  O242  1  0.729040  0.353900  0.970400  1.0  -0.814
  O  O243  1  0.701850  0.754000  0.629900  1.0  -0.6999
  O  O244  1  0.767440  0.671200  0.659200  1.0  -0.7699
  O  O245  1  0.125040  0.183200  0.508700  1.0  -0.6997
  O  O246  1  0.116690  0.346800  0.543100  1.0  -0.6835
  O  O247  1  0.713190  0.955100  0.550300  1.0  -0.617
  O  O248  1  0.770960  0.853900  0.529600  1.0  -0.8135
  O  O249  1  0.798150  0.254000  0.870100  1.0  -0.7
  O  O250  1  0.732560  0.171200  0.840800  1.0  -0.7718
  O  O251  1  0.625040  0.683200  0.508700  1.0  -0.6997
  O  O252  1  0.616690  0.846800  0.543100  1.0  -0.6834
  O  O253  1  0.213190  0.455100  0.550300  1.0  -0.617
  O  O254  1  0.270960  0.353900  0.529600  1.0  -0.8135
  O  O255  1  0.298150  0.754000  0.870100  1.0  -0.7
  O  O256  1  0.232560  0.671200  0.840800  1.0  -0.7718
