# generated using pymatgen
data_EuH7C16NO6
_symmetry_space_group_name_H-M   'P 1'
_cell_length_a   29.05530000
_cell_length_b   14.11520000
_cell_length_c   13.49910000
_cell_angle_alpha   90.00000000
_cell_angle_beta   97.91200000
_cell_angle_gamma   90.00000000
_symmetry_Int_Tables_number   1
_chemical_formula_structural   EuH7C16NO6
_chemical_formula_sum   'Eu8 H56 C128 N8 O48'
_cell_volume   5483.56773604
_cell_formula_units_Z   8
loop_
 _symmetry_equiv_pos_site_id
 _symmetry_equiv_pos_as_xyz
  1  'x, y, z'
loop_
 _atom_site_type_symbol
 _atom_site_label
 _atom_site_symmetry_multiplicity
 _atom_site_fract_x
 _atom_site_fract_y
 _atom_site_fract_z
 _atom_site_occupancy
 _atom_site_charge
  Eu  Eu1  1  0.184340  0.705910  0.461300  1.0  2.1274
  Eu  Eu2  1  0.684340  0.205910  0.461300  1.0  2.1273
  Eu  Eu3  1  0.815660  0.705910  0.038700  1.0  2.1247
  Eu  Eu4  1  0.315660  0.205910  0.038700  1.0  2.1244
  Eu  Eu5  1  0.815660  0.294090  0.538700  1.0  2.1276
  Eu  Eu6  1  0.315660  0.794090  0.538700  1.0  2.1252
  Eu  Eu7  1  0.184340  0.294090  0.961300  1.0  2.1176
  Eu  Eu8  1  0.684340  0.794090  0.961300  1.0  2.1176
  H  H9  1  0.056900  0.918300  0.544600  1.0  0.1034
  H  H10  1  0.986800  0.955500  0.586600  1.0  0.1245
  H  H11  1  0.966500  0.685600  0.652600  1.0  0.1102
  H  H12  1  0.037400  0.644400  0.599600  1.0  0.1214
  H  H13  1  0.843300  0.042500  0.577300  1.0  0.1079
  H  H14  1  0.858700  0.831400  0.778000  1.0  0.1134
  H  H15  1  0.734500  0.955200  0.705700  1.0  0.1243
  H  H16  1  0.556900  0.418300  0.544600  1.0  0.1034
  H  H17  1  0.486800  0.455500  0.586600  1.0  0.1245
  H  H18  1  0.466500  0.185600  0.652600  1.0  0.1102
  H  H19  1  0.537400  0.144400  0.599600  1.0  0.1214
  H  H20  1  0.343300  0.542500  0.577300  1.0  0.1079
  H  H21  1  0.358700  0.331400  0.778000  1.0  0.1134
  H  H22  1  0.234500  0.455200  0.705700  1.0  0.1243
  H  H23  1  0.943100  0.918300  0.955400  1.0  0.1039
  H  H24  1  0.013200  0.955500  0.913400  1.0  0.1243
  H  H25  1  0.033500  0.685600  0.847400  1.0  0.1102
  H  H26  1  0.962600  0.644400  0.900400  1.0  0.1214
  H  H27  1  0.156700  0.042500  0.922700  1.0  0.1068
  H  H28  1  0.141300  0.831400  0.722000  1.0  0.1148
  H  H29  1  0.265500  0.955200  0.794300  1.0  0.1237
  H  H30  1  0.443100  0.418300  0.955400  1.0  0.1039
  H  H31  1  0.513200  0.455500  0.913400  1.0  0.1243
  H  H32  1  0.533500  0.185600  0.847400  1.0  0.1102
  H  H33  1  0.462600  0.144400  0.900400  1.0  0.1214
  H  H34  1  0.656700  0.542500  0.922700  1.0  0.1068
  H  H35  1  0.641300  0.331400  0.722000  1.0  0.1148
  H  H36  1  0.765500  0.455200  0.794300  1.0  0.1237
  H  H37  1  0.943100  0.081700  0.455400  1.0  0.1036
  H  H38  1  0.013200  0.044500  0.413400  1.0  0.1242
  H  H39  1  0.033500  0.314400  0.347400  1.0  0.1096
  H  H40  1  0.962600  0.355600  0.400400  1.0  0.1217
  H  H41  1  0.156700  0.957500  0.422700  1.0  0.1071
  H  H42  1  0.141300  0.168600  0.222000  1.0  0.114
  H  H43  1  0.265500  0.044800  0.294300  1.0  0.1237
  H  H44  1  0.443100  0.581700  0.455400  1.0  0.1036
  H  H45  1  0.513200  0.544500  0.413400  1.0  0.1242
  H  H46  1  0.533500  0.814400  0.347400  1.0  0.1096
  H  H47  1  0.462600  0.855600  0.400400  1.0  0.1217
  H  H48  1  0.656700  0.457500  0.422700  1.0  0.1071
  H  H49  1  0.641300  0.668600  0.222000  1.0  0.114
  H  H50  1  0.765500  0.544800  0.294300  1.0  0.1237
  H  H51  1  0.056900  0.081700  0.044600  1.0  0.1032
  H  H52  1  0.986800  0.044500  0.086600  1.0  0.1242
  H  H53  1  0.966500  0.314400  0.152600  1.0  0.1103
  H  H54  1  0.037400  0.355600  0.099600  1.0  0.1215
  H  H55  1  0.843300  0.957500  0.077300  1.0  0.108
  H  H56  1  0.858700  0.168600  0.278000  1.0  0.1144
  H  H57  1  0.734500  0.044800  0.205700  1.0  0.1247
  H  H58  1  0.556900  0.581700  0.044600  1.0  0.1032
  H  H59  1  0.486800  0.544500  0.086600  1.0  0.1242
  H  H60  1  0.466500  0.814400  0.152600  1.0  0.1103
  H  H61  1  0.537400  0.855600  0.099600  1.0  0.1215
  H  H62  1  0.343300  0.457500  0.077300  1.0  0.108
  H  H63  1  0.358700  0.668600  0.278000  1.0  0.1144
  H  H64  1  0.234500  0.544800  0.205700  1.0  0.1247
  C  C65  1  0.098400  0.752200  0.526000  1.0  0.7061
  C  C66  1  0.054000  0.776800  0.565200  1.0  -0.1265
  C  C67  1  0.038200  0.870400  0.564300  1.0  -0.0468
  C  C68  1  0.997100  0.893100  0.590800  1.0  -0.112
  C  C69  1  0.969500  0.822000  0.625100  1.0  0.0495
  C  C70  1  0.984600  0.732500  0.628900  1.0  -0.0602
  C  C71  1  0.027500  0.707200  0.597800  1.0  -0.0466
  C  C72  1  0.921800  0.839200  0.650800  1.0  0.0947
  C  C73  1  0.753700  0.079600  0.574800  1.0  0.7429
  C  C74  1  0.783800  0.008200  0.628400  1.0  -0.1324
  C  C75  1  0.830400  0.000200  0.618500  1.0  -0.1032
  C  C76  1  0.857800  0.932300  0.667200  1.0  0.1921
  C  C77  1  0.839700  0.874400  0.739400  1.0  -0.0279
  C  C78  1  0.793800  0.883500  0.750600  1.0  -0.1175
  C  C79  1  0.765500  0.949700  0.696600  1.0  -0.0071
  C  C80  1  0.773800  0.823400  0.827200  1.0  0.7971
  C  C81  1  0.598400  0.252200  0.526000  1.0  0.7061
  C  C82  1  0.554000  0.276800  0.565200  1.0  -0.1265
  C  C83  1  0.538200  0.370400  0.564300  1.0  -0.0468
  C  C84  1  0.497100  0.393100  0.590800  1.0  -0.112
  C  C85  1  0.469500  0.322000  0.625100  1.0  0.0495
  C  C86  1  0.484600  0.232500  0.628900  1.0  -0.0602
  C  C87  1  0.527500  0.207200  0.597800  1.0  -0.0466
  C  C88  1  0.421800  0.339200  0.650800  1.0  0.0947
  C  C89  1  0.253700  0.579600  0.574800  1.0  0.7429
  C  C90  1  0.283800  0.508200  0.628400  1.0  -0.1324
  C  C91  1  0.330400  0.500200  0.618500  1.0  -0.1032
  C  C92  1  0.357800  0.432300  0.667200  1.0  0.1921
  C  C93  1  0.339700  0.374400  0.739400  1.0  -0.0279
  C  C94  1  0.293800  0.383500  0.750600  1.0  -0.1175
  C  C95  1  0.265500  0.449700  0.696600  1.0  -0.0071
  C  C96  1  0.273800  0.323400  0.827200  1.0  0.7971
  C  C97  1  0.901600  0.752200  0.974000  1.0  0.7063
  C  C98  1  0.946000  0.776800  0.934800  1.0  -0.1265
  C  C99  1  0.961800  0.870400  0.935700  1.0  -0.0484
  C  C100  1  0.002900  0.893100  0.909200  1.0  -0.1106
  C  C101  1  0.030500  0.822000  0.874900  1.0  0.0502
  C  C102  1  0.015400  0.732500  0.871100  1.0  -0.0591
  C  C103  1  0.972500  0.707200  0.902200  1.0  -0.047
  C  C104  1  0.078200  0.839200  0.849200  1.0  0.0934
  C  C105  1  0.246300  0.079600  0.925200  1.0  0.7449
  C  C106  1  0.216200  0.008200  0.871600  1.0  -0.1328
  C  C107  1  0.169600  0.000200  0.881500  1.0  -0.1045
  C  C108  1  0.142200  0.932300  0.832800  1.0  0.1915
  C  C109  1  0.160300  0.874400  0.760600  1.0  -0.0306
  C  C110  1  0.206200  0.883500  0.749400  1.0  -0.1168
  C  C111  1  0.234500  0.949700  0.803400  1.0  -0.0052
  C  C112  1  0.226200  0.823400  0.672800  1.0  0.7969
  C  C113  1  0.401600  0.252200  0.974000  1.0  0.7063
  C  C114  1  0.446000  0.276800  0.934800  1.0  -0.1265
  C  C115  1  0.461800  0.370400  0.935700  1.0  -0.0484
  C  C116  1  0.502900  0.393100  0.909200  1.0  -0.1106
  C  C117  1  0.530500  0.322000  0.874900  1.0  0.0502
  C  C118  1  0.515400  0.232500  0.871100  1.0  -0.0591
  C  C119  1  0.472500  0.207200  0.902200  1.0  -0.047
  C  C120  1  0.578200  0.339200  0.849200  1.0  0.0934
  C  C121  1  0.746300  0.579600  0.925200  1.0  0.7449
  C  C122  1  0.716200  0.508200  0.871600  1.0  -0.1328
  C  C123  1  0.669600  0.500200  0.881500  1.0  -0.1045
  C  C124  1  0.642200  0.432300  0.832800  1.0  0.1915
  C  C125  1  0.660300  0.374400  0.760600  1.0  -0.0306
  C  C126  1  0.706200  0.383500  0.749400  1.0  -0.1168
  C  C127  1  0.734500  0.449700  0.803400  1.0  -0.0052
  C  C128  1  0.726200  0.323400  0.672800  1.0  0.7969
  C  C129  1  0.901600  0.247800  0.474000  1.0  0.7072
  C  C130  1  0.946000  0.223200  0.434800  1.0  -0.1245
  C  C131  1  0.961800  0.129600  0.435700  1.0  -0.0478
  C  C132  1  0.002900  0.106900  0.409200  1.0  -0.1103
  C  C133  1  0.030500  0.178000  0.374900  1.0  0.0502
  C  C134  1  0.015400  0.267500  0.371100  1.0  -0.0582
  C  C135  1  0.972500  0.292800  0.402200  1.0  -0.0451
  C  C136  1  0.078200  0.160800  0.349200  1.0  0.0918
  C  C137  1  0.246300  0.920400  0.425200  1.0  0.7444
  C  C138  1  0.216200  0.991800  0.371600  1.0  -0.133
  C  C139  1  0.169600  0.999800  0.381500  1.0  -0.1043
  C  C140  1  0.142200  0.067700  0.332800  1.0  0.1911
  C  C141  1  0.160300  0.125600  0.260600  1.0  -0.0308
  C  C142  1  0.206200  0.116500  0.249400  1.0  -0.1172
  C  C143  1  0.234500  0.050300  0.303400  1.0  -0.0053
  C  C144  1  0.226200  0.176600  0.172800  1.0  0.797
  C  C145  1  0.401600  0.747800  0.474000  1.0  0.7072
  C  C146  1  0.446000  0.723200  0.434800  1.0  -0.1245
  C  C147  1  0.461800  0.629600  0.435700  1.0  -0.0478
  C  C148  1  0.502900  0.606900  0.409200  1.0  -0.1103
  C  C149  1  0.530500  0.678000  0.374900  1.0  0.0502
  C  C150  1  0.515400  0.767500  0.371100  1.0  -0.0582
  C  C151  1  0.472500  0.792800  0.402200  1.0  -0.0451
  C  C152  1  0.578200  0.660800  0.349200  1.0  0.0918
  C  C153  1  0.746300  0.420400  0.425200  1.0  0.7444
  C  C154  1  0.716200  0.491800  0.371600  1.0  -0.133
  C  C155  1  0.669600  0.499800  0.381500  1.0  -0.1043
  C  C156  1  0.642200  0.567700  0.332800  1.0  0.1911
  C  C157  1  0.660300  0.625600  0.260600  1.0  -0.0308
  C  C158  1  0.706200  0.616500  0.249400  1.0  -0.1172
  C  C159  1  0.734500  0.550300  0.303400  1.0  -0.0053
  C  C160  1  0.726200  0.676600  0.172800  1.0  0.797
  C  C161  1  0.098400  0.247800  0.026000  1.0  0.7067
  C  C162  1  0.054000  0.223200  0.065200  1.0  -0.1257
  C  C163  1  0.038200  0.129600  0.064300  1.0  -0.0457
  C  C164  1  0.997100  0.106900  0.090800  1.0  -0.1119
  C  C165  1  0.969500  0.178000  0.125100  1.0  0.05
  C  C166  1  0.984600  0.267500  0.128900  1.0  -0.0588
  C  C167  1  0.027500  0.292800  0.097800  1.0  -0.0453
  C  C168  1  0.921800  0.160800  0.150800  1.0  0.0922
  C  C169  1  0.753700  0.920400  0.074800  1.0  0.7425
  C  C170  1  0.783800  0.991800  0.128400  1.0  -0.1328
  C  C171  1  0.830400  0.999800  0.118500  1.0  -0.103
  C  C172  1  0.857800  0.067700  0.167200  1.0  0.1918
  C  C173  1  0.839700  0.125600  0.239400  1.0  -0.0282
  C  C174  1  0.793800  0.116500  0.250600  1.0  -0.1171
  C  C175  1  0.765500  0.050300  0.196600  1.0  -0.0071
  C  C176  1  0.773800  0.176600  0.327200  1.0  0.7966
  C  C177  1  0.598400  0.747800  0.026000  1.0  0.7067
  C  C178  1  0.554000  0.723200  0.065200  1.0  -0.1257
  C  C179  1  0.538200  0.629600  0.064300  1.0  -0.0457
  C  C180  1  0.497100  0.606900  0.090800  1.0  -0.1119
  C  C181  1  0.469500  0.678000  0.125100  1.0  0.05
  C  C182  1  0.484600  0.767500  0.128900  1.0  -0.0588
  C  C183  1  0.527500  0.792800  0.097800  1.0  -0.0453
  C  C184  1  0.421800  0.660800  0.150800  1.0  0.0922
  C  C185  1  0.253700  0.420400  0.074800  1.0  0.7425
  C  C186  1  0.283800  0.491800  0.128400  1.0  -0.1328
  C  C187  1  0.330400  0.499800  0.118500  1.0  -0.103
  C  C188  1  0.357800  0.567700  0.167200  1.0  0.1918
  C  C189  1  0.339700  0.625600  0.239400  1.0  -0.0282
  C  C190  1  0.293800  0.616500  0.250600  1.0  -0.1171
  C  C191  1  0.265500  0.550300  0.196600  1.0  -0.0071
  C  C192  1  0.273800  0.676600  0.327200  1.0  0.7966
  N  N193  1  0.904700  0.922000  0.647100  1.0  -0.3545
  N  N194  1  0.404700  0.422000  0.647100  1.0  -0.3545
  N  N195  1  0.095300  0.922000  0.852900  1.0  -0.3538
  N  N196  1  0.595300  0.422000  0.852900  1.0  -0.3538
  N  N197  1  0.095300  0.078000  0.352900  1.0  -0.3539
  N  N198  1  0.595300  0.578000  0.352900  1.0  -0.3539
  N  N199  1  0.904700  0.078000  0.147100  1.0  -0.3547
  N  N200  1  0.404700  0.578000  0.147100  1.0  -0.3547
  O  O201  1  0.113600  0.668900  0.541100  1.0  -0.6587
  O  O202  1  0.120200  0.813700  0.486000  1.0  -0.6979
  O  O203  1  0.710700  0.064800  0.553600  1.0  -0.6453
  O  O204  1  0.771200  0.155600  0.545500  1.0  -0.8682
  O  O205  1  0.732700  0.840900  0.842800  1.0  -0.7927
  O  O206  1  0.800300  0.761600  0.872900  1.0  -0.712
  O  O207  1  0.613600  0.168900  0.541100  1.0  -0.6601
  O  O208  1  0.620200  0.313700  0.486000  1.0  -0.6979
  O  O209  1  0.210700  0.564800  0.553600  1.0  -0.6459
  O  O210  1  0.271200  0.655600  0.545500  1.0  -0.8682
  O  O211  1  0.232700  0.340900  0.842800  1.0  -0.7927
  O  O212  1  0.300300  0.261600  0.872900  1.0  -0.712
  O  O213  1  0.886400  0.668900  0.958900  1.0  -0.6641
  O  O214  1  0.879800  0.813700  0.014000  1.0  -0.6994
  O  O215  1  0.289300  0.064800  0.946400  1.0  -0.6465
  O  O216  1  0.228800  0.155600  0.954500  1.0  -0.8691
  O  O217  1  0.267300  0.840900  0.657200  1.0  -0.7902
  O  O218  1  0.199700  0.761600  0.627100  1.0  -0.7109
  O  O219  1  0.386400  0.168900  0.958900  1.0  -0.6641
  O  O220  1  0.379800  0.313700  0.014000  1.0  -0.6994
  O  O221  1  0.789300  0.564800  0.946400  1.0  -0.6466
  O  O222  1  0.728800  0.655600  0.954500  1.0  -0.8691
  O  O223  1  0.767300  0.340900  0.657200  1.0  -0.7902
  O  O224  1  0.699700  0.261600  0.627100  1.0  -0.7109
  O  O225  1  0.886400  0.331100  0.458900  1.0  -0.6623
  O  O226  1  0.879800  0.186300  0.514000  1.0  -0.6974
  O  O227  1  0.289300  0.935200  0.446400  1.0  -0.6467
  O  O228  1  0.228800  0.844400  0.454500  1.0  -0.8687
  O  O229  1  0.267300  0.159100  0.157200  1.0  -0.7892
  O  O230  1  0.199700  0.238400  0.127100  1.0  -0.7113
  O  O231  1  0.386400  0.831100  0.458900  1.0  -0.6637
  O  O232  1  0.379800  0.686300  0.514000  1.0  -0.6974
  O  O233  1  0.789300  0.435200  0.446400  1.0  -0.6473
  O  O234  1  0.728800  0.344400  0.454500  1.0  -0.8687
  O  O235  1  0.767300  0.659100  0.157200  1.0  -0.7892
  O  O236  1  0.699700  0.738400  0.127100  1.0  -0.7113
  O  O237  1  0.113600  0.331100  0.041100  1.0  -0.6632
  O  O238  1  0.120200  0.186300  0.986000  1.0  -0.6972
  O  O239  1  0.710700  0.935200  0.053600  1.0  -0.6477
  O  O240  1  0.771200  0.844400  0.045500  1.0  -0.8684
  O  O241  1  0.732700  0.159100  0.342800  1.0  -0.7917
  O  O242  1  0.800300  0.238400  0.372900  1.0  -0.7117
  O  O243  1  0.613600  0.831100  0.041100  1.0  -0.6633
  O  O244  1  0.620200  0.686300  0.986000  1.0  -0.6972
  O  O245  1  0.210700  0.435200  0.053600  1.0  -0.6479
  O  O246  1  0.271200  0.344400  0.045500  1.0  -0.8684
  O  O247  1  0.232700  0.659100  0.342800  1.0  -0.7917
  O  O248  1  0.300300  0.738400  0.372900  1.0  -0.7117
