# generated using pymatgen
data_EuH13C21(NO3)2
_symmetry_space_group_name_H-M   'P 1'
_cell_length_a   13.69030000
_cell_length_b   14.74320000
_cell_length_c   15.65180000
_cell_angle_alpha   95.22200000
_cell_angle_beta   112.94500000
_cell_angle_gamma   90.24400000
_symmetry_Int_Tables_number   1
_chemical_formula_structural   EuH13C21(NO3)2
_chemical_formula_sum   'Eu4 H52 C84 N8 O24'
_cell_volume   2894.39216299
_cell_formula_units_Z   4
loop_
 _symmetry_equiv_pos_site_id
 _symmetry_equiv_pos_as_xyz
  1  'x, y, z'
loop_
 _atom_site_type_symbol
 _atom_site_label
 _atom_site_symmetry_multiplicity
 _atom_site_fract_x
 _atom_site_fract_y
 _atom_site_fract_z
 _atom_site_occupancy
 _atom_site_charge
  Eu  Eu1  1  0.503680  0.018800  0.134570  1.0  2.1473
  Eu  Eu2  1  0.890000  0.470090  0.871000  1.0  2.1071
  Eu  Eu3  1  0.496320  0.981200  0.865430  1.0  2.1456
  Eu  Eu4  1  0.110000  0.529910  0.129000  1.0  2.1079
  H  H5  1  0.865400  0.958400  0.378700  1.0  0.0982
  H  H6  1  0.977100  0.900400  0.513900  1.0  0.0992
  H  H7  1  0.725600  0.804500  0.552100  1.0  0.1213
  H  H8  1  0.616300  0.857400  0.416500  1.0  0.0991
  H  H9  1  0.233300  0.766900  0.017800  1.0  0.0912
  H  H10  1  0.982900  0.710000  0.776500  1.0  0.1103
  H  H11  1  0.212700  0.888700  0.793100  1.0  0.0954
  H  H12  1  0.318900  0.165800  0.168800  1.0  0.0848
  H  H13  1  0.163800  0.171300  0.201800  1.0  0.1149
  H  H14  1  0.113900  0.045400  0.253000  1.0  0.0953
  H  H15  1  0.215600  0.919900  0.276700  1.0  0.1303
  H  H16  1  0.361400  0.920000  0.237500  1.0  0.0662
  H  H17  1  0.728900  0.575500  0.554800  1.0  0.1003
  H  H18  1  0.724300  0.622100  0.417100  1.0  0.0925
  H  H19  1  0.041900  0.617600  0.515400  1.0  0.1168
  H  H20  1  0.044900  0.563100  0.648300  1.0  0.1036
  H  H21  1  0.884100  0.601900  0.187700  1.0  0.1024
  H  H22  1  0.681400  0.790700  0.205600  1.0  0.0975
  H  H23  1  0.723300  0.736700  0.967000  1.0  0.1058
  H  H24  1  0.711800  0.287200  0.834600  1.0  0.0794
  H  H25  1  0.539000  0.239900  0.800600  1.0  0.1062
  H  H26  1  0.405200  0.344300  0.749800  1.0  0.0987
  H  H27  1  0.453600  0.493700  0.741500  1.0  0.1207
  H  H28  1  0.629100  0.531600  0.778100  1.0  0.0751
  H  H29  1  0.894000  0.772000  0.664000  1.0  0.1126
  H  H30  1  0.952000  0.661000  0.362000  1.0  0.0993
  H  H31  1  0.134600  0.041600  0.621300  1.0  0.0988
  H  H32  1  0.022900  0.099600  0.486100  1.0  0.0992
  H  H33  1  0.274400  0.195500  0.447900  1.0  0.1214
  H  H34  1  0.383700  0.142600  0.583500  1.0  0.0981
  H  H35  1  0.766700  0.233100  0.982200  1.0  0.0914
  H  H36  1  0.017100  0.290000  0.223500  1.0  0.11
  H  H37  1  0.787300  0.111300  0.206900  1.0  0.0956
  H  H38  1  0.681100  0.834200  0.831200  1.0  0.0842
  H  H39  1  0.836200  0.828700  0.798200  1.0  0.1157
  H  H40  1  0.886100  0.954600  0.747000  1.0  0.0955
  H  H41  1  0.784400  0.080100  0.723300  1.0  0.1299
  H  H42  1  0.638600  0.080000  0.762500  1.0  0.0666
  H  H43  1  0.271100  0.424500  0.445200  1.0  0.0997
  H  H44  1  0.275700  0.377900  0.582900  1.0  0.0926
  H  H45  1  0.958100  0.382400  0.484600  1.0  0.1172
  H  H46  1  0.955100  0.436900  0.351700  1.0  0.1036
  H  H47  1  0.115900  0.398100  0.812300  1.0  0.1022
  H  H48  1  0.318600  0.209300  0.794400  1.0  0.0974
  H  H49  1  0.276700  0.263300  0.033000  1.0  0.1058
  H  H50  1  0.288200  0.712800  0.165400  1.0  0.0793
  H  H51  1  0.461000  0.760100  0.199400  1.0  0.105
  H  H52  1  0.594800  0.655700  0.250200  1.0  0.1003
  H  H53  1  0.546400  0.506300  0.258500  1.0  0.1205
  H  H54  1  0.370900  0.468400  0.221900  1.0  0.0744
  H  H55  1  0.106000  0.228000  0.336000  1.0  0.1114
  H  H56  1  0.048000  0.339000  0.638000  1.0  0.0986
  C  C57  1  0.653600  0.957800  0.301800  1.0  0.6882
  C  C58  1  0.726600  0.916900  0.384700  1.0  -0.1477
  C  C59  1  0.837000  0.927700  0.413700  1.0  -0.07
  C  C60  1  0.904000  0.892500  0.494600  1.0  -0.0538
  C  C61  1  0.863000  0.845800  0.546900  1.0  -0.051
  C  C62  1  0.754500  0.834800  0.517300  1.0  -0.1995
  C  C63  1  0.689200  0.868200  0.436700  1.0  -0.0176
  C  C64  1  0.930900  0.814000  0.637600  1.0  0.1138
  C  C65  1  0.337300  0.893300  0.974500  1.0  0.748
  C  C66  1  0.237400  0.837600  0.914200  1.0  -0.137
  C  C67  1  0.197200  0.775100  0.955100  1.0  -0.0142
  C  C68  1  0.103900  0.725300  0.903000  1.0  -0.1594
  C  C69  1  0.047400  0.741500  0.810600  1.0  -0.0753
  C  C70  1  0.085700  0.804100  0.768600  1.0  0.1177
  C  C71  1  0.183500  0.849700  0.821200  1.0  -0.0789
  C  C72  1  0.062200  0.655000  0.943600  1.0  0.7376
  C  C73  1  0.297500  0.115300  0.189600  1.0  0.1483
  C  C74  1  0.203500  0.119400  0.209800  1.0  -0.1726
  C  C75  1  0.175000  0.045100  0.240500  1.0  -0.0348
  C  C76  1  0.233600  0.970400  0.253500  1.0  -0.1363
  C  C77  1  0.321900  0.972000  0.230700  1.0  0.1826
  C  C78  1  0.888500  0.520700  0.699700  1.0  0.6976
  C  C79  1  0.886600  0.559900  0.614800  1.0  -0.1731
  C  C80  1  0.791700  0.581200  0.545600  1.0  -0.0432
  C  C81  1  0.789000  0.610500  0.463600  1.0  -0.0261
  C  C82  1  0.882200  0.623000  0.450400  1.0  -0.0303
  C  C83  1  0.978400  0.606700  0.522100  1.0  -0.1449
  C  C84  1  0.980200  0.574900  0.601900  1.0  -0.0687
  C  C85  1  0.878400  0.651700  0.361000  1.0  0.1126
  C  C86  1  0.844600  0.595800  0.005800  1.0  0.7234
  C  C87  1  0.806500  0.658400  0.067200  1.0  -0.1194
  C  C88  1  0.833500  0.643800  0.160200  1.0  -0.0605
  C  C89  1  0.784400  0.692400  0.211600  1.0  0.2257
  C  C90  1  0.714800  0.758700  0.171400  1.0  -0.1411
  C  C91  1  0.693800  0.778400  0.080500  1.0  -0.161
  C  C92  1  0.738800  0.726100  0.028500  1.0  -0.0086
  C  C93  1  0.621700  0.854800  0.042400  1.0  0.7367
  C  C94  1  0.658700  0.329000  0.816100  1.0  0.1651
  C  C95  1  0.555200  0.299800  0.795000  1.0  -0.1124
  C  C96  1  0.475900  0.361900  0.765500  1.0  -0.1075
  C  C97  1  0.504500  0.450000  0.760100  1.0  -0.1249
  C  C98  1  0.610400  0.472200  0.782900  1.0  0.1852
  C  C99  1  0.346400  0.042200  0.698200  1.0  0.6859
  C  C100  1  0.273400  0.083100  0.615300  1.0  -0.1481
  C  C101  1  0.163000  0.072300  0.586300  1.0  -0.0692
  C  C102  1  0.096000  0.107500  0.505400  1.0  -0.054
  C  C103  1  0.137000  0.154200  0.453100  1.0  -0.0513
  C  C104  1  0.245500  0.165200  0.482700  1.0  -0.1988
  C  C105  1  0.310800  0.131800  0.563300  1.0  -0.0179
  C  C106  1  0.069100  0.186000  0.362400  1.0  0.1149
  C  C107  1  0.662700  0.106700  0.025500  1.0  0.7474
  C  C108  1  0.762600  0.162400  0.085800  1.0  -0.1369
  C  C109  1  0.802800  0.224900  0.044900  1.0  -0.0146
  C  C110  1  0.896100  0.274700  0.097000  1.0  -0.1584
  C  C111  1  0.952600  0.258500  0.189400  1.0  -0.0764
  C  C112  1  0.914300  0.195900  0.231400  1.0  0.1141
  C  C113  1  0.816500  0.150300  0.178800  1.0  -0.0795
  C  C114  1  0.937800  0.345000  0.056400  1.0  0.7383
  C  C115  1  0.702500  0.884700  0.810400  1.0  0.1499
  C  C116  1  0.796500  0.880600  0.790200  1.0  -0.1739
  C  C117  1  0.825000  0.954900  0.759500  1.0  -0.035
  C  C118  1  0.766400  0.029600  0.746500  1.0  -0.132
  C  C119  1  0.678100  0.028000  0.769300  1.0  0.1827
  C  C120  1  0.111500  0.479300  0.300300  1.0  0.698
  C  C121  1  0.113400  0.440100  0.385200  1.0  -0.1706
  C  C122  1  0.208300  0.418800  0.454400  1.0  -0.0426
  C  C123  1  0.211000  0.389500  0.536400  1.0  -0.0247
  C  C124  1  0.117800  0.377000  0.549600  1.0  -0.0307
  C  C125  1  0.021600  0.393300  0.477900  1.0  -0.1443
  C  C126  1  0.019800  0.425100  0.398100  1.0  -0.0664
  C  C127  1  0.121600  0.348300  0.639000  1.0  0.1144
  C  C128  1  0.155400  0.404200  0.994200  1.0  0.7241
  C  C129  1  0.193500  0.341600  0.932800  1.0  -0.1185
  C  C130  1  0.166500  0.356200  0.839800  1.0  -0.0597
  C  C131  1  0.215600  0.307600  0.788400  1.0  0.2248
  C  C132  1  0.285200  0.241300  0.828600  1.0  -0.1414
  C  C133  1  0.306200  0.221600  0.919500  1.0  -0.1617
  C  C134  1  0.261200  0.273900  0.971500  1.0  -0.0081
  C  C135  1  0.378300  0.145200  0.957600  1.0  0.7353
  C  C136  1  0.341300  0.671000  0.183900  1.0  0.1652
  C  C137  1  0.444800  0.700200  0.205000  1.0  -0.1114
  C  C138  1  0.524100  0.638100  0.234500  1.0  -0.1071
  C  C139  1  0.495500  0.550000  0.239900  1.0  -0.129
  C  C140  1  0.389600  0.527800  0.217100  1.0  0.1813
  N  N141  1  0.029500  0.831600  0.677000  1.0  -0.3034
  N  N142  1  0.354000  0.042400  0.199800  1.0  -0.4121
  N  N143  1  0.793100  0.672000  0.300600  1.0  -0.3854
  N  N144  1  0.685600  0.414300  0.810800  1.0  -0.4103
  N  N145  1  0.970500  0.168400  0.323000  1.0  -0.3008
  N  N146  1  0.646000  0.957600  0.800200  1.0  -0.4106
  N  N147  1  0.206900  0.328000  0.699400  1.0  -0.3847
  N  N148  1  0.314400  0.585700  0.189200  1.0  -0.4032
  O  O149  1  0.554700  0.941400  0.275200  1.0  -0.6363
  O  O150  1  0.689900  0.006900  0.258800  1.0  -0.7185
  O  O151  1  0.358500  0.908100  0.059500  1.0  -0.6176
  O  O152  1  0.390700  0.927100  0.934900  1.0  -0.7862
  O  O153  1  0.975200  0.615500  0.894100  1.0  -0.6862
  O  O154  1  0.119200  0.639500  0.027300  1.0  -0.6976
  O  O155  1  0.970900  0.488400  0.752700  1.0  -0.6646
  O  O156  1  0.803300  0.521300  0.715900  1.0  -0.6121
  O  O157  1  0.929200  0.554000  0.043400  1.0  -0.8374
  O  O158  1  0.788800  0.584000  0.921700  1.0  -0.6491
  O  O159  1  0.576300  0.888000  0.093600  1.0  -0.7018
  O  O160  1  0.613300  0.879800  0.965500  1.0  -0.6687
  O  O161  1  0.445300  0.058600  0.724800  1.0  -0.638
  O  O162  1  0.310100  0.993100  0.741200  1.0  -0.7174
  O  O163  1  0.641500  0.091900  0.940500  1.0  -0.6165
  O  O164  1  0.609300  0.072900  0.065100  1.0  -0.7859
  O  O165  1  0.024800  0.384500  0.105900  1.0  -0.6865
  O  O166  1  0.880800  0.360500  0.972700  1.0  -0.6976
  O  O167  1  0.029100  0.511600  0.247300  1.0  -0.6636
  O  O168  1  0.196700  0.478700  0.284100  1.0  -0.613
  O  O169  1  0.070800  0.446000  0.956600  1.0  -0.8378
  O  O170  1  0.211200  0.416000  0.078300  1.0  -0.6501
  O  O171  1  0.423700  0.112000  0.906400  1.0  -0.7039
  O  O172  1  0.386700  0.120200  0.034500  1.0  -0.6692
