# generated using pymatgen
data_Ga4P4HO17
_symmetry_space_group_name_H-M   'P 1'
_cell_length_a   9.60100000
_cell_length_b   9.75700000
_cell_length_c   10.70100000
_cell_angle_alpha   74.20000000
_cell_angle_beta   75.01000000
_cell_angle_gamma   88.48000000
_symmetry_Int_Tables_number   1
_chemical_formula_structural   Ga4P4HO17
_chemical_formula_sum   'Ga8 P8 H2 O34'
_cell_volume   930.70009645
_cell_formula_units_Z   2
loop_
 _symmetry_equiv_pos_site_id
 _symmetry_equiv_pos_as_xyz
  1  'x, y, z'
loop_
 _atom_site_type_symbol
 _atom_site_label
 _atom_site_symmetry_multiplicity
 _atom_site_fract_x
 _atom_site_fract_y
 _atom_site_fract_z
 _atom_site_occupancy
 _atom_site_charge
  Ga  Ga1  1  0.223400  0.789300  0.833200  1.0  1.6536
  Ga  Ga2  1  0.477900  0.217100  0.936000  1.0  1.7267
  Ga  Ga3  1  0.181200  0.952000  0.342600  1.0  1.6827
  Ga  Ga4  1  0.976800  0.493900  0.865800  1.0  1.57
  Ga  Ga5  1  0.776600  0.210700  0.166800  1.0  1.6511
  Ga  Ga6  1  0.522100  0.782900  0.064000  1.0  1.72
  Ga  Ga7  1  0.818800  0.048000  0.657400  1.0  1.6825
  Ga  Ga8  1  0.023200  0.506100  0.134200  1.0  1.5695
  P  P9  1  0.498200  0.974300  0.787300  1.0  1.9536
  P  P10  1  0.283700  0.481500  0.902400  1.0  1.7769
  P  P11  1  0.023500  0.792600  0.642100  1.0  1.9544
  P  P12  1  0.181600  0.783400  0.132400  1.0  1.9092
  P  P13  1  0.501800  0.025700  0.212700  1.0  1.9564
  P  P14  1  0.716300  0.518500  0.097600  1.0  1.7785
  P  P15  1  0.976500  0.207400  0.357900  1.0  1.9537
  P  P16  1  0.818400  0.216600  0.867600  1.0  1.9097
  H  H17  1  0.965900  0.704300  0.970800  1.0  0.3953
  H  H18  1  0.034100  0.295700  0.029200  1.0  0.3947
  O  O19  1  0.177400  0.446000  0.831100  1.0  -0.7834
  O  O20  1  0.417700  0.393400  0.877500  1.0  -0.9209
  O  O21  1  0.186000  0.855800  0.985500  1.0  -0.8336
  O  O22  1  0.434500  0.083500  0.862300  1.0  -0.9466
  O  O23  1  0.383900  0.922300  0.736400  1.0  -0.747
  O  O24  1  0.342900  0.637200  0.834800  1.0  -0.8522
  O  O25  1  0.987400  0.634700  0.699700  1.0  -0.8064
  O  O26  1  0.091900  0.817600  0.491900  1.0  -0.954
  O  O27  1  0.042800  0.644000  0.943200  1.0  -0.9179
  O  O28  1  0.220000  0.459600  0.053400  1.0  -0.7936
  O  O29  1  0.124000  0.854400  0.704400  1.0  -0.8497
  O  O30  1  0.330400  0.732100  0.145600  1.0  -0.8902
  O  O31  1  0.140100  0.902100  0.203300  1.0  -0.9186
  O  O32  1  0.626900  0.040900  0.668700  1.0  -0.8348
  O  O33  1  0.556000  0.850400  0.882200  1.0  -0.8653
  O  O34  1  0.074100  0.658700  0.196800  1.0  -0.7906
  O  O35  1  0.880000  0.870600  0.659800  1.0  -0.9185
  O  O36  1  0.822600  0.554000  0.168900  1.0  -0.7786
  O  O37  1  0.582300  0.606600  0.122500  1.0  -0.9205
  O  O38  1  0.814000  0.144200  0.014500  1.0  -0.8354
  O  O39  1  0.565500  0.916500  0.137700  1.0  -0.9442
  O  O40  1  0.616100  0.077700  0.263600  1.0  -0.748
  O  O41  1  0.657100  0.362800  0.165200  1.0  -0.8513
  O  O42  1  0.012600  0.365300  0.300300  1.0  -0.8052
  O  O43  1  0.908100  0.182400  0.508100  1.0  -0.9553
  O  O44  1  0.957200  0.356000  0.056800  1.0  -0.9185
  O  O45  1  0.780000  0.540400  0.946600  1.0  -0.7935
  O  O46  1  0.876000  0.145600  0.295600  1.0  -0.8475
  O  O47  1  0.669600  0.267900  0.854400  1.0  -0.8916
  O  O48  1  0.859900  0.097900  0.796700  1.0  -0.919
  O  O49  1  0.373100  0.959100  0.331300  1.0  -0.8325
  O  O50  1  0.444000  0.149600  0.117800  1.0  -0.8644
  O  O51  1  0.925900  0.341300  0.803200  1.0  -0.7904
  O  O52  1  0.120000  0.129400  0.340200  1.0  -0.9195
