# generated using pymatgen
data_MnH6(C3O)4
_symmetry_space_group_name_H-M   'P 1'
_cell_length_a   12.28300000
_cell_length_b   13.38600000
_cell_length_c   13.93100000
_cell_angle_alpha   102.14000000
_cell_angle_beta   101.47000000
_cell_angle_gamma   95.13000000
_symmetry_Int_Tables_number   1
_chemical_formula_structural   MnH6(C3O)4
_chemical_formula_sum   'Mn6 H36 C72 O24'
_cell_volume   2173.90838376
_cell_formula_units_Z   6
loop_
 _symmetry_equiv_pos_site_id
 _symmetry_equiv_pos_as_xyz
  1  'x, y, z'
loop_
 _atom_site_type_symbol
 _atom_site_label
 _atom_site_symmetry_multiplicity
 _atom_site_fract_x
 _atom_site_fract_y
 _atom_site_fract_z
 _atom_site_occupancy
 _atom_site_charge
  Mn  Mn1  1  0.898570  0.883410  0.750750  1.0  1.1086
  Mn  Mn2  1  0.086900  0.757110  0.607800  1.0  1.1315
  Mn  Mn3  1  0.101430  0.116590  0.249250  1.0  1.1077
  Mn  Mn4  1  0.913100  0.242890  0.392200  1.0  1.1319
  Mn  Mn5  1  0.000000  0.000000  0.000000  1.0  1.1639
  Mn  Mn6  1  0.000000  0.500000  0.500000  1.0  1.1494
  H  H7  1  0.521500  0.910100  0.766000  1.0  0.1185
  H  H8  1  0.739900  0.128100  0.982600  1.0  0.1164
  H  H9  1  0.593400  0.204800  0.033200  1.0  0.1168
  H  H10  1  0.386300  0.204100  0.019400  1.0  0.1256
  H  H11  1  0.205100  0.124900  0.948900  1.0  0.1159
  H  H12  1  0.315100  0.908000  0.753400  1.0  0.1229
  H  H13  1  0.973800  0.694400  0.087500  1.0  0.1208
  H  H14  1  0.797000  0.600000  0.798800  1.0  0.1094
  H  H15  1  0.727300  0.447500  0.828700  1.0  0.1107
  H  H16  1  0.720300  0.328500  0.946300  1.0  0.1235
  H  H17  1  0.781200  0.295500  0.102800  1.0  0.1067
  H  H18  1  0.969400  0.575800  0.203400  1.0  0.1106
  H  H19  1  0.662400  0.751400  0.583800  1.0  0.1146
  H  H20  1  0.774900  0.545900  0.380100  1.0  0.1098
  H  H21  1  0.592800  0.472000  0.301100  1.0  0.1292
  H  H22  1  0.387700  0.456500  0.300600  1.0  0.1168
  H  H23  1  0.242700  0.511400  0.371600  1.0  0.1195
  H  H24  1  0.457000  0.741600  0.577700  1.0  0.1151
  H  H25  1  0.478500  0.089900  0.234000  1.0  0.1186
  H  H26  1  0.260100  0.871900  0.017400  1.0  0.1169
  H  H27  1  0.406600  0.795200  0.966800  1.0  0.1166
  H  H28  1  0.613700  0.795900  0.980600  1.0  0.1269
  H  H29  1  0.794900  0.875100  0.051100  1.0  0.1156
  H  H30  1  0.684900  0.092000  0.246600  1.0  0.1226
  H  H31  1  0.026200  0.305600  0.912500  1.0  0.1202
  H  H32  1  0.203000  0.400000  0.201200  1.0  0.1093
  H  H33  1  0.272700  0.552500  0.171300  1.0  0.1111
  H  H34  1  0.279700  0.671500  0.053700  1.0  0.1228
  H  H35  1  0.218800  0.704500  0.897200  1.0  0.1065
  H  H36  1  0.030600  0.424200  0.796600  1.0  0.1112
  H  H37  1  0.337600  0.248600  0.416200  1.0  0.1147
  H  H38  1  0.225100  0.454100  0.619900  1.0  0.11
  H  H39  1  0.407200  0.528000  0.698900  1.0  0.1285
  H  H40  1  0.612300  0.543500  0.699400  1.0  0.117
  H  H41  1  0.757300  0.488600  0.628400  1.0  0.1195
  H  H42  1  0.543000  0.258400  0.422300  1.0  0.1153
  C  C43  1  0.535080  0.968610  0.821080  1.0  -0.0845
  C  C44  1  0.643790  0.010310  0.869050  1.0  -0.1201
  C  C45  1  0.664790  0.099410  0.949670  1.0  -0.0532
  C  C46  1  0.578000  0.144290  0.980240  1.0  -0.1286
  C  C47  1  0.372920  0.143140  0.967070  1.0  -0.1045
  C  C48  1  0.265650  0.096790  0.924910  1.0  -0.0467
  C  C49  1  0.243950  0.006810  0.845490  1.0  -0.1357
  C  C50  1  0.330630  0.966480  0.808670  1.0  -0.0743
  C  C51  1  0.442920  0.011720  0.852720  1.0  0.0734
  C  C52  1  0.464910  0.101480  0.933730  1.0  0.0596
  C  C53  1  0.740060  0.960950  0.838180  1.0  0.674
  C  C54  1  0.126640  0.955620  0.803380  1.0  0.6919
  C  C55  1  0.925100  0.643370  0.034980  1.0  -0.1069
  C  C56  1  0.892600  0.662870  0.941640  1.0  -0.1164
  C  C57  1  0.818700  0.587100  0.863900  1.0  -0.0629
  C  C58  1  0.778500  0.496400  0.881300  1.0  -0.0751
  C  C59  1  0.771700  0.378800  0.997400  1.0  -0.1156
  C  C60  1  0.806900  0.359800  0.090500  1.0  -0.0376
  C  C61  1  0.880600  0.434300  0.168570  1.0  -0.1196
  C  C62  1  0.919600  0.525960  0.150630  1.0  -0.1051
  C  C63  1  0.887000  0.547870  0.054270  1.0  0.053
  C  C64  1  0.811700  0.473600  0.976400  1.0  0.0453
  C  C65  1  0.930300  0.764070  0.918890  1.0  0.6851
  C  C66  1  0.913070  0.411440  0.270680  1.0  0.7166
  C  C67  1  0.647510  0.693530  0.528040  1.0  -0.0815
  C  C68  1  0.735180  0.654220  0.491890  1.0  -0.1336
  C  C69  1  0.714070  0.571170  0.405850  1.0  -0.0261
  C  C70  1  0.606180  0.526930  0.359440  1.0  -0.1051
  C  C71  1  0.402790  0.513370  0.357420  1.0  -0.1119
  C  C72  1  0.316750  0.546430  0.398780  1.0  -0.0638
  C  C73  1  0.337010  0.632640  0.482000  1.0  -0.128
  C  C74  1  0.444170  0.683160  0.522650  1.0  -0.0926
  C  C75  1  0.535830  0.648680  0.483050  1.0  0.0519
  C  C76  1  0.514240  0.562750  0.398070  1.0  0.0556
  C  C77  1  0.852430  0.696600  0.545910  1.0  0.6784
  C  C78  1  0.242120  0.667250  0.527660  1.0  0.6823
  C  C79  1  0.464920  0.031390  0.178920  1.0  -0.084
  C  C80  1  0.356210  0.989690  0.130950  1.0  -0.1188
  C  C81  1  0.335210  0.900590  0.050330  1.0  -0.0529
  C  C82  1  0.422000  0.855710  0.019760  1.0  -0.1272
  C  C83  1  0.627080  0.856860  0.032930  1.0  -0.104
  C  C84  1  0.734350  0.903210  0.075090  1.0  -0.0452
  C  C85  1  0.756050  0.993190  0.154510  1.0  -0.1346
  C  C86  1  0.669370  0.033520  0.191330  1.0  -0.0758
  C  C87  1  0.557080  0.988280  0.147280  1.0  0.0712
  C  C88  1  0.535090  0.898520  0.066270  1.0  0.0589
  C  C89  1  0.259940  0.039050  0.161820  1.0  0.6719
  C  C90  1  0.873360  0.044380  0.196620  1.0  0.6931
  C  C91  1  0.074900  0.356630  0.965020  1.0  -0.1084
  C  C92  1  0.107400  0.337130  0.058360  1.0  -0.1177
  C  C93  1  0.181300  0.412900  0.136100  1.0  -0.0632
  C  C94  1  0.221500  0.503600  0.118700  1.0  -0.0748
  C  C95  1  0.228300  0.621200  0.002600  1.0  -0.1164
  C  C96  1  0.193100  0.640200  0.909500  1.0  -0.0379
  C  C97  1  0.119400  0.565700  0.831430  1.0  -0.1202
  C  C98  1  0.080400  0.474040  0.849370  1.0  -0.1032
  C  C99  1  0.113000  0.452130  0.945730  1.0  0.0534
  C  C100  1  0.188300  0.526400  0.023600  1.0  0.0441
  C  C101  1  0.069700  0.235930  0.081110  1.0  0.6846
  C  C102  1  0.086930  0.588560  0.729320  1.0  0.7158
  C  C103  1  0.352490  0.306470  0.471960  1.0  -0.0812
  C  C104  1  0.264820  0.345780  0.508110  1.0  -0.1323
  C  C105  1  0.285930  0.428830  0.594150  1.0  -0.025
  C  C106  1  0.393820  0.473070  0.640560  1.0  -0.1017
  C  C107  1  0.597210  0.486630  0.642580  1.0  -0.1116
  C  C108  1  0.683250  0.453570  0.601220  1.0  -0.0642
  C  C109  1  0.662990  0.367360  0.518000  1.0  -0.124
  C  C110  1  0.555830  0.316840  0.477350  1.0  -0.0935
  C  C111  1  0.464170  0.351320  0.516950  1.0  0.0515
  C  C112  1  0.485760  0.437250  0.601930  1.0  0.0565
  C  C113  1  0.147570  0.303400  0.454090  1.0  0.6761
  C  C114  1  0.757880  0.332750  0.472340  1.0  0.6826
  O  O115  1  0.837730  0.991730  0.894620  1.0  -0.7218
  O  O116  1  0.722850  0.893450  0.757250  1.0  -0.5872
  O  O117  1  0.053600  0.974620  0.855000  1.0  -0.6512
  O  O118  1  0.099460  0.896720  0.716690  1.0  -0.7194
  O  O119  1  0.975220  0.838470  0.992500  1.0  -0.5934
  O  O120  1  0.910710  0.765940  0.827290  1.0  -0.5983
  O  O121  1  0.887500  0.320530  0.276200  1.0  -0.6026
  O  O122  1  0.959820  0.486960  0.343310  1.0  -0.6066
  O  O123  1  0.931690  0.647150  0.525530  1.0  -0.6688
  O  O124  1  0.872700  0.781580  0.608990  1.0  -0.7142
  O  O125  1  0.149300  0.608300  0.502390  1.0  -0.6935
  O  O126  1  0.256600  0.754520  0.587390  1.0  -0.5869
  O  O127  1  0.162270  0.008270  0.105380  1.0  -0.7226
  O  O128  1  0.277150  0.106550  0.242750  1.0  -0.5865
  O  O129  1  0.946400  0.025380  0.145000  1.0  -0.652
  O  O130  1  0.900540  0.103280  0.283310  1.0  -0.7148
  O  O131  1  0.024780  0.161530  0.007500  1.0  -0.594
  O  O132  1  0.089290  0.234060  0.172710  1.0  -0.5961
  O  O133  1  0.112500  0.679470  0.723800  1.0  -0.6039
  O  O134  1  0.040180  0.513040  0.656690  1.0  -0.6058
  O  O135  1  0.068310  0.352850  0.474470  1.0  -0.666
  O  O136  1  0.127300  0.218420  0.391010  1.0  -0.714
  O  O137  1  0.850700  0.391700  0.497610  1.0  -0.6938
  O  O138  1  0.743400  0.245480  0.412610  1.0  -0.5856
