# generated using pymatgen
data_EuH3C12(NO2)3
_symmetry_space_group_name_H-M   'P 1'
_cell_length_a   10.43690000
_cell_length_b   11.29510000
_cell_length_c   12.78610000
_cell_angle_alpha   101.63900000
_cell_angle_beta   111.06400000
_cell_angle_gamma   98.47300000
_symmetry_Int_Tables_number   1
_chemical_formula_structural   EuH3C12(NO2)3
_chemical_formula_sum   'Eu2 H6 C24 N6 O12'
_cell_volume   1337.21011144
_cell_formula_units_Z   2
loop_
 _symmetry_equiv_pos_site_id
 _symmetry_equiv_pos_as_xyz
  1  'x, y, z'
loop_
 _atom_site_type_symbol
 _atom_site_label
 _atom_site_symmetry_multiplicity
 _atom_site_fract_x
 _atom_site_fract_y
 _atom_site_fract_z
 _atom_site_occupancy
 _atom_site_charge
  Eu  Eu1  1  0.892260  0.448180  0.828900  1.0  2.1479
  Eu  Eu2  1  0.107740  0.551820  0.171100  1.0  2.1477
  H  H3  1  0.678900  0.103300  0.465200  1.0  0.1455
  H  H4  1  0.409400  0.601800  0.119700  1.0  0.1197
  H  H5  1  0.931300  0.849100  0.828700  1.0  0.1392
  H  H6  1  0.321100  0.896700  0.534800  1.0  0.1458
  H  H7  1  0.590600  0.398200  0.880300  1.0  0.1201
  H  H8  1  0.068700  0.150900  0.171300  1.0  0.1403
  C  C9  1  0.696800  0.226700  0.666667  1.0  0.7059
  C  C10  1  0.592600  0.107900  0.580800  1.0  -0.1033
  C  C11  1  0.606200  0.062000  0.480000  1.0  -0.0702
  C  C12  1  0.488900  0.048200  0.603200  1.0  0.2052
  C  C13  1  0.198900  0.479800  0.925300  1.0  0.7357
  C  C14  1  0.356800  0.490900  0.962900  1.0  -0.0976
  C  C15  1  0.408700  0.428500  0.890200  1.0  0.1682
  C  C16  1  0.445600  0.560300  0.070400  1.0  -0.0089
  C  C17  1  0.009200  0.746200  0.000200  1.0  0.8054
  C  C18  1  0.004600  0.876900  0.000000  1.0  -0.1298
  C  C19  1  0.959900  0.910300  0.898700  1.0  -0.0701
  C  C20  1  0.044800  0.969100  0.104600  1.0  0.1912
  C  C21  1  0.303200  0.773300  0.333333  1.0  0.7064
  C  C22  1  0.407400  0.892100  0.419200  1.0  -0.1035
  C  C23  1  0.393800  0.938000  0.520000  1.0  -0.0708
  C  C24  1  0.511100  0.951800  0.396800  1.0  0.2043
  C  C25  1  0.801100  0.520200  0.074700  1.0  0.7378
  C  C26  1  0.643200  0.509100  0.037100  1.0  -0.0957
  C  C27  1  0.591300  0.571500  0.109800  1.0  0.1687
  C  C28  1  0.554400  0.439700  0.929600  1.0  -0.0079
  C  C29  1  0.990800  0.253800  0.999800  1.0  0.8057
  C  C30  1  0.995400  0.123100  0.000000  1.0  -0.1296
  C  C31  1  0.040100  0.089700  0.101300  1.0  -0.0722
  C  C32  1  0.955200  0.030900  0.895400  1.0  0.1888
  N  N33  1  0.471000  0.076000  0.712000  1.0  -0.2244
  N  N34  1  0.323000  0.366000  0.768200  1.0  -0.2147
  N  N35  1  0.063000  0.946000  0.215900  1.0  -0.2252
  N  N36  1  0.529000  0.924000  0.288000  1.0  -0.223
  N  N37  1  0.677000  0.634000  0.231800  1.0  -0.2144
  N  N38  1  0.937000  0.054000  0.784100  1.0  -0.2261
  O  O39  1  0.800600  0.274300  0.651200  1.0  -0.65
  O  O40  1  0.674900  0.275500  0.753900  1.0  -0.687
  O  O41  1  0.118800  0.437100  0.820200  1.0  -0.6106
  O  O42  1  0.152500  0.514200  0.001800  1.0  -0.8153
  O  O43  1  0.965800  0.667300  0.902500  1.0  -0.7717
  O  O44  1  0.050000  0.721200  0.096500  1.0  -0.6894
  O  O45  1  0.199400  0.725700  0.348800  1.0  -0.6459
  O  O46  1  0.325100  0.724500  0.246100  1.0  -0.6865
  O  O47  1  0.881200  0.562900  0.179800  1.0  -0.6102
  O  O48  1  0.847500  0.485800  0.998200  1.0  -0.8147
  O  O49  1  0.034200  0.332700  0.097500  1.0  -0.7721
  O  O50  1  0.950000  0.278800  0.903500  1.0  -0.6883
