# generated using pymatgen
data_EuH8C16N5O6
_symmetry_space_group_name_H-M   'P 1'
_cell_length_a   10.33710000
_cell_length_b   11.16710000
_cell_length_c   11.86890000
_cell_angle_alpha   94.25700000
_cell_angle_beta   107.00400000
_cell_angle_gamma   108.41900000
_symmetry_Int_Tables_number   1
_chemical_formula_structural   EuH8C16N5O6
_chemical_formula_sum   'Eu2 H16 C32 N10 O12'
_cell_volume   1221.93335419
_cell_formula_units_Z   2
loop_
 _symmetry_equiv_pos_site_id
 _symmetry_equiv_pos_as_xyz
  1  'x, y, z'
loop_
 _atom_site_type_symbol
 _atom_site_label
 _atom_site_symmetry_multiplicity
 _atom_site_fract_x
 _atom_site_fract_y
 _atom_site_fract_z
 _atom_site_occupancy
 _atom_site_charge
  Eu  Eu1  1  0.099770  0.034990  0.177660  1.0  2.1432
  Eu  Eu2  1  0.900230  0.965010  0.822340  1.0  2.1444
  H  H3  1  0.270700  0.409400  0.507100  1.0  0.1273
  H  H4  1  0.578000  0.877100  0.889900  1.0  0.1231
  H  H5  1  0.987900  0.605200  0.166800  1.0  0.1259
  H  H6  1  0.284800  0.008000  0.460400  1.0  0.1247
  H  H7  1  0.208700  0.945300  0.633400  1.0  0.149
  H  H8  1  0.814100  0.798900  0.221100  1.0  0.1592
  H  H9  1  0.752800  0.818900  0.324300  1.0  0.1592
  H  H10  1  0.790600  0.695700  0.302900  1.0  0.1559
  H  H11  1  0.729300  0.590600  0.492900  1.0  0.1272
  H  H12  1  0.422000  0.122900  0.110100  1.0  0.1227
  H  H13  1  0.012100  0.394800  0.833200  1.0  0.1258
  H  H14  1  0.715200  0.992000  0.539600  1.0  0.1247
  H  H15  1  0.791300  0.054700  0.366600  1.0  0.1489
  H  H16  1  0.185900  0.201100  0.778900  1.0  0.1583
  H  H17  1  0.247200  0.181100  0.675700  1.0  0.16
  H  H18  1  0.209400  0.304300  0.697100  1.0  0.1555
  C  C19  1  0.302400  0.261300  0.342900  1.0  0.7455
  C  C20  1  0.400800  0.382600  0.422600  1.0  -0.1214
  C  C21  1  0.363400  0.445400  0.503400  1.0  -0.0865
  C  C22  1  0.543400  0.438200  0.418100  1.0  0.1662
  C  C23  1  0.795100  0.010000  0.080100  1.0  0.706
  C  C24  1  0.643500  0.005700  0.039300  1.0  -0.1104
  C  C25  1  0.599400  0.085000  0.105900  1.0  0.282
  C  C26  1  0.546200  0.925900  0.935100  1.0  -0.0807
  C  C27  1  0.963300  0.744800  0.997900  1.0  0.7877
  C  C28  1  0.979800  0.618400  0.998100  1.0  -0.1463
  C  C29  1  0.993700  0.562900  0.098900  1.0  -0.0899
  C  C30  1  0.984400  0.550800  0.896300  1.0  0.1891
  C  C31  1  0.189800  0.965200  0.455800  1.0  0.1012
  C  C32  1  0.150400  0.927000  0.553400  1.0  -0.0441
  C  C33  1  0.969100  0.854600  0.385800  1.0  0.3705
  C  C34  1  0.818100  0.786000  0.300900  1.0  -0.4264
  C  C35  1  0.697600  0.738700  0.657100  1.0  0.7463
  C  C36  1  0.599200  0.617400  0.577400  1.0  -0.1186
  C  C37  1  0.636600  0.554600  0.496600  1.0  -0.0858
  C  C38  1  0.456600  0.561800  0.581900  1.0  0.1657
  C  C39  1  0.204900  0.990000  0.919900  1.0  0.7047
  C  C40  1  0.356500  0.994300  0.960700  1.0  -0.1103
  C  C41  1  0.400600  0.915000  0.894100  1.0  0.2776
  C  C42  1  0.453800  0.074100  0.064900  1.0  -0.0799
  C  C43  1  0.036700  0.255200  0.002100  1.0  0.7704
  C  C44  1  0.020200  0.381600  0.001900  1.0  -0.1459
  C  C45  1  0.006300  0.437100  0.901100  1.0  -0.0896
  C  C46  1  0.015600  0.449200  0.103700  1.0  0.1839
  C  C47  1  0.810200  0.034800  0.544200  1.0  0.1005
  C  C48  1  0.849600  0.073000  0.446600  1.0  -0.0443
  C  C49  1  0.030900  0.145400  0.614200  1.0  0.3712
  C  C50  1  0.181900  0.214000  0.699100  1.0  -0.4298
  N  N51  1  0.602000  0.391000  0.335000  1.0  -0.2273
  N  N52  1  0.686000  0.170000  0.207000  1.0  -0.2458
  N  N53  1  0.986000  0.602000  0.788000  1.0  -0.2506
  N  N54  1  0.075700  0.933800  0.353800  1.0  -0.4636
  N  N55  1  0.007600  0.855700  0.505300  1.0  -0.3541
  N  N56  1  0.398000  0.609000  0.665000  1.0  -0.2281
  N  N57  1  0.314000  0.830000  0.793000  1.0  -0.2484
  N  N58  1  0.014000  0.398000  0.212000  1.0  -0.252
  N  N59  1  0.924300  0.066200  0.646200  1.0  -0.4634
  N  N60  1  0.992400  0.144300  0.494700  1.0  -0.3534
  O  O61  1  0.174900  0.211300  0.351200  1.0  -0.6501
  O  O62  1  0.338000  0.205700  0.272200  1.0  -0.5696
  O  O63  1  0.870100  0.041800  0.188100  1.0  -0.6024
  O  O64  1  0.846300  0.981600  0.001200  1.0  -0.8014
  O  O65  1  0.994800  0.813900  0.100300  1.0  -0.6472
  O  O66  1  0.920200  0.779400  0.900700  1.0  -0.6807
  O  O67  1  0.825100  0.788700  0.648800  1.0  -0.65
  O  O68  1  0.662000  0.794300  0.727800  1.0  -0.5701
  O  O69  1  0.129900  0.958200  0.811900  1.0  -0.6029
  O  O70  1  0.153700  0.018400  0.998800  1.0  -0.8022
  O  O71  1  0.005200  0.186100  0.899700  1.0  -0.6485
  O  O72  1  0.079800  0.220600  0.099300  1.0  -0.6817
