# generated using pymatgen
data_CuC12(NF)4
_symmetry_space_group_name_H-M   'P 1'
_cell_length_a   9.26300000
_cell_length_b   11.08910000
_cell_length_c   21.17170000
_cell_angle_alpha   90.00000000
_cell_angle_beta   100.10400000
_cell_angle_gamma   90.00000000
_symmetry_Int_Tables_number   1
_chemical_formula_structural   CuC12(NF)4
_chemical_formula_sum   'Cu4 C48 N16 F16'
_cell_volume   2140.99383563
_cell_formula_units_Z   4
loop_
 _symmetry_equiv_pos_site_id
 _symmetry_equiv_pos_as_xyz
  1  'x, y, z'
loop_
 _atom_site_type_symbol
 _atom_site_label
 _atom_site_symmetry_multiplicity
 _atom_site_fract_x
 _atom_site_fract_y
 _atom_site_fract_z
 _atom_site_occupancy
 _atom_site_charge
  Cu  Cu1  1  0.838140  0.379080  0.649040  1.0  0.5711
  Cu  Cu2  1  0.338140  0.879080  0.649040  1.0  0.5711
  Cu  Cu3  1  0.838140  0.620920  0.149040  1.0  0.5714
  Cu  Cu4  1  0.338140  0.120920  0.149040  1.0  0.5714
  C  C5  1  0.483800  0.467800  0.427620  1.0  0.1859
  C  C6  1  0.288900  0.472100  0.333620  1.0  -0.0906
  C  C7  1  0.415900  0.550000  0.462750  1.0  -0.1773
  C  C8  1  0.475600  0.585500  0.528440  1.0  -0.1275
  C  C9  1  0.579300  0.516700  0.569060  1.0  0.3774
  C  C10  1  0.422900  0.431500  0.366260  1.0  0.1803
  C  C11  1  0.099900  0.487700  0.232030  1.0  0.3914
  C  C12  1  0.221600  0.557400  0.368230  1.0  0.1869
  C  C13  1  0.281500  0.592900  0.429430  1.0  0.1856
  C  C14  1  0.441600  0.696500  0.554690  1.0  0.4312
  C  C15  1  0.224500  0.434100  0.268870  1.0  -0.2171
  C  C16  1  0.274300  0.334200  0.237670  1.0  0.3938
  C  C17  1  0.983800  0.967800  0.427620  1.0  0.1859
  C  C18  1  0.788900  0.972100  0.333620  1.0  -0.0906
  C  C19  1  0.915900  0.050000  0.462750  1.0  -0.1773
  C  C20  1  0.975600  0.085500  0.528440  1.0  -0.1275
  C  C21  1  0.079300  0.016700  0.569060  1.0  0.3774
  C  C22  1  0.922900  0.931500  0.366260  1.0  0.1803
  C  C23  1  0.599900  0.987700  0.232030  1.0  0.3914
  C  C24  1  0.721600  0.057400  0.368230  1.0  0.1869
  C  C25  1  0.781500  0.092900  0.429430  1.0  0.1856
  C  C26  1  0.941600  0.196500  0.554690  1.0  0.4312
  C  C27  1  0.724500  0.934100  0.268870  1.0  -0.2171
  C  C28  1  0.774300  0.834200  0.237670  1.0  0.3938
  C  C29  1  0.483800  0.532200  0.927620  1.0  0.1859
  C  C30  1  0.288900  0.527900  0.833620  1.0  -0.0904
  C  C31  1  0.415900  0.450000  0.962750  1.0  -0.1776
  C  C32  1  0.475600  0.414500  0.028440  1.0  -0.1275
  C  C33  1  0.579300  0.483300  0.069060  1.0  0.3775
  C  C34  1  0.422900  0.568500  0.866260  1.0  0.1809
  C  C35  1  0.099900  0.512300  0.732030  1.0  0.3911
  C  C36  1  0.221600  0.442600  0.868230  1.0  0.1866
  C  C37  1  0.281500  0.407100  0.929430  1.0  0.1852
  C  C38  1  0.441600  0.303500  0.054690  1.0  0.431
  C  C39  1  0.224500  0.565900  0.768870  1.0  -0.2171
  C  C40  1  0.274300  0.665800  0.737670  1.0  0.3943
  C  C41  1  0.983800  0.032200  0.927620  1.0  0.1859
  C  C42  1  0.788900  0.027900  0.833620  1.0  -0.0904
  C  C43  1  0.915900  0.950000  0.962750  1.0  -0.1776
  C  C44  1  0.975600  0.914500  0.028440  1.0  -0.1275
  C  C45  1  0.079300  0.983300  0.069060  1.0  0.3775
  C  C46  1  0.922900  0.068500  0.866260  1.0  0.1809
  C  C47  1  0.599900  0.012300  0.732030  1.0  0.3911
  C  C48  1  0.721600  0.942600  0.868230  1.0  0.1866
  C  C49  1  0.781500  0.907100  0.929430  1.0  0.1852
  C  C50  1  0.941600  0.803500  0.054690  1.0  0.431
  C  C51  1  0.724500  0.065900  0.768870  1.0  -0.2171
  C  C52  1  0.774300  0.165800  0.737670  1.0  0.3943
  N  N53  1  0.000000  0.526800  0.198420  1.0  -0.3985
  N  N54  1  0.421200  0.785200  0.580220  1.0  -0.5464
  N  N55  1  0.661500  0.463000  0.605930  1.0  -0.3996
  N  N56  1  0.302200  0.254300  0.207550  1.0  -0.451
  N  N57  1  0.500000  0.026800  0.198420  1.0  -0.3985
  N  N58  1  0.921200  0.285200  0.580220  1.0  -0.5464
  N  N59  1  0.161500  0.963000  0.605930  1.0  -0.3996
  N  N60  1  0.802200  0.754300  0.207550  1.0  -0.451
  N  N61  1  0.000000  0.473200  0.698420  1.0  -0.3989
  N  N62  1  0.421200  0.214800  0.080220  1.0  -0.542
  N  N63  1  0.661500  0.537000  0.105930  1.0  -0.3998
  N  N64  1  0.302200  0.745700  0.707550  1.0  -0.4526
  N  N65  1  0.500000  0.973200  0.698420  1.0  -0.3989
  N  N66  1  0.921200  0.714800  0.080220  1.0  -0.542
  N  N67  1  0.161500  0.037000  0.105930  1.0  -0.3998
  N  N68  1  0.802200  0.245700  0.707550  1.0  -0.4525
  F  F69  1  0.091000  0.604400  0.341510  1.0  -0.124
  F  F70  1  0.202700  0.670400  0.459310  1.0  -0.1271
  F  F71  1  0.613900  0.420800  0.454630  1.0  -0.124
  F  F72  1  0.500500  0.352400  0.337060  1.0  -0.1219
  F  F73  1  0.591000  0.104400  0.341510  1.0  -0.1234
  F  F74  1  0.702700  0.170400  0.459310  1.0  -0.1272
  F  F75  1  0.113900  0.920800  0.454630  1.0  -0.124
  F  F76  1  0.000500  0.852400  0.337060  1.0  -0.1217
  F  F77  1  0.091000  0.395600  0.841510  1.0  -0.1246
  F  F78  1  0.202700  0.329600  0.959310  1.0  -0.1269
  F  F79  1  0.613900  0.579200  0.954630  1.0  -0.1241
  F  F80  1  0.500500  0.647600  0.837060  1.0  -0.1219
  F  F81  1  0.591000  0.895600  0.841510  1.0  -0.124
  F  F82  1  0.702700  0.829600  0.959310  1.0  -0.127
  F  F83  1  0.113900  0.079200  0.954630  1.0  -0.1241
  F  F84  1  0.000500  0.147600  0.837060  1.0  -0.1217
