# generated using pymatgen
data_ZnH18C22(NO2)2
_symmetry_space_group_name_H-M   'P 1'
_cell_length_a   6.20470000
_cell_length_b   17.74600000
_cell_length_c   20.42300000
_cell_angle_alpha   90.00000000
_cell_angle_beta   98.45230000
_cell_angle_gamma   90.00000000
_symmetry_Int_Tables_number   1
_chemical_formula_structural   ZnH18C22(NO2)2
_chemical_formula_sum   'Zn4 H72 C88 N8 O16'
_cell_volume   2224.32345643
_cell_formula_units_Z   4
loop_
 _symmetry_equiv_pos_site_id
 _symmetry_equiv_pos_as_xyz
  1  'x, y, z'
loop_
 _atom_site_type_symbol
 _atom_site_label
 _atom_site_symmetry_multiplicity
 _atom_site_fract_x
 _atom_site_fract_y
 _atom_site_fract_z
 _atom_site_occupancy
 _atom_site_charge
  Zn  Zn1  1  0.211910  0.513800  0.280620  1.0  0.8798
  Zn  Zn2  1  0.288090  0.013800  0.219380  1.0  0.8798
  Zn  Zn3  1  0.788090  0.486200  0.719380  1.0  0.88
  Zn  Zn4  1  0.711910  0.986200  0.780620  1.0  0.8799
  H  H5  1  0.643400  0.714000  0.265500  1.0  0.1319
  H  H6  1  0.443500  0.758800  0.284800  1.0  0.1342
  H  H7  1  0.661100  0.683600  0.152600  1.0  0.096
  H  H8  1  0.545500  0.699200  0.042600  1.0  0.1048
  H  H9  1  0.206600  0.749400  0.007200  1.0  0.1063
  H  H10  1  0.993800  0.790900  0.083800  1.0  0.0997
  H  H11  1  0.903800  0.792700  0.193200  1.0  0.1208
  H  H12  1  0.058700  0.754200  0.251100  1.0  0.1236
  H  H13  1  0.751600  0.473200  0.223700  1.0  0.0798
  H  H14  1  0.527300  0.470300  0.125900  1.0  0.1228
  H  H15  1  0.979000  0.577500  0.042600  1.0  0.121
  H  H16  1  0.199100  0.577000  0.141800  1.0  0.0762
  H  H17  1  0.634900  0.549600  0.974200  1.0  0.113
  H  H18  1  0.892700  0.606400  0.344100  1.0  0.082
  H  H19  1  0.656200  0.595600  0.418800  1.0  0.1268
  H  H20  1  0.855000  0.383200  0.452300  1.0  0.1261
  H  H21  1  0.084200  0.399000  0.376200  1.0  0.0682
  H  H22  1  0.578800  0.429400  0.513700  1.0  0.1075
  H  H23  1  0.856600  0.214000  0.234500  1.0  0.1323
  H  H24  1  0.056500  0.258800  0.215200  1.0  0.1339
  H  H25  1  0.838900  0.183600  0.347400  1.0  0.0954
  H  H26  1  0.954500  0.199200  0.457400  1.0  0.1042
  H  H27  1  0.293400  0.249400  0.492800  1.0  0.1068
  H  H28  1  0.506200  0.290900  0.416200  1.0  0.1001
  H  H29  1  0.596200  0.292700  0.306800  1.0  0.1202
  H  H30  1  0.441300  0.254200  0.248900  1.0  0.1229
  H  H31  1  0.748400  0.973200  0.276300  1.0  0.08
  H  H32  1  0.972700  0.970300  0.374100  1.0  0.1232
  H  H33  1  0.521000  0.077500  0.457400  1.0  0.1201
  H  H34  1  0.300900  0.077000  0.358200  1.0  0.076
  H  H35  1  0.865100  0.049600  0.525800  1.0  0.113
  H  H36  1  0.607300  0.106400  0.155900  1.0  0.0818
  H  H37  1  0.843800  0.095600  0.081200  1.0  0.1267
  H  H38  1  0.645000  0.883200  0.047700  1.0  0.1261
  H  H39  1  0.415800  0.899000  0.123800  1.0  0.0658
  H  H40  1  0.921200  0.929400  0.986300  1.0  0.1075
  H  H41  1  0.356600  0.286000  0.734500  1.0  0.1315
  H  H42  1  0.556500  0.241200  0.715200  1.0  0.1341
  H  H43  1  0.338900  0.316400  0.847400  1.0  0.0955
  H  H44  1  0.454500  0.300800  0.957400  1.0  0.104
  H  H45  1  0.793400  0.250600  0.992800  1.0  0.1072
  H  H46  1  0.006200  0.209100  0.916200  1.0  0.1003
  H  H47  1  0.096200  0.207300  0.806800  1.0  0.1205
  H  H48  1  0.941300  0.245800  0.748900  1.0  0.1231
  H  H49  1  0.248400  0.526800  0.776300  1.0  0.0799
  H  H50  1  0.472700  0.529700  0.874100  1.0  0.1234
  H  H51  1  0.021000  0.422500  0.957400  1.0  0.1201
  H  H52  1  0.800900  0.423000  0.858200  1.0  0.0757
  H  H53  1  0.365100  0.450400  0.025800  1.0  0.113
  H  H54  1  0.107300  0.393600  0.655900  1.0  0.0812
  H  H55  1  0.343800  0.404400  0.581200  1.0  0.1273
  H  H56  1  0.145000  0.616800  0.547700  1.0  0.1262
  H  H57  1  0.915800  0.601000  0.623800  1.0  0.0675
  H  H58  1  0.421200  0.570600  0.486300  1.0  0.1081
  H  H59  1  0.143400  0.786000  0.765500  1.0  0.1321
  H  H60  1  0.943500  0.741200  0.784800  1.0  0.1349
  H  H61  1  0.161100  0.816400  0.652600  1.0  0.096
  H  H62  1  0.045500  0.800800  0.542600  1.0  0.1047
  H  H63  1  0.706600  0.750600  0.507200  1.0  0.1066
  H  H64  1  0.493800  0.709100  0.583800  1.0  0.0997
  H  H65  1  0.403800  0.707300  0.693200  1.0  0.1208
  H  H66  1  0.558700  0.745800  0.751100  1.0  0.1236
  H  H67  1  0.251600  0.026800  0.723700  1.0  0.0798
  H  H68  1  0.027300  0.029700  0.625900  1.0  0.123
  H  H69  1  0.479000  0.922500  0.542600  1.0  0.1208
  H  H70  1  0.699100  0.923000  0.641800  1.0  0.076
  H  H71  1  0.134900  0.950400  0.474200  1.0  0.113
  H  H72  1  0.392700  0.893600  0.844100  1.0  0.0812
  H  H73  1  0.156200  0.904400  0.918800  1.0  0.1271
  H  H74  1  0.355000  0.116800  0.952300  1.0  0.1259
  H  H75  1  0.584200  0.101000  0.876200  1.0  0.0656
  H  H76  1  0.078800  0.070600  0.013700  1.0  0.108
  C  C77  1  0.391400  0.645300  0.280500  1.0  0.7252
  C  C78  1  0.485700  0.717100  0.258800  1.0  -0.3569
  C  C79  1  0.401700  0.730000  0.185700  1.0  0.0527
  C  C80  1  0.526600  0.705900  0.138800  1.0  -0.134
  C  C81  1  0.457200  0.714300  0.073300  1.0  -0.0904
  C  C82  1  0.256900  0.744900  0.052200  1.0  -0.0948
  C  C83  1  0.128800  0.769300  0.098500  1.0  -0.1344
  C  C84  1  0.197100  0.762200  0.166200  1.0  0.0701
  C  C85  1  0.053200  0.790100  0.215100  1.0  -0.3632
  C  C86  1  0.120600  0.867100  0.243500  1.0  0.7322
  C  C87  1  0.800700  0.493700  0.186700  1.0  0.1856
  C  C88  1  0.664400  0.492200  0.128000  1.0  -0.1809
  C  C89  1  0.726600  0.522400  0.072000  1.0  0.1327
  C  C90  1  0.930700  0.555100  0.078900  1.0  -0.2128
  C  C91  1  0.062400  0.554800  0.138800  1.0  0.1822
  C  C92  1  0.591200  0.520300  0.007600  1.0  -0.1132
  C  C93  1  0.884500  0.560700  0.365900  1.0  0.1838
  C  C94  1  0.741900  0.554600  0.410800  1.0  -0.1995
  C  C95  1  0.724500  0.487000  0.444600  1.0  0.1405
  C  C96  1  0.858400  0.429200  0.430600  1.0  -0.2069
  C  C97  1  0.996600  0.439300  0.384900  1.0  0.1842
  C  C98  1  0.572400  0.475700  0.492200  1.0  -0.0938
  C  C99  1  0.108600  0.145300  0.219500  1.0  0.726
  C  C100  1  0.014300  0.217100  0.241200  1.0  -0.3577
  C  C101  1  0.098300  0.230000  0.314300  1.0  0.0532
  C  C102  1  0.973400  0.205900  0.361200  1.0  -0.1325
  C  C103  1  0.042800  0.214300  0.426700  1.0  -0.0898
  C  C104  1  0.243100  0.244900  0.447800  1.0  -0.0961
  C  C105  1  0.371200  0.269300  0.401500  1.0  -0.1348
  C  C106  1  0.302900  0.262200  0.333800  1.0  0.0694
  C  C107  1  0.446800  0.290100  0.284900  1.0  -0.3628
  C  C108  1  0.379400  0.367100  0.256500  1.0  0.7328
  C  C109  1  0.699300  0.993700  0.313300  1.0  0.1844
  C  C110  1  0.835600  0.992200  0.372000  1.0  -0.1811
  C  C111  1  0.773400  0.022400  0.428000  1.0  0.1331
  C  C112  1  0.569300  0.055100  0.421100  1.0  -0.2128
  C  C113  1  0.437600  0.054800  0.361200  1.0  0.183
  C  C114  1  0.908800  0.020300  0.492400  1.0  -0.1125
  C  C115  1  0.615500  0.060700  0.134100  1.0  0.1843
  C  C116  1  0.758100  0.054600  0.089200  1.0  -0.1989
  C  C117  1  0.775500  0.987000  0.055400  1.0  0.1404
  C  C118  1  0.641600  0.929200  0.069400  1.0  -0.2063
  C  C119  1  0.503400  0.939300  0.115100  1.0  0.185
  C  C120  1  0.927600  0.975700  0.007800  1.0  -0.0935
  C  C121  1  0.608600  0.354700  0.719500  1.0  0.7254
  C  C122  1  0.514300  0.282900  0.741200  1.0  -0.357
  C  C123  1  0.598300  0.270000  0.814300  1.0  0.0535
  C  C124  1  0.473400  0.294100  0.861200  1.0  -0.1326
  C  C125  1  0.542800  0.285700  0.926700  1.0  -0.0901
  C  C126  1  0.743100  0.255100  0.947800  1.0  -0.0961
  C  C127  1  0.871200  0.230700  0.901500  1.0  -0.1347
  C  C128  1  0.802900  0.237800  0.833800  1.0  0.0696
  C  C129  1  0.946800  0.209900  0.784900  1.0  -0.3636
  C  C130  1  0.879400  0.132900  0.756500  1.0  0.7329
  C  C131  1  0.199300  0.506300  0.813300  1.0  0.1852
  C  C132  1  0.335600  0.507800  0.872000  1.0  -0.1809
  C  C133  1  0.273400  0.477600  0.928000  1.0  0.1335
  C  C134  1  0.069300  0.444900  0.921100  1.0  -0.2132
  C  C135  1  0.937600  0.445200  0.861200  1.0  0.1831
  C  C136  1  0.408800  0.479700  0.992400  1.0  -0.1128
  C  C137  1  0.115500  0.439300  0.634100  1.0  0.1843
  C  C138  1  0.258100  0.445400  0.589200  1.0  -0.1986
  C  C139  1  0.275500  0.513000  0.555400  1.0  0.1402
  C  C140  1  0.141600  0.570800  0.569400  1.0  -0.2086
  C  C141  1  0.003400  0.560700  0.615100  1.0  0.1853
  C  C142  1  0.427600  0.524300  0.507800  1.0  -0.0928
  C  C143  1  0.891400  0.854700  0.780500  1.0  0.7254
  C  C144  1  0.985700  0.782900  0.758800  1.0  -0.3569
  C  C145  1  0.901700  0.770000  0.685700  1.0  0.0526
  C  C146  1  0.026600  0.794100  0.638800  1.0  -0.134
  C  C147  1  0.957200  0.785700  0.573300  1.0  -0.0909
  C  C148  1  0.756900  0.755100  0.552200  1.0  -0.095
  C  C149  1  0.628800  0.730700  0.598500  1.0  -0.1339
  C  C150  1  0.697100  0.737800  0.666200  1.0  0.0699
  C  C151  1  0.553200  0.709900  0.715100  1.0  -0.3623
  C  C152  1  0.620600  0.632900  0.743500  1.0  0.7331
  C  C153  1  0.300700  0.006300  0.686700  1.0  0.1852
  C  C154  1  0.164400  0.007800  0.628000  1.0  -0.1819
  C  C155  1  0.226600  0.977600  0.572000  1.0  0.133
  C  C156  1  0.430700  0.944900  0.578900  1.0  -0.2129
  C  C157  1  0.562400  0.945200  0.638800  1.0  0.1829
  C  C158  1  0.091200  0.979700  0.507600  1.0  -0.1137
  C  C159  1  0.384500  0.939300  0.865900  1.0  0.1837
  C  C160  1  0.241900  0.945400  0.910800  1.0  -0.199
  C  C161  1  0.224500  0.013000  0.944600  1.0  0.1404
  C  C162  1  0.358400  0.070800  0.930600  1.0  -0.2094
  C  C163  1  0.496600  0.060700  0.884900  1.0  0.1845
  C  C164  1  0.072400  0.024300  0.992200  1.0  -0.0931
  N  N165  1  0.002200  0.523300  0.194000  1.0  -0.3604
  N  N166  1  0.012750  0.504100  0.351850  1.0  -0.3463
  N  N167  1  0.497800  0.023300  0.306000  1.0  -0.3605
  N  N168  1  0.487250  0.004100  0.148150  1.0  -0.3468
  N  N169  1  0.997800  0.476700  0.806000  1.0  -0.3604
  N  N170  1  0.987250  0.495900  0.648150  1.0  -0.3463
  N  N171  1  0.502200  0.976700  0.694000  1.0  -0.3606
  N  N172  1  0.512750  0.995900  0.851850  1.0  -0.3464
  O  O173  1  0.256900  0.646300  0.319000  1.0  -0.6364
  O  O174  1  0.440960  0.584500  0.257160  1.0  -0.6232
  O  O175  1  0.134250  0.879900  0.302850  1.0  -0.6222
  O  O176  1  0.152410  0.915940  0.200910  1.0  -0.641
  O  O177  1  0.243100  0.146300  0.181000  1.0  -0.6391
  O  O178  1  0.059040  0.084500  0.242840  1.0  -0.6229
  O  O179  1  0.365750  0.379900  0.197150  1.0  -0.6194
  O  O180  1  0.347590  0.415940  0.299090  1.0  -0.6393
  O  O181  1  0.743100  0.353700  0.681000  1.0  -0.6384
  O  O182  1  0.559040  0.415500  0.742840  1.0  -0.6235
  O  O183  1  0.865750  0.120100  0.697150  1.0  -0.6182
  O  O184  1  0.847590  0.084060  0.799090  1.0  -0.6396
  O  O185  1  0.756900  0.853700  0.819000  1.0  -0.6369
  O  O186  1  0.940960  0.915500  0.757160  1.0  -0.6239
  O  O187  1  0.634250  0.620100  0.802850  1.0  -0.6221
  O  O188  1  0.652410  0.584060  0.700910  1.0  -0.6406
