# generated using pymatgen
data_Zn3H50C44(N2O3)4
_symmetry_space_group_name_H-M   'P 1'
_cell_length_a   8.32070000
_cell_length_b   13.11200000
_cell_length_c   13.42530000
_cell_angle_alpha   71.71600000
_cell_angle_beta   79.75800000
_cell_angle_gamma   88.05500000
_symmetry_Int_Tables_number   1
_chemical_formula_structural   Zn3H50C44(N2O3)4
_chemical_formula_sum   'Zn3 H50 C44 N8 O12'
_cell_volume   1368.22998177
_cell_formula_units_Z   1
loop_
 _symmetry_equiv_pos_site_id
 _symmetry_equiv_pos_as_xyz
  1  'x, y, z'
loop_
 _atom_site_type_symbol
 _atom_site_label
 _atom_site_symmetry_multiplicity
 _atom_site_fract_x
 _atom_site_fract_y
 _atom_site_fract_z
 _atom_site_occupancy
 _atom_site_charge
  Zn  Zn1  1  0.774370  0.636990  0.360840  1.0  0.84
  Zn  Zn2  1  0.225630  0.363010  0.639160  1.0  0.8397
  Zn  Zn3  1  0.000000  0.000000  0.000000  1.0  0.9975
  H  H4  1  0.834100  0.518000  0.212200  1.0  0.086
  H  H5  1  0.884000  0.346700  0.202900  1.0  0.1327
  H  H6  1  0.731200  0.230900  0.521300  1.0  0.13
  H  H7  1  0.678500  0.404800  0.521900  1.0  0.0788
  H  H8  1  0.941900  0.163200  0.293500  1.0  0.067
  H  H9  1  0.752500  0.131200  0.334200  1.0  0.094
  H  H10  1  0.807600  0.951200  0.415700  1.0  0.0767
  H  H11  1  0.997100  0.980500  0.368100  1.0  0.0721
  H  H12  1  0.131100  0.117000  0.410400  1.0  0.0523
  H  H13  1  0.031800  0.179800  0.485900  1.0  0.0688
  H  H14  1  0.594000  0.772400  0.482300  1.0  0.0886
  H  H15  1  0.547700  0.789600  0.651400  1.0  0.1228
  H  H16  1  0.831100  0.532500  0.745500  1.0  0.1283
  H  H17  1  0.871800  0.522600  0.574300  1.0  0.0798
  H  H18  1  0.560300  0.721700  0.834200  1.0  0.0732
  H  H19  1  0.750200  0.704800  0.840100  1.0  0.1063
  H  H20  1  0.375300  0.566600  0.895100  1.0  0.0529
  H  H21  1  0.491800  0.503800  0.826400  1.0  0.0727
  H  H22  1  0.672100  0.620500  0.028200  1.0  0.0769
  H  H23  1  0.483700  0.636700  0.016600  1.0  0.0554
  H  H24  1  0.575200  0.901300  0.116800  1.0  0.14
  H  H25  1  0.514600  0.807200  0.079400  1.0  0.1331
  H  H26  1  0.352800  0.853800  0.267100  1.0  0.0969
  H  H27  1  0.312200  0.675700  0.268500  1.0  0.1243
  H  H28  1  0.247500  0.719500  0.158100  1.0  0.1283
  H  H29  1  0.165900  0.482000  0.787800  1.0  0.0865
  H  H30  1  0.116000  0.653300  0.797100  1.0  0.1318
  H  H31  1  0.268800  0.769100  0.478700  1.0  0.1295
  H  H32  1  0.321500  0.595200  0.478100  1.0  0.0786
  H  H33  1  0.058100  0.836800  0.706500  1.0  0.0682
  H  H34  1  0.247500  0.868800  0.665800  1.0  0.0947
  H  H35  1  0.192400  0.048800  0.584300  1.0  0.077
  H  H36  1  0.002900  0.019500  0.631900  1.0  0.0711
  H  H37  1  0.868900  0.883000  0.589600  1.0  0.051
  H  H38  1  0.968200  0.820200  0.514100  1.0  0.0691
  H  H39  1  0.406000  0.227600  0.517700  1.0  0.0888
  H  H40  1  0.452300  0.210400  0.348600  1.0  0.12
  H  H41  1  0.168900  0.467500  0.254500  1.0  0.1283
  H  H42  1  0.128200  0.477400  0.425700  1.0  0.0795
  H  H43  1  0.439700  0.278300  0.165800  1.0  0.075
  H  H44  1  0.249800  0.295200  0.159900  1.0  0.1035
  H  H45  1  0.624700  0.433400  0.104900  1.0  0.0543
  H  H46  1  0.508200  0.496200  0.173600  1.0  0.0689
  H  H47  1  0.327900  0.379500  0.971800  1.0  0.078
  H  H48  1  0.516300  0.363300  0.983400  1.0  0.0573
  H  H49  1  0.424800  0.098700  0.883200  1.0  0.141
  H  H50  1  0.485400  0.192800  0.920600  1.0  0.1331
  H  H51  1  0.647200  0.146200  0.732900  1.0  0.0973
  H  H52  1  0.687800  0.324300  0.731500  1.0  0.1238
  H  H53  1  0.752500  0.280500  0.841900  1.0  0.1268
  C  C54  1  0.812100  0.458800  0.275790  1.0  0.1754
  C  C55  1  0.843400  0.356850  0.269790  1.0  -0.2251
  C  C56  1  0.815500  0.268820  0.361620  1.0  0.1284
  C  C57  1  0.752900  0.288710  0.456520  1.0  -0.2044
  C  C58  1  0.722500  0.392750  0.456290  1.0  0.175
  C  C59  1  0.849500  0.157830  0.352740  1.0  -0.0334
  C  C60  1  0.910500  0.973950  0.430860  1.0  0.0134
  C  C61  1  0.043300  0.109450  0.472790  1.0  0.0198
  C  C62  1  0.642100  0.723010  0.536660  1.0  0.165
  C  C63  1  0.614100  0.733670  0.637320  1.0  -0.2229
  C  C64  1  0.683200  0.662490  0.717920  1.0  0.125
  C  C65  1  0.780900  0.582580  0.692670  1.0  -0.2014
  C  C66  1  0.804100  0.576990  0.590720  1.0  0.1661
  C  C67  1  0.652000  0.672610  0.828390  1.0  -0.0178
  C  C68  1  0.468600  0.517570  0.895980  1.0  0.0127
  C  C69  1  0.575700  0.586870  0.015970  1.0  0.0147
  C  C70  1  0.625300  0.750830  0.211040  1.0  0.6992
  C  C71  1  0.520800  0.829510  0.142580  1.0  -0.3564
  C  C72  1  0.346800  0.839040  0.199160  1.0  -0.1038
  C  C73  1  0.251300  0.734340  0.225590  1.0  -0.3549
  C  C74  1  0.078400  0.730470  0.285360  1.0  0.715
  C  C75  1  0.267900  0.934700  0.127080  1.0  0.6847
  C  C76  1  0.187900  0.541200  0.724210  1.0  0.1739
  C  C77  1  0.156600  0.643150  0.730210  1.0  -0.2221
  C  C78  1  0.184500  0.731180  0.638380  1.0  0.1279
  C  C79  1  0.247100  0.711290  0.543480  1.0  -0.2035
  C  C80  1  0.277500  0.607250  0.543710  1.0  0.1755
  C  C81  1  0.150500  0.842170  0.647260  1.0  -0.0324
  C  C82  1  0.089500  0.026050  0.569140  1.0  0.0132
  C  C83  1  0.956700  0.890550  0.527210  1.0  0.0193
  C  C84  1  0.357900  0.276990  0.463340  1.0  0.1658
  C  C85  1  0.385900  0.266330  0.362680  1.0  -0.2248
  C  C86  1  0.316800  0.337510  0.282080  1.0  0.125
  C  C87  1  0.219100  0.417420  0.307330  1.0  -0.2005
  C  C88  1  0.195900  0.423010  0.409280  1.0  0.1663
  C  C89  1  0.348000  0.327390  0.171610  1.0  -0.0181
  C  C90  1  0.531400  0.482430  0.104020  1.0  0.0117
  C  C91  1  0.424300  0.413130  0.984030  1.0  0.0158
  C  C92  1  0.374700  0.249170  0.788960  1.0  0.6996
  C  C93  1  0.479200  0.170490  0.857420  1.0  -0.3577
  C  C94  1  0.653200  0.160960  0.800840  1.0  -0.095
  C  C95  1  0.748700  0.265660  0.774410  1.0  -0.3553
  C  C96  1  0.921600  0.269530  0.714640  1.0  0.7146
  C  C97  1  0.732100  0.065300  0.872920  1.0  0.6843
  N  N98  1  0.752100  0.478150  0.367450  1.0  -0.3515
  N  N99  1  0.888700  0.079070  0.449470  1.0  -0.3551
  N  N100  1  0.735100  0.645150  0.512930  1.0  -0.3563
  N  N101  1  0.612700  0.568670  0.911580  1.0  -0.3456
  N  N102  1  0.247900  0.521850  0.632550  1.0  -0.3511
  N  N103  1  0.111300  0.920930  0.550530  1.0  -0.357
  N  N104  1  0.264900  0.354850  0.487070  1.0  -0.3529
  N  N105  1  0.387300  0.431330  0.088420  1.0  -0.3451
  O  O106  1  0.746360  0.712270  0.167680  1.0  -0.6165
  O  O107  1  0.589350  0.727490  0.312080  1.0  -0.6043
  O  O108  1  0.010240  0.637050  0.317730  1.0  -0.624
  O  O109  1  0.009370  0.810850  0.300770  1.0  -0.5768
  O  O110  1  0.183610  0.914820  0.065930  1.0  -0.6197
  O  O111  1  0.296480  0.026720  0.130890  1.0  -0.6027
  O  O112  1  0.253640  0.287730  0.832320  1.0  -0.6133
  O  O113  1  0.410650  0.272510  0.687920  1.0  -0.6049
  O  O114  1  0.989760  0.362950  0.682270  1.0  -0.6218
  O  O115  1  0.990630  0.189150  0.699230  1.0  -0.5832
  O  O116  1  0.816390  0.085180  0.934070  1.0  -0.6205
  O  O117  1  0.703520  0.973280  0.869110  1.0  -0.6042
