# generated using pymatgen
data_Zn2H16C23I2(N3O2)2
_symmetry_space_group_name_H-M   'P 1'
_cell_length_a   7.66200000
_cell_length_b   9.90560000
_cell_length_c   36.85700000
_cell_angle_alpha   96.24500000
_cell_angle_beta   90.00000000
_cell_angle_gamma   90.00000000
_symmetry_Int_Tables_number   1
_chemical_formula_structural   Zn2H16C23I2(N3O2)2
_chemical_formula_sum   'Zn8 H64 C92 I8 N24 O16'
_cell_volume   2780.72514915
_cell_formula_units_Z   4
loop_
 _symmetry_equiv_pos_site_id
 _symmetry_equiv_pos_as_xyz
  1  'x, y, z'
loop_
 _atom_site_type_symbol
 _atom_site_label
 _atom_site_symmetry_multiplicity
 _atom_site_fract_x
 _atom_site_fract_y
 _atom_site_fract_z
 _atom_site_occupancy
 _atom_site_charge
  Zn  Zn1  1  0.457540  0.168220  0.027380  1.0  0.8038
  Zn  Zn2  1  0.662160  0.727860  0.331860  1.0  0.7532
  Zn  Zn3  1  0.957540  0.831780  0.472620  1.0  0.8035
  Zn  Zn4  1  0.162160  0.272140  0.168140  1.0  0.7541
  Zn  Zn5  1  0.542460  0.831780  0.972620  1.0  0.8086
  Zn  Zn6  1  0.337840  0.272140  0.668140  1.0  0.7545
  Zn  Zn7  1  0.042460  0.168220  0.527380  1.0  0.8096
  Zn  Zn8  1  0.837840  0.727860  0.831860  1.0  0.7539
  H  H9  1  0.797200  0.725700  0.092200  1.0  0.1303
  H  H10  1  0.701200  0.877900  0.196000  1.0  0.1289
  H  H11  1  0.581400  0.489000  0.162000  1.0  0.1269
  H  H12  1  0.912500  0.509500  0.065900  1.0  0.1297
  H  H13  1  0.819800  0.308300  0.026100  1.0  0.1034
  H  H14  1  0.461900  0.378100  0.102300  1.0  0.1008
  H  H15  1  0.363800  0.534000  0.215700  1.0  0.1319
  H  H16  1  0.369200  0.553900  0.282300  1.0  0.1017
  H  H17  1  0.750400  0.774300  0.251800  1.0  0.0929
  H  H18  1  0.787600  0.968800  0.082200  1.0  0.1372
  H  H19  1  0.966900  0.172600  0.092000  1.0  0.1022
  H  H20  1  0.953000  0.010300  0.184300  1.0  0.1051
  H  H21  1  0.721400  0.504900  0.427400  1.0  0.0922
  H  H22  1  0.803400  0.354900  0.467000  1.0  0.1022
  H  H23  1  0.814900  0.056700  0.384600  1.0  0.0922
  H  H24  1  0.721100  0.204900  0.345000  1.0  0.1019
  H  H25  1  0.297200  0.274300  0.407800  1.0  0.1296
  H  H26  1  0.201200  0.122100  0.304000  1.0  0.1286
  H  H27  1  0.081400  0.511000  0.338000  1.0  0.127
  H  H28  1  0.412500  0.490500  0.434100  1.0  0.1301
  H  H29  1  0.319800  0.691700  0.473900  1.0  0.1033
  H  H30  1  0.961900  0.621900  0.397700  1.0  0.1012
  H  H31  1  0.863800  0.466000  0.284300  1.0  0.1319
  H  H32  1  0.869200  0.446100  0.217700  1.0  0.1012
  H  H33  1  0.250400  0.225700  0.248200  1.0  0.0927
  H  H34  1  0.287600  0.031200  0.417800  1.0  0.1372
  H  H35  1  0.466900  0.827400  0.408000  1.0  0.102
  H  H36  1  0.453000  0.989700  0.315700  1.0  0.1048
  H  H37  1  0.221400  0.495100  0.072600  1.0  0.0923
  H  H38  1  0.303400  0.645100  0.033000  1.0  0.1026
  H  H39  1  0.314900  0.943300  0.115400  1.0  0.0917
  H  H40  1  0.221100  0.795100  0.155000  1.0  0.1024
  H  H41  1  0.202800  0.274300  0.907800  1.0  0.1301
  H  H42  1  0.298800  0.122100  0.804000  1.0  0.1285
  H  H43  1  0.418600  0.511000  0.838000  1.0  0.1266
  H  H44  1  0.087500  0.490500  0.934100  1.0  0.1305
  H  H45  1  0.180200  0.691700  0.973900  1.0  0.1035
  H  H46  1  0.538100  0.621900  0.897700  1.0  0.1003
  H  H47  1  0.636200  0.466000  0.784300  1.0  0.1319
  H  H48  1  0.630800  0.446100  0.717700  1.0  0.1012
  H  H49  1  0.249600  0.225700  0.748200  1.0  0.0923
  H  H50  1  0.212400  0.031200  0.917800  1.0  0.1374
  H  H51  1  0.033100  0.827400  0.908000  1.0  0.1018
  H  H52  1  0.047000  0.989700  0.815700  1.0  0.1046
  H  H53  1  0.278600  0.495100  0.572600  1.0  0.0924
  H  H54  1  0.196600  0.645100  0.533000  1.0  0.1024
  H  H55  1  0.185100  0.943300  0.615400  1.0  0.0917
  H  H56  1  0.278900  0.795100  0.655000  1.0  0.1025
  H  H57  1  0.702800  0.725700  0.592200  1.0  0.1304
  H  H58  1  0.798800  0.877900  0.696000  1.0  0.1288
  H  H59  1  0.918600  0.489000  0.662000  1.0  0.1267
  H  H60  1  0.587500  0.509500  0.565900  1.0  0.13
  H  H61  1  0.680200  0.308300  0.526100  1.0  0.1035
  H  H62  1  0.038100  0.378100  0.602300  1.0  0.1004
  H  H63  1  0.136200  0.534000  0.715700  1.0  0.1318
  H  H64  1  0.130800  0.553900  0.782300  1.0  0.1016
  H  H65  1  0.749600  0.774300  0.751800  1.0  0.0929
  H  H66  1  0.712400  0.968800  0.582200  1.0  0.1374
  H  H67  1  0.533100  0.172600  0.592000  1.0  0.1019
  H  H68  1  0.547000  0.010300  0.684300  1.0  0.1054
  H  H69  1  0.778600  0.504900  0.927400  1.0  0.0924
  H  H70  1  0.696600  0.354900  0.967000  1.0  0.1022
  H  H71  1  0.685100  0.056700  0.884600  1.0  0.0922
  H  H72  1  0.778900  0.204900  0.845000  1.0  0.1019
  C  C73  1  0.685900  0.591300  0.123350  1.0  0.1873
  C  C74  1  0.755800  0.714500  0.115420  1.0  -0.2156
  C  C75  1  0.761300  0.819200  0.143230  1.0  0.1846
  C  C76  1  0.698200  0.805500  0.177690  1.0  -0.2381
  C  C77  1  0.630700  0.681300  0.184220  1.0  0.184
  C  C78  1  0.625300  0.572700  0.157190  1.0  -0.2202
  C  C79  1  0.812000  0.458600  0.068320  1.0  -0.1294
  C  C80  1  0.759100  0.347700  0.046440  1.0  0.0404
  C  C81  1  0.561800  0.385100  0.088290  1.0  0.1436
  C  C82  1  0.441600  0.584900  0.230990  1.0  -0.1358
  C  C83  1  0.446000  0.596400  0.267660  1.0  0.0321
  C  C84  1  0.654100  0.717000  0.251330  1.0  0.1461
  C  C85  1  0.842800  0.002100  0.103800  1.0  -0.1107
  C  C86  1  0.941300  0.114600  0.109560  1.0  0.0478
  C  C87  1  0.934500  0.026200  0.160200  1.0  0.135
  C  C88  1  0.711800  0.371200  0.381750  1.0  -0.1356
  C  C89  1  0.737900  0.414000  0.418840  1.0  -0.0814
  C  C90  1  0.787000  0.324800  0.442450  1.0  -0.0271
  C  C91  1  0.812500  0.189300  0.430060  1.0  -0.1416
  C  C92  1  0.792200  0.146700  0.393250  1.0  -0.0342
  C  C93  1  0.739000  0.235600  0.369460  1.0  -0.0509
  C  C94  1  0.659400  0.469800  0.355750  1.0  0.6564
  C  C95  1  0.869500  0.090700  0.455380  1.0  0.673
  C  C96  1  0.185900  0.408700  0.376650  1.0  0.1867
  C  C97  1  0.255800  0.285500  0.384580  1.0  -0.2166
  C  C98  1  0.261300  0.180800  0.356770  1.0  0.1848
  C  C99  1  0.198200  0.194500  0.322310  1.0  -0.2402
  C  C100  1  0.130700  0.318700  0.315780  1.0  0.1845
  C  C101  1  0.125300  0.427300  0.342810  1.0  -0.2199
  C  C102  1  0.312000  0.541400  0.431680  1.0  -0.1296
  C  C103  1  0.259100  0.652300  0.453560  1.0  0.041
  C  C104  1  0.061800  0.614900  0.411710  1.0  0.1433
  C  C105  1  0.941600  0.415100  0.269010  1.0  -0.1343
  C  C106  1  0.946000  0.403600  0.232340  1.0  0.0326
  C  C107  1  0.154100  0.283000  0.248670  1.0  0.1452
  C  C108  1  0.342800  0.997900  0.396200  1.0  -0.111
  C  C109  1  0.441300  0.885400  0.390440  1.0  0.0492
  C  C110  1  0.434500  0.973800  0.339800  1.0  0.1358
  C  C111  1  0.211800  0.628800  0.118250  1.0  -0.1369
  C  C112  1  0.237900  0.586000  0.081160  1.0  -0.0801
  C  C113  1  0.287000  0.675200  0.057550  1.0  -0.0278
  C  C114  1  0.312500  0.810700  0.069940  1.0  -0.1415
  C  C115  1  0.292200  0.853300  0.106750  1.0  -0.0334
  C  C116  1  0.239000  0.764400  0.130540  1.0  -0.0486
  C  C117  1  0.159400  0.530200  0.144250  1.0  0.6557
  C  C118  1  0.369500  0.909300  0.044620  1.0  0.6732
  C  C119  1  0.314100  0.408700  0.876650  1.0  0.1868
  C  C120  1  0.244200  0.285500  0.884580  1.0  -0.2171
  C  C121  1  0.238700  0.180800  0.856770  1.0  0.1849
  C  C122  1  0.301800  0.194500  0.822310  1.0  -0.2402
  C  C123  1  0.369300  0.318700  0.815780  1.0  0.1847
  C  C124  1  0.374700  0.427300  0.842810  1.0  -0.2186
  C  C125  1  0.188000  0.541400  0.931680  1.0  -0.1303
  C  C126  1  0.240900  0.652300  0.953560  1.0  0.0404
  C  C127  1  0.438200  0.614900  0.911710  1.0  0.1436
  C  C128  1  0.558400  0.415100  0.769010  1.0  -0.1341
  C  C129  1  0.554000  0.403600  0.732340  1.0  0.0321
  C  C130  1  0.345900  0.283000  0.748670  1.0  0.1457
  C  C131  1  0.157200  0.997900  0.896200  1.0  -0.1099
  C  C132  1  0.058700  0.885400  0.890440  1.0  0.0484
  C  C133  1  0.065500  0.973800  0.839800  1.0  0.1352
  C  C134  1  0.288200  0.628800  0.618250  1.0  -0.1369
  C  C135  1  0.262100  0.586000  0.581160  1.0  -0.0807
  C  C136  1  0.213000  0.675200  0.557550  1.0  -0.0274
  C  C137  1  0.187500  0.810700  0.569940  1.0  -0.1413
  C  C138  1  0.207800  0.853300  0.606750  1.0  -0.0342
  C  C139  1  0.261000  0.764400  0.630540  1.0  -0.0476
  C  C140  1  0.340600  0.530200  0.644250  1.0  0.6561
  C  C141  1  0.130500  0.909300  0.544620  1.0  0.6742
  C  C142  1  0.814100  0.591300  0.623350  1.0  0.1874
  C  C143  1  0.744200  0.714500  0.615420  1.0  -0.216
  C  C144  1  0.738700  0.819200  0.643230  1.0  0.1846
  C  C145  1  0.801800  0.805500  0.677690  1.0  -0.2386
  C  C146  1  0.869300  0.681300  0.684220  1.0  0.1842
  C  C147  1  0.874700  0.572700  0.657190  1.0  -0.2186
  C  C148  1  0.688000  0.458600  0.568320  1.0  -0.1302
  C  C149  1  0.740900  0.347700  0.546440  1.0  0.0402
  C  C150  1  0.938200  0.385100  0.588290  1.0  0.1429
  C  C151  1  0.058400  0.584900  0.730990  1.0  -0.1361
  C  C152  1  0.054000  0.596400  0.767660  1.0  0.0321
  C  C153  1  0.845900  0.717000  0.751330  1.0  0.1455
  C  C154  1  0.657200  0.002100  0.603800  1.0  -0.1103
  C  C155  1  0.558700  0.114600  0.609560  1.0  0.0472
  C  C156  1  0.565500  0.026200  0.660200  1.0  0.1338
  C  C157  1  0.788200  0.371200  0.881750  1.0  -0.1355
  C  C158  1  0.762100  0.414000  0.918840  1.0  -0.0803
  C  C159  1  0.713000  0.324800  0.942450  1.0  -0.0271
  C  C160  1  0.687500  0.189300  0.930060  1.0  -0.1416
  C  C161  1  0.707800  0.146700  0.893250  1.0  -0.0346
  C  C162  1  0.761000  0.235600  0.869460  1.0  -0.0501
  C  C163  1  0.840600  0.469800  0.855750  1.0  0.6564
  C  C164  1  0.630500  0.090700  0.955380  1.0  0.674
  I  I165  1  0.193350  0.258900  0.997230  1.0  -0.4527
  I  I166  1  0.979490  0.816270  0.325070  1.0  -0.5238
  I  I167  1  0.693350  0.741100  0.502770  1.0  -0.4526
  I  I168  1  0.479490  0.183730  0.174930  1.0  -0.5241
  I  I169  1  0.806650  0.741100  0.002770  1.0  -0.4534
  I  I170  1  0.020510  0.183730  0.674930  1.0  -0.5243
  I  I171  1  0.306650  0.258900  0.497230  1.0  -0.4535
  I  I172  1  0.520510  0.816270  0.825070  1.0  -0.5237
  N  N173  1  0.603400  0.301800  0.058480  1.0  -0.3449
  N  N174  1  0.686400  0.480500  0.094930  1.0  0.0405
  N  N175  1  0.580300  0.679800  0.280200  1.0  -0.3494
  N  N176  1  0.575100  0.663400  0.220910  1.0  0.0402
  N  N177  1  0.999000  0.131700  0.145220  1.0  -0.3659
  N  N178  1  0.840400  0.946400  0.136430  1.0  0.043
  N  N179  1  0.103400  0.698200  0.441520  1.0  -0.3442
  N  N180  1  0.186400  0.519500  0.405070  1.0  0.0402
  N  N181  1  0.080300  0.320200  0.219800  1.0  -0.3495
  N  N182  1  0.075100  0.336600  0.279090  1.0  0.0399
  N  N183  1  0.499000  0.868300  0.354780  1.0  -0.3639
  N  N184  1  0.340400  0.053600  0.363570  1.0  0.0426
  N  N185  1  0.396600  0.698200  0.941520  1.0  -0.3426
  N  N186  1  0.313600  0.519500  0.905070  1.0  0.0403
  N  N187  1  0.419700  0.320200  0.719800  1.0  -0.3497
  N  N188  1  0.424900  0.336600  0.779090  1.0  0.0398
  N  N189  1  0.001000  0.868300  0.854780  1.0  -0.3656
  N  N190  1  0.159600  0.053600  0.863570  1.0  0.0438
  N  N191  1  0.896600  0.301800  0.558480  1.0  -0.3424
  N  N192  1  0.813600  0.480500  0.594930  1.0  0.0403
  N  N193  1  0.919700  0.679800  0.780200  1.0  -0.3496
  N  N194  1  0.924900  0.663400  0.720910  1.0  0.0399
  N  N195  1  0.501000  0.131700  0.645220  1.0  -0.3665
  N  N196  1  0.659600  0.946400  0.636430  1.0  0.0436
  O  O197  1  0.677400  0.596300  0.367200  1.0  -0.5884
  O  O198  1  0.611200  0.429100  0.325050  1.0  -0.5816
  O  O199  1  0.864000  0.124300  0.489080  1.0  -0.5995
  O  O200  1  0.917300  0.973700  0.441560  1.0  -0.5706
  O  O201  1  0.177400  0.403700  0.132800  1.0  -0.5872
  O  O202  1  0.111200  0.570900  0.174950  1.0  -0.5797
  O  O203  1  0.364000  0.875700  0.010920  1.0  -0.5986
  O  O204  1  0.417300  0.026300  0.058440  1.0  -0.5712
  O  O205  1  0.322600  0.403700  0.632800  1.0  -0.5873
  O  O206  1  0.388800  0.570900  0.674950  1.0  -0.5792
  O  O207  1  0.136000  0.875700  0.510920  1.0  -0.5984
  O  O208  1  0.082700  0.026300  0.558440  1.0  -0.5714
  O  O209  1  0.822600  0.596300  0.867200  1.0  -0.5884
  O  O210  1  0.888800  0.429100  0.825050  1.0  -0.5811
  O  O211  1  0.636000  0.124300  0.989080  1.0  -0.5995
  O  O212  1  0.582700  0.973700  0.941560  1.0  -0.5712
