# generated using pymatgen
data_Zn2H22C27(NO)8
_symmetry_space_group_name_H-M   'P 1'
_cell_length_a   8.98500000
_cell_length_b   19.11400000
_cell_length_c   19.99470000
_cell_angle_alpha   92.37560000
_cell_angle_beta   102.98400000
_cell_angle_gamma   90.00000000
_symmetry_Int_Tables_number   1
_chemical_formula_structural   Zn2H22C27(NO)8
_chemical_formula_sum   'Zn8 H88 C108 N32 O32'
_cell_volume   3343.05248403
_cell_formula_units_Z   4
loop_
 _symmetry_equiv_pos_site_id
 _symmetry_equiv_pos_as_xyz
  1  'x, y, z'
loop_
 _atom_site_type_symbol
 _atom_site_label
 _atom_site_symmetry_multiplicity
 _atom_site_fract_x
 _atom_site_fract_y
 _atom_site_fract_z
 _atom_site_occupancy
 _atom_site_charge
  Zn  Zn1  1  0.404120  0.401030  0.453000  1.0  0.9099
  Zn  Zn2  1  0.955020  0.911220  0.058140  1.0  0.9
  Zn  Zn3  1  0.951120  0.098970  0.547000  1.0  0.9108
  Zn  Zn4  1  0.896880  0.588780  0.941860  1.0  0.9019
  Zn  Zn5  1  0.595880  0.598970  0.547000  1.0  0.9095
  Zn  Zn6  1  0.044980  0.088780  0.941860  1.0  0.9006
  Zn  Zn7  1  0.048880  0.901030  0.453000  1.0  0.9107
  Zn  Zn8  1  0.103120  0.411220  0.058140  1.0  0.9012
  H  H9  1  0.763200  0.798100  0.402000  1.0  0.1103
  H  H10  1  0.768300  0.683600  0.342600  1.0  0.1482
  H  H11  1  0.191100  0.760400  0.399400  1.0  0.1151
  H  H12  1  0.174000  0.636100  0.355600  1.0  0.111
  H  H13  1  0.015600  0.598200  0.343400  1.0  0.1032
  H  H14  1  0.269500  0.590200  0.250000  1.0  0.1202
  H  H15  1  0.134900  0.552700  0.197600  1.0  0.102
  H  H16  1  0.372900  0.529700  0.359400  1.0  0.1092
  H  H17  1  0.063100  0.385500  0.355000  1.0  0.1089
  H  H18  1  0.970300  0.458100  0.256400  1.0  0.1483
  H  H19  1  0.189300  0.680600  0.194800  1.0  0.106
  H  H20  1  0.213000  0.716200  0.268000  1.0  0.1162
  H  H21  1  0.917400  0.793300  0.270800  1.0  0.1009
  H  H22  1  0.832500  0.886500  0.191600  1.0  0.122
  H  H23  1  0.107800  0.766600  0.111800  1.0  0.1152
  H  H24  1  0.829600  0.650200  0.236800  1.0  0.1048
  H  H25  1  0.868900  0.572200  0.222400  1.0  0.1198
  H  H26  1  0.663300  0.692600  0.128800  1.0  0.1479
  H  H27  1  0.654000  0.681600  0.006200  1.0  0.1117
  H  H28  1  0.009600  0.576400  0.099800  1.0  0.0983
  H  H29  1  0.546500  0.990300  0.117600  1.0  0.1086
  H  H30  1  0.000000  0.389700  0.540800  1.0  0.0853
  H  H31  1  0.361200  0.701900  0.598000  1.0  0.1117
  H  H32  1  0.425700  0.816400  0.657400  1.0  0.1472
  H  H33  1  0.791700  0.739600  0.600600  1.0  0.1148
  H  H34  1  0.818400  0.863900  0.644400  1.0  0.1095
  H  H35  1  0.672200  0.901800  0.656600  1.0  0.1035
  H  H36  1  0.019500  0.909800  0.750000  1.0  0.1195
  H  H37  1  0.937300  0.947300  0.802400  1.0  0.103
  H  H38  1  0.013500  0.970300  0.640600  1.0  0.1087
  H  H39  1  0.708100  0.114500  0.645000  1.0  0.1095
  H  H40  1  0.713900  0.041900  0.743600  1.0  0.1482
  H  H41  1  0.994500  0.819400  0.805200  1.0  0.1091
  H  H42  1  0.945000  0.783800  0.732000  1.0  0.1181
  H  H43  1  0.646600  0.706700  0.729200  1.0  0.1007
  H  H44  1  0.640900  0.613500  0.808400  1.0  0.1219
  H  H45  1  0.996000  0.733400  0.888200  1.0  0.1163
  H  H46  1  0.592800  0.849800  0.763200  1.0  0.107
  H  H47  1  0.646500  0.927800  0.777600  1.0  0.1218
  H  H48  1  0.534500  0.807400  0.871200  1.0  0.1496
  H  H49  1  0.647800  0.818400  0.993800  1.0  0.1127
  H  H50  1  0.909800  0.923600  0.900200  1.0  0.0981
  H  H51  1  0.428900  0.509700  0.882400  1.0  0.1084
  H  H52  1  0.459200  0.110300  0.459200  1.0  0.0869
  H  H53  1  0.236800  0.201900  0.598000  1.0  0.112
  H  H54  1  0.231700  0.316400  0.657400  1.0  0.1479
  H  H55  1  0.808900  0.239600  0.600600  1.0  0.1155
  H  H56  1  0.826000  0.363900  0.644400  1.0  0.1047
  H  H57  1  0.984400  0.401800  0.656600  1.0  0.1029
  H  H58  1  0.730500  0.409800  0.750000  1.0  0.1155
  H  H59  1  0.865100  0.447300  0.802400  1.0  0.1041
  H  H60  1  0.627100  0.470300  0.640600  1.0  0.1088
  H  H61  1  0.936900  0.614500  0.645000  1.0  0.1092
  H  H62  1  0.029700  0.541900  0.743600  1.0  0.149
  H  H63  1  0.810700  0.319400  0.805200  1.0  0.1111
  H  H64  1  0.787000  0.283800  0.732000  1.0  0.1159
  H  H65  1  0.082600  0.206700  0.729200  1.0  0.1017
  H  H66  1  0.167500  0.113500  0.808400  1.0  0.1219
  H  H67  1  0.892200  0.233400  0.888200  1.0  0.1147
  H  H68  1  0.170400  0.349800  0.763200  1.0  0.1031
  H  H69  1  0.131100  0.427800  0.777600  1.0  0.1196
  H  H70  1  0.336700  0.307400  0.871200  1.0  0.1475
  H  H71  1  0.346000  0.318400  0.993800  1.0  0.1122
  H  H72  1  0.990400  0.423600  0.900200  1.0  0.0984
  H  H73  1  0.453500  0.009700  0.882400  1.0  0.1093
  H  H74  1  0.000000  0.610300  0.459200  1.0  0.0869
  H  H75  1  0.638800  0.298100  0.402000  1.0  0.1126
  H  H76  1  0.574300  0.183600  0.342600  1.0  0.1473
  H  H77  1  0.208300  0.260400  0.399400  1.0  0.1139
  H  H78  1  0.181600  0.136100  0.355600  1.0  0.1081
  H  H79  1  0.327800  0.098200  0.343400  1.0  0.1024
  H  H80  1  0.980500  0.090200  0.250000  1.0  0.1167
  H  H81  1  0.062700  0.052700  0.197600  1.0  0.1035
  H  H82  1  0.986500  0.029700  0.359400  1.0  0.1077
  H  H83  1  0.291900  0.885500  0.355000  1.0  0.1094
  H  H84  1  0.286100  0.958100  0.256400  1.0  0.1487
  H  H85  1  0.005500  0.180600  0.194800  1.0  0.1115
  H  H86  1  0.055000  0.216200  0.268000  1.0  0.1177
  H  H87  1  0.353400  0.293300  0.270800  1.0  0.101
  H  H88  1  0.359100  0.386500  0.191600  1.0  0.122
  H  H89  1  0.004000  0.266600  0.111800  1.0  0.1161
  H  H90  1  0.407200  0.150200  0.236800  1.0  0.1068
  H  H91  1  0.353500  0.072200  0.222400  1.0  0.1203
  H  H92  1  0.465500  0.192600  0.128800  1.0  0.1493
  H  H93  1  0.352200  0.181600  0.006200  1.0  0.113
  H  H94  1  0.090200  0.076400  0.099800  1.0  0.0982
  H  H95  1  0.571100  0.490300  0.117600  1.0  0.1087
  H  H96  1  0.540800  0.889700  0.540800  1.0  0.0858
  C  C97  1  0.849980  0.776100  0.393560  1.0  0.0417
  C  C98  1  0.851440  0.713000  0.360480  1.0  -0.1456
  C  C99  1  0.085510  0.756100  0.392020  1.0  0.1356
  C  C100  1  0.067600  0.638900  0.331800  1.0  -0.1424
  C  C101  1  0.059700  0.634000  0.253600  1.0  0.0505
  C  C102  1  0.166580  0.571900  0.244360  1.0  -0.11
  C  C103  1  0.284350  0.502600  0.346100  1.0  0.1466
  C  C104  1  0.114450  0.423800  0.343300  1.0  0.0328
  C  C105  1  0.061870  0.463900  0.288940  1.0  -0.142
  C  C106  1  0.136050  0.697700  0.229300  1.0  -0.1217
  C  C107  1  0.944830  0.799200  0.229260  1.0  -0.1473
  C  C108  1  0.898760  0.850600  0.185520  1.0  0.0383
  C  C109  1  0.049550  0.784900  0.141300  1.0  0.1543
  C  C110  1  0.894650  0.620300  0.215500  1.0  -0.0966
  C  C111  1  0.731570  0.668100  0.108140  1.0  -0.1414
  C  C112  1  0.727080  0.661800  0.040560  1.0  0.0377
  C  C113  1  0.922620  0.604000  0.091640  1.0  0.1631
  C  C114  1  0.262630  0.949100  0.065260  1.0  0.6558
  C  C115  1  0.385730  0.973800  0.029860  1.0  -0.1201
  C  C116  1  0.355400  0.980800  0.958600  1.0  -0.0995
  C  C117  1  0.528380  0.993900  0.070160  1.0  -0.0682
  C  C118  1  0.208670  0.959200  0.909940  1.0  0.7089
  C  C119  1  0.278860  0.434000  0.573920  1.0  0.7061
  C  C120  1  0.137980  0.468900  0.532960  1.0  -0.0952
  C  C121  1  0.000260  0.434400  0.524120  1.0  -0.0559
  C  C122  1  0.138510  0.537400  0.508220  1.0  -0.136
  C  C123  1  0.283270  0.577100  0.511140  1.0  0.6499
  C  C124  1  0.456420  0.723900  0.606440  1.0  0.0422
  C  C125  1  0.490960  0.787000  0.639520  1.0  -0.1465
  C  C126  1  0.693490  0.743900  0.607980  1.0  0.1404
  C  C127  1  0.735800  0.861100  0.668200  1.0  -0.1491
  C  C128  1  0.806100  0.866000  0.746400  1.0  0.0508
  C  C129  1  0.922220  0.928100  0.755640  1.0  -0.0972
  C  C130  1  0.938250  0.997400  0.653900  1.0  0.1459
  C  C131  1  0.771150  0.076200  0.656700  1.0  0.0322
  C  C132  1  0.772930  0.036100  0.711060  1.0  -0.1427
  C  C133  1  0.906750  0.802300  0.770700  1.0  -0.1214
  C  C134  1  0.715570  0.700800  0.770740  1.0  -0.1464
  C  C135  1  0.713240  0.649400  0.814480  1.0  0.0363
  C  C136  1  0.908250  0.715100  0.858700  1.0  0.1532
  C  C137  1  0.679150  0.879700  0.784500  1.0  -0.0994
  C  C138  1  0.623430  0.831900  0.891860  1.0  -0.1424
  C  C139  1  0.686520  0.838200  0.959440  1.0  0.0385
  C  C140  1  0.830980  0.896000  0.908360  1.0  0.1615
  C  C141  1  0.197370  0.550900  0.934740  1.0  0.6548
  C  C142  1  0.355870  0.526200  0.970140  1.0  -0.1205
  C  C143  1  0.396800  0.519200  0.041400  1.0  -0.0988
  C  C144  1  0.458220  0.506100  0.929840  1.0  -0.0697
  C  C145  1  0.298730  0.540800  0.090060  1.0  0.7111
  C  C146  1  0.704940  0.066000  0.426080  1.0  0.7041
  C  C147  1  0.605020  0.031100  0.467040  1.0  -0.0945
  C  C148  1  0.476140  0.065600  0.475880  1.0  -0.0568
  C  C149  1  0.630290  0.962600  0.491780  1.0  -0.1283
  C  C150  1  0.772130  0.922900  0.488860  1.0  0.6511
  C  C151  1  0.150020  0.223900  0.606440  1.0  0.0427
  C  C152  1  0.148560  0.287000  0.639520  1.0  -0.1465
  C  C153  1  0.914490  0.243900  0.607980  1.0  0.1353
  C  C154  1  0.932400  0.361100  0.668200  1.0  -0.1429
  C  C155  1  0.940300  0.366000  0.746400  1.0  0.0508
  C  C156  1  0.833420  0.428100  0.755640  1.0  -0.1109
  C  C157  1  0.715650  0.497400  0.653900  1.0  0.1486
  C  C158  1  0.885550  0.576200  0.656700  1.0  0.0319
  C  C159  1  0.938130  0.536100  0.711060  1.0  -0.142
  C  C160  1  0.863950  0.302300  0.770700  1.0  -0.1254
  C  C161  1  0.055170  0.200800  0.770740  1.0  -0.1466
  C  C162  1  0.101240  0.149400  0.814480  1.0  0.0389
  C  C163  1  0.950450  0.215100  0.858700  1.0  0.1523
  C  C164  1  0.105350  0.379700  0.784500  1.0  -0.0949
  C  C165  1  0.268430  0.331900  0.891860  1.0  -0.1424
  C  C166  1  0.272920  0.338200  0.959440  1.0  0.0387
  C  C167  1  0.077380  0.396000  0.908360  1.0  0.162
  C  C168  1  0.737370  0.050900  0.934740  1.0  0.6561
  C  C169  1  0.614270  0.026200  0.970140  1.0  -0.1209
  C  C170  1  0.644600  0.019200  0.041400  1.0  -0.0985
  C  C171  1  0.471620  0.006100  0.929840  1.0  -0.069
  C  C172  1  0.791330  0.040800  0.090060  1.0  0.7083
  C  C173  1  0.721140  0.566000  0.426080  1.0  0.7053
  C  C174  1  0.862020  0.531100  0.467040  1.0  -0.0948
  C  C175  1  0.999740  0.565600  0.475880  1.0  -0.0553
  C  C176  1  0.861490  0.462600  0.491780  1.0  -0.1342
  C  C177  1  0.716730  0.422900  0.488860  1.0  0.6545
  C  C178  1  0.543580  0.276100  0.393560  1.0  0.0448
  C  C179  1  0.509040  0.213000  0.360480  1.0  -0.146
  C  C180  1  0.306510  0.256100  0.392020  1.0  0.14
  C  C181  1  0.264200  0.138900  0.331800  1.0  -0.1484
  C  C182  1  0.193900  0.134000  0.253600  1.0  0.0512
  C  C183  1  0.077780  0.071900  0.244360  1.0  -0.1037
  C  C184  1  0.061750  0.002600  0.346100  1.0  0.1455
  C  C185  1  0.228850  0.923800  0.343300  1.0  0.0322
  C  C186  1  0.227070  0.963900  0.288940  1.0  -0.1428
  C  C187  1  0.093250  0.197700  0.229300  1.0  -0.1236
  C  C188  1  0.284430  0.299200  0.229260  1.0  -0.1457
  C  C189  1  0.286760  0.350600  0.185520  1.0  0.0393
  C  C190  1  0.091750  0.284900  0.141300  1.0  0.1523
  C  C191  1  0.320850  0.120300  0.215500  1.0  -0.0987
  C  C192  1  0.376570  0.168100  0.108140  1.0  -0.1429
  C  C193  1  0.313480  0.161800  0.040560  1.0  0.0395
  C  C194  1  0.169020  0.104000  0.091640  1.0  0.1612
  C  C195  1  0.802630  0.449100  0.065260  1.0  0.6532
  C  C196  1  0.644130  0.473800  0.029860  1.0  -0.1206
  C  C197  1  0.603200  0.480800  0.958600  1.0  -0.0991
  C  C198  1  0.541780  0.493900  0.070160  1.0  -0.0678
  C  C199  1  0.701270  0.459200  0.909940  1.0  0.7107
  C  C200  1  0.295060  0.934000  0.573920  1.0  0.7064
  C  C201  1  0.394980  0.968900  0.532960  1.0  -0.0955
  C  C202  1  0.523860  0.934400  0.524120  1.0  -0.0585
  C  C203  1  0.369710  0.037400  0.508220  1.0  -0.1304
  C  C204  1  0.227870  0.077100  0.511140  1.0  0.6538
  N  N205  1  0.995570  0.802800  0.412740  1.0  -0.3759
  N  N206  1  0.002850  0.701400  0.358900  1.0  0.0612
  N  N207  1  0.254690  0.448100  0.378180  1.0  -0.3757
  N  N208  1  0.170440  0.514700  0.291280  1.0  0.0542
  N  N209  1  0.040170  0.756700  0.200540  1.0  0.0415
  N  N210  1  0.966160  0.841500  0.130120  1.0  -0.3941
  N  N211  1  0.847210  0.621700  0.030220  1.0  -0.4009
  N  N212  1  0.855870  0.631300  0.140740  1.0  0.0369
  N  N213  1  0.582830  0.697200  0.587260  1.0  -0.374
  N  N214  1  0.643950  0.798600  0.641100  1.0  0.0634
  N  N215  1  0.876510  0.051900  0.621820  1.0  -0.3743
  N  N216  1  0.879160  0.985300  0.708720  1.0  0.0548
  N  N217  1  0.839630  0.743300  0.799460  1.0  0.041
  N  N218  1  0.836040  0.658500  0.869880  1.0  -0.3924
  N  N219  1  0.816990  0.878300  0.969780  1.0  -0.4012
  N  N220  1  0.715130  0.868700  0.859260  1.0  0.0376
  N  N221  1  0.004430  0.197200  0.587260  1.0  -0.3743
  N  N222  1  0.997150  0.298600  0.641100  1.0  0.0626
  N  N223  1  0.745310  0.551900  0.621820  1.0  -0.3778
  N  N224  1  0.829560  0.485300  0.708720  1.0  0.0543
  N  N225  1  0.959830  0.243300  0.799460  1.0  0.0416
  N  N226  1  0.033840  0.158500  0.869880  1.0  -0.3928
  N  N227  1  0.152790  0.378300  0.969780  1.0  -0.4012
  N  N228  1  0.144130  0.368700  0.859260  1.0  0.0375
  N  N229  1  0.417170  0.302800  0.412740  1.0  -0.3743
  N  N230  1  0.356050  0.201400  0.358900  1.0  0.0593
  N  N231  1  0.123490  0.948100  0.378180  1.0  -0.3754
  N  N232  1  0.120840  0.014700  0.291280  1.0  0.0534
  N  N233  1  0.160370  0.256700  0.200540  1.0  0.0414
  N  N234  1  0.163960  0.341500  0.130120  1.0  -0.3943
  N  N235  1  0.183010  0.121700  0.030220  1.0  -0.4033
  N  N236  1  0.284870  0.131300  0.140740  1.0  0.0378
  O  O237  1  0.291680  0.945300  0.127960  1.0  -0.6102
  O  O238  1  0.134610  0.935100  0.025420  1.0  -0.5933
  O  O239  1  0.198760  0.900400  0.882520  1.0  -0.6052
  O  O240  1  0.105170  0.005540  0.894940  1.0  -0.6382
  O  O241  1  0.354380  0.394200  0.541560  1.0  -0.6477
  O  O242  1  0.303480  0.440600  0.636760  1.0  -0.6037
  O  O243  1  0.406390  0.548600  0.542980  1.0  -0.6013
  O  O244  1  0.279730  0.633100  0.483460  1.0  -0.5788
  O  O245  1  0.163720  0.554700  0.872040  1.0  -0.6117
  O  O246  1  0.109190  0.564900  0.974580  1.0  -0.5937
  O  O247  1  0.316240  0.599600  0.117480  1.0  -0.6048
  O  O248  1  0.210230  0.494460  0.105060  1.0  -0.6379
  O  O249  1  0.812820  0.105800  0.458440  1.0  -0.6461
  O  O250  1  0.666667  0.059400  0.363240  1.0  -0.6096
  O  O251  1  0.863410  0.951400  0.457020  1.0  -0.6018
  O  O252  1  0.796270  0.866900  0.516540  1.0  -0.5788
  O  O253  1  0.708320  0.054700  0.872040  1.0  -0.6116
  O  O254  1  0.865390  0.064900  0.974580  1.0  -0.5919
  O  O255  1  0.801240  0.099600  0.117480  1.0  -0.6056
  O  O256  1  0.894830  0.994460  0.105060  1.0  -0.6366
  O  O257  1  0.645620  0.605800  0.458440  1.0  -0.648
  O  O258  1  0.696520  0.559400  0.363240  1.0  -0.6087
  O  O259  1  0.593610  0.451400  0.457020  1.0  -0.6014
  O  O260  1  0.720270  0.366900  0.516540  1.0  -0.5812
  O  O261  1  0.836280  0.445300  0.127960  1.0  -0.6076
  O  O262  1  0.890810  0.435100  0.025420  1.0  -0.5926
  O  O263  1  0.683760  0.400400  0.882520  1.0  -0.6062
  O  O264  1  0.789770  0.505540  0.894940  1.0  -0.6379
  O  O265  1  0.187180  0.894200  0.541560  1.0  -0.6468
  O  O266  1  0.333280  0.940600  0.636760  1.0  -0.6081
  O  O267  1  0.136590  0.048600  0.542980  1.0  -0.6017
  O  O268  1  0.203730  0.133100  0.483460  1.0  -0.5797
