# generated using pymatgen
data_Cu2H24(C11O4)3
_symmetry_space_group_name_H-M   'P 1'
_cell_length_a   10.67530000
_cell_length_b   17.84400000
_cell_length_c   27.35300000
_cell_angle_alpha   90.00000000
_cell_angle_beta   90.00000000
_cell_angle_gamma   90.00000000
_symmetry_Int_Tables_number   1
_chemical_formula_structural   Cu2H24(C11O4)3
_chemical_formula_sum   'Cu8 H96 C132 O48'
_cell_volume   5210.47442518
_cell_formula_units_Z   4
loop_
 _symmetry_equiv_pos_site_id
 _symmetry_equiv_pos_as_xyz
  1  'x, y, z'
loop_
 _atom_site_type_symbol
 _atom_site_label
 _atom_site_symmetry_multiplicity
 _atom_site_fract_x
 _atom_site_fract_y
 _atom_site_fract_z
 _atom_site_occupancy
 _atom_site_charge
  Cu  Cu1  1  0.438870  0.939790  0.513220  1.0  0.8897
  Cu  Cu2  1  0.438870  0.060210  0.986780  1.0  0.8896
  Cu  Cu3  1  0.061130  0.439790  0.986780  1.0  0.8894
  Cu  Cu4  1  0.061130  0.560210  0.513220  1.0  0.8896
  Cu  Cu5  1  0.561130  0.060210  0.486780  1.0  0.8895
  Cu  Cu6  1  0.561130  0.939790  0.013220  1.0  0.8896
  Cu  Cu7  1  0.938870  0.560210  0.013220  1.0  0.8899
  Cu  Cu8  1  0.938870  0.439790  0.486780  1.0  0.8894
  H  H9  1  0.259400  0.180100  0.424500  1.0  0.0895
  H  H10  1  0.079500  0.236800  0.393800  1.0  0.1312
  H  H11  1  0.885300  0.051900  0.427200  1.0  0.1233
  H  H12  1  0.064300  0.999400  0.462100  1.0  0.0998
  H  H13  1  0.938800  0.235700  0.336200  1.0  0.0654
  H  H14  1  0.877600  0.283300  0.378100  1.0  0.0764
  H  H15  1  0.806500  0.170300  0.276600  1.0  0.0715
  H  H16  1  0.712300  0.137900  0.315700  1.0  0.0747
  H  H17  1  0.483500  0.229100  0.196600  1.0  0.1323
  H  H18  1  0.464400  0.179700  0.120200  1.0  0.1079
  H  H19  1  0.687200  0.010200  0.159200  1.0  0.0965
  H  H20  1  0.731300  0.069800  0.231700  1.0  0.1261
  H  H21  1  0.259400  0.819900  0.075500  1.0  0.0901
  H  H22  1  0.079500  0.763200  0.106200  1.0  0.1302
  H  H23  1  0.885300  0.948100  0.072800  1.0  0.1228
  H  H24  1  0.064300  0.000600  0.037900  1.0  0.1016
  H  H25  1  0.938800  0.764300  0.163800  1.0  0.0648
  H  H26  1  0.877600  0.716700  0.121900  1.0  0.0767
  H  H27  1  0.806500  0.829700  0.223400  1.0  0.0705
  H  H28  1  0.712300  0.862100  0.184300  1.0  0.0739
  H  H29  1  0.483500  0.770900  0.303400  1.0  0.1321
  H  H30  1  0.464400  0.820300  0.379800  1.0  0.1083
  H  H31  1  0.687200  0.989800  0.340800  1.0  0.0963
  H  H32  1  0.731300  0.930200  0.268300  1.0  0.1261
  H  H33  1  0.240600  0.680100  0.075500  1.0  0.089
  H  H34  1  0.420500  0.736800  0.106200  1.0  0.1303
  H  H35  1  0.614700  0.551900  0.072800  1.0  0.1233
  H  H36  1  0.435700  0.499400  0.037900  1.0  0.1026
  H  H37  1  0.561200  0.735700  0.163800  1.0  0.0648
  H  H38  1  0.622400  0.783300  0.121900  1.0  0.077
  H  H39  1  0.693500  0.670300  0.223400  1.0  0.0716
  H  H40  1  0.787700  0.637900  0.184300  1.0  0.074
  H  H41  1  0.016500  0.729100  0.303400  1.0  0.1319
  H  H42  1  0.035600  0.679700  0.379800  1.0  0.1079
  H  H43  1  0.812800  0.510200  0.340800  1.0  0.0965
  H  H44  1  0.768700  0.569800  0.268300  1.0  0.1261
  H  H45  1  0.240600  0.319900  0.424500  1.0  0.0891
  H  H46  1  0.420500  0.263200  0.393800  1.0  0.1303
  H  H47  1  0.614700  0.448100  0.427200  1.0  0.1233
  H  H48  1  0.435700  0.500600  0.462100  1.0  0.1025
  H  H49  1  0.561200  0.264300  0.336200  1.0  0.0647
  H  H50  1  0.622400  0.216700  0.378100  1.0  0.0776
  H  H51  1  0.693500  0.329700  0.276600  1.0  0.0712
  H  H52  1  0.787700  0.362100  0.315700  1.0  0.0733
  H  H53  1  0.016500  0.270900  0.196600  1.0  0.1309
  H  H54  1  0.035600  0.320300  0.120200  1.0  0.1083
  H  H55  1  0.812800  0.489800  0.159200  1.0  0.0964
  H  H56  1  0.768700  0.430200  0.231700  1.0  0.1255
  H  H57  1  0.740600  0.819900  0.575500  1.0  0.089
  H  H58  1  0.920500  0.763200  0.606200  1.0  0.1302
  H  H59  1  0.114700  0.948100  0.572800  1.0  0.1233
  H  H60  1  0.935700  0.000600  0.537900  1.0  0.1027
  H  H61  1  0.061200  0.764300  0.663800  1.0  0.0643
  H  H62  1  0.122400  0.716700  0.621900  1.0  0.0768
  H  H63  1  0.193500  0.829700  0.723400  1.0  0.0704
  H  H64  1  0.287700  0.862100  0.684300  1.0  0.0735
  H  H65  1  0.516500  0.770900  0.803400  1.0  0.1322
  H  H66  1  0.535600  0.820300  0.879800  1.0  0.1082
  H  H67  1  0.312800  0.989800  0.840800  1.0  0.0965
  H  H68  1  0.268700  0.930200  0.768300  1.0  0.1258
  H  H69  1  0.740600  0.180100  0.924500  1.0  0.0892
  H  H70  1  0.920500  0.236800  0.893800  1.0  0.1309
  H  H71  1  0.114700  0.051900  0.927200  1.0  0.1234
  H  H72  1  0.935700  0.999400  0.962100  1.0  0.1025
  H  H73  1  0.061200  0.235700  0.836200  1.0  0.0648
  H  H74  1  0.122400  0.283300  0.878100  1.0  0.0762
  H  H75  1  0.193500  0.170300  0.776600  1.0  0.0717
  H  H76  1  0.287700  0.137900  0.815700  1.0  0.0743
  H  H77  1  0.516500  0.229100  0.696600  1.0  0.1307
  H  H78  1  0.535600  0.179700  0.620200  1.0  0.1083
  H  H79  1  0.312800  0.010200  0.659200  1.0  0.0964
  H  H80  1  0.268700  0.069800  0.731700  1.0  0.1261
  H  H81  1  0.759400  0.319900  0.924500  1.0  0.0902
  H  H82  1  0.579500  0.263200  0.893800  1.0  0.1305
  H  H83  1  0.385300  0.448100  0.927200  1.0  0.1228
  H  H84  1  0.564300  0.500600  0.962100  1.0  0.1014
  H  H85  1  0.438800  0.264300  0.836200  1.0  0.0653
  H  H86  1  0.377600  0.216700  0.878100  1.0  0.0772
  H  H87  1  0.306500  0.329700  0.776600  1.0  0.0714
  H  H88  1  0.212300  0.362100  0.815700  1.0  0.0738
  H  H89  1  0.983500  0.270900  0.696600  1.0  0.1316
  H  H90  1  0.964400  0.320300  0.620200  1.0  0.1081
  H  H91  1  0.187200  0.489800  0.659200  1.0  0.0963
  H  H92  1  0.231300  0.430200  0.731700  1.0  0.1258
  H  H93  1  0.759400  0.680100  0.575500  1.0  0.0893
  H  H94  1  0.579500  0.736800  0.606200  1.0  0.1307
  H  H95  1  0.385300  0.551900  0.572800  1.0  0.1232
  H  H96  1  0.564300  0.499400  0.537900  1.0  0.0998
  H  H97  1  0.438800  0.735700  0.663800  1.0  0.065
  H  H98  1  0.377600  0.783300  0.621900  1.0  0.0774
  H  H99  1  0.306500  0.670300  0.723400  1.0  0.0711
  H  H100  1  0.212300  0.637900  0.684300  1.0  0.0744
  H  H101  1  0.983500  0.729100  0.803400  1.0  0.1327
  H  H102  1  0.964400  0.679700  0.879800  1.0  0.108
  H  H103  1  0.187200  0.510200  0.840800  1.0  0.0966
  H  H104  1  0.231300  0.569800  0.768300  1.0  0.1261
  C  C105  1  0.298300  0.052750  0.467600  1.0  0.6971
  C  C106  1  0.181000  0.085960  0.446550  1.0  -0.1863
  C  C107  1  0.183700  0.154460  0.425910  1.0  0.0295
  C  C108  1  0.076200  0.188470  0.406400  1.0  -0.295
  C  C109  1  0.963900  0.147940  0.406340  1.0  0.3055
  C  C110  1  0.960200  0.078500  0.426900  1.0  -0.2421
  C  C111  1  0.068100  0.046530  0.447700  1.0  1e-04
  C  C112  1  0.866200  0.239850  0.357290  1.0  0.0768
  C  C113  1  0.731500  0.180990  0.295390  1.0  0.0757
  C  C114  1  0.616400  0.159030  0.219880  1.0  0.3056
  C  C115  1  0.531000  0.187540  0.187830  1.0  -0.2443
  C  C116  1  0.514700  0.155840  0.143230  1.0  0.0226
  C  C117  1  0.570600  0.089920  0.131660  1.0  -0.1893
  C  C118  1  0.650900  0.056350  0.166090  1.0  0.0119
  C  C119  1  0.675800  0.091040  0.209450  1.0  -0.2803
  C  C120  1  0.547600  0.053850  0.082930  1.0  0.6867
  C  C121  1  0.298300  0.947250  0.032400  1.0  0.6965
  C  C122  1  0.181000  0.914040  0.053450  1.0  -0.1864
  C  C123  1  0.183700  0.845540  0.074090  1.0  0.0292
  C  C124  1  0.076200  0.811530  0.093600  1.0  -0.295
  C  C125  1  0.963900  0.852060  0.093660  1.0  0.306
  C  C126  1  0.960200  0.921500  0.073100  1.0  -0.2443
  C  C127  1  0.068100  0.953470  0.052300  1.0  -0.0009
  C  C128  1  0.866200  0.760150  0.142710  1.0  0.077
  C  C129  1  0.731500  0.819010  0.204610  1.0  0.0756
  C  C130  1  0.616400  0.840970  0.280120  1.0  0.2993
  C  C131  1  0.531000  0.812460  0.312170  1.0  -0.245
  C  C132  1  0.514700  0.844160  0.356770  1.0  0.0246
  C  C133  1  0.570600  0.910080  0.368340  1.0  -0.1894
  C  C134  1  0.650900  0.943650  0.333910  1.0  0.012
  C  C135  1  0.675800  0.908960  0.290550  1.0  -0.28
  C  C136  1  0.547600  0.946150  0.417070  1.0  0.6863
  C  C137  1  0.201700  0.552750  0.032400  1.0  0.6958
  C  C138  1  0.319000  0.585960  0.053450  1.0  -0.1858
  C  C139  1  0.316300  0.654460  0.074090  1.0  0.0292
  C  C140  1  0.423800  0.688470  0.093600  1.0  -0.2964
  C  C141  1  0.536100  0.647940  0.093660  1.0  0.3055
  C  C142  1  0.539800  0.578500  0.073100  1.0  -0.2418
  C  C143  1  0.431900  0.546530  0.052300  1.0  -0.0007
  C  C144  1  0.633800  0.739850  0.142710  1.0  0.0763
  C  C145  1  0.768500  0.680990  0.204610  1.0  0.0765
  C  C146  1  0.883600  0.659030  0.280120  1.0  0.3065
  C  C147  1  0.969000  0.687540  0.312170  1.0  -0.2384
  C  C148  1  0.985300  0.655840  0.356770  1.0  0.0229
  C  C149  1  0.929400  0.589920  0.368340  1.0  -0.1889
  C  C150  1  0.849100  0.556350  0.333910  1.0  0.0061
  C  C151  1  0.824200  0.591040  0.290550  1.0  -0.2774
  C  C152  1  0.952400  0.553850  0.417070  1.0  0.6861
  C  C153  1  0.201700  0.447250  0.467600  1.0  0.697
  C  C154  1  0.319000  0.414040  0.446550  1.0  -0.1864
  C  C155  1  0.316300  0.345540  0.425910  1.0  0.0295
  C  C156  1  0.423800  0.311530  0.406400  1.0  -0.2963
  C  C157  1  0.536100  0.352060  0.406340  1.0  0.3051
  C  C158  1  0.539800  0.421500  0.426900  1.0  -0.2386
  C  C159  1  0.431900  0.453470  0.447700  1.0  -1e-04
  C  C160  1  0.633800  0.260150  0.357290  1.0  0.0761
  C  C161  1  0.768500  0.319010  0.295390  1.0  0.0744
  C  C162  1  0.883600  0.340970  0.219880  1.0  0.3068
  C  C163  1  0.969000  0.312460  0.187830  1.0  -0.2389
  C  C164  1  0.985300  0.344160  0.143230  1.0  0.024
  C  C165  1  0.929400  0.410080  0.131660  1.0  -0.1896
  C  C166  1  0.849100  0.443650  0.166090  1.0  0.0148
  C  C167  1  0.824200  0.408960  0.209450  1.0  -0.2768
  C  C168  1  0.952400  0.446150  0.082930  1.0  0.6864
  C  C169  1  0.701700  0.947250  0.532400  1.0  0.6961
  C  C170  1  0.819000  0.914040  0.553450  1.0  -0.1861
  C  C171  1  0.816300  0.845540  0.574090  1.0  0.0292
  C  C172  1  0.923800  0.811530  0.593600  1.0  -0.2942
  C  C173  1  0.036100  0.852060  0.593660  1.0  0.3055
  C  C174  1  0.039800  0.921500  0.573100  1.0  -0.2347
  C  C175  1  0.931900  0.953470  0.552300  1.0  -0.0008
  C  C176  1  0.133800  0.760150  0.642710  1.0  0.0768
  C  C177  1  0.268500  0.819010  0.704610  1.0  0.074
  C  C178  1  0.383600  0.840970  0.780120  1.0  0.3021
  C  C179  1  0.469000  0.812460  0.812170  1.0  -0.2405
  C  C180  1  0.485300  0.844160  0.856770  1.0  0.0241
  C  C181  1  0.429400  0.910080  0.868340  1.0  -0.1902
  C  C182  1  0.349100  0.943650  0.833910  1.0  0.0072
  C  C183  1  0.324200  0.908960  0.790550  1.0  -0.2768
  C  C184  1  0.452400  0.946150  0.917070  1.0  0.6863
  C  C185  1  0.701700  0.052750  0.967600  1.0  0.6962
  C  C186  1  0.819000  0.085960  0.946550  1.0  -0.186
  C  C187  1  0.816300  0.154460  0.925910  1.0  0.0296
  C  C188  1  0.923800  0.188470  0.906400  1.0  -0.2958
  C  C189  1  0.036100  0.147940  0.906340  1.0  0.3052
  C  C190  1  0.039800  0.078500  0.926900  1.0  -0.2425
  C  C191  1  0.931900  0.046530  0.947700  1.0  1e-04
  C  C192  1  0.133800  0.239850  0.857290  1.0  0.0765
  C  C193  1  0.268500  0.180990  0.795390  1.0  0.0746
  C  C194  1  0.383600  0.159030  0.719880  1.0  0.3068
  C  C195  1  0.469000  0.187540  0.687830  1.0  -0.2397
  C  C196  1  0.485300  0.155840  0.643230  1.0  0.0224
  C  C197  1  0.429400  0.089920  0.631660  1.0  -0.1893
  C  C198  1  0.349100  0.056350  0.666090  1.0  0.0074
  C  C199  1  0.324200  0.091040  0.709450  1.0  -0.2761
  C  C200  1  0.452400  0.053850  0.582930  1.0  0.6875
  C  C201  1  0.798300  0.447250  0.967600  1.0  0.6976
  C  C202  1  0.681000  0.414040  0.946550  1.0  -0.1867
  C  C203  1  0.683700  0.345540  0.925910  1.0  0.0296
  C  C204  1  0.576200  0.311530  0.906400  1.0  -0.2956
  C  C205  1  0.463900  0.352060  0.906340  1.0  0.3056
  C  C206  1  0.460200  0.421500  0.926900  1.0  -0.2459
  C  C207  1  0.568100  0.453470  0.947700  1.0  -0.0002
  C  C208  1  0.366200  0.260150  0.857290  1.0  0.0767
  C  C209  1  0.231500  0.319010  0.795390  1.0  0.0747
  C  C210  1  0.116400  0.340970  0.719880  1.0  0.3058
  C  C211  1  0.031000  0.312460  0.687830  1.0  -0.245
  C  C212  1  0.014700  0.344160  0.643230  1.0  0.0242
  C  C213  1  0.070600  0.410080  0.631660  1.0  -0.1894
  C  C214  1  0.150900  0.443650  0.666090  1.0  0.0085
  C  C215  1  0.175800  0.408960  0.709450  1.0  -0.2767
  C  C216  1  0.047600  0.446150  0.582930  1.0  0.6859
  C  C217  1  0.798300  0.552750  0.532400  1.0  0.6961
  C  C218  1  0.681000  0.585960  0.553450  1.0  -0.186
  C  C219  1  0.683700  0.654460  0.574090  1.0  0.029
  C  C220  1  0.576200  0.688470  0.593600  1.0  -0.2961
  C  C221  1  0.463900  0.647940  0.593660  1.0  0.3057
  C  C222  1  0.460200  0.578500  0.573100  1.0  -0.2442
  C  C223  1  0.568100  0.546530  0.552300  1.0  -0.0006
  C  C224  1  0.366200  0.739850  0.642710  1.0  0.0759
  C  C225  1  0.231500  0.680990  0.704610  1.0  0.0771
  C  C226  1  0.116400  0.659030  0.780120  1.0  0.3045
  C  C227  1  0.031000  0.687540  0.812170  1.0  -0.2454
  C  C228  1  0.014700  0.655840  0.856770  1.0  0.0235
  C  C229  1  0.070600  0.589920  0.868340  1.0  -0.1884
  C  C230  1  0.150900  0.556350  0.833910  1.0  0.0138
  C  C231  1  0.175800  0.591040  0.790550  1.0  -0.2767
  C  C232  1  0.047600  0.553850  0.917070  1.0  0.6856
  C  C233  1  0.750000  0.250000  0.326530  1.0  -0.0417
  C  C234  1  0.750000  0.750000  0.173470  1.0  -0.042
  C  C235  1  0.250000  0.750000  0.673470  1.0  -0.042
  C  C236  1  0.250000  0.250000  0.826530  1.0  -0.0417
  O  O237  1  0.289770  0.989700  0.486740  1.0  -0.5622
  O  O238  1  0.395770  0.090600  0.463350  1.0  -0.5729
  O  O239  1  0.855930  0.173870  0.386940  1.0  -0.2753
  O  O240  1  0.627480  0.197970  0.263110  1.0  -0.2874
  O  O241  1  0.593780  0.989770  0.075720  1.0  -0.5686
  O  O242  1  0.483970  0.090900  0.053280  1.0  -0.5714
  O  O243  1  0.289770  0.010300  0.013260  1.0  -0.5624
  O  O244  1  0.395770  0.909400  0.036650  1.0  -0.5734
  O  O245  1  0.855930  0.826130  0.113060  1.0  -0.2743
  O  O246  1  0.627480  0.802030  0.236890  1.0  -0.2868
  O  O247  1  0.593780  0.010230  0.424280  1.0  -0.5688
  O  O248  1  0.483970  0.909100  0.446720  1.0  -0.5714
  O  O249  1  0.210230  0.489700  0.013260  1.0  -0.5622
  O  O250  1  0.104230  0.590600  0.036650  1.0  -0.5731
  O  O251  1  0.644070  0.673870  0.113060  1.0  -0.2751
  O  O252  1  0.872520  0.697970  0.236890  1.0  -0.2877
  O  O253  1  0.906220  0.489770  0.424280  1.0  -0.5701
  O  O254  1  0.016030  0.590900  0.446720  1.0  -0.5708
  O  O255  1  0.210230  0.510300  0.486740  1.0  -0.5613
  O  O256  1  0.104230  0.409400  0.463350  1.0  -0.5736
  O  O257  1  0.644070  0.326130  0.386940  1.0  -0.2743
  O  O258  1  0.872520  0.302030  0.263110  1.0  -0.2876
  O  O259  1  0.906220  0.510230  0.075720  1.0  -0.5699
  O  O260  1  0.016030  0.409100  0.053280  1.0  -0.5712
  O  O261  1  0.710230  0.010300  0.513260  1.0  -0.5611
  O  O262  1  0.604230  0.909400  0.536650  1.0  -0.5736
  O  O263  1  0.144070  0.826130  0.613060  1.0  -0.2738
  O  O264  1  0.372520  0.802030  0.736890  1.0  -0.2871
  O  O265  1  0.406220  0.010230  0.924280  1.0  -0.5702
  O  O266  1  0.516030  0.909100  0.946720  1.0  -0.5707
  O  O267  1  0.710230  0.989700  0.986740  1.0  -0.5615
  O  O268  1  0.604230  0.090600  0.963350  1.0  -0.573
  O  O269  1  0.144070  0.173870  0.886940  1.0  -0.2739
  O  O270  1  0.372520  0.197970  0.763110  1.0  -0.2879
  O  O271  1  0.406220  0.989770  0.575720  1.0  -0.57
  O  O272  1  0.516030  0.090900  0.553280  1.0  -0.5709
  O  O273  1  0.789770  0.510300  0.986740  1.0  -0.5621
  O  O274  1  0.895770  0.409400  0.963350  1.0  -0.5733
  O  O275  1  0.355930  0.326130  0.886940  1.0  -0.275
  O  O276  1  0.127480  0.302030  0.763110  1.0  -0.2876
  O  O277  1  0.093780  0.510230  0.575720  1.0  -0.5685
  O  O278  1  0.983970  0.409100  0.553280  1.0  -0.5716
  O  O279  1  0.789770  0.489700  0.513260  1.0  -0.5626
  O  O280  1  0.895770  0.590600  0.536650  1.0  -0.5726
  O  O281  1  0.355930  0.673870  0.613060  1.0  -0.2759
  O  O282  1  0.127480  0.697970  0.736890  1.0  -0.2869
  O  O283  1  0.093780  0.489770  0.924280  1.0  -0.5689
  O  O284  1  0.983970  0.590900  0.946720  1.0  -0.5716
