# generated using pymatgen
data_CdH12(C5N2)3
_symmetry_space_group_name_H-M   'P 1'
_cell_length_a   9.07520000
_cell_length_b   9.07520000
_cell_length_c   27.01400000
_cell_angle_alpha   90.00000000
_cell_angle_beta   90.00000000
_cell_angle_gamma   90.00000000
_symmetry_Int_Tables_number   1
_chemical_formula_structural   CdH12(C5N2)3
_chemical_formula_sum   'Cd4 H48 C60 N24'
_cell_volume   2224.85291565
_cell_formula_units_Z   4
loop_
 _symmetry_equiv_pos_site_id
 _symmetry_equiv_pos_as_xyz
  1  'x, y, z'
loop_
 _atom_site_type_symbol
 _atom_site_label
 _atom_site_symmetry_multiplicity
 _atom_site_fract_x
 _atom_site_fract_y
 _atom_site_fract_z
 _atom_site_occupancy
 _atom_site_charge
  Cd  Cd1  1  0.181550  0.623300  0.374960  1.0  0.0776
  Cd  Cd2  1  0.818450  0.376700  0.874960  1.0  0.0763
  Cd  Cd3  1  0.376700  0.181550  0.624960  1.0  0.0765
  Cd  Cd4  1  0.623300  0.818450  0.124960  1.0  0.0774
  H  H5  1  0.415000  0.186200  0.243500  1.0  0.1222
  H  H6  1  0.707200  0.478700  0.296600  1.0  0.1234
  H  H7  1  0.660100  0.082600  0.362100  1.0  0.1231
  H  H8  1  0.364500  0.967800  0.374800  1.0  0.0845
  H  H9  1  0.346100  0.677000  0.269100  1.0  0.0617
  H  H10  1  0.492600  0.880700  0.238400  1.0  0.1203
  H  H11  1  0.692400  0.585600  0.220200  1.0  0.0847
  H  H12  1  0.326600  0.594300  0.145000  1.0  0.0869
  H  H13  1  0.310800  0.385200  0.203000  1.0  0.1239
  H  H14  1  0.834800  0.539600  0.365300  1.0  0.0664
  H  H15  1  0.099500  0.254600  0.428400  1.0  0.1035
  H  H16  1  0.900300  0.117700  0.389100  1.0  0.1132
  H  H17  1  0.585000  0.813800  0.743500  1.0  0.1222
  H  H18  1  0.292800  0.521300  0.796600  1.0  0.1244
  H  H19  1  0.339900  0.917400  0.862100  1.0  0.1235
  H  H20  1  0.635500  0.032200  0.874800  1.0  0.0841
  H  H21  1  0.653900  0.323000  0.769100  1.0  0.0615
  H  H22  1  0.507400  0.119300  0.738400  1.0  0.1206
  H  H23  1  0.307600  0.414400  0.720200  1.0  0.0824
  H  H24  1  0.673400  0.405700  0.645000  1.0  0.0866
  H  H25  1  0.689200  0.614800  0.703000  1.0  0.1235
  H  H26  1  0.165200  0.460400  0.865300  1.0  0.0682
  H  H27  1  0.900500  0.745400  0.928400  1.0  0.1031
  H  H28  1  0.099700  0.882300  0.889100  1.0  0.1126
  H  H29  1  0.813800  0.415000  0.493500  1.0  0.1224
  H  H30  1  0.521300  0.707200  0.546600  1.0  0.1236
  H  H31  1  0.917400  0.660100  0.612100  1.0  0.1235
  H  H32  1  0.032200  0.364500  0.624800  1.0  0.0839
  H  H33  1  0.323000  0.346100  0.519100  1.0  0.0621
  H  H34  1  0.119300  0.492600  0.488400  1.0  0.1208
  H  H35  1  0.414400  0.692400  0.470200  1.0  0.0861
  H  H36  1  0.405700  0.326600  0.395000  1.0  0.0872
  H  H37  1  0.614800  0.310800  0.453000  1.0  0.1242
  H  H38  1  0.460400  0.834800  0.615300  1.0  0.0621
  H  H39  1  0.745400  0.099500  0.678400  1.0  0.1022
  H  H40  1  0.882300  0.900300  0.639100  1.0  0.1119
  H  H41  1  0.186200  0.585000  0.993500  1.0  0.1228
  H  H42  1  0.478700  0.292800  0.046600  1.0  0.1239
  H  H43  1  0.082600  0.339900  0.112100  1.0  0.123
  H  H44  1  0.967800  0.635500  0.124800  1.0  0.0838
  H  H45  1  0.677000  0.653900  0.019100  1.0  0.0621
  H  H46  1  0.880700  0.507400  0.988400  1.0  0.1205
  H  H47  1  0.585600  0.307600  0.970200  1.0  0.0855
  H  H48  1  0.594300  0.673400  0.895000  1.0  0.0871
  H  H49  1  0.385200  0.689200  0.953000  1.0  0.1237
  H  H50  1  0.539600  0.165200  0.115300  1.0  0.0632
  H  H51  1  0.254600  0.900500  0.178400  1.0  0.1024
  H  H52  1  0.117700  0.099700  0.139100  1.0  0.1123
  C  C53  1  0.526300  0.115800  0.303400  1.0  0.1663
  C  C54  1  0.487100  0.211700  0.266400  1.0  -0.2869
  C  C55  1  0.556400  0.346100  0.263800  1.0  0.1565
  C  C56  1  0.663800  0.385900  0.297870  1.0  -0.3071
  C  C57  1  0.705500  0.284200  0.334090  1.0  0.1729
  C  C58  1  0.634900  0.149400  0.337400  1.0  -0.273
  C  C59  1  0.377700  0.920100  0.344700  1.0  0.0968
  C  C60  1  0.368400  0.761900  0.286800  1.0  0.0132
  C  C61  1  0.449000  0.873800  0.269500  1.0  -0.1471
  C  C62  1  0.599300  0.561600  0.208300  1.0  0.0874
  C  C63  1  0.399300  0.565900  0.167200  1.0  -0.0081
  C  C64  1  0.389500  0.450100  0.199600  1.0  -0.1663
  C  C65  1  0.877000  0.452000  0.376200  1.0  0.1225
  C  C66  1  0.021200  0.295500  0.410900  1.0  -0.0019
  C  C67  1  0.912100  0.219500  0.388800  1.0  -0.1545
  C  C68  1  0.473700  0.884200  0.803400  1.0  0.166
  C  C69  1  0.512900  0.788300  0.766400  1.0  -0.2858
  C  C70  1  0.443600  0.653900  0.763800  1.0  0.1565
  C  C71  1  0.336200  0.614100  0.797870  1.0  -0.3092
  C  C72  1  0.294500  0.715800  0.834090  1.0  0.1728
  C  C73  1  0.365100  0.850600  0.837400  1.0  -0.2758
  C  C74  1  0.622300  0.079900  0.844700  1.0  0.0983
  C  C75  1  0.631600  0.238100  0.786800  1.0  0.0141
  C  C76  1  0.551000  0.126200  0.769500  1.0  -0.1479
  C  C77  1  0.400700  0.438400  0.708300  1.0  0.0865
  C  C78  1  0.600700  0.434100  0.667200  1.0  -0.0087
  C  C79  1  0.610500  0.549900  0.699600  1.0  -0.1649
  C  C80  1  0.123000  0.548000  0.876200  1.0  0.1232
  C  C81  1  0.978800  0.704500  0.910900  1.0  -0.001
  C  C82  1  0.087900  0.780500  0.888800  1.0  -0.1575
  C  C83  1  0.884200  0.526300  0.553400  1.0  0.1676
  C  C84  1  0.788300  0.487100  0.516400  1.0  -0.2863
  C  C85  1  0.653900  0.556400  0.513800  1.0  0.1568
  C  C86  1  0.614100  0.663800  0.547870  1.0  -0.3067
  C  C87  1  0.715800  0.705500  0.584090  1.0  0.1729
  C  C88  1  0.850600  0.634900  0.587400  1.0  -0.2732
  C  C89  1  0.079900  0.377700  0.594700  1.0  0.0976
  C  C90  1  0.238100  0.368400  0.536800  1.0  0.0153
  C  C91  1  0.126200  0.449000  0.519500  1.0  -0.1478
  C  C92  1  0.438400  0.599300  0.458300  1.0  0.0868
  C  C93  1  0.434100  0.399300  0.417200  1.0  -0.0079
  C  C94  1  0.549900  0.389500  0.449600  1.0  -0.1645
  C  C95  1  0.548000  0.877000  0.626200  1.0  0.1222
  C  C96  1  0.704500  0.021200  0.660900  1.0  0.0003
  C  C97  1  0.780500  0.912100  0.638800  1.0  -0.1564
  C  C98  1  0.115800  0.473700  0.053400  1.0  0.1664
  C  C99  1  0.211700  0.512900  0.016400  1.0  -0.2883
  C  C100  1  0.346100  0.443600  0.013800  1.0  0.1569
  C  C101  1  0.385900  0.336200  0.047870  1.0  -0.3061
  C  C102  1  0.284200  0.294500  0.084090  1.0  0.1725
  C  C103  1  0.149400  0.365100  0.087400  1.0  -0.2734
  C  C104  1  0.920100  0.622300  0.094700  1.0  0.0972
  C  C105  1  0.761900  0.631600  0.036800  1.0  0.0145
  C  C106  1  0.873800  0.551000  0.019500  1.0  -0.1484
  C  C107  1  0.561600  0.400700  0.958300  1.0  0.0872
  C  C108  1  0.565900  0.600700  0.917200  1.0  -0.0084
  C  C109  1  0.450100  0.610500  0.949600  1.0  -0.1654
  C  C110  1  0.452000  0.123000  0.126200  1.0  0.1226
  C  C111  1  0.295500  0.978800  0.160900  1.0  0.0008
  C  C112  1  0.219500  0.087900  0.138800  1.0  -0.1586
  N  N113  1  0.323500  0.789500  0.333970  1.0  -0.2958
  N  N114  1  0.454500  0.975900  0.306470  1.0  0.0448
  N  N115  1  0.532700  0.632900  0.172890  1.0  -0.2321
  N  N116  1  0.517100  0.448700  0.225690  1.0  0.0487
  N  N117  1  0.997300  0.446500  0.403250  1.0  -0.3671
  N  N118  1  0.821400  0.319300  0.365950  1.0  0.0407
  N  N119  1  0.676500  0.210500  0.833970  1.0  -0.2932
  N  N120  1  0.545500  0.024100  0.806470  1.0  0.0448
  N  N121  1  0.467300  0.367100  0.672890  1.0  -0.2329
  N  N122  1  0.482900  0.551300  0.725690  1.0  0.0469
  N  N123  1  0.002700  0.553500  0.903250  1.0  -0.3664
  N  N124  1  0.178600  0.680700  0.865950  1.0  0.041
  N  N125  1  0.210500  0.323500  0.583970  1.0  -0.2937
  N  N126  1  0.024100  0.454500  0.556470  1.0  0.0445
  N  N127  1  0.367100  0.532700  0.422890  1.0  -0.2301
  N  N128  1  0.551300  0.517100  0.475690  1.0  0.0488
  N  N129  1  0.553500  0.997300  0.653250  1.0  -0.3644
  N  N130  1  0.680700  0.821400  0.615950  1.0  0.0406
  N  N131  1  0.789500  0.676500  0.083970  1.0  -0.296
  N  N132  1  0.975900  0.545500  0.056470  1.0  0.0446
  N  N133  1  0.632900  0.467300  0.922890  1.0  -0.2359
  N  N134  1  0.448700  0.482900  0.975690  1.0  0.0486
  N  N135  1  0.446500  0.002700  0.153250  1.0  -0.364
  N  N136  1  0.319300  0.178600  0.115950  1.0  0.0399
