# generated using pymatgen
data_CdH12(C5N2)3
_symmetry_space_group_name_H-M   'P 1'
_cell_length_a   9.07230000
_cell_length_b   9.07230000
_cell_length_c   27.01000000
_cell_angle_alpha   90.00000000
_cell_angle_beta   90.00000000
_cell_angle_gamma   90.00000000
_symmetry_Int_Tables_number   1
_chemical_formula_structural   CdH12(C5N2)3
_chemical_formula_sum   'Cd4 H48 C60 N24'
_cell_volume   2223.10200310
_cell_formula_units_Z   4
loop_
 _symmetry_equiv_pos_site_id
 _symmetry_equiv_pos_as_xyz
  1  'x, y, z'
loop_
 _atom_site_type_symbol
 _atom_site_label
 _atom_site_symmetry_multiplicity
 _atom_site_fract_x
 _atom_site_fract_y
 _atom_site_fract_z
 _atom_site_occupancy
 _atom_site_charge
  Cd  Cd1  1  0.122980  0.681430  0.077390  1.0  0.0671
  Cd  Cd2  1  0.877020  0.318570  0.577390  1.0  0.0685
  Cd  Cd3  1  0.318570  0.122980  0.827390  1.0  0.0689
  Cd  Cd4  1  0.681430  0.877020  0.327390  1.0  0.0681
  H  H5  1  0.583400  0.160200  0.064900  1.0  0.1255
  H  H6  1  0.978400  0.208100  0.999100  1.0  0.1272
  H  H7  1  0.687100  0.914800  0.946000  1.0  0.1242
  H  H8  1  0.467600  0.864900  0.077700  1.0  0.0848
  H  H9  1  0.175600  0.848300  0.971600  1.0  0.0667
  H  H10  1  0.382100  0.991700  0.940600  1.0  0.1209
  H  H11  1  0.086800  0.191800  0.922800  1.0  0.0839
  H  H12  1  0.092400  0.827100  0.847200  1.0  0.0925
  H  H13  1  0.886600  0.808700  0.905400  1.0  0.127
  H  H14  1  0.040000  0.334400  0.068400  1.0  0.0701
  H  H15  1  0.755900  0.597900  0.131500  1.0  0.0962
  H  H16  1  0.616800  0.402100  0.091800  1.0  0.1153
  H  H17  1  0.416600  0.839800  0.564900  1.0  0.1261
  H  H18  1  0.021600  0.791900  0.499100  1.0  0.1284
  H  H19  1  0.312900  0.085200  0.446000  1.0  0.124
  H  H20  1  0.532400  0.135100  0.577700  1.0  0.0845
  H  H21  1  0.824400  0.151700  0.471600  1.0  0.0663
  H  H22  1  0.617900  0.008300  0.440600  1.0  0.1208
  H  H23  1  0.913200  0.808200  0.422800  1.0  0.084
  H  H24  1  0.907600  0.172900  0.347200  1.0  0.093
  H  H25  1  0.113400  0.191300  0.405400  1.0  0.1258
  H  H26  1  0.960000  0.665600  0.568400  1.0  0.0693
  H  H27  1  0.244100  0.402100  0.631500  1.0  0.0955
  H  H28  1  0.383200  0.597900  0.591800  1.0  0.1162
  H  H29  1  0.839800  0.583400  0.814900  1.0  0.1256
  H  H30  1  0.791900  0.978400  0.749100  1.0  0.1269
  H  H31  1  0.085200  0.687100  0.696000  1.0  0.1237
  H  H32  1  0.135100  0.467600  0.827700  1.0  0.0849
  H  H33  1  0.151700  0.175600  0.721600  1.0  0.0658
  H  H34  1  0.008300  0.382100  0.690600  1.0  0.1209
  H  H35  1  0.808200  0.086800  0.672800  1.0  0.0806
  H  H36  1  0.172900  0.092400  0.597200  1.0  0.0923
  H  H37  1  0.191300  0.886600  0.655400  1.0  0.1264
  H  H38  1  0.665600  0.040000  0.818400  1.0  0.0722
  H  H39  1  0.402100  0.755900  0.881500  1.0  0.0968
  H  H40  1  0.597900  0.616800  0.841800  1.0  0.117
  H  H41  1  0.160200  0.416600  0.314900  1.0  0.1257
  H  H42  1  0.208100  0.021600  0.249100  1.0  0.1271
  H  H43  1  0.914800  0.312900  0.196000  1.0  0.1239
  H  H44  1  0.864900  0.532400  0.327700  1.0  0.0853
  H  H45  1  0.848300  0.824400  0.221600  1.0  0.0659
  H  H46  1  0.991700  0.617900  0.190600  1.0  0.1207
  H  H47  1  0.191800  0.913200  0.172800  1.0  0.0825
  H  H48  1  0.827100  0.907600  0.097200  1.0  0.0921
  H  H49  1  0.808700  0.113400  0.155400  1.0  0.1266
  H  H50  1  0.334400  0.960000  0.318400  1.0  0.0764
  H  H51  1  0.597900  0.244100  0.381500  1.0  0.0966
  H  H52  1  0.402100  0.383200  0.341800  1.0  0.1158
  C  C53  1  0.616000  0.026200  0.006290  1.0  0.1668
  C  C54  1  0.649900  0.134700  0.040160  1.0  -0.3127
  C  C55  1  0.784800  0.205000  0.036580  1.0  0.1736
  C  C56  1  0.885900  0.164000  0.000490  1.0  -0.2999
  C  C57  1  0.846600  0.056200  0.966590  1.0  0.1606
  C  C58  1  0.712500  0.986700  0.968940  1.0  -0.3
  C  C59  1  0.420200  0.877900  0.047530  1.0  0.1065
  C  C60  1  0.261200  0.869500  0.989120  1.0  0.0042
  C  C61  1  0.374300  0.949000  0.971740  1.0  -0.1396
  C  C62  1  0.062400  0.098800  0.910930  1.0  0.0891
  C  C63  1  0.064900  0.899300  0.869860  1.0  0.0057
  C  C64  1  0.950600  0.888100  0.902010  1.0  -0.1632
  C  C65  1  0.952300  0.376800  0.079020  1.0  0.1141
  C  C66  1  0.796200  0.520100  0.113690  1.0  0.0132
  C  C67  1  0.718800  0.412900  0.091670  1.0  -0.1646
  C  C68  1  0.384000  0.973800  0.506290  1.0  0.1683
  C  C69  1  0.350100  0.865300  0.540160  1.0  -0.3101
  C  C70  1  0.215200  0.795000  0.536580  1.0  0.1741
  C  C71  1  0.114100  0.836000  0.500490  1.0  -0.3015
  C  C72  1  0.153400  0.943800  0.466590  1.0  0.1608
  C  C73  1  0.287500  0.013300  0.468940  1.0  -0.2967
  C  C74  1  0.579800  0.122100  0.547530  1.0  0.1054
  C  C75  1  0.738800  0.130500  0.489120  1.0  0.0056
  C  C76  1  0.625700  0.051000  0.471740  1.0  -0.139
  C  C77  1  0.937600  0.901200  0.410930  1.0  0.0884
  C  C78  1  0.935100  0.100700  0.369860  1.0  0.0052
  C  C79  1  0.049400  0.111900  0.402010  1.0  -0.1628
  C  C80  1  0.047700  0.623200  0.579020  1.0  0.111
  C  C81  1  0.203800  0.479900  0.613690  1.0  0.0129
  C  C82  1  0.281200  0.587100  0.591670  1.0  -0.1632
  C  C83  1  0.973800  0.616000  0.756290  1.0  0.1671
  C  C84  1  0.865300  0.649900  0.790160  1.0  -0.3125
  C  C85  1  0.795000  0.784800  0.786580  1.0  0.1745
  C  C86  1  0.836000  0.885900  0.750490  1.0  -0.3025
  C  C87  1  0.943800  0.846600  0.716590  1.0  0.1599
  C  C88  1  0.013300  0.712500  0.718940  1.0  -0.2975
  C  C89  1  0.122100  0.420200  0.797530  1.0  0.1075
  C  C90  1  0.130500  0.261200  0.739120  1.0  0.0047
  C  C91  1  0.051000  0.374300  0.721740  1.0  -0.1395
  C  C92  1  0.901200  0.062400  0.660930  1.0  0.0871
  C  C93  1  0.100700  0.064900  0.619860  1.0  0.006
  C  C94  1  0.111900  0.950600  0.652010  1.0  -0.1635
  C  C95  1  0.623200  0.952300  0.829020  1.0  0.1142
  C  C96  1  0.479900  0.796200  0.863690  1.0  0.0111
  C  C97  1  0.587100  0.718800  0.841670  1.0  -0.1647
  C  C98  1  0.026200  0.384000  0.256290  1.0  0.1668
  C  C99  1  0.134700  0.350100  0.290160  1.0  -0.3098
  C  C100  1  0.205000  0.215200  0.286580  1.0  0.1743
  C  C101  1  0.164000  0.114100  0.250490  1.0  -0.3007
  C  C102  1  0.056200  0.153400  0.216590  1.0  0.1601
  C  C103  1  0.986700  0.287500  0.218940  1.0  -0.2992
  C  C104  1  0.877900  0.579800  0.297530  1.0  0.1065
  C  C105  1  0.869500  0.738800  0.239120  1.0  0.0032
  C  C106  1  0.949000  0.625700  0.221740  1.0  -0.1384
  C  C107  1  0.098800  0.937600  0.160930  1.0  0.0887
  C  C108  1  0.899300  0.935100  0.119860  1.0  0.0062
  C  C109  1  0.888100  0.049400  0.152010  1.0  -0.1635
  C  C110  1  0.376800  0.047700  0.329020  1.0  0.1137
  C  C111  1  0.520100  0.203800  0.363690  1.0  0.0115
  C  C112  1  0.412900  0.281200  0.341670  1.0  -0.1675
  N  N113  1  0.289900  0.824000  0.036720  1.0  -0.2912
  N  N114  1  0.476300  0.954600  0.009150  1.0  0.0449
  N  N115  1  0.133600  0.031900  0.875640  1.0  -0.2451
  N  N116  1  0.948200  0.016800  0.928430  1.0  0.0384
  N  N117  1  0.945400  0.497300  0.105860  1.0  -0.3458
  N  N118  1  0.819100  0.321900  0.068740  1.0  0.0402
  N  N119  1  0.710100  0.176000  0.536720  1.0  -0.2897
  N  N120  1  0.523700  0.045400  0.509150  1.0  0.045
  N  N121  1  0.866400  0.968100  0.375640  1.0  -0.244
  N  N122  1  0.051800  0.983200  0.428430  1.0  0.0388
  N  N123  1  0.054600  0.502700  0.605860  1.0  -0.3458
  N  N124  1  0.180900  0.678100  0.568740  1.0  0.0399
  N  N125  1  0.176000  0.289900  0.786720  1.0  -0.2897
  N  N126  1  0.045400  0.476300  0.759150  1.0  0.0456
  N  N127  1  0.968100  0.133600  0.625640  1.0  -0.2401
  N  N128  1  0.983200  0.948200  0.678430  1.0  0.0372
  N  N129  1  0.502700  0.945400  0.855860  1.0  -0.3453
  N  N130  1  0.678100  0.819100  0.818740  1.0  0.0401
  N  N131  1  0.824000  0.710100  0.286720  1.0  -0.2904
  N  N132  1  0.954600  0.523700  0.259150  1.0  0.045
  N  N133  1  0.031900  0.866400  0.125640  1.0  -0.2481
  N  N134  1  0.016800  0.051800  0.178430  1.0  0.0373
  N  N135  1  0.497300  0.054600  0.355860  1.0  -0.3449
  N  N136  1  0.321900  0.180900  0.318740  1.0  0.0395
