# generated using pymatgen
data_CoH6C8O5
_symmetry_space_group_name_H-M   'P 1'
_cell_length_a   7.87580000
_cell_length_b   9.18770000
_cell_length_c   11.34270000
_cell_angle_alpha   112.88300000
_cell_angle_beta   91.05700000
_cell_angle_gamma   105.87700000
_symmetry_Int_Tables_number   1
_chemical_formula_structural   CoH6C8O5
_chemical_formula_sum   'Co2 H12 C16 O10'
_cell_volume   720.07089189
_cell_formula_units_Z   2
loop_
 _symmetry_equiv_pos_site_id
 _symmetry_equiv_pos_as_xyz
  1  'x, y, z'
loop_
 _atom_site_type_symbol
 _atom_site_label
 _atom_site_symmetry_multiplicity
 _atom_site_fract_x
 _atom_site_fract_y
 _atom_site_fract_z
 _atom_site_occupancy
 _atom_site_charge
  Co  Co1  1  0.000000  0.000000  0.500000  1.0  1.0076
  Co  Co2  1  0.500000  0.000000  0.500000  1.0  0.9915
  H  H3  1  0.681000  0.841000  0.529000  1.0  0.3884
  H  H4  1  0.711000  0.813000  0.398800  1.0  0.3979
  H  H5  1  0.783500  0.294600  0.835300  1.0  0.1034
  H  H6  1  0.299100  0.541200  0.979100  1.0  0.1057
  H  H7  1  0.384600  0.213000  0.111700  1.0  0.1083
  H  H8  1  0.578700  0.848600  0.102100  1.0  0.1006
  H  H9  1  0.319000  0.159000  0.471000  1.0  0.3867
  H  H10  1  0.289000  0.187000  0.601200  1.0  0.3979
  H  H11  1  0.216500  0.705400  0.164700  1.0  0.1033
  H  H12  1  0.700900  0.458800  0.020900  1.0  0.1055
  H  H13  1  0.615400  0.787000  0.888300  1.0  0.1081
  H  H14  1  0.421300  0.151400  0.897900  1.0  0.1009
  C  C15  1  0.105400  0.293600  0.764100  1.0  0.7041
  C  C16  1  0.050100  0.397700  0.886400  1.0  -0.1204
  C  C17  1  0.871000  0.376900  0.901500  1.0  -0.0331
  C  C18  1  0.178700  0.524100  0.987300  1.0  -0.0448
  C  C19  1  0.452400  0.074500  0.269200  1.0  0.6884
  C  C20  1  0.477600  0.037800  0.129600  1.0  -0.1195
  C  C21  1  0.431100  0.127300  0.067100  1.0  -0.0551
  C  C22  1  0.547000  0.909700  0.061400  1.0  -0.0281
  C  C23  1  0.894600  0.706400  0.235900  1.0  0.7043
  C  C24  1  0.949900  0.602300  0.113600  1.0  -0.1205
  C  C25  1  0.129000  0.623100  0.098500  1.0  -0.0325
  C  C26  1  0.821300  0.475900  0.012700  1.0  -0.0458
  C  C27  1  0.547600  0.925500  0.730800  1.0  0.6877
  C  C28  1  0.522400  0.962200  0.870400  1.0  -0.1199
  C  C29  1  0.568900  0.872700  0.932900  1.0  -0.055
  C  C30  1  0.453000  0.090300  0.938600  1.0  -0.0278
  O  O31  1  0.716000  0.889200  0.477100  1.0  -0.8321
  O  O32  1  0.981900  0.179900  0.677900  1.0  -0.6054
  O  O33  1  0.267100  0.323800  0.753900  1.0  -0.5869
  O  O34  1  0.500300  0.986100  0.315600  1.0  -0.5957
  O  O35  1  0.385100  0.186900  0.327500  1.0  -0.577
  O  O36  1  0.284000  0.110800  0.522900  1.0  -0.8321
  O  O37  1  0.018100  0.820100  0.322100  1.0  -0.6049
  O  O38  1  0.732900  0.676200  0.246100  1.0  -0.5849
  O  O39  1  0.499700  0.013900  0.684400  1.0  -0.5939
  O  O40  1  0.614900  0.813100  0.672500  1.0  -0.575
