# generated using pymatgen
data_Cd5Mo16P8H48C60(N2O9)6
_symmetry_space_group_name_H-M   'P 1'
_cell_length_a   12.96760000
_cell_length_b   16.17010000
_cell_length_c   30.90550000
_cell_angle_alpha   90.00000000
_cell_angle_beta   91.24900000
_cell_angle_gamma   90.00000000
_symmetry_Int_Tables_number   1
_chemical_formula_structural   Cd5Mo16P8H48C60(N2O9)6
_chemical_formula_sum   'Cd10 Mo32 P16 H96 C120 N24 O108'
_cell_volume   6478.95387774
_cell_formula_units_Z   2
loop_
 _symmetry_equiv_pos_site_id
 _symmetry_equiv_pos_as_xyz
  1  'x, y, z'
loop_
 _atom_site_type_symbol
 _atom_site_label
 _atom_site_symmetry_multiplicity
 _atom_site_fract_x
 _atom_site_fract_y
 _atom_site_fract_z
 _atom_site_occupancy
 _atom_site_charge
  Cd  Cd1  1  0.977900  0.540530  0.057170  1.0  1.0704
  Cd  Cd2  1  0.105920  0.747690  0.066060  1.0  0.9966
  Cd  Cd3  1  0.022100  0.040530  0.442830  1.0  1.0701
  Cd  Cd4  1  0.894080  0.247690  0.433940  1.0  0.9955
  Cd  Cd5  1  0.022100  0.459470  0.942830  1.0  1.0695
  Cd  Cd6  1  0.894080  0.252310  0.933940  1.0  0.9953
  Cd  Cd7  1  0.977900  0.959470  0.557170  1.0  1.0695
  Cd  Cd8  1  0.105920  0.752310  0.566060  1.0  0.9964
  Cd  Cd9  1  0.500000  0.500000  0.000000  1.0  0.9901
  Cd  Cd10  1  0.500000  0.000000  0.500000  1.0  0.9901
  Mo  Mo11  1  0.278650  0.394300  0.934460  1.0  1.1445
  Mo  Mo12  1  0.300060  0.547400  0.907690  1.0  1.1989
  Mo  Mo13  1  0.351380  0.707630  0.983630  1.0  1.1994
  Mo  Mo14  1  0.363470  0.674200  0.066290  1.0  1.1964
  Mo  Mo15  1  0.333250  0.466900  0.101790  1.0  1.2211
  Mo  Mo16  1  0.304690  0.346010  0.046470  1.0  1.2318
  Mo  Mo17  1  0.194920  0.653530  0.236910  1.0  1.1889
  Mo  Mo18  1  0.109790  0.689640  0.307910  1.0  1.1658
  Mo  Mo19  1  0.721350  0.894300  0.565540  1.0  1.1431
  Mo  Mo20  1  0.699940  0.047400  0.592310  1.0  1.1972
  Mo  Mo21  1  0.648620  0.207630  0.516370  1.0  1.2006
  Mo  Mo22  1  0.636530  0.174200  0.433710  1.0  1.1976
  Mo  Mo23  1  0.666750  0.966900  0.398210  1.0  1.2211
  Mo  Mo24  1  0.695310  0.846010  0.453530  1.0  1.2297
  Mo  Mo25  1  0.805080  0.153530  0.263090  1.0  1.1907
  Mo  Mo26  1  0.890210  0.189640  0.192090  1.0  1.1684
  Mo  Mo27  1  0.721350  0.605700  0.065540  1.0  1.1432
  Mo  Mo28  1  0.699940  0.452600  0.092310  1.0  1.1968
  Mo  Mo29  1  0.648620  0.292370  0.016370  1.0  1.2024
  Mo  Mo30  1  0.636530  0.325800  0.933710  1.0  1.1986
  Mo  Mo31  1  0.666750  0.533100  0.898210  1.0  1.2206
  Mo  Mo32  1  0.695310  0.653990  0.953530  1.0  1.2287
  Mo  Mo33  1  0.805080  0.346470  0.763090  1.0  1.1918
  Mo  Mo34  1  0.890210  0.310360  0.692090  1.0  1.1692
  Mo  Mo35  1  0.278650  0.105700  0.434460  1.0  1.1449
  Mo  Mo36  1  0.300060  0.952600  0.407690  1.0  1.1988
  Mo  Mo37  1  0.351380  0.792370  0.483630  1.0  1.1993
  Mo  Mo38  1  0.363470  0.825800  0.566290  1.0  1.1968
  Mo  Mo39  1  0.333250  0.033100  0.601790  1.0  1.2202
  Mo  Mo40  1  0.304690  0.153990  0.546470  1.0  1.23
  Mo  Mo41  1  0.194920  0.846470  0.736910  1.0  1.1884
  Mo  Mo42  1  0.109790  0.810360  0.807910  1.0  1.1664
  P  P43  1  0.209210  0.534970  0.008650  1.0  1.8138
  P  P44  1  0.176200  0.617600  0.130600  1.0  1.7965
  P  P45  1  0.885150  0.730240  0.015680  1.0  1.8621
  P  P46  1  0.168300  0.725640  0.908130  1.0  1.8871
  P  P47  1  0.790790  0.034970  0.491350  1.0  1.8134
  P  P48  1  0.823800  0.117600  0.369400  1.0  1.7969
  P  P49  1  0.114850  0.230240  0.484320  1.0  1.8618
  P  P50  1  0.831700  0.225640  0.591870  1.0  1.8867
  P  P51  1  0.790790  0.465030  0.991350  1.0  1.8129
  P  P52  1  0.823800  0.382400  0.869400  1.0  1.7972
  P  P53  1  0.114850  0.269760  0.984320  1.0  1.8618
  P  P54  1  0.831700  0.274360  0.091870  1.0  1.8866
  P  P55  1  0.209210  0.965030  0.508650  1.0  1.8136
  P  P56  1  0.176200  0.882400  0.630600  1.0  1.7968
  P  P57  1  0.885150  0.769760  0.515680  1.0  1.862
  P  P58  1  0.168300  0.774360  0.408130  1.0  1.887
  H  H59  1  0.207100  0.900900  0.018500  1.0  0.1016
  H  H60  1  0.193200  0.043900  0.011500  1.0  0.1276
  H  H61  1  0.057600  0.112000  0.045700  1.0  0.1258
  H  H62  1  0.963600  0.039000  0.096100  1.0  0.1344
  H  H63  1  0.893600  0.967900  0.144600  1.0  0.1305
  H  H64  1  0.806800  0.886500  0.192600  1.0  0.1281
  H  H65  1  0.843000  0.740700  0.194700  1.0  0.1399
  H  H66  1  0.957700  0.691200  0.145300  1.0  0.0908
  H  H67  1  0.102700  0.830600  0.208300  1.0  0.0892
  H  H68  1  0.149400  0.958200  0.175500  1.0  0.1267
  H  H69  1  0.318200  0.967900  0.152800  1.0  0.1096
  H  H70  1  0.433300  0.861200  0.161100  1.0  0.1391
  H  H71  1  0.544700  0.761600  0.177400  1.0  0.1316
  H  H72  1  0.634200  0.642900  0.187800  1.0  0.1195
  H  H73  1  0.556800  0.529100  0.215100  1.0  0.1345
  H  H74  1  0.381800  0.533900  0.230300  1.0  0.0866
  H  H75  1  0.896600  0.616300  0.338100  1.0  0.0901
  H  H76  1  0.725800  0.647800  0.342800  1.0  0.1337
  H  H77  1  0.673600  0.779900  0.326300  1.0  0.1173
  H  H78  1  0.792100  0.879600  0.310000  1.0  0.1398
  H  H79  1  0.910300  0.966800  0.297600  1.0  0.1388
  H  H80  1  0.047500  0.055800  0.286000  1.0  0.1261
  H  H81  1  0.213200  0.003800  0.286300  1.0  0.1256
  H  H82  1  0.239200  0.864400  0.299500  1.0  0.1092
  H  H83  1  0.792900  0.400900  0.481500  1.0  0.1012
  H  H84  1  0.806800  0.543900  0.488500  1.0  0.128
  H  H85  1  0.942400  0.612000  0.454300  1.0  0.1259
  H  H86  1  0.036400  0.539000  0.403900  1.0  0.1351
  H  H87  1  0.106400  0.467900  0.355400  1.0  0.1315
  H  H88  1  0.193200  0.386500  0.307400  1.0  0.1289
  H  H89  1  0.157000  0.240700  0.305300  1.0  0.1398
  H  H90  1  0.042300  0.191200  0.354700  1.0  0.0908
  H  H91  1  0.897300  0.330600  0.291700  1.0  0.0898
  H  H92  1  0.850600  0.458200  0.324500  1.0  0.1265
  H  H93  1  0.681800  0.467900  0.347200  1.0  0.1103
  H  H94  1  0.566700  0.361200  0.338900  1.0  0.138
  H  H95  1  0.455300  0.261600  0.322600  1.0  0.1319
  H  H96  1  0.365800  0.142900  0.312200  1.0  0.1184
  H  H97  1  0.443200  0.029100  0.284900  1.0  0.1359
  H  H98  1  0.618200  0.033900  0.269700  1.0  0.0865
  H  H99  1  0.103400  0.116300  0.161900  1.0  0.0903
  H  H100  1  0.274200  0.147800  0.157200  1.0  0.1333
  H  H101  1  0.326400  0.279900  0.173700  1.0  0.1171
  H  H102  1  0.207900  0.379600  0.190000  1.0  0.1385
  H  H103  1  0.089700  0.466800  0.202400  1.0  0.1379
  H  H104  1  0.952500  0.555800  0.214000  1.0  0.1256
  H  H105  1  0.786800  0.503800  0.213700  1.0  0.126
  H  H106  1  0.760800  0.364400  0.200500  1.0  0.1064
  H  H107  1  0.792900  0.099100  0.981500  1.0  0.1017
  H  H108  1  0.806800  0.956100  0.988500  1.0  0.1279
  H  H109  1  0.942400  0.888000  0.954300  1.0  0.126
  H  H110  1  0.036400  0.961000  0.903900  1.0  0.1348
  H  H111  1  0.106400  0.032100  0.855400  1.0  0.131
  H  H112  1  0.193200  0.113500  0.807400  1.0  0.1287
  H  H113  1  0.157000  0.259300  0.805300  1.0  0.1401
  H  H114  1  0.042300  0.308800  0.854700  1.0  0.0915
  H  H115  1  0.897300  0.169400  0.791700  1.0  0.0899
  H  H116  1  0.850600  0.041800  0.824500  1.0  0.1265
  H  H117  1  0.681800  0.032100  0.847200  1.0  0.1097
  H  H118  1  0.566700  0.138800  0.838900  1.0  0.1381
  H  H119  1  0.455300  0.238400  0.822600  1.0  0.1317
  H  H120  1  0.365800  0.357100  0.812200  1.0  0.1177
  H  H121  1  0.443200  0.470900  0.784900  1.0  0.1357
  H  H122  1  0.618200  0.466100  0.769700  1.0  0.0859
  H  H123  1  0.103400  0.383700  0.661900  1.0  0.0895
  H  H124  1  0.274200  0.352200  0.657200  1.0  0.1336
  H  H125  1  0.326400  0.220100  0.673700  1.0  0.1171
  H  H126  1  0.207900  0.120400  0.690000  1.0  0.1392
  H  H127  1  0.089700  0.033200  0.702400  1.0  0.1378
  H  H128  1  0.952500  0.944200  0.714000  1.0  0.1264
  H  H129  1  0.786800  0.996200  0.713700  1.0  0.1257
  H  H130  1  0.760800  0.135600  0.700500  1.0  0.1063
  H  H131  1  0.207100  0.599100  0.518500  1.0  0.1023
  H  H132  1  0.193200  0.456100  0.511500  1.0  0.1272
  H  H133  1  0.057600  0.388000  0.545700  1.0  0.1259
  H  H134  1  0.963600  0.461000  0.596100  1.0  0.1346
  H  H135  1  0.893600  0.532100  0.644600  1.0  0.1292
  H  H136  1  0.806800  0.613500  0.692600  1.0  0.1285
  H  H137  1  0.843000  0.759300  0.694700  1.0  0.1397
  H  H138  1  0.957700  0.808800  0.645300  1.0  0.0918
  H  H139  1  0.102700  0.669400  0.708300  1.0  0.0894
  H  H140  1  0.149400  0.541800  0.675500  1.0  0.1261
  H  H141  1  0.318200  0.532100  0.652800  1.0  0.1094
  H  H142  1  0.433300  0.638800  0.661100  1.0  0.1386
  H  H143  1  0.544700  0.738400  0.677400  1.0  0.1318
  H  H144  1  0.634200  0.857100  0.687800  1.0  0.12
  H  H145  1  0.556800  0.970900  0.715100  1.0  0.1365
  H  H146  1  0.381800  0.966100  0.730300  1.0  0.0868
  H  H147  1  0.896600  0.883700  0.838100  1.0  0.0895
  H  H148  1  0.725800  0.852200  0.842800  1.0  0.1334
  H  H149  1  0.673600  0.720100  0.826300  1.0  0.1174
  H  H150  1  0.792100  0.620400  0.810000  1.0  0.1395
  H  H151  1  0.910300  0.533200  0.797600  1.0  0.1386
  H  H152  1  0.047500  0.444200  0.786000  1.0  0.1265
  H  H153  1  0.213200  0.496200  0.786300  1.0  0.1258
  H  H154  1  0.239200  0.635600  0.799500  1.0  0.1086
  C  C155  1  0.160100  0.929300  0.035300  1.0  0.1737
  C  C156  1  0.149000  0.015100  0.029500  1.0  -0.0776
  C  C157  1  0.070900  0.056400  0.051000  1.0  -0.0972
  C  C158  1  0.014000  0.012700  0.080200  1.0  -0.1024
  C  C159  1  0.904900  0.911100  0.145200  1.0  -0.1273
  C  C160  1  0.854100  0.863200  0.174000  1.0  -0.1183
  C  C161  1  0.874600  0.775800  0.175100  1.0  -0.137
  C  C162  1  0.943500  0.747600  0.145700  1.0  0.1847
  C  C163  1  0.033500  0.925900  0.085900  1.0  0.0923
  C  C164  1  0.972700  0.876200  0.117000  1.0  0.1798
  C  C165  1  0.170400  0.838800  0.199800  1.0  0.179
  C  C166  1  0.196300  0.915200  0.179500  1.0  -0.1792
  C  C167  1  0.296600  0.919600  0.166200  1.0  -0.1107
  C  C168  1  0.366900  0.856700  0.171600  1.0  -0.2053
  C  C169  1  0.512300  0.715300  0.188700  1.0  -0.1547
  C  C170  1  0.564900  0.645000  0.194700  1.0  -0.0532
  C  C171  1  0.519400  0.577500  0.210600  1.0  -0.1368
  C  C172  1  0.414000  0.581300  0.220200  1.0  0.1539
  C  C173  1  0.336400  0.787800  0.192800  1.0  0.1884
  C  C174  1  0.404500  0.718800  0.199800  1.0  0.1238
  C  C175  1  0.875100  0.670100  0.332400  1.0  0.1878
  C  C176  1  0.773300  0.688000  0.335000  1.0  -0.1388
  C  C177  1  0.743200  0.766300  0.325700  1.0  -0.0968
  C  C178  1  0.813300  0.825600  0.315600  1.0  -0.1648
  C  C179  1  0.977700  0.947100  0.297600  1.0  -0.1375
  C  C180  1  0.059200  0.999800  0.290700  1.0  -0.0627
  C  C181  1  0.157400  0.969100  0.291000  1.0  -0.102
  C  C182  1  0.172300  0.885200  0.298200  1.0  0.1428
  C  C183  1  0.915600  0.804400  0.313800  1.0  0.1615
  C  C184  1  0.998400  0.864100  0.304600  1.0  0.2348
  C  C185  1  0.839900  0.429300  0.464700  1.0  0.1748
  C  C186  1  0.851000  0.515100  0.470500  1.0  -0.0804
  C  C187  1  0.929100  0.556400  0.449000  1.0  -0.0981
  C  C188  1  0.986000  0.512700  0.419800  1.0  -0.1015
  C  C189  1  0.095100  0.411100  0.354800  1.0  -0.1263
  C  C190  1  0.145900  0.363200  0.326000  1.0  -0.1155
  C  C191  1  0.125400  0.275800  0.324900  1.0  -0.136
  C  C192  1  0.056500  0.247600  0.354300  1.0  0.1837
  C  C193  1  0.966500  0.425900  0.414100  1.0  0.0925
  C  C194  1  0.027300  0.376200  0.383000  1.0  0.1797
  C  C195  1  0.829600  0.338800  0.300200  1.0  0.1775
  C  C196  1  0.803700  0.415200  0.320500  1.0  -0.1804
  C  C197  1  0.703400  0.419600  0.333800  1.0  -0.11
  C  C198  1  0.633100  0.356700  0.328400  1.0  -0.2062
  C  C199  1  0.487700  0.215300  0.311300  1.0  -0.1557
  C  C200  1  0.435100  0.145000  0.305300  1.0  -0.0529
  C  C201  1  0.480600  0.077500  0.289400  1.0  -0.1375
  C  C202  1  0.586000  0.081300  0.279800  1.0  0.1548
  C  C203  1  0.663600  0.287800  0.307200  1.0  0.1852
  C  C204  1  0.595500  0.218800  0.300200  1.0  0.1239
  C  C205  1  0.124900  0.170100  0.167600  1.0  0.1858
  C  C206  1  0.226700  0.188000  0.165000  1.0  -0.138
  C  C207  1  0.256800  0.266300  0.174300  1.0  -0.0958
  C  C208  1  0.186700  0.325600  0.184400  1.0  -0.164
  C  C209  1  0.022300  0.447100  0.202400  1.0  -0.1374
  C  C210  1  0.940800  0.499800  0.209300  1.0  -0.064
  C  C211  1  0.842600  0.469100  0.209000  1.0  -0.1029
  C  C212  1  0.827700  0.385200  0.201800  1.0  0.143
  C  C213  1  0.084400  0.304400  0.186200  1.0  0.1604
  C  C214  1  0.001600  0.364100  0.195400  1.0  0.235
  C  C215  1  0.839900  0.070700  0.964700  1.0  0.1752
  C  C216  1  0.851000  0.984900  0.970500  1.0  -0.0795
  C  C217  1  0.929100  0.943600  0.949000  1.0  -0.1002
  C  C218  1  0.986000  0.987300  0.919800  1.0  -0.1022
  C  C219  1  0.095100  0.088900  0.854800  1.0  -0.125
  C  C220  1  0.145900  0.136800  0.826000  1.0  -0.116
  C  C221  1  0.125400  0.224200  0.824900  1.0  -0.1365
  C  C222  1  0.056500  0.252400  0.854300  1.0  0.1823
  C  C223  1  0.966500  0.074100  0.914100  1.0  0.0925
  C  C224  1  0.027300  0.123800  0.883000  1.0  0.1807
  C  C225  1  0.829600  0.161200  0.800200  1.0  0.1773
  C  C226  1  0.803700  0.084800  0.820500  1.0  -0.1798
  C  C227  1  0.703400  0.080400  0.833800  1.0  -0.1112
  C  C228  1  0.633100  0.143300  0.828400  1.0  -0.2059
  C  C229  1  0.487700  0.284700  0.811300  1.0  -0.155
  C  C230  1  0.435100  0.355000  0.805300  1.0  -0.053
  C  C231  1  0.480600  0.422500  0.789400  1.0  -0.1354
  C  C232  1  0.586000  0.418700  0.779800  1.0  0.1549
  C  C233  1  0.663600  0.212200  0.807200  1.0  0.1857
  C  C234  1  0.595500  0.281200  0.800200  1.0  0.123
  C  C235  1  0.124900  0.329900  0.667600  1.0  0.1852
  C  C236  1  0.226700  0.312000  0.665000  1.0  -0.1381
  C  C237  1  0.256800  0.233700  0.674300  1.0  -0.0967
  C  C238  1  0.186700  0.174400  0.684400  1.0  -0.1635
  C  C239  1  0.022300  0.052900  0.702400  1.0  -0.1375
  C  C240  1  0.940800  0.000200  0.709300  1.0  -0.0647
  C  C241  1  0.842600  0.030900  0.709000  1.0  -0.1038
  C  C242  1  0.827700  0.114800  0.701800  1.0  0.1426
  C  C243  1  0.084400  0.195600  0.686200  1.0  0.1608
  C  C244  1  0.001600  0.135900  0.695400  1.0  0.2351
  C  C245  1  0.160100  0.570700  0.535300  1.0  0.1743
  C  C246  1  0.149000  0.484900  0.529500  1.0  -0.077
  C  C247  1  0.070900  0.443600  0.551000  1.0  -0.0994
  C  C248  1  0.014000  0.487300  0.580200  1.0  -0.1032
  C  C249  1  0.904900  0.588900  0.645200  1.0  -0.1265
  C  C250  1  0.854100  0.636800  0.674000  1.0  -0.1184
  C  C251  1  0.874600  0.724200  0.675100  1.0  -0.1373
  C  C252  1  0.943500  0.752400  0.645700  1.0  0.1844
  C  C253  1  0.033500  0.574100  0.585900  1.0  0.0923
  C  C254  1  0.972700  0.623800  0.617000  1.0  0.1799
  C  C255  1  0.170400  0.661200  0.699800  1.0  0.1786
  C  C256  1  0.196300  0.584800  0.679500  1.0  -0.1782
  C  C257  1  0.296600  0.580400  0.666200  1.0  -0.1123
  C  C258  1  0.366900  0.643300  0.671600  1.0  -0.206
  C  C259  1  0.512300  0.784700  0.688700  1.0  -0.1543
  C  C260  1  0.564900  0.855000  0.694700  1.0  -0.0533
  C  C261  1  0.519400  0.922500  0.710600  1.0  -0.1354
  C  C262  1  0.414000  0.918700  0.720200  1.0  0.1539
  C  C263  1  0.336400  0.712200  0.692800  1.0  0.1888
  C  C264  1  0.404500  0.781200  0.699800  1.0  0.1236
  C  C265  1  0.875100  0.829900  0.832400  1.0  0.1867
  C  C266  1  0.773300  0.812000  0.835000  1.0  -0.1395
  C  C267  1  0.743200  0.733700  0.825700  1.0  -0.0964
  C  C268  1  0.813300  0.674400  0.815600  1.0  -0.1644
  C  C269  1  0.977700  0.552900  0.797600  1.0  -0.1371
  C  C270  1  0.059200  0.500200  0.790700  1.0  -0.0642
  C  C271  1  0.157400  0.530900  0.791000  1.0  -0.1035
  C  C272  1  0.172300  0.614800  0.798200  1.0  0.1426
  C  C273  1  0.915600  0.695600  0.813800  1.0  0.1618
  C  C274  1  0.998400  0.635900  0.804600  1.0  0.2349
  N  N275  1  0.106800  0.888300  0.063200  1.0  -0.3211
  N  N276  1  0.991500  0.795500  0.117600  1.0  -0.3297
  N  N277  1  0.237700  0.780000  0.207100  1.0  -0.3457
  N  N278  1  0.358700  0.649900  0.215400  1.0  -0.3171
  N  N279  1  0.946300  0.726400  0.321900  1.0  -0.3177
  N  N280  1  0.092900  0.833500  0.303600  1.0  -0.3476
  N  N281  1  0.893200  0.388300  0.436800  1.0  -0.3216
  N  N282  1  0.008500  0.295500  0.382400  1.0  -0.3272
  N  N283  1  0.762300  0.280000  0.292900  1.0  -0.3473
  N  N284  1  0.641300  0.149900  0.284600  1.0  -0.3192
  N  N285  1  0.053700  0.226400  0.178100  1.0  -0.3195
  N  N286  1  0.907100  0.333500  0.196400  1.0  -0.349
  N  N287  1  0.893200  0.111700  0.936800  1.0  -0.3226
  N  N288  1  0.008500  0.204500  0.882400  1.0  -0.3274
  N  N289  1  0.762300  0.220000  0.792900  1.0  -0.3483
  N  N290  1  0.641300  0.350100  0.784600  1.0  -0.3197
  N  N291  1  0.053700  0.273600  0.678100  1.0  -0.3197
  N  N292  1  0.907100  0.166500  0.696400  1.0  -0.349
  N  N293  1  0.106800  0.611700  0.563200  1.0  -0.3229
  N  N294  1  0.991500  0.704500  0.617600  1.0  -0.3285
  N  N295  1  0.237700  0.720000  0.707100  1.0  -0.3473
  N  N296  1  0.358700  0.850100  0.715400  1.0  -0.3169
  N  N297  1  0.946300  0.773600  0.821900  1.0  -0.3182
  N  N298  1  0.092900  0.666500  0.803600  1.0  -0.3486
  O  O299  1  0.179300  0.476000  0.913270  1.0  -0.707
  O  O300  1  0.393300  0.473600  0.941120  1.0  -0.7423
  O  O301  1  0.240300  0.444500  0.999340  1.0  -0.8823
  O  O302  1  0.862100  0.663700  0.049980  1.0  -0.8728
  O  O303  1  0.352800  0.321600  0.982590  1.0  -0.649
  O  O304  1  0.437400  0.628700  0.016620  1.0  -0.7553
  O  O305  1  0.257800  0.730400  0.031130  1.0  -0.7464
  O  O306  1  0.254300  0.683000  0.113830  1.0  -0.8521
  O  O307  1  0.259800  0.559100  0.052160  1.0  -0.8062
  O  O308  1  0.423100  0.575700  0.101850  1.0  -0.5922
  O  O309  1  0.412500  0.431600  0.051260  1.0  -0.7593
  O  O310  1  0.216200  0.397200  0.088020  1.0  -0.6038
  O  O311  1  0.827700  0.713600  0.973560  1.0  -0.7984
  O  O312  1  0.255600  0.591500  0.973770  1.0  -0.8553
  O  O313  1  0.398600  0.644900  0.926890  1.0  -0.6182
  O  O314  1  0.196200  0.639500  0.893210  1.0  -0.8048
  O  O315  1  0.240200  0.758500  0.943690  1.0  -0.7802
  O  O316  1  0.228900  0.533700  0.136140  1.0  -0.7933
  O  O317  1  0.092500  0.541500  0.006080  1.0  -0.882
  O  O318  1  0.085400  0.619700  0.098430  1.0  -0.8303
  O  O319  1  0.999700  0.733200  0.009080  1.0  -0.8086
  O  O320  1  0.853600  0.816500  0.033450  1.0  -0.5724
  O  O321  1  0.056900  0.720400  0.926290  1.0  -0.5282
  O  O322  1  0.059800  0.695400  0.248390  1.0  -0.6255
  O  O323  1  0.250700  0.699800  0.290730  1.0  -0.6463
  O  O324  1  0.138400  0.645500  0.174490  1.0  -0.8228
  O  O325  1  0.164200  0.784100  0.870090  1.0  -0.8426
  O  O326  1  0.820700  0.976000  0.586730  1.0  -0.7052
  O  O327  1  0.606700  0.973600  0.558880  1.0  -0.7422
  O  O328  1  0.759700  0.944500  0.500660  1.0  -0.8826
  O  O329  1  0.137900  0.163700  0.450020  1.0  -0.8733
  O  O330  1  0.647200  0.821600  0.517410  1.0  -0.6498
  O  O331  1  0.562600  0.128700  0.483380  1.0  -0.7547
  O  O332  1  0.742200  0.230400  0.468870  1.0  -0.7458
  O  O333  1  0.745700  0.183000  0.386170  1.0  -0.8511
  O  O334  1  0.740200  0.059100  0.447840  1.0  -0.806
  O  O335  1  0.576900  0.075700  0.398150  1.0  -0.5935
  O  O336  1  0.587500  0.931600  0.448740  1.0  -0.7597
  O  O337  1  0.783800  0.897200  0.411980  1.0  -0.6034
  O  O338  1  0.172300  0.213600  0.526440  1.0  -0.7991
  O  O339  1  0.744400  0.091500  0.526230  1.0  -0.8548
  O  O340  1  0.601400  0.144900  0.573110  1.0  -0.6153
  O  O341  1  0.803800  0.139500  0.606790  1.0  -0.8054
  O  O342  1  0.759800  0.258500  0.556310  1.0  -0.779
  O  O343  1  0.771100  0.033700  0.363860  1.0  -0.7936
  O  O344  1  0.907500  0.041500  0.493920  1.0  -0.88
  O  O345  1  0.914600  0.119700  0.401570  1.0  -0.8311
  O  O346  1  0.000300  0.233200  0.490920  1.0  -0.8077
  O  O347  1  0.146400  0.316500  0.466550  1.0  -0.5729
  O  O348  1  0.943100  0.220400  0.573710  1.0  -0.5299
  O  O349  1  0.940200  0.195400  0.251610  1.0  -0.6261
  O  O350  1  0.749300  0.199800  0.209270  1.0  -0.6438
  O  O351  1  0.861600  0.145500  0.325510  1.0  -0.8224
  O  O352  1  0.835800  0.284100  0.629910  1.0  -0.8436
  O  O353  1  0.820700  0.524000  0.086730  1.0  -0.7054
  O  O354  1  0.606700  0.526400  0.058880  1.0  -0.7423
  O  O355  1  0.759700  0.555500  0.000660  1.0  -0.8828
  O  O356  1  0.137900  0.336300  0.950020  1.0  -0.8731
  O  O357  1  0.647200  0.678400  0.017410  1.0  -0.6477
  O  O358  1  0.562600  0.371300  0.983380  1.0  -0.7542
  O  O359  1  0.742200  0.269600  0.968870  1.0  -0.746
  O  O360  1  0.745700  0.317000  0.886170  1.0  -0.8502
  O  O361  1  0.740200  0.440900  0.947840  1.0  -0.806
  O  O362  1  0.576900  0.424300  0.898150  1.0  -0.5934
  O  O363  1  0.587500  0.568400  0.948740  1.0  -0.7592
  O  O364  1  0.783800  0.602800  0.911980  1.0  -0.6031
  O  O365  1  0.172300  0.286400  0.026440  1.0  -0.7995
  O  O366  1  0.744400  0.408500  0.026230  1.0  -0.8545
  O  O367  1  0.601400  0.355100  0.073110  1.0  -0.6185
  O  O368  1  0.803800  0.360500  0.106790  1.0  -0.805
  O  O369  1  0.759800  0.241500  0.056310  1.0  -0.7791
  O  O370  1  0.771100  0.466300  0.863860  1.0  -0.7944
  O  O371  1  0.907500  0.458500  0.993920  1.0  -0.8802
  O  O372  1  0.914600  0.380300  0.901570  1.0  -0.8314
  O  O373  1  0.000300  0.266800  0.990920  1.0  -0.8078
  O  O374  1  0.146400  0.183500  0.966550  1.0  -0.573
  O  O375  1  0.943100  0.279600  0.073710  1.0  -0.5298
  O  O376  1  0.940200  0.304600  0.751610  1.0  -0.6262
  O  O377  1  0.749300  0.300200  0.709270  1.0  -0.6441
  O  O378  1  0.861600  0.354500  0.825510  1.0  -0.8226
  O  O379  1  0.835800  0.215900  0.129910  1.0  -0.8416
  O  O380  1  0.179300  0.024000  0.413270  1.0  -0.7072
  O  O381  1  0.393300  0.026400  0.441120  1.0  -0.7427
  O  O382  1  0.240300  0.055500  0.499340  1.0  -0.8829
  O  O383  1  0.862100  0.836300  0.549980  1.0  -0.873
  O  O384  1  0.352800  0.178400  0.482590  1.0  -0.6488
  O  O385  1  0.437400  0.871300  0.516620  1.0  -0.7546
  O  O386  1  0.257800  0.769600  0.531130  1.0  -0.7464
  O  O387  1  0.254300  0.817000  0.613830  1.0  -0.8512
  O  O388  1  0.259800  0.940900  0.552160  1.0  -0.8062
  O  O389  1  0.423100  0.924300  0.601850  1.0  -0.5923
  O  O390  1  0.412500  0.068400  0.551260  1.0  -0.7597
  O  O391  1  0.216200  0.102800  0.588020  1.0  -0.6032
  O  O392  1  0.827700  0.786400  0.473560  1.0  -0.7996
  O  O393  1  0.255600  0.908500  0.473770  1.0  -0.855
  O  O394  1  0.398600  0.855100  0.426890  1.0  -0.6192
  O  O395  1  0.196200  0.860500  0.393210  1.0  -0.8046
  O  O396  1  0.240200  0.741500  0.443690  1.0  -0.781
  O  O397  1  0.228900  0.966300  0.636140  1.0  -0.794
  O  O398  1  0.092500  0.958500  0.506080  1.0  -0.8821
  O  O399  1  0.085400  0.880300  0.598430  1.0  -0.83
  O  O400  1  0.999700  0.766800  0.509080  1.0  -0.8085
  O  O401  1  0.853600  0.683500  0.533450  1.0  -0.5721
  O  O402  1  0.056900  0.779600  0.426290  1.0  -0.5279
  O  O403  1  0.059800  0.804600  0.748390  1.0  -0.6258
  O  O404  1  0.250700  0.800200  0.790730  1.0  -0.645
  O  O405  1  0.138400  0.854500  0.674490  1.0  -0.8232
  O  O406  1  0.164200  0.715900  0.370090  1.0  -0.8423
