# generated using pymatgen
data_CuC12(NF)4
_symmetry_space_group_name_H-M   'P 1'
_cell_length_a   21.85180000
_cell_length_b   14.16100000
_cell_length_c   17.91850000
_cell_angle_alpha   90.00000000
_cell_angle_beta   108.16500000
_cell_angle_gamma   90.00000000
_symmetry_Int_Tables_number   1
_chemical_formula_structural   CuC12(NF)4
_chemical_formula_sum   'Cu8 C96 N32 F32'
_cell_volume   5268.42441960
_cell_formula_units_Z   8
loop_
 _symmetry_equiv_pos_site_id
 _symmetry_equiv_pos_as_xyz
  1  'x, y, z'
loop_
 _atom_site_type_symbol
 _atom_site_label
 _atom_site_symmetry_multiplicity
 _atom_site_fract_x
 _atom_site_fract_y
 _atom_site_fract_z
 _atom_site_occupancy
 _atom_site_charge
  Cu  Cu1  1  0.810630  0.381940  0.476260  1.0  0.4884
  Cu  Cu2  1  0.751790  0.895460  0.584710  1.0  0.5514
  Cu  Cu3  1  0.189370  0.881940  0.023740  1.0  0.4893
  Cu  Cu4  1  0.248210  0.395460  0.915290  1.0  0.5514
  Cu  Cu5  1  0.189370  0.618060  0.523740  1.0  0.4892
  Cu  Cu6  1  0.248210  0.104540  0.415290  1.0  0.5508
  Cu  Cu7  1  0.810630  0.118060  0.976260  1.0  0.4884
  Cu  Cu8  1  0.751790  0.604540  0.084710  1.0  0.5509
  C  C9  1  0.494900  0.428900  0.260700  1.0  0.1854
  C  C10  1  0.003870  0.541700  0.813200  1.0  0.2099
  C  C11  1  0.347470  0.405900  0.081500  1.0  0.3973
  C  C12  1  0.861210  0.622500  0.644800  1.0  -0.1247
  C  C13  1  0.100360  0.622600  0.904000  1.0  -0.1186
  C  C14  1  0.920750  0.622600  0.709800  1.0  -0.0438
  C  C15  1  0.124330  0.701700  0.950900  1.0  0.3094
  C  C16  1  0.955580  0.705200  0.738500  1.0  0.2068
  C  C17  1  0.141900  0.544500  0.913800  1.0  0.3611
  C  C18  1  0.664580  0.452300  0.248800  1.0  -0.0468
  C  C19  1  0.039340  0.623900  0.840900  1.0  -0.1864
  C  C20  1  0.706580  0.421300  0.321000  1.0  0.3298
  C  C21  1  0.554700  0.446300  0.150100  1.0  0.1944
  C  C22  1  0.560900  0.436200  0.281000  1.0  0.2155
  C  C23  1  0.455010  0.431000  0.183000  1.0  -0.0988
  C  C24  1  0.011580  0.705300  0.801000  1.0  0.2049
  C  C25  1  0.488640  0.440800  0.129100  1.0  0.2121
  C  C26  1  0.948280  0.541400  0.751000  1.0  0.2136
  C  C27  1  0.844790  0.547700  0.592000  1.0  0.2967
  C  C28  1  0.820110  0.702000  0.629000  1.0  0.3002
  C  C29  1  0.693910  0.501000  0.201500  1.0  0.3206
  C  C30  1  0.385050  0.422000  0.159100  1.0  -0.2783
  C  C31  1  0.594100  0.444700  0.227400  1.0  0.0148
  C  C32  1  0.350000  0.427500  0.212700  1.0  0.3977
  C  C33  1  0.505100  0.928900  0.239300  1.0  0.1868
  C  C34  1  0.996130  0.041700  0.686800  1.0  0.2093
  C  C35  1  0.652530  0.905900  0.418500  1.0  0.3959
  C  C36  1  0.138790  0.122500  0.855200  1.0  -0.1261
  C  C37  1  0.899640  0.122600  0.596000  1.0  -0.1177
  C  C38  1  0.079250  0.122600  0.790200  1.0  -0.0437
  C  C39  1  0.875670  0.201700  0.549100  1.0  0.3096
  C  C40  1  0.044420  0.205200  0.761500  1.0  0.2069
  C  C41  1  0.858100  0.044500  0.586200  1.0  0.3607
  C  C42  1  0.335420  0.952300  0.251200  1.0  -0.0468
  C  C43  1  0.960660  0.123900  0.659100  1.0  -0.187
  C  C44  1  0.293420  0.921300  0.179000  1.0  0.3282
  C  C45  1  0.445300  0.946300  0.349900  1.0  0.194
  C  C46  1  0.439100  0.936200  0.219000  1.0  0.2177
  C  C47  1  0.544990  0.931000  0.317000  1.0  -0.0986
  C  C48  1  0.988420  0.205300  0.699000  1.0  0.2048
  C  C49  1  0.511360  0.940800  0.370900  1.0  0.2103
  C  C50  1  0.051720  0.041400  0.749000  1.0  0.2142
  C  C51  1  0.155210  0.047700  0.908000  1.0  0.2963
  C  C52  1  0.179890  0.202000  0.871000  1.0  0.299
  C  C53  1  0.306090  0.001000  0.298500  1.0  0.3208
  C  C54  1  0.614950  0.922000  0.340900  1.0  -0.2782
  C  C55  1  0.405900  0.944700  0.272600  1.0  0.0146
  C  C56  1  0.650000  0.927500  0.287300  1.0  0.3979
  C  C57  1  0.505100  0.571100  0.739300  1.0  0.1871
  C  C58  1  0.996130  0.458300  0.186800  1.0  0.2101
  C  C59  1  0.652530  0.594100  0.918500  1.0  0.3963
  C  C60  1  0.138790  0.377500  0.355200  1.0  -0.1261
  C  C61  1  0.899640  0.377400  0.096000  1.0  -0.1176
  C  C62  1  0.079250  0.377400  0.290200  1.0  -0.0436
  C  C63  1  0.875670  0.298300  0.049100  1.0  0.3097
  C  C64  1  0.044420  0.294800  0.261500  1.0  0.2076
  C  C65  1  0.858100  0.455500  0.086200  1.0  0.361
  C  C66  1  0.335420  0.547700  0.751200  1.0  -0.0462
  C  C67  1  0.960660  0.376100  0.159100  1.0  -0.187
  C  C68  1  0.293420  0.578700  0.679000  1.0  0.328
  C  C69  1  0.445300  0.553700  0.849900  1.0  0.1942
  C  C70  1  0.439100  0.563800  0.719000  1.0  0.2176
  C  C71  1  0.544990  0.569000  0.817000  1.0  -0.0986
  C  C72  1  0.988420  0.294700  0.199000  1.0  0.2048
  C  C73  1  0.511360  0.559200  0.870900  1.0  0.2103
  C  C74  1  0.051720  0.458600  0.249000  1.0  0.2141
  C  C75  1  0.155210  0.452300  0.408000  1.0  0.2965
  C  C76  1  0.179890  0.298000  0.371000  1.0  0.2984
  C  C77  1  0.306090  0.499000  0.798500  1.0  0.3205
  C  C78  1  0.614950  0.578000  0.840900  1.0  -0.278
  C  C79  1  0.405900  0.555300  0.772600  1.0  0.0148
  C  C80  1  0.650000  0.572500  0.787300  1.0  0.3978
  C  C81  1  0.494900  0.071100  0.760700  1.0  0.1857
  C  C82  1  0.003870  0.958300  0.313200  1.0  0.2102
  C  C83  1  0.347470  0.094100  0.581500  1.0  0.398
  C  C84  1  0.861210  0.877500  0.144800  1.0  -0.1246
  C  C85  1  0.100360  0.877400  0.404000  1.0  -0.1185
  C  C86  1  0.920750  0.877400  0.209800  1.0  -0.0438
  C  C87  1  0.124330  0.798300  0.450900  1.0  0.3095
  C  C88  1  0.955580  0.794800  0.238500  1.0  0.2073
  C  C89  1  0.141900  0.955500  0.413800  1.0  0.3608
  C  C90  1  0.664580  0.047700  0.748800  1.0  -0.0461
  C  C91  1  0.039340  0.876100  0.340900  1.0  -0.1864
  C  C92  1  0.706580  0.078700  0.821000  1.0  0.3295
  C  C93  1  0.554700  0.053700  0.650100  1.0  0.1947
  C  C94  1  0.560900  0.063800  0.781000  1.0  0.2155
  C  C95  1  0.455010  0.069000  0.683000  1.0  -0.0988
  C  C96  1  0.011580  0.794700  0.301000  1.0  0.2051
  C  C97  1  0.488640  0.059200  0.629100  1.0  0.2121
  C  C98  1  0.948280  0.958600  0.251000  1.0  0.2134
  C  C99  1  0.844790  0.952300  0.092000  1.0  0.2969
  C  C100  1  0.820110  0.798000  0.129000  1.0  0.2994
  C  C101  1  0.693910  0.999000  0.701500  1.0  0.3204
  C  C102  1  0.385050  0.078000  0.659100  1.0  -0.2781
  C  C103  1  0.594100  0.055300  0.727400  1.0  0.015
  C  C104  1  0.350000  0.072500  0.712700  1.0  0.3977
  N  N105  1  0.313100  0.391700  0.019900  1.0  -0.4199
  N  N106  1  0.743520  0.397500  0.378000  1.0  -0.4501
  N  N107  1  0.144840  0.765900  0.989900  1.0  -0.4548
  N  N108  1  0.788240  0.768400  0.617200  1.0  -0.4333
  N  N109  1  0.718270  0.542700  0.163300  1.0  -0.4079
  N  N110  1  0.176730  0.481800  0.920200  1.0  -0.4149
  N  N111  1  0.831580  0.487100  0.546500  1.0  -0.4136
  N  N112  1  0.317100  0.429600  0.252100  1.0  -0.4455
  N  N113  1  0.686900  0.891700  0.480100  1.0  -0.42
  N  N114  1  0.256480  0.897500  0.122000  1.0  -0.4487
  N  N115  1  0.855160  0.265900  0.510100  1.0  -0.4555
  N  N116  1  0.211760  0.268400  0.882800  1.0  -0.4331
  N  N117  1  0.281730  0.042700  0.336700  1.0  -0.4084
  N  N118  1  0.823270  0.981800  0.579800  1.0  -0.4153
  N  N119  1  0.168420  0.987100  0.953500  1.0  -0.412
  N  N120  1  0.682900  0.929600  0.247900  1.0  -0.4472
  N  N121  1  0.686900  0.608300  0.980100  1.0  -0.4196
  N  N122  1  0.256480  0.602500  0.622000  1.0  -0.4488
  N  N123  1  0.855160  0.234100  0.010100  1.0  -0.4549
  N  N124  1  0.211760  0.231600  0.382800  1.0  -0.4332
  N  N125  1  0.281730  0.457300  0.836700  1.0  -0.4067
  N  N126  1  0.823270  0.518200  0.079800  1.0  -0.4176
  N  N127  1  0.168420  0.512900  0.453500  1.0  -0.413
  N  N128  1  0.682900  0.570400  0.747900  1.0  -0.4484
  N  N129  1  0.313100  0.108300  0.519900  1.0  -0.4202
  N  N130  1  0.743520  0.102500  0.878000  1.0  -0.4505
  N  N131  1  0.144840  0.734100  0.489900  1.0  -0.4547
  N  N132  1  0.788240  0.731600  0.117200  1.0  -0.4332
  N  N133  1  0.718270  0.957300  0.663300  1.0  -0.4065
  N  N134  1  0.176730  0.018200  0.420200  1.0  -0.4172
  N  N135  1  0.831580  0.012900  0.046500  1.0  -0.4137
  N  N136  1  0.317100  0.070400  0.752100  1.0  -0.4462
  F  F137  1  0.917190  0.457980  0.729940  1.0  -0.1331
  F  F138  1  0.024490  0.459210  0.849710  1.0  -0.1344
  F  F139  1  0.934620  0.788070  0.703430  1.0  -0.1252
  F  F140  1  0.041170  0.788800  0.822990  1.0  -0.121
  F  F141  1  0.594280  0.435800  0.358700  1.0  -0.1505
  F  F142  1  0.581480  0.453100  0.091730  1.0  -0.128
  F  F143  1  0.468170  0.421500  0.318620  1.0  -0.1485
  F  F144  1  0.455960  0.443800  0.051530  1.0  -0.1332
  F  F145  1  0.082810  0.957980  0.770060  1.0  -0.1324
  F  F146  1  0.975510  0.959210  0.650290  1.0  -0.1348
  F  F147  1  0.065380  0.288070  0.796570  1.0  -0.1245
  F  F148  1  0.958830  0.288800  0.677010  1.0  -0.121
  F  F149  1  0.405720  0.935800  0.141300  1.0  -0.1505
  F  F150  1  0.418520  0.953100  0.408270  1.0  -0.1276
  F  F151  1  0.531830  0.921500  0.181380  1.0  -0.148
  F  F152  1  0.544040  0.943800  0.448470  1.0  -0.1336
  F  F153  1  0.082810  0.542020  0.270060  1.0  -0.1324
  F  F154  1  0.975510  0.540790  0.150290  1.0  -0.1351
  F  F155  1  0.065380  0.211930  0.296570  1.0  -0.1224
  F  F156  1  0.958830  0.211200  0.177010  1.0  -0.1184
  F  F157  1  0.405720  0.564200  0.641300  1.0  -0.1505
  F  F158  1  0.418520  0.546900  0.908270  1.0  -0.1279
  F  F159  1  0.531830  0.578500  0.681380  1.0  -0.1482
  F  F160  1  0.544040  0.556200  0.948470  1.0  -0.1333
  F  F161  1  0.917190  0.042020  0.229940  1.0  -0.1332
  F  F162  1  0.024490  0.040790  0.349710  1.0  -0.1337
  F  F163  1  0.934620  0.711930  0.203430  1.0  -0.1224
  F  F164  1  0.041170  0.711200  0.322990  1.0  -0.1193
  F  F165  1  0.594280  0.064200  0.858700  1.0  -0.1506
  F  F166  1  0.581480  0.046900  0.591730  1.0  -0.1283
  F  F167  1  0.468170  0.078500  0.818620  1.0  -0.1483
  F  F168  1  0.455960  0.056200  0.551530  1.0  -0.1328
