# generated using pymatgen
data_CuH26C34(N2O)2
_symmetry_space_group_name_H-M   'P 1'
_cell_length_a   13.08830000
_cell_length_b   13.08830000
_cell_length_c   26.79390000
_cell_angle_alpha   90.00000000
_cell_angle_beta   90.00000000
_cell_angle_gamma   90.00000000
_symmetry_Int_Tables_number   1
_chemical_formula_structural   CuH26C34(N2O)2
_chemical_formula_sum   'Cu4 H104 C136 N16 O8'
_cell_volume   4589.89144471
_cell_formula_units_Z   4
loop_
 _symmetry_equiv_pos_site_id
 _symmetry_equiv_pos_as_xyz
  1  'x, y, z'
loop_
 _atom_site_type_symbol
 _atom_site_label
 _atom_site_symmetry_multiplicity
 _atom_site_fract_x
 _atom_site_fract_y
 _atom_site_fract_z
 _atom_site_occupancy
 _atom_site_charge
  Cu  Cu1  1  0.500000  0.000000  0.282550  1.0  0.4234
  Cu  Cu2  1  0.000000  0.500000  0.782550  1.0  0.4234
  Cu  Cu3  1  0.500000  0.000000  0.717450  1.0  0.4229
  Cu  Cu4  1  0.000000  0.500000  0.217450  1.0  0.4229
  H  H5  1  0.414100  0.586800  0.434700  1.0  0.0866
  H  H6  1  0.489200  0.681800  0.383400  1.0  0.0983
  H  H7  1  0.522900  0.781700  0.314300  1.0  0.0796
  H  H8  1  0.344300  0.838500  0.511300  1.0  0.0971
  H  H9  1  0.329500  0.912300  0.441000  1.0  0.0962
  H  H10  1  0.369000  0.008300  0.371200  1.0  0.0674
  H  H11  1  0.110000  0.592900  0.699300  1.0  0.0767
  H  H12  1  0.293200  0.742000  0.578100  1.0  0.0989
  H  H13  1  0.106300  0.310200  0.746400  1.0  0.0715
  H  H14  1  0.182200  0.631200  0.616600  1.0  0.0717
  H  H15  1  0.289500  0.627500  0.642800  1.0  0.0732
  H  H16  1  0.214400  0.262600  0.684600  1.0  0.0892
  H  H17  1  0.279000  0.381500  0.629400  1.0  0.0882
  H  H18  1  0.585900  0.413200  0.434700  1.0  0.0865
  H  H19  1  0.510800  0.318200  0.383400  1.0  0.0987
  H  H20  1  0.477100  0.218300  0.314300  1.0  0.0793
  H  H21  1  0.655700  0.161500  0.511300  1.0  0.0969
  H  H22  1  0.670500  0.087700  0.441000  1.0  0.0957
  H  H23  1  0.631000  0.991700  0.371200  1.0  0.0676
  H  H24  1  0.890000  0.407100  0.699300  1.0  0.078
  H  H25  1  0.706800  0.258000  0.578100  1.0  0.0988
  H  H26  1  0.893700  0.689800  0.746400  1.0  0.0712
  H  H27  1  0.817800  0.368800  0.616600  1.0  0.0712
  H  H28  1  0.710500  0.372500  0.642800  1.0  0.0732
  H  H29  1  0.785600  0.737400  0.684600  1.0  0.0899
  H  H30  1  0.721000  0.618500  0.629400  1.0  0.0887
  H  H31  1  0.413200  0.414100  0.934700  1.0  0.0858
  H  H32  1  0.318200  0.489200  0.883400  1.0  0.0979
  H  H33  1  0.218300  0.522900  0.814300  1.0  0.0799
  H  H34  1  0.161500  0.344300  0.011300  1.0  0.1006
  H  H35  1  0.087700  0.329500  0.941000  1.0  0.0967
  H  H36  1  0.991700  0.369000  0.871200  1.0  0.0671
  H  H37  1  0.407100  0.110000  0.199300  1.0  0.0778
  H  H38  1  0.258000  0.293200  0.078100  1.0  0.0988
  H  H39  1  0.689800  0.106300  0.246400  1.0  0.0726
  H  H40  1  0.368800  0.182200  0.116600  1.0  0.0714
  H  H41  1  0.372500  0.289500  0.142800  1.0  0.073
  H  H42  1  0.737400  0.214400  0.184600  1.0  0.091
  H  H43  1  0.618500  0.279000  0.129400  1.0  0.0886
  H  H44  1  0.586800  0.585900  0.934700  1.0  0.0863
  H  H45  1  0.681800  0.510800  0.883400  1.0  0.0979
  H  H46  1  0.781700  0.477100  0.814300  1.0  0.0796
  H  H47  1  0.838500  0.655700  0.011300  1.0  0.1002
  H  H48  1  0.912300  0.670500  0.941000  1.0  0.0968
  H  H49  1  0.008300  0.631000  0.871200  1.0  0.0667
  H  H50  1  0.592900  0.890000  0.199300  1.0  0.0774
  H  H51  1  0.742000  0.706800  0.078100  1.0  0.099
  H  H52  1  0.310200  0.893700  0.246400  1.0  0.0724
  H  H53  1  0.631200  0.817800  0.116600  1.0  0.0713
  H  H54  1  0.627500  0.710500  0.142800  1.0  0.0731
  H  H55  1  0.262600  0.785600  0.184600  1.0  0.0908
  H  H56  1  0.381500  0.721000  0.129400  1.0  0.0888
  H  H57  1  0.585900  0.586800  0.565300  1.0  0.0865
  H  H58  1  0.510800  0.681800  0.616600  1.0  0.0989
  H  H59  1  0.477100  0.781700  0.685700  1.0  0.0799
  H  H60  1  0.655700  0.838500  0.488700  1.0  0.0973
  H  H61  1  0.670500  0.912300  0.559000  1.0  0.0967
  H  H62  1  0.631000  0.008300  0.628800  1.0  0.0666
  H  H63  1  0.890000  0.592900  0.300700  1.0  0.0768
  H  H64  1  0.706800  0.742000  0.421900  1.0  0.0989
  H  H65  1  0.893700  0.310200  0.253600  1.0  0.0715
  H  H66  1  0.817800  0.631200  0.383400  1.0  0.0708
  H  H67  1  0.710500  0.627500  0.357200  1.0  0.0737
  H  H68  1  0.785600  0.262600  0.315400  1.0  0.0899
  H  H69  1  0.721000  0.381500  0.370600  1.0  0.0883
  H  H70  1  0.414100  0.413200  0.565300  1.0  0.0863
  H  H71  1  0.489200  0.318200  0.616600  1.0  0.0983
  H  H72  1  0.522900  0.218300  0.685700  1.0  0.0796
  H  H73  1  0.344300  0.161500  0.488700  1.0  0.0958
  H  H74  1  0.329500  0.087700  0.559000  1.0  0.0969
  H  H75  1  0.369000  0.991700  0.628800  1.0  0.0671
  H  H76  1  0.110000  0.407100  0.300700  1.0  0.0783
  H  H77  1  0.293200  0.258000  0.421900  1.0  0.0988
  H  H78  1  0.106300  0.689800  0.253600  1.0  0.0712
  H  H79  1  0.182200  0.368800  0.383400  1.0  0.0721
  H  H80  1  0.289500  0.372500  0.357200  1.0  0.0733
  H  H81  1  0.214400  0.737400  0.315400  1.0  0.0893
  H  H82  1  0.279000  0.618500  0.370600  1.0  0.0881
  H  H83  1  0.586800  0.414100  0.065300  1.0  0.0858
  H  H84  1  0.681800  0.489200  0.116600  1.0  0.0982
  H  H85  1  0.781700  0.522900  0.185700  1.0  0.0797
  H  H86  1  0.838500  0.344300  0.988700  1.0  0.0992
  H  H87  1  0.912300  0.329500  0.059000  1.0  0.0967
  H  H88  1  0.008300  0.369000  0.128800  1.0  0.0663
  H  H89  1  0.592900  0.110000  0.800700  1.0  0.0773
  H  H90  1  0.742000  0.293200  0.921900  1.0  0.0993
  H  H91  1  0.310200  0.106300  0.753600  1.0  0.0722
  H  H92  1  0.631200  0.182200  0.883400  1.0  0.0715
  H  H93  1  0.627500  0.289500  0.857200  1.0  0.0732
  H  H94  1  0.262600  0.214400  0.815400  1.0  0.0909
  H  H95  1  0.381500  0.279000  0.870600  1.0  0.0882
  H  H96  1  0.413200  0.585900  0.065300  1.0  0.086
  H  H97  1  0.318200  0.510800  0.116600  1.0  0.0984
  H  H98  1  0.218300  0.477100  0.185700  1.0  0.0798
  H  H99  1  0.161500  0.655700  0.988700  1.0  0.1014
  H  H100  1  0.087700  0.670500  0.059000  1.0  0.0977
  H  H101  1  0.991700  0.631000  0.128800  1.0  0.0664
  H  H102  1  0.407100  0.890000  0.800700  1.0  0.0778
  H  H103  1  0.258000  0.706800  0.921900  1.0  0.0989
  H  H104  1  0.689800  0.893700  0.753600  1.0  0.0729
  H  H105  1  0.368800  0.817800  0.883400  1.0  0.0712
  H  H106  1  0.372500  0.710500  0.857200  1.0  0.0729
  H  H107  1  0.737400  0.785600  0.815400  1.0  0.0901
  H  H108  1  0.618500  0.721000  0.870600  1.0  0.0888
  C  C109  1  0.385900  0.617600  0.462810  1.0  -0.106
  C  C110  1  0.351000  0.555700  0.502270  1.0  0.0141
  C  C111  1  0.406200  0.786800  0.420980  1.0  0.0274
  C  C112  1  0.379500  0.722900  0.464720  1.0  -0.0129
  C  C113  1  0.464000  0.748200  0.381840  1.0  -0.1827
  C  C114  1  0.484400  0.808700  0.340310  1.0  0.1479
  C  C115  1  0.316000  0.605200  0.546130  1.0  0.2457
  C  C116  1  0.345900  0.767700  0.508860  1.0  -0.128
  C  C117  1  0.370100  0.884100  0.416060  1.0  -0.1833
  C  C118  1  0.393700  0.941800  0.373600  1.0  0.135
  C  C119  1  0.133500  0.526100  0.696480  1.0  0.0777
  C  C120  1  0.201000  0.503500  0.659440  1.0  0.0302
  C  C121  1  0.314900  0.710000  0.549020  1.0  -0.3021
  C  C122  1  0.130200  0.359300  0.724100  1.0  0.1311
  C  C123  1  0.238400  0.586800  0.625700  1.0  0.0154
  C  C124  1  0.195300  0.330800  0.687400  1.0  -0.1454
  C  C125  1  0.233400  0.400700  0.654400  1.0  -0.1446
  C  C126  1  0.614100  0.382400  0.462810  1.0  -0.1041
  C  C127  1  0.649000  0.444300  0.502270  1.0  0.0165
  C  C128  1  0.593800  0.213200  0.420980  1.0  0.0261
  C  C129  1  0.620500  0.277100  0.464720  1.0  -0.0141
  C  C130  1  0.536000  0.251800  0.381840  1.0  -0.1816
  C  C131  1  0.515600  0.191300  0.340310  1.0  0.1482
  C  C132  1  0.684000  0.394800  0.546130  1.0  0.2488
  C  C133  1  0.654100  0.232300  0.508860  1.0  -0.1268
  C  C134  1  0.629900  0.115900  0.416060  1.0  -0.183
  C  C135  1  0.606300  0.058200  0.373600  1.0  0.1356
  C  C136  1  0.866500  0.473900  0.696480  1.0  0.0778
  C  C137  1  0.799000  0.496500  0.659440  1.0  0.0315
  C  C138  1  0.685100  0.290000  0.549020  1.0  -0.3001
  C  C139  1  0.869800  0.640700  0.724100  1.0  0.1294
  C  C140  1  0.761600  0.413200  0.625700  1.0  0.013
  C  C141  1  0.804700  0.669200  0.687400  1.0  -0.1468
  C  C142  1  0.766600  0.599300  0.654400  1.0  -0.1428
  C  C143  1  0.382400  0.385900  0.962810  1.0  -0.1074
  C  C144  1  0.444300  0.351000  0.002270  1.0  0.0127
  C  C145  1  0.213200  0.406200  0.920980  1.0  0.0272
  C  C146  1  0.277100  0.379500  0.964720  1.0  -0.0134
  C  C147  1  0.251800  0.464000  0.881840  1.0  -0.1819
  C  C148  1  0.191300  0.484400  0.840310  1.0  0.1469
  C  C149  1  0.394800  0.316000  0.046130  1.0  0.2481
  C  C150  1  0.232300  0.345900  0.008860  1.0  -0.1273
  C  C151  1  0.115900  0.370100  0.916060  1.0  -0.1847
  C  C152  1  0.058200  0.393700  0.873600  1.0  0.1338
  C  C153  1  0.473900  0.133500  0.196480  1.0  0.078
  C  C154  1  0.496500  0.201000  0.159440  1.0  0.0317
  C  C155  1  0.290000  0.314900  0.049020  1.0  -0.303
  C  C156  1  0.640700  0.130200  0.224100  1.0  0.1325
  C  C157  1  0.413200  0.238400  0.125700  1.0  0.0131
  C  C158  1  0.669200  0.195300  0.187400  1.0  -0.1422
  C  C159  1  0.599300  0.233400  0.154400  1.0  -0.1464
  C  C160  1  0.617600  0.614100  0.962810  1.0  -0.106
  C  C161  1  0.555700  0.649000  0.002270  1.0  0.012
  C  C162  1  0.786800  0.593800  0.920980  1.0  0.0266
  C  C163  1  0.722900  0.620500  0.964720  1.0  -0.0126
  C  C164  1  0.748200  0.536000  0.881840  1.0  -0.1815
  C  C165  1  0.808700  0.515600  0.840310  1.0  0.1468
  C  C166  1  0.605200  0.684000  0.046130  1.0  0.2481
  C  C167  1  0.767700  0.654100  0.008860  1.0  -0.125
  C  C168  1  0.884100  0.629900  0.916060  1.0  -0.1849
  C  C169  1  0.941800  0.606300  0.873600  1.0  0.1337
  C  C170  1  0.526100  0.866500  0.196480  1.0  0.078
  C  C171  1  0.503500  0.799000  0.159440  1.0  0.031
  C  C172  1  0.710000  0.685100  0.049020  1.0  -0.2993
  C  C173  1  0.359300  0.869800  0.224100  1.0  0.1326
  C  C174  1  0.586800  0.761600  0.125700  1.0  0.0133
  C  C175  1  0.330800  0.804700  0.187400  1.0  -0.1451
  C  C176  1  0.400700  0.766600  0.154400  1.0  -0.1464
  C  C177  1  0.614100  0.617600  0.537190  1.0  -0.1037
  C  C178  1  0.649000  0.555700  0.497730  1.0  0.0155
  C  C179  1  0.593800  0.786800  0.579020  1.0  0.0263
  C  C180  1  0.620500  0.722900  0.535280  1.0  -0.0146
  C  C181  1  0.536000  0.748200  0.618160  1.0  -0.1806
  C  C182  1  0.515600  0.808700  0.659690  1.0  0.148
  C  C183  1  0.684000  0.605200  0.453870  1.0  0.248
  C  C184  1  0.654100  0.767700  0.491140  1.0  -0.127
  C  C185  1  0.629900  0.884100  0.583940  1.0  -0.184
  C  C186  1  0.606300  0.941800  0.626400  1.0  0.135
  C  C187  1  0.866500  0.526100  0.303520  1.0  0.0778
  C  C188  1  0.799000  0.503500  0.340560  1.0  0.0306
  C  C189  1  0.685100  0.710000  0.450980  1.0  -0.2983
  C  C190  1  0.869800  0.359300  0.275900  1.0  0.1289
  C  C191  1  0.761600  0.586800  0.374300  1.0  0.0163
  C  C192  1  0.804700  0.330800  0.312600  1.0  -0.147
  C  C193  1  0.766600  0.400700  0.345600  1.0  -0.1438
  C  C194  1  0.385900  0.382400  0.537190  1.0  -0.1045
  C  C195  1  0.351000  0.444300  0.497730  1.0  0.0145
  C  C196  1  0.406200  0.213200  0.579020  1.0  0.0271
  C  C197  1  0.379500  0.277100  0.535280  1.0  -0.0131
  C  C198  1  0.464000  0.251800  0.618160  1.0  -0.1823
  C  C199  1  0.484400  0.191300  0.659690  1.0  0.1476
  C  C200  1  0.316000  0.394800  0.453870  1.0  0.2471
  C  C201  1  0.345900  0.232300  0.491140  1.0  -0.1272
  C  C202  1  0.370100  0.115900  0.583940  1.0  -0.1837
  C  C203  1  0.393700  0.058200  0.626400  1.0  0.1346
  C  C204  1  0.133500  0.473900  0.303520  1.0  0.0776
  C  C205  1  0.201000  0.496500  0.340560  1.0  0.0314
  C  C206  1  0.314900  0.290000  0.450980  1.0  -0.3039
  C  C207  1  0.130200  0.640700  0.275900  1.0  0.1299
  C  C208  1  0.238400  0.413200  0.374300  1.0  0.0122
  C  C209  1  0.195300  0.669200  0.312600  1.0  -0.1454
  C  C210  1  0.233400  0.599300  0.345600  1.0  -0.1446
  C  C211  1  0.617600  0.385900  0.037190  1.0  -0.1049
  C  C212  1  0.555700  0.351000  0.997730  1.0  0.0122
  C  C213  1  0.786800  0.406200  0.079020  1.0  0.0264
  C  C214  1  0.722900  0.379500  0.035280  1.0  -0.0136
  C  C215  1  0.748200  0.464000  0.118160  1.0  -0.1816
  C  C216  1  0.808700  0.484400  0.159690  1.0  0.1456
  C  C217  1  0.605200  0.316000  0.953870  1.0  0.2483
  C  C218  1  0.767700  0.345900  0.991140  1.0  -0.1252
  C  C219  1  0.884100  0.370100  0.083940  1.0  -0.1856
  C  C220  1  0.941800  0.393700  0.126400  1.0  0.1334
  C  C221  1  0.526100  0.133500  0.803520  1.0  0.0778
  C  C222  1  0.503500  0.201000  0.840560  1.0  0.0314
  C  C223  1  0.710000  0.314900  0.950980  1.0  -0.3013
  C  C224  1  0.359300  0.130200  0.775900  1.0  0.1321
  C  C225  1  0.586800  0.238400  0.874300  1.0  0.013
  C  C226  1  0.330800  0.195300  0.812600  1.0  -0.1452
  C  C227  1  0.400700  0.233400  0.845600  1.0  -0.1466
  C  C228  1  0.382400  0.614100  0.037190  1.0  -0.106
  C  C229  1  0.444300  0.649000  0.997730  1.0  0.0124
  C  C230  1  0.213200  0.593800  0.079020  1.0  0.0273
  C  C231  1  0.277100  0.620500  0.035280  1.0  -0.0128
  C  C232  1  0.251800  0.536000  0.118160  1.0  -0.181
  C  C233  1  0.191300  0.515600  0.159690  1.0  0.1477
  C  C234  1  0.394800  0.684000  0.953870  1.0  0.249
  C  C235  1  0.232300  0.654100  0.991140  1.0  -0.1248
  C  C236  1  0.115900  0.629900  0.083940  1.0  -0.1857
  C  C237  1  0.058200  0.606300  0.126400  1.0  0.1329
  C  C238  1  0.473900  0.866500  0.803520  1.0  0.0777
  C  C239  1  0.496500  0.799000  0.840560  1.0  0.0312
  C  C240  1  0.290000  0.685100  0.950980  1.0  -0.3014
  C  C241  1  0.640700  0.869800  0.775900  1.0  0.1312
  C  C242  1  0.413200  0.761600  0.874300  1.0  0.0132
  C  C243  1  0.669200  0.804700  0.812600  1.0  -0.1422
  C  C244  1  0.599300  0.766600  0.845600  1.0  -0.1467
  N  N245  1  0.449900  0.904900  0.336880  1.0  -0.3241
  N  N246  1  0.099200  0.455900  0.729180  1.0  -0.3233
  N  N247  1  0.550100  0.095100  0.336880  1.0  -0.3255
  N  N248  1  0.900800  0.544100  0.729180  1.0  -0.3241
  N  N249  1  0.095100  0.449900  0.836880  1.0  -0.322
  N  N250  1  0.544100  0.099200  0.229180  1.0  -0.3243
  N  N251  1  0.904900  0.550100  0.836880  1.0  -0.3223
  N  N252  1  0.455900  0.900800  0.229180  1.0  -0.3237
  N  N253  1  0.550100  0.904900  0.663120  1.0  -0.3226
  N  N254  1  0.900800  0.455900  0.270820  1.0  -0.3249
  N  N255  1  0.449900  0.095100  0.663120  1.0  -0.3219
  N  N256  1  0.099200  0.544100  0.270820  1.0  -0.3242
  N  N257  1  0.904900  0.449900  0.163120  1.0  -0.3187
  N  N258  1  0.455900  0.099200  0.770820  1.0  -0.325
  N  N259  1  0.095100  0.550100  0.163120  1.0  -0.3202
  N  N260  1  0.544100  0.900800  0.770820  1.0  -0.3251
  O  O261  1  0.280500  0.543200  0.583230  1.0  -0.2835
  O  O262  1  0.719500  0.456800  0.583230  1.0  -0.2833
  O  O263  1  0.456800  0.280500  0.083230  1.0  -0.2862
  O  O264  1  0.543200  0.719500  0.083230  1.0  -0.2846
  O  O265  1  0.719500  0.543200  0.416770  1.0  -0.2838
  O  O266  1  0.280500  0.456800  0.416770  1.0  -0.2823
  O  O267  1  0.543200  0.280500  0.916770  1.0  -0.2847
  O  O268  1  0.456800  0.719500  0.916770  1.0  -0.285
