# generated using pymatgen
data_HoH17C30(NO3)2
_symmetry_space_group_name_H-M   'P 1'
_cell_length_a   10.80200000
_cell_length_b   12.14300000
_cell_length_c   12.24500000
_cell_angle_alpha   94.03100000
_cell_angle_beta   106.64100000
_cell_angle_gamma   101.35600000
_symmetry_Int_Tables_number   1
_chemical_formula_structural   HoH17C30(NO3)2
_chemical_formula_sum   'Ho2 H34 C60 N4 O12'
_cell_volume   1494.98021746
_cell_formula_units_Z   2
loop_
 _symmetry_equiv_pos_site_id
 _symmetry_equiv_pos_as_xyz
  1  'x, y, z'
loop_
 _atom_site_type_symbol
 _atom_site_label
 _atom_site_symmetry_multiplicity
 _atom_site_fract_x
 _atom_site_fract_y
 _atom_site_fract_z
 _atom_site_occupancy
 _atom_site_charge
  Ho  Ho1  1  0.917000  0.190340  0.001880  1.0  2.1208
  Ho  Ho2  1  0.083000  0.809660  0.998120  1.0  2.1204
  H  H3  1  0.978100  0.185900  0.713600  1.0  0.1213
  H  H4  1  0.981400  0.210400  0.531300  1.0  0.0971
  H  H5  1  0.013800  0.866500  0.660900  1.0  0.0982
  H  H6  1  0.107900  0.466700  0.336800  1.0  0.0991
  H  H7  1  0.238400  0.606500  0.510100  1.0  0.113
  H  H8  1  0.742800  0.302600  0.316100  1.0  0.1008
  H  H9  1  0.398200  0.330500  0.091800  1.0  0.1024
  H  H10  1  0.639700  0.413100  0.168600  1.0  0.0989
  H  H11  1  0.179300  0.457300  0.831200  1.0  0.099
  H  H12  1  0.717300  0.933300  0.977400  1.0  0.0741
  H  H13  1  0.500800  0.828600  0.907200  1.0  0.1124
  H  H14  1  0.338200  0.910700  0.803000  1.0  0.1091
  H  H15  1  0.275700  0.079600  0.713100  1.0  0.0955
  H  H16  1  0.334000  0.262300  0.689300  1.0  0.1126
  H  H17  1  0.514700  0.435800  0.707100  1.0  0.1202
  H  H18  1  0.733200  0.524100  0.779200  1.0  0.1242
  H  H19  1  0.881300  0.430800  0.884000  1.0  0.0714
  H  H20  1  0.021900  0.814100  0.286400  1.0  0.1213
  H  H21  1  0.018600  0.789600  0.468700  1.0  0.0968
  H  H22  1  0.986200  0.133500  0.339100  1.0  0.0982
  H  H23  1  0.892100  0.533300  0.663200  1.0  0.099
  H  H24  1  0.761600  0.393500  0.489900  1.0  0.1127
  H  H25  1  0.257200  0.697400  0.683900  1.0  0.1001
  H  H26  1  0.601800  0.669500  0.908200  1.0  0.1004
  H  H27  1  0.360300  0.586900  0.831400  1.0  0.0988
  H  H28  1  0.820700  0.542700  0.168800  1.0  0.0992
  H  H29  1  0.282700  0.066700  0.022600  1.0  0.0745
  H  H30  1  0.499200  0.171400  0.092800  1.0  0.1129
  H  H31  1  0.661800  0.089300  0.197000  1.0  0.1094
  H  H32  1  0.724300  0.920400  0.286900  1.0  0.0953
  H  H33  1  0.666000  0.737700  0.310700  1.0  0.1119
  H  H34  1  0.485300  0.564200  0.292900  1.0  0.1209
  H  H35  1  0.266800  0.475900  0.220800  1.0  0.1253
  H  H36  1  0.118700  0.569200  0.116000  1.0  0.0716
  C  C37  1  0.991600  0.006000  0.823400  1.0  0.7912
  C  C38  1  0.993500  0.020700  0.703300  1.0  -0.1514
  C  C39  1  0.984800  0.126400  0.665100  1.0  -0.0682
  C  C40  1  0.986400  0.140300  0.556100  1.0  -0.132
  C  C41  1  0.995500  0.052800  0.480400  1.0  0.0382
  C  C42  1  0.005200  0.935000  0.633500  1.0  -0.0884
  C  C43  1  0.912000  0.317500  0.193300  1.0  0.6565
  C  C44  1  0.925000  0.376600  0.309200  1.0  -0.1235
  C  C45  1  0.038400  0.452300  0.368100  1.0  -0.0865
  C  C46  1  0.052500  0.510300  0.477600  1.0  0.0267
  C  C47  1  0.168100  0.590500  0.540400  1.0  -0.1204
  C  C48  1  0.820700  0.355100  0.356400  1.0  -0.0671
  C  C49  1  0.149700  0.306100  0.972700  1.0  0.669
  C  C50  1  0.270300  0.381000  0.964200  1.0  -0.1466
  C  C51  1  0.391200  0.382600  0.039400  1.0  -0.1112
  C  C52  1  0.505200  0.461000  0.039700  1.0  0.0346
  C  C53  1  0.630900  0.464900  0.116100  1.0  -0.1352
  C  C54  1  0.260900  0.458700  0.884300  1.0  -0.0591
  C  C55  1  0.651900  0.967200  0.935900  1.0  0.2053
  C  C56  1  0.521700  0.903400  0.893500  1.0  -0.1728
  C  C57  1  0.425600  0.952100  0.831800  1.0  -0.0158
  C  C58  1  0.458300  0.062900  0.811900  1.0  -0.0002
  C  C59  1  0.363400  0.119000  0.745600  1.0  -0.0923
  C  C60  1  0.398500  0.226700  0.729500  1.0  -0.1045
  C  C61  1  0.531600  0.287600  0.772200  1.0  -0.0232
  C  C62  1  0.575200  0.398600  0.750600  1.0  -0.0243
  C  C63  1  0.703800  0.450500  0.792600  1.0  -0.1627
  C  C64  1  0.792300  0.393700  0.856100  1.0  0.2049
  C  C65  1  0.628300  0.234300  0.836200  1.0  0.1823
  C  C66  1  0.589700  0.120900  0.858500  1.0  0.1825
  C  C67  1  0.008400  0.994000  0.176600  1.0  0.7945
  C  C68  1  0.006500  0.979300  0.296700  1.0  -0.1527
  C  C69  1  0.015200  0.873600  0.334900  1.0  -0.0664
  C  C70  1  0.013600  0.859700  0.443900  1.0  -0.1314
  C  C71  1  0.004500  0.947200  0.519600  1.0  0.0379
  C  C72  1  0.994800  0.065000  0.366500  1.0  -0.0877
  C  C73  1  0.088000  0.682500  0.806700  1.0  0.658
  C  C74  1  0.075000  0.623400  0.690800  1.0  -0.1231
  C  C75  1  0.961600  0.547700  0.631900  1.0  -0.0844
  C  C76  1  0.947500  0.489700  0.522400  1.0  0.0263
  C  C77  1  0.831900  0.409500  0.459600  1.0  -0.1291
  C  C78  1  0.179300  0.644900  0.643600  1.0  -0.0687
  C  C79  1  0.850300  0.693900  0.027300  1.0  0.6687
  C  C80  1  0.729700  0.619000  0.035800  1.0  -0.1473
  C  C81  1  0.608800  0.617400  0.960600  1.0  -0.1161
  C  C82  1  0.494800  0.539000  0.960300  1.0  0.0351
  C  C83  1  0.369100  0.535100  0.883900  1.0  -0.1409
  C  C84  1  0.739100  0.541300  0.115700  1.0  -0.0604
  C  C85  1  0.348100  0.032800  0.064100  1.0  0.204
  C  C86  1  0.478300  0.096600  0.106500  1.0  -0.1725
  C  C87  1  0.574400  0.047900  0.168200  1.0  -0.0144
  C  C88  1  0.541700  0.937100  0.188100  1.0  0.0185
  C  C89  1  0.636600  0.881000  0.254400  1.0  -0.0912
  C  C90  1  0.601500  0.773300  0.270500  1.0  -0.1042
  C  C91  1  0.468400  0.712400  0.227800  1.0  -0.0198
  C  C92  1  0.424800  0.601400  0.249400  1.0  -0.0284
  C  C93  1  0.296200  0.549500  0.207400  1.0  -0.1604
  C  C94  1  0.207700  0.606300  0.143900  1.0  0.2043
  C  C95  1  0.371700  0.765700  0.163800  1.0  0.1829
  C  C96  1  0.410300  0.879100  0.141500  1.0  0.1854
  N  N97  1  0.685800  0.073200  0.919700  1.0  -0.4547
  N  N98  1  0.757600  0.289100  0.879800  1.0  -0.4772
  N  N99  1  0.314200  0.926800  0.080300  1.0  -0.4564
  N  N100  1  0.242400  0.710900  0.120200  1.0  -0.4783
  O  O101  1  0.932000  0.065600  0.866700  1.0  -0.7216
  O  O102  1  0.045600  0.932900  0.871700  1.0  -0.7311
  O  O103  1  0.009100  0.337600  0.154900  1.0  -0.6644
  O  O104  1  0.808700  0.248500  0.138400  1.0  -0.6322
  O  O105  1  0.038000  0.318500  0.913400  1.0  -0.6603
  O  O106  1  0.156700  0.230000  0.038700  1.0  -0.6374
  O  O107  1  0.068000  0.934400  0.133300  1.0  -0.7228
  O  O108  1  0.954400  0.067100  0.128300  1.0  -0.7301
  O  O109  1  0.990900  0.662400  0.845100  1.0  -0.6664
  O  O110  1  0.191300  0.751500  0.861600  1.0  -0.6326
  O  O111  1  0.962000  0.681500  0.086600  1.0  -0.6601
  O  O112  1  0.843300  0.770000  0.961300  1.0  -0.636
