# generated using pymatgen
data_TbH17C30(NO3)2
_symmetry_space_group_name_H-M   'P 1'
_cell_length_a   10.78220000
_cell_length_b   12.18060000
_cell_length_c   12.33690000
_cell_angle_alpha   94.20280000
_cell_angle_beta   106.30500000
_cell_angle_gamma   100.91900000
_symmetry_Int_Tables_number   1
_chemical_formula_structural   TbH17C30(NO3)2
_chemical_formula_sum   'Tb2 H34 C60 N4 O12'
_cell_volume   1513.12038829
_cell_formula_units_Z   2
loop_
 _symmetry_equiv_pos_site_id
 _symmetry_equiv_pos_as_xyz
  1  'x, y, z'
loop_
 _atom_site_type_symbol
 _atom_site_label
 _atom_site_symmetry_multiplicity
 _atom_site_fract_x
 _atom_site_fract_y
 _atom_site_fract_z
 _atom_site_occupancy
 _atom_site_charge
  Tb  Tb1  1  0.912830  0.190310  0.001220  1.0  2.2074
  Tb  Tb2  1  0.087170  0.809690  0.998780  1.0  2.2087
  H  H3  1  0.706600  0.932600  0.973100  1.0  0.068
  H  H4  1  0.491300  0.830300  0.900900  1.0  0.0928
  H  H5  1  0.328600  0.913200  0.800700  1.0  0.1075
  H  H6  1  0.267100  0.085800  0.713500  1.0  0.0918
  H  H7  1  0.329000  0.268000  0.686500  1.0  0.105
  H  H8  1  0.510600  0.440700  0.708700  1.0  0.1077
  H  H9  1  0.729800  0.527300  0.780100  1.0  0.1109
  H  H10  1  0.878300  0.432500  0.885200  1.0  0.0642
  H  H11  1  0.741900  0.302000  0.319700  1.0  0.0914
  H  H12  1  0.762400  0.390400  0.493900  1.0  0.1084
  H  H13  1  0.103800  0.470800  0.334000  1.0  0.0919
  H  H14  1  0.177000  0.457400  0.832100  1.0  0.096
  H  H15  1  0.359800  0.589800  0.832600  1.0  0.0978
  H  H16  1  0.397500  0.325500  0.087100  1.0  0.092
  H  H17  1  0.969400  0.182800  0.711400  1.0  0.0957
  H  H18  1  0.973200  0.209700  0.530300  1.0  0.0922
  H  H19  1  0.016300  0.866300  0.660100  1.0  0.0899
  H  H20  1  0.293400  0.067400  0.026900  1.0  0.0678
  H  H21  1  0.508700  0.169700  0.099100  1.0  0.0936
  H  H22  1  0.671400  0.086800  0.199300  1.0  0.1077
  H  H23  1  0.732900  0.914200  0.286500  1.0  0.0917
  H  H24  1  0.671000  0.732000  0.313500  1.0  0.1051
  H  H25  1  0.489400  0.559300  0.291300  1.0  0.1083
  H  H26  1  0.270200  0.472700  0.219900  1.0  0.1122
  H  H27  1  0.121700  0.567500  0.114800  1.0  0.0643
  H  H28  1  0.258100  0.698000  0.680300  1.0  0.091
  H  H29  1  0.237600  0.609600  0.506100  1.0  0.1083
  H  H30  1  0.896200  0.529200  0.666000  1.0  0.0917
  H  H31  1  0.823000  0.542600  0.167900  1.0  0.0961
  H  H32  1  0.640200  0.410200  0.167400  1.0  0.0975
  H  H33  1  0.602500  0.674500  0.912900  1.0  0.0936
  H  H34  1  0.030600  0.817200  0.288600  1.0  0.0952
  H  H35  1  0.026800  0.790300  0.469700  1.0  0.0922
  H  H36  1  0.983700  0.133700  0.339900  1.0  0.0901
  C  C37  1  0.642300  0.967500  0.931900  1.0  0.1793
  C  C38  1  0.512100  0.905100  0.888600  1.0  -0.1137
  C  C39  1  0.415900  0.953700  0.828500  1.0  -0.0376
  C  C40  1  0.450100  0.067100  0.808700  1.0  0.0042
  C  C41  1  0.355200  0.123800  0.744200  1.0  -0.1081
  C  C42  1  0.392400  0.232100  0.727300  1.0  -0.108
  C  C43  1  0.526800  0.292100  0.771100  1.0  0.0466
  C  C44  1  0.570700  0.402800  0.751100  1.0  -0.0404
  C  C45  1  0.700200  0.454200  0.793300  1.0  -0.1761
  C  C46  1  0.789400  0.396200  0.857000  1.0  0.165
  C  C47  1  0.622400  0.239700  0.836000  1.0  0.1348
  C  C48  1  0.582400  0.123600  0.855400  1.0  0.1431
  C  C49  1  0.908100  0.320700  0.193200  1.0  0.6232
  C  C50  1  0.922200  0.377800  0.309100  1.0  -0.1484
  C  C51  1  0.819300  0.354500  0.358800  1.0  -0.0675
  C  C52  1  0.831500  0.407200  0.462400  1.0  -0.1448
  C  C53  1  0.035700  0.455200  0.366900  1.0  -0.0575
  C  C54  1  0.948400  0.488000  0.524400  1.0  0.022
  C  C55  1  0.147500  0.303900  0.969600  1.0  0.6525
  C  C56  1  0.271100  0.381200  0.963600  1.0  -0.1557
  C  C57  1  0.258900  0.459200  0.884200  1.0  -0.046
  C  C58  1  0.368300  0.537500  0.884000  1.0  -0.0749
  C  C59  1  0.390800  0.379500  0.037400  1.0  -0.0543
  C  C60  1  0.494000  0.539700  0.961100  1.0  0.0093
  C  C61  1  0.989800  0.004300  0.821900  1.0  0.7272
  C  C62  1  0.993100  0.020300  0.702600  1.0  -0.0918
  C  C63  1  0.979500  0.124700  0.663500  1.0  -0.0611
  C  C64  1  0.980900  0.140300  0.555100  1.0  -0.0951
  C  C65  1  0.006600  0.934400  0.632900  1.0  -0.0692
  C  C66  1  0.993900  0.053000  0.481000  1.0  0.0293
  C  C67  1  0.357700  0.032500  0.068100  1.0  0.1776
  C  C68  1  0.487900  0.094900  0.111400  1.0  -0.1127
  C  C69  1  0.584100  0.046300  0.171500  1.0  -0.0388
  C  C70  1  0.549900  0.932900  0.191300  1.0  0.0085
  C  C71  1  0.644800  0.876200  0.255800  1.0  -0.1066
  C  C72  1  0.607600  0.767900  0.272700  1.0  -0.11
  C  C73  1  0.473200  0.707900  0.228900  1.0  0.0465
  C  C74  1  0.429300  0.597200  0.248900  1.0  -0.0438
  C  C75  1  0.299800  0.545800  0.206700  1.0  -0.1746
  C  C76  1  0.210600  0.603800  0.143000  1.0  0.1655
  C  C77  1  0.377600  0.760300  0.164000  1.0  0.1358
  C  C78  1  0.417600  0.876400  0.144600  1.0  0.1445
  C  C79  1  0.091900  0.679300  0.806800  1.0  0.6254
  C  C80  1  0.077800  0.622200  0.690900  1.0  -0.1477
  C  C81  1  0.180700  0.645500  0.641200  1.0  -0.0702
  C  C82  1  0.168500  0.592800  0.537600  1.0  -0.1462
  C  C83  1  0.964300  0.544800  0.633100  1.0  -0.0566
  C  C84  1  0.051600  0.512000  0.475600  1.0  0.0216
  C  C85  1  0.852500  0.696100  0.030400  1.0  0.6535
  C  C86  1  0.728900  0.618800  0.036400  1.0  -0.1554
  C  C87  1  0.741100  0.540800  0.115800  1.0  -0.0471
  C  C88  1  0.631700  0.462500  0.116000  1.0  -0.0759
  C  C89  1  0.609200  0.620500  0.962600  1.0  -0.0586
  C  C90  1  0.506000  0.460300  0.038900  1.0  0.0092
  C  C91  1  0.010200  0.995700  0.178100  1.0  0.7301
  C  C92  1  0.006900  0.979700  0.297400  1.0  -0.0921
  C  C93  1  0.020500  0.875300  0.336500  1.0  -0.0619
  C  C94  1  0.019100  0.859700  0.444900  1.0  -0.0941
  C  C95  1  0.993400  0.065600  0.367100  1.0  -0.0711
  C  C96  1  0.006100  0.947000  0.519000  1.0  0.029
  N  N97  1  0.678300  0.074300  0.917000  1.0  -0.4362
  N  N98  1  0.753000  0.291400  0.879200  1.0  -0.4325
  N  N99  1  0.321700  0.925700  0.083000  1.0  -0.4385
  N  N100  1  0.247000  0.708600  0.120800  1.0  -0.4318
  O  O101  1  0.804700  0.249200  0.139100  1.0  -0.6717
  O  O102  1  0.003100  0.344200  0.151300  1.0  -0.649
  O  O103  1  0.037000  0.316100  0.910300  1.0  -0.6318
  O  O104  1  0.155800  0.229500  0.037000  1.0  -0.6662
  O  O105  1  0.928600  0.063200  0.865300  1.0  -0.709
  O  O106  1  0.049200  0.933700  0.870800  1.0  -0.694
  O  O107  1  0.195300  0.750800  0.860900  1.0  -0.673
  O  O108  1  0.996900  0.655800  0.848700  1.0  -0.6504
  O  O109  1  0.963000  0.683900  0.089700  1.0  -0.6318
  O  O110  1  0.844200  0.770500  0.963000  1.0  -0.67
  O  O111  1  0.071400  0.936800  0.134700  1.0  -0.7174
  O  O112  1  0.950800  0.066300  0.129200  1.0  -0.6927
