# generated using pymatgen
data_YbH17C30(NO3)2
_symmetry_space_group_name_H-M   'P 1'
_cell_length_a   10.87620000
_cell_length_b   12.22940000
_cell_length_c   12.33280000
_cell_angle_alpha   93.93170000
_cell_angle_beta   106.67400000
_cell_angle_gamma   101.26100000
_symmetry_Int_Tables_number   1
_chemical_formula_structural   YbH17C30(NO3)2
_chemical_formula_sum   'Yb2 H34 C60 N4 O12'
_cell_volume   1527.53897313
_cell_formula_units_Z   2
loop_
 _symmetry_equiv_pos_site_id
 _symmetry_equiv_pos_as_xyz
  1  'x, y, z'
loop_
 _atom_site_type_symbol
 _atom_site_label
 _atom_site_symmetry_multiplicity
 _atom_site_fract_x
 _atom_site_fract_y
 _atom_site_fract_z
 _atom_site_occupancy
 _atom_site_charge
  Yb  Yb1  1  0.915980  0.190280  0.001880  1.0  1.2683
  Yb  Yb2  1  0.084020  0.809720  0.998120  1.0  1.2674
  H  H3  1  0.711100  0.933300  0.974300  1.0  0.0782
  H  H4  1  0.495600  0.829500  0.904200  1.0  0.1255
  H  H5  1  0.335600  0.911100  0.802200  1.0  0.1128
  H  H6  1  0.273400  0.083700  0.713800  1.0  0.0961
  H  H7  1  0.330200  0.262600  0.689400  1.0  0.1128
  H  H8  1  0.512100  0.435700  0.709600  1.0  0.1138
  H  H9  1  0.730800  0.524300  0.777900  1.0  0.1363
  H  H10  1  0.878100  0.430100  0.883700  1.0  0.0845
  H  H11  1  0.744100  0.301200  0.317900  1.0  0.1084
  H  H12  1  0.760400  0.393800  0.488700  1.0  0.1196
  H  H13  1  0.104900  0.467400  0.337100  1.0  0.1014
  H  H14  1  0.178200  0.458900  0.834700  1.0  0.1051
  H  H15  1  0.360400  0.588600  0.831400  1.0  0.1037
  H  H16  1  0.396500  0.328100  0.088100  1.0  0.1014
  H  H17  1  0.975800  0.185100  0.711200  1.0  0.12
  H  H18  1  0.980300  0.209900  0.529400  1.0  0.1037
  H  H19  1  0.013400  0.867000  0.660600  1.0  0.1058
  H  H20  1  0.288900  0.066700  0.025700  1.0  0.0781
  H  H21  1  0.504400  0.170500  0.095800  1.0  0.1261
  H  H22  1  0.664400  0.088900  0.197800  1.0  0.1128
  H  H23  1  0.726600  0.916300  0.286200  1.0  0.0958
  H  H24  1  0.669800  0.737400  0.310600  1.0  0.1122
  H  H25  1  0.487900  0.564300  0.290400  1.0  0.1143
  H  H26  1  0.269200  0.475700  0.222100  1.0  0.1379
  H  H27  1  0.121900  0.569900  0.116300  1.0  0.0847
  H  H28  1  0.255900  0.698800  0.682100  1.0  0.1081
  H  H29  1  0.239600  0.606200  0.511300  1.0  0.1196
  H  H30  1  0.895100  0.532600  0.662900  1.0  0.1014
  H  H31  1  0.821800  0.541100  0.165300  1.0  0.1057
  H  H32  1  0.639600  0.411400  0.168600  1.0  0.1036
  H  H33  1  0.603500  0.671900  0.911900  1.0  0.1029
  H  H34  1  0.024200  0.814900  0.288800  1.0  0.1202
  H  H35  1  0.019700  0.790100  0.470600  1.0  0.1035
  H  H36  1  0.986600  0.133000  0.339400  1.0  0.1058
  C  C37  1  0.646600  0.967600  0.933100  1.0  0.1968
  C  C38  1  0.516400  0.903800  0.890800  1.0  -0.1771
  C  C39  1  0.422300  0.952200  0.830400  1.0  -0.0211
  C  C40  1  0.453900  0.064900  0.809400  1.0  -0.0099
  C  C41  1  0.360800  0.122100  0.745200  1.0  -0.077
  C  C42  1  0.394800  0.227600  0.729000  1.0  -0.1057
  C  C43  1  0.529500  0.290000  0.771200  1.0  -0.0133
  C  C44  1  0.572700  0.398300  0.751500  1.0  -0.0112
  C  C45  1  0.701900  0.451500  0.792100  1.0  -0.1831
  C  C46  1  0.789600  0.393700  0.855500  1.0  0.1979
  C  C47  1  0.625200  0.237000  0.836600  1.0  0.1686
  C  C48  1  0.587100  0.121900  0.856200  1.0  0.1561
  C  C49  1  0.911600  0.318400  0.194200  1.0  0.6496
  C  C50  1  0.924800  0.376900  0.310800  1.0  -0.1158
  C  C51  1  0.820600  0.354200  0.357500  1.0  -0.0631
  C  C52  1  0.830700  0.408600  0.459300  1.0  -0.1189
  C  C53  1  0.036400  0.452800  0.368900  1.0  -0.0476
  C  C54  1  0.948200  0.489000  0.522800  1.0  0.0268
  C  C55  1  0.148700  0.306400  0.971200  1.0  0.6656
  C  C56  1  0.271600  0.383300  0.965600  1.0  -0.1337
  C  C57  1  0.260000  0.460200  0.886200  1.0  -0.0208
  C  C58  1  0.369100  0.537400  0.884100  1.0  -0.0842
  C  C59  1  0.390300  0.381700  0.038000  1.0  -0.0499
  C  C60  1  0.494000  0.540100  0.960500  1.0  0.0277
  C  C61  1  0.991000  0.005900  0.822600  1.0  0.7347
  C  C62  1  0.994400  0.022000  0.702800  1.0  -0.1132
  C  C63  1  0.983800  0.126300  0.663600  1.0  -0.054
  C  C64  1  0.985500  0.140600  0.554600  1.0  -0.0763
  C  C65  1  0.005400  0.935100  0.633100  1.0  -0.0808
  C  C66  1  0.995100  0.052900  0.480600  1.0  0.0348
  C  C67  1  0.353400  0.032400  0.066900  1.0  0.1957
  C  C68  1  0.483600  0.096200  0.109200  1.0  -0.178
  C  C69  1  0.577700  0.047800  0.169600  1.0  -0.0228
  C  C70  1  0.546100  0.935100  0.190600  1.0  -0.0066
  C  C71  1  0.639200  0.877900  0.254800  1.0  -0.075
  C  C72  1  0.605200  0.772400  0.271000  1.0  -0.106
  C  C73  1  0.470500  0.710000  0.228800  1.0  -0.0111
  C  C74  1  0.427300  0.601700  0.248500  1.0  -0.0204
  C  C75  1  0.298100  0.548500  0.207900  1.0  -0.1805
  C  C76  1  0.210400  0.606300  0.144500  1.0  0.1977
  C  C77  1  0.374800  0.763000  0.163400  1.0  0.1702
  C  C78  1  0.412900  0.878100  0.143800  1.0  0.1565
  C  C79  1  0.088400  0.681600  0.805800  1.0  0.6554
  C  C80  1  0.075200  0.623100  0.689200  1.0  -0.1153
  C  C81  1  0.179400  0.645800  0.642500  1.0  -0.0674
  C  C82  1  0.169300  0.591400  0.540700  1.0  -0.1186
  C  C83  1  0.963600  0.547200  0.631100  1.0  -0.0499
  C  C84  1  0.051800  0.511000  0.477200  1.0  0.0261
  C  C85  1  0.851300  0.693600  0.028800  1.0  0.6683
  C  C86  1  0.728400  0.616700  0.034400  1.0  -0.1341
  C  C87  1  0.740000  0.539800  0.113800  1.0  -0.0222
  C  C88  1  0.630900  0.462600  0.115900  1.0  -0.0845
  C  C89  1  0.609700  0.618300  0.962000  1.0  -0.054
  C  C90  1  0.506000  0.459900  0.039500  1.0  0.0282
  C  C91  1  0.009000  0.994100  0.177400  1.0  0.7361
  C  C92  1  0.005600  0.978000  0.297200  1.0  -0.1148
  C  C93  1  0.016200  0.873700  0.336400  1.0  -0.0537
  C  C94  1  0.014500  0.859400  0.445400  1.0  -0.0765
  C  C95  1  0.994600  0.064900  0.366900  1.0  -0.0781
  C  C96  1  0.004900  0.947100  0.519400  1.0  0.0345
  N  N97  1  0.682400  0.073100  0.917800  1.0  -0.3671
  N  N98  1  0.754700  0.289900  0.878000  1.0  -0.3988
  N  N99  1  0.317600  0.926900  0.082200  1.0  -0.3672
  N  N100  1  0.245300  0.710100  0.122000  1.0  -0.3967
  O  O101  1  0.808300  0.248600  0.139800  1.0  -0.5977
  O  O102  1  0.008500  0.339000  0.155700  1.0  -0.5868
  O  O103  1  0.039100  0.318700  0.913300  1.0  -0.5728
  O  O104  1  0.157300  0.230900  0.037900  1.0  -0.5922
  O  O105  1  0.930700  0.065400  0.864800  1.0  -0.6657
  O  O106  1  0.046700  0.934700  0.871300  1.0  -0.6125
  O  O107  1  0.191700  0.751400  0.860200  1.0  -0.5981
  O  O108  1  0.991500  0.661000  0.844300  1.0  -0.5877
  O  O109  1  0.960900  0.681300  0.086700  1.0  -0.5743
  O  O110  1  0.842700  0.769100  0.962100  1.0  -0.5915
  O  O111  1  0.069300  0.934600  0.135200  1.0  -0.6776
  O  O112  1  0.953300  0.065300  0.128700  1.0  -0.612
