# generated using pymatgen
data_MgH6C16(NO4)2
_symmetry_space_group_name_H-M   'P 1'
_cell_length_a   10.76210000
_cell_length_b   21.24840000
_cell_length_c   15.56670000
_cell_angle_alpha   90.00000000
_cell_angle_beta   102.88100000
_cell_angle_gamma   90.00000000
_symmetry_Int_Tables_number   1
_chemical_formula_structural   MgH6C16(NO4)2
_chemical_formula_sum   'Mg4 H24 C64 N8 O32'
_cell_volume   3470.17201326
_cell_formula_units_Z   4
loop_
 _symmetry_equiv_pos_site_id
 _symmetry_equiv_pos_as_xyz
  1  'x, y, z'
loop_
 _atom_site_type_symbol
 _atom_site_label
 _atom_site_symmetry_multiplicity
 _atom_site_fract_x
 _atom_site_fract_y
 _atom_site_fract_z
 _atom_site_occupancy
 _atom_site_charge
  Mg  Mg1  1  0.000000  0.148600  0.250000  1.0  1.6224
  Mg  Mg2  1  0.500000  0.648600  0.250000  1.0  1.6224
  Mg  Mg3  1  0.000000  0.851400  0.750000  1.0  1.6213
  Mg  Mg4  1  0.500000  0.351400  0.750000  1.0  1.6213
  H  H5  1  0.897900  0.250400  0.013000  1.0  0.1024
  H  H6  1  0.098700  0.394900  0.139100  1.0  0.1274
  H  H7  1  0.853700  0.423500  0.906800  1.0  0.1181
  H  H8  1  0.397900  0.750400  0.013000  1.0  0.1024
  H  H9  1  0.598700  0.894900  0.139100  1.0  0.1274
  H  H10  1  0.353700  0.923500  0.906800  1.0  0.1181
  H  H11  1  0.102100  0.250400  0.487000  1.0  0.1018
  H  H12  1  0.901300  0.394900  0.360900  1.0  0.1278
  H  H13  1  0.146300  0.423500  0.593200  1.0  0.1178
  H  H14  1  0.602100  0.750400  0.487000  1.0  0.1018
  H  H15  1  0.401300  0.894900  0.360900  1.0  0.1278
  H  H16  1  0.646300  0.923500  0.593200  1.0  0.1178
  H  H17  1  0.102100  0.749600  0.987000  1.0  0.1016
  H  H18  1  0.901300  0.605100  0.860900  1.0  0.1274
  H  H19  1  0.146300  0.576500  0.093200  1.0  0.1179
  H  H20  1  0.602100  0.249600  0.987000  1.0  0.1016
  H  H21  1  0.401300  0.105100  0.860900  1.0  0.1274
  H  H22  1  0.646300  0.076500  0.093200  1.0  0.1179
  H  H23  1  0.897900  0.749600  0.513000  1.0  0.1022
  H  H24  1  0.098700  0.605100  0.639100  1.0  0.1273
  H  H25  1  0.853700  0.576500  0.406800  1.0  0.1177
  H  H26  1  0.397900  0.249600  0.513000  1.0  0.1022
  H  H27  1  0.598700  0.105100  0.639100  1.0  0.1273
  H  H28  1  0.353700  0.076500  0.406800  1.0  0.1177
  C  C29  1  0.918270  0.292990  0.015980  1.0  -0.0088
  C  C30  1  0.039000  0.379280  0.091230  1.0  -0.0653
  C  C31  1  0.892300  0.396350  0.951760  1.0  0.0086
  C  C32  1  0.859990  0.333230  0.947970  1.0  -0.0876
  C  C33  1  0.982800  0.419020  0.023060  1.0  0.1812
  C  C34  1  0.006010  0.316020  0.087710  1.0  -0.1457
  C  C35  1  0.063900  0.273510  0.164190  1.0  0.6868
  C  C36  1  0.762300  0.309850  0.870010  1.0  0.7301
  C  C37  1  0.418270  0.792990  0.015980  1.0  -0.0088
  C  C38  1  0.539000  0.879280  0.091230  1.0  -0.0653
  C  C39  1  0.392300  0.896350  0.951760  1.0  0.0086
  C  C40  1  0.359990  0.833230  0.947970  1.0  -0.0876
  C  C41  1  0.482800  0.919020  0.023060  1.0  0.1812
  C  C42  1  0.506010  0.816020  0.087710  1.0  -0.1457
  C  C43  1  0.563900  0.773510  0.164190  1.0  0.6868
  C  C44  1  0.262300  0.809850  0.870010  1.0  0.7301
  C  C45  1  0.081730  0.292990  0.484020  1.0  -0.0084
  C  C46  1  0.961000  0.379280  0.408770  1.0  -0.0639
  C  C47  1  0.107700  0.396350  0.548240  1.0  0.0088
  C  C48  1  0.140010  0.333230  0.552030  1.0  -0.0863
  C  C49  1  0.017200  0.419020  0.476940  1.0  0.1814
  C  C50  1  0.993990  0.316020  0.412290  1.0  -0.1462
  C  C51  1  0.936100  0.273510  0.335810  1.0  0.6869
  C  C52  1  0.237700  0.309850  0.629990  1.0  0.7304
  C  C53  1  0.581730  0.792990  0.484020  1.0  -0.0084
  C  C54  1  0.461000  0.879280  0.408770  1.0  -0.0639
  C  C55  1  0.607700  0.896350  0.548240  1.0  0.0088
  C  C56  1  0.640010  0.833230  0.552030  1.0  -0.0863
  C  C57  1  0.517200  0.919020  0.476940  1.0  0.1814
  C  C58  1  0.493990  0.816020  0.412290  1.0  -0.1462
  C  C59  1  0.436100  0.773510  0.335810  1.0  0.6869
  C  C60  1  0.737700  0.809850  0.629990  1.0  0.7304
  C  C61  1  0.081730  0.707010  0.984020  1.0  -0.0083
  C  C62  1  0.961000  0.620720  0.908770  1.0  -0.0632
  C  C63  1  0.107700  0.603650  0.048240  1.0  0.0096
  C  C64  1  0.140010  0.666770  0.052030  1.0  -0.0869
  C  C65  1  0.017200  0.580980  0.976940  1.0  0.1872
  C  C66  1  0.993990  0.683980  0.912290  1.0  -0.1463
  C  C67  1  0.936100  0.726490  0.835810  1.0  0.6873
  C  C68  1  0.237700  0.690150  0.129990  1.0  0.7299
  C  C69  1  0.581730  0.207010  0.984020  1.0  -0.0083
  C  C70  1  0.461000  0.120720  0.908770  1.0  -0.0632
  C  C71  1  0.607700  0.103650  0.048240  1.0  0.0096
  C  C72  1  0.640010  0.166770  0.052030  1.0  -0.0869
  C  C73  1  0.517200  0.080980  0.976940  1.0  0.1872
  C  C74  1  0.493990  0.183980  0.912290  1.0  -0.1463
  C  C75  1  0.436100  0.226490  0.835810  1.0  0.6873
  C  C76  1  0.737700  0.190150  0.129990  1.0  0.7299
  C  C77  1  0.918270  0.707010  0.515980  1.0  -0.0098
  C  C78  1  0.039000  0.620720  0.591230  1.0  -0.0636
  C  C79  1  0.892300  0.603650  0.451760  1.0  0.0091
  C  C80  1  0.859990  0.666770  0.447970  1.0  -0.0878
  C  C81  1  0.982800  0.580980  0.523060  1.0  0.1872
  C  C82  1  0.006010  0.683980  0.587710  1.0  -0.1461
  C  C83  1  0.063900  0.726490  0.664190  1.0  0.6864
  C  C84  1  0.762300  0.690150  0.370010  1.0  0.7306
  C  C85  1  0.418270  0.207010  0.515980  1.0  -0.0098
  C  C86  1  0.539000  0.120720  0.591230  1.0  -0.0636
  C  C87  1  0.392300  0.103650  0.451760  1.0  0.0091
  C  C88  1  0.359990  0.166770  0.447970  1.0  -0.0878
  C  C89  1  0.482800  0.080980  0.523060  1.0  0.1872
  C  C90  1  0.506010  0.183980  0.587710  1.0  -0.1461
  C  C91  1  0.563900  0.226490  0.664190  1.0  0.6864
  C  C92  1  0.262300  0.190150  0.370010  1.0  0.7306
  N  N93  1  0.023260  0.483340  0.032400  1.0  -0.1599
  N  N94  1  0.523260  0.983340  0.032400  1.0  -0.1599
  N  N95  1  0.976740  0.483340  0.467600  1.0  -0.1623
  N  N96  1  0.476740  0.983340  0.467600  1.0  -0.1623
  N  N97  1  0.976740  0.516660  0.967600  1.0  -0.1625
  N  N98  1  0.476740  0.016660  0.967600  1.0  -0.1625
  N  N99  1  0.023260  0.516660  0.532400  1.0  -0.1601
  N  N100  1  0.523260  0.016660  0.532400  1.0  -0.1601
  O  O101  1  0.032800  0.217900  0.163090  1.0  -0.6305
  O  O102  1  0.142320  0.301380  0.226650  1.0  -0.5181
  O  O103  1  0.765660  0.251010  0.855990  1.0  -0.5336
  O  O104  1  0.688390  0.348420  0.825520  1.0  -0.6224
  O  O105  1  0.532800  0.717900  0.163090  1.0  -0.6305
  O  O106  1  0.642320  0.801380  0.226650  1.0  -0.5181
  O  O107  1  0.265660  0.751010  0.855990  1.0  -0.5336
  O  O108  1  0.188390  0.848420  0.825520  1.0  -0.6224
  O  O109  1  0.967200  0.217900  0.336910  1.0  -0.6289
  O  O110  1  0.857680  0.301380  0.273350  1.0  -0.5154
  O  O111  1  0.234340  0.251010  0.644010  1.0  -0.5335
  O  O112  1  0.311610  0.348420  0.674480  1.0  -0.6214
  O  O113  1  0.467200  0.717900  0.336910  1.0  -0.6289
  O  O114  1  0.357680  0.801380  0.273350  1.0  -0.5154
  O  O115  1  0.734340  0.751010  0.644010  1.0  -0.5335
  O  O116  1  0.811610  0.848420  0.674480  1.0  -0.6214
  O  O117  1  0.967200  0.782100  0.836910  1.0  -0.6302
  O  O118  1  0.857680  0.698620  0.773350  1.0  -0.5155
  O  O119  1  0.234340  0.748990  0.144010  1.0  -0.5342
  O  O120  1  0.311610  0.651580  0.174480  1.0  -0.6224
  O  O121  1  0.467200  0.282100  0.836910  1.0  -0.6302
  O  O122  1  0.357680  0.198620  0.773350  1.0  -0.5155
  O  O123  1  0.734340  0.248990  0.144010  1.0  -0.5342
  O  O124  1  0.811610  0.151580  0.174480  1.0  -0.6224
  O  O125  1  0.032800  0.782100  0.663090  1.0  -0.6284
  O  O126  1  0.142320  0.698620  0.726650  1.0  -0.5176
  O  O127  1  0.765660  0.748990  0.355990  1.0  -0.5315
  O  O128  1  0.688390  0.651580  0.325520  1.0  -0.6217
  O  O129  1  0.532800  0.282100  0.663090  1.0  -0.6284
  O  O130  1  0.642320  0.198620  0.726650  1.0  -0.5176
  O  O131  1  0.265660  0.248990  0.355990  1.0  -0.5315
  O  O132  1  0.188390  0.151580  0.325520  1.0  -0.6217
