# generated using pymatgen
data_Co2H7C15N4O5
_symmetry_space_group_name_H-M   'P 1'
_cell_length_a   34.79100000
_cell_length_b   10.29000000
_cell_length_c   13.66900000
_cell_angle_alpha   90.00000000
_cell_angle_beta   112.96400000
_cell_angle_gamma   90.00000000
_symmetry_Int_Tables_number   1
_chemical_formula_structural   Co2H7C15N4O5
_chemical_formula_sum   'Co16 H56 C120 N32 O40'
_cell_volume   4505.68514725
_cell_formula_units_Z   8
loop_
 _symmetry_equiv_pos_site_id
 _symmetry_equiv_pos_as_xyz
  1  'x, y, z'
loop_
 _atom_site_type_symbol
 _atom_site_label
 _atom_site_symmetry_multiplicity
 _atom_site_fract_x
 _atom_site_fract_y
 _atom_site_fract_z
 _atom_site_occupancy
 _atom_site_charge
  Co  Co1  1  0.096970  0.006080  0.471050  1.0  1.0103
  Co  Co2  1  0.596970  0.506080  0.471050  1.0  1.0103
  Co  Co3  1  0.903030  0.006080  0.028950  1.0  1.0088
  Co  Co4  1  0.403030  0.506080  0.028950  1.0  1.0088
  Co  Co5  1  0.903030  0.993920  0.528950  1.0  1.009
  Co  Co6  1  0.403030  0.493920  0.528950  1.0  1.009
  Co  Co7  1  0.096970  0.993920  0.971050  1.0  1.0107
  Co  Co8  1  0.596970  0.493920  0.971050  1.0  1.0107
  Co  Co9  1  0.000000  0.020700  0.250000  1.0  1.0169
  Co  Co10  1  0.500000  0.520700  0.250000  1.0  1.0169
  Co  Co11  1  0.000000  0.979300  0.750000  1.0  1.0175
  Co  Co12  1  0.500000  0.479300  0.750000  1.0  1.0175
  Co  Co13  1  0.000000  0.000000  0.500000  1.0  1.022
  Co  Co14  1  0.500000  0.500000  0.500000  1.0  1.022
  Co  Co15  1  0.000000  0.000000  0.000000  1.0  1.022
  Co  Co16  1  0.500000  0.500000  0.000000  1.0  1.022
  H  H17  1  0.314100  0.186500  0.445000  1.0  0.0999
  H  H18  1  0.413000  0.952800  0.540800  1.0  0.1003
  H  H19  1  0.298600  0.798900  0.423200  1.0  0.1106
  H  H20  1  0.244800  0.894400  0.241200  1.0  0.1283
  H  H21  1  0.243900  0.107000  0.487100  1.0  0.0946
  H  H22  1  0.172900  0.115400  0.414500  1.0  0.1069
  H  H23  1  0.172600  0.895400  0.170900  1.0  0.1118
  H  H24  1  0.814100  0.686500  0.445000  1.0  0.0999
  H  H25  1  0.913000  0.452800  0.540800  1.0  0.1003
  H  H26  1  0.798600  0.298900  0.423200  1.0  0.1106
  H  H27  1  0.744800  0.394400  0.241200  1.0  0.1283
  H  H28  1  0.743900  0.607000  0.487100  1.0  0.0946
  H  H29  1  0.672900  0.615400  0.414500  1.0  0.1069
  H  H30  1  0.672600  0.395400  0.170900  1.0  0.1118
  H  H31  1  0.685900  0.186500  0.055000  1.0  0.0997
  H  H32  1  0.587000  0.952800  0.959200  1.0  0.1006
  H  H33  1  0.701400  0.798900  0.076800  1.0  0.1105
  H  H34  1  0.755200  0.894400  0.258800  1.0  0.1278
  H  H35  1  0.756100  0.107000  0.012900  1.0  0.0948
  H  H36  1  0.827100  0.115400  0.085500  1.0  0.1068
  H  H37  1  0.827400  0.895400  0.329100  1.0  0.1123
  H  H38  1  0.185900  0.686500  0.055000  1.0  0.0997
  H  H39  1  0.087000  0.452800  0.959200  1.0  0.1006
  H  H40  1  0.201400  0.298900  0.076800  1.0  0.1105
  H  H41  1  0.255200  0.394400  0.258800  1.0  0.1278
  H  H42  1  0.256100  0.607000  0.012900  1.0  0.0948
  H  H43  1  0.327100  0.615400  0.085500  1.0  0.1068
  H  H44  1  0.327400  0.395400  0.329100  1.0  0.1123
  H  H45  1  0.685900  0.813500  0.555000  1.0  0.0999
  H  H46  1  0.587000  0.047200  0.459200  1.0  0.1006
  H  H47  1  0.701400  0.201100  0.576800  1.0  0.1106
  H  H48  1  0.755200  0.105600  0.758800  1.0  0.1275
  H  H49  1  0.756100  0.893000  0.512900  1.0  0.0953
  H  H50  1  0.827100  0.884600  0.585500  1.0  0.1069
  H  H51  1  0.827400  0.104600  0.829100  1.0  0.1117
  H  H52  1  0.185900  0.313500  0.555000  1.0  0.0999
  H  H53  1  0.087000  0.547200  0.459200  1.0  0.1006
  H  H54  1  0.201400  0.701100  0.576800  1.0  0.1106
  H  H55  1  0.255200  0.605600  0.758800  1.0  0.1275
  H  H56  1  0.256100  0.393000  0.512900  1.0  0.0953
  H  H57  1  0.327100  0.384600  0.585500  1.0  0.1069
  H  H58  1  0.327400  0.604600  0.829100  1.0  0.1117
  H  H59  1  0.314100  0.813500  0.945000  1.0  0.0999
  H  H60  1  0.413000  0.047200  0.040800  1.0  0.1002
  H  H61  1  0.298600  0.201100  0.923200  1.0  0.1106
  H  H62  1  0.244800  0.105600  0.741200  1.0  0.1281
  H  H63  1  0.243900  0.893000  0.987100  1.0  0.0951
  H  H64  1  0.172900  0.884600  0.914500  1.0  0.107
  H  H65  1  0.172600  0.104600  0.670900  1.0  0.1124
  H  H66  1  0.814100  0.313500  0.945000  1.0  0.0999
  H  H67  1  0.913000  0.547200  0.040800  1.0  0.1002
  H  H68  1  0.798600  0.701100  0.923200  1.0  0.1106
  H  H69  1  0.744800  0.605600  0.741200  1.0  0.1281
  H  H70  1  0.743900  0.393000  0.987100  1.0  0.0951
  H  H71  1  0.672900  0.384600  0.914500  1.0  0.107
  H  H72  1  0.672600  0.604600  0.670900  1.0  0.1124
  C  C73  1  0.299300  0.988900  0.423800  1.0  -0.0151
  C  C74  1  0.378200  0.719300  0.508900  1.0  0.6825
  C  C75  1  0.325900  0.104000  0.453900  1.0  -0.097
  C  C76  1  0.384100  0.961900  0.510600  1.0  0.0165
  C  C77  1  0.315600  0.872100  0.440100  1.0  -0.0881
  C  C78  1  0.366800  0.089900  0.493800  1.0  -0.0766
  C  C79  1  0.361600  0.858700  0.485800  1.0  -0.0612
  C  C80  1  0.252400  0.002900  0.375000  1.0  0.0445
  C  C81  1  0.230300  0.937000  0.276000  1.0  -0.0993
  C  C82  1  0.229700  0.066000  0.422400  1.0  -0.1081
  C  C83  1  0.118800  0.013700  0.242300  1.0  0.3206
  C  C84  1  0.165700  0.013700  0.290400  1.0  -0.0526
  C  C85  1  0.186800  0.071000  0.379200  1.0  -0.0948
  C  C86  1  0.187600  0.939000  0.233700  1.0  -0.0929
  C  C87  1  0.396000  0.202700  0.525000  1.0  0.67
  C  C88  1  0.799300  0.488900  0.423800  1.0  -0.0151
  C  C89  1  0.878200  0.219300  0.508900  1.0  0.6825
  C  C90  1  0.825900  0.604000  0.453900  1.0  -0.097
  C  C91  1  0.884100  0.461900  0.510600  1.0  0.0165
  C  C92  1  0.815600  0.372100  0.440100  1.0  -0.0881
  C  C93  1  0.866800  0.589900  0.493800  1.0  -0.0766
  C  C94  1  0.861600  0.358700  0.485800  1.0  -0.0612
  C  C95  1  0.752400  0.502900  0.375000  1.0  0.0445
  C  C96  1  0.730300  0.437000  0.276000  1.0  -0.0993
  C  C97  1  0.729700  0.566000  0.422400  1.0  -0.1081
  C  C98  1  0.618800  0.513700  0.242300  1.0  0.3206
  C  C99  1  0.665700  0.513700  0.290400  1.0  -0.0526
  C  C100  1  0.686800  0.571000  0.379200  1.0  -0.0948
  C  C101  1  0.687600  0.439000  0.233700  1.0  -0.0929
  C  C102  1  0.896000  0.702700  0.525000  1.0  0.67
  C  C103  1  0.700700  0.988900  0.076200  1.0  -0.0149
  C  C104  1  0.621800  0.719300  0.991100  1.0  0.6819
  C  C105  1  0.674100  0.104000  0.046100  1.0  -0.097
  C  C106  1  0.615900  0.961900  0.989400  1.0  0.0153
  C  C107  1  0.684400  0.872100  0.059900  1.0  -0.0892
  C  C108  1  0.633200  0.089900  0.006200  1.0  -0.0806
  C  C109  1  0.638400  0.858700  0.014200  1.0  -0.06
  C  C110  1  0.747600  0.002900  0.125000  1.0  0.0448
  C  C111  1  0.769700  0.937000  0.224000  1.0  -0.101
  C  C112  1  0.770300  0.066000  0.077600  1.0  -0.1096
  C  C113  1  0.881200  0.013700  0.257700  1.0  0.32
  C  C114  1  0.834300  0.013700  0.209600  1.0  -0.0508
  C  C115  1  0.813200  0.071000  0.120800  1.0  -0.0934
  C  C116  1  0.812400  0.939000  0.266300  1.0  -0.0926
  C  C117  1  0.604000  0.202700  0.975000  1.0  0.6692
  C  C118  1  0.200700  0.488900  0.076200  1.0  -0.0149
  C  C119  1  0.121800  0.219300  0.991100  1.0  0.6819
  C  C120  1  0.174100  0.604000  0.046100  1.0  -0.097
  C  C121  1  0.115900  0.461900  0.989400  1.0  0.0153
  C  C122  1  0.184400  0.372100  0.059900  1.0  -0.0892
  C  C123  1  0.133200  0.589900  0.006200  1.0  -0.0806
  C  C124  1  0.138400  0.358700  0.014200  1.0  -0.06
  C  C125  1  0.247600  0.502900  0.125000  1.0  0.0448
  C  C126  1  0.269700  0.437000  0.224000  1.0  -0.101
  C  C127  1  0.270300  0.566000  0.077600  1.0  -0.1096
  C  C128  1  0.381200  0.513700  0.257700  1.0  0.32
  C  C129  1  0.334300  0.513700  0.209600  1.0  -0.0508
  C  C130  1  0.313200  0.571000  0.120800  1.0  -0.0934
  C  C131  1  0.312400  0.439000  0.266300  1.0  -0.0926
  C  C132  1  0.104000  0.702700  0.975000  1.0  0.6692
  C  C133  1  0.700700  0.011100  0.576200  1.0  -0.0147
  C  C134  1  0.621800  0.280700  0.491100  1.0  0.6831
  C  C135  1  0.674100  0.896000  0.546100  1.0  -0.0969
  C  C136  1  0.615900  0.038100  0.489400  1.0  0.0151
  C  C137  1  0.684400  0.127900  0.559900  1.0  -0.0901
  C  C138  1  0.633200  0.910100  0.506200  1.0  -0.0792
  C  C139  1  0.638400  0.141300  0.514200  1.0  -0.0605
  C  C140  1  0.747600  0.997100  0.625000  1.0  0.0449
  C  C141  1  0.769700  0.063000  0.724000  1.0  -0.1011
  C  C142  1  0.770300  0.934000  0.577600  1.0  -0.11
  C  C143  1  0.881200  0.986300  0.757700  1.0  0.3198
  C  C144  1  0.834300  0.986300  0.709600  1.0  -0.0506
  C  C145  1  0.813200  0.929000  0.620800  1.0  -0.094
  C  C146  1  0.812400  0.061000  0.766300  1.0  -0.0932
  C  C147  1  0.604000  0.797300  0.475000  1.0  0.6677
  C  C148  1  0.200700  0.511100  0.576200  1.0  -0.0147
  C  C149  1  0.121800  0.780700  0.491100  1.0  0.6831
  C  C150  1  0.174100  0.396000  0.546100  1.0  -0.0969
  C  C151  1  0.115900  0.538100  0.489400  1.0  0.0151
  C  C152  1  0.184400  0.627900  0.559900  1.0  -0.0901
  C  C153  1  0.133200  0.410100  0.506200  1.0  -0.0792
  C  C154  1  0.138400  0.641300  0.514200  1.0  -0.0605
  C  C155  1  0.247600  0.497100  0.625000  1.0  0.0449
  C  C156  1  0.269700  0.563000  0.724000  1.0  -0.1011
  C  C157  1  0.270300  0.434000  0.577600  1.0  -0.11
  C  C158  1  0.381200  0.486300  0.757700  1.0  0.3198
  C  C159  1  0.334300  0.486300  0.709600  1.0  -0.0506
  C  C160  1  0.313200  0.429000  0.620800  1.0  -0.094
  C  C161  1  0.312400  0.561000  0.766300  1.0  -0.0932
  C  C162  1  0.104000  0.297300  0.475000  1.0  0.6677
  C  C163  1  0.299300  0.011100  0.923800  1.0  -0.015
  C  C164  1  0.378200  0.280700  0.008900  1.0  0.6832
  C  C165  1  0.325900  0.896000  0.953900  1.0  -0.0977
  C  C166  1  0.384100  0.038100  0.010600  1.0  0.0162
  C  C167  1  0.315600  0.127900  0.940100  1.0  -0.0892
  C  C168  1  0.366800  0.910100  0.993800  1.0  -0.0759
  C  C169  1  0.361600  0.141300  0.985800  1.0  -0.063
  C  C170  1  0.252400  0.997100  0.875000  1.0  0.0446
  C  C171  1  0.230300  0.063000  0.776000  1.0  -0.0992
  C  C172  1  0.229700  0.934000  0.922400  1.0  -0.1085
  C  C173  1  0.118800  0.986300  0.742300  1.0  0.3205
  C  C174  1  0.165700  0.986300  0.790400  1.0  -0.0523
  C  C175  1  0.186800  0.929000  0.879200  1.0  -0.0954
  C  C176  1  0.187600  0.061000  0.733700  1.0  -0.0925
  C  C177  1  0.396000  0.797300  0.025000  1.0  0.669
  C  C178  1  0.799300  0.511100  0.923800  1.0  -0.015
  C  C179  1  0.878200  0.780700  0.008900  1.0  0.6832
  C  C180  1  0.825900  0.396000  0.953900  1.0  -0.0977
  C  C181  1  0.884100  0.538100  0.010600  1.0  0.0162
  C  C182  1  0.815600  0.627900  0.940100  1.0  -0.0892
  C  C183  1  0.866800  0.410100  0.993800  1.0  -0.0759
  C  C184  1  0.861600  0.641300  0.985800  1.0  -0.063
  C  C185  1  0.752400  0.497100  0.875000  1.0  0.0446
  C  C186  1  0.730300  0.563000  0.776000  1.0  -0.0992
  C  C187  1  0.729700  0.434000  0.922400  1.0  -0.1085
  C  C188  1  0.618800  0.486300  0.742300  1.0  0.3205
  C  C189  1  0.665700  0.486300  0.790400  1.0  -0.0523
  C  C190  1  0.686800  0.429000  0.879200  1.0  -0.0954
  C  C191  1  0.687600  0.561000  0.733700  1.0  -0.0925
  C  C192  1  0.896000  0.297300  0.025000  1.0  0.669
  N  N193  1  0.096100  0.013800  0.299800  1.0  -0.2778
  N  N194  1  0.056300  0.011500  0.227900  1.0  -0.0441
  N  N195  1  0.056000  0.010100  0.133100  1.0  -0.0636
  N  N196  1  0.095800  0.004700  0.139800  1.0  -0.2741
  N  N197  1  0.596100  0.513800  0.299800  1.0  -0.2778
  N  N198  1  0.556300  0.511500  0.227900  1.0  -0.0441
  N  N199  1  0.556000  0.510100  0.133100  1.0  -0.0636
  N  N200  1  0.595800  0.504700  0.139800  1.0  -0.2741
  N  N201  1  0.903900  0.013800  0.200200  1.0  -0.2774
  N  N202  1  0.943700  0.011500  0.272100  1.0  -0.045
  N  N203  1  0.944000  0.010100  0.366900  1.0  -0.0655
  N  N204  1  0.904200  0.004700  0.360200  1.0  -0.2743
  N  N205  1  0.403900  0.513800  0.200200  1.0  -0.2774
  N  N206  1  0.443700  0.511500  0.272100  1.0  -0.045
  N  N207  1  0.444000  0.510100  0.366900  1.0  -0.0655
  N  N208  1  0.404200  0.504700  0.360200  1.0  -0.2743
  N  N209  1  0.903900  0.986200  0.700200  1.0  -0.2774
  N  N210  1  0.943700  0.988500  0.772100  1.0  -0.0449
  N  N211  1  0.944000  0.989900  0.866900  1.0  -0.0655
  N  N212  1  0.904200  0.995300  0.860200  1.0  -0.2744
  N  N213  1  0.403900  0.486200  0.700200  1.0  -0.2774
  N  N214  1  0.443700  0.488500  0.772100  1.0  -0.0449
  N  N215  1  0.444000  0.489900  0.866900  1.0  -0.0655
  N  N216  1  0.404200  0.495300  0.860200  1.0  -0.2744
  N  N217  1  0.096100  0.986200  0.799800  1.0  -0.2778
  N  N218  1  0.056300  0.988500  0.727900  1.0  -0.0441
  N  N219  1  0.056000  0.989900  0.633100  1.0  -0.0637
  N  N220  1  0.095800  0.995300  0.639800  1.0  -0.274
  N  N221  1  0.596100  0.486200  0.799800  1.0  -0.2778
  N  N222  1  0.556300  0.488500  0.727900  1.0  -0.0441
  N  N223  1  0.556000  0.489900  0.633100  1.0  -0.0637
  N  N224  1  0.595800  0.495300  0.639800  1.0  -0.274
  O  O225  1  0.418400  0.706600  0.547700  1.0  -0.581
  O  O226  1  0.034700  0.052100  0.409500  1.0  -0.8452
  O  O227  1  0.377800  0.317400  0.498600  1.0  -0.6095
  O  O228  1  0.354100  0.625500  0.484200  1.0  -0.5472
  O  O229  1  0.434100  0.190200  0.565800  1.0  -0.4824
  O  O230  1  0.918400  0.206600  0.547700  1.0  -0.581
  O  O231  1  0.534700  0.552100  0.409500  1.0  -0.8452
  O  O232  1  0.877800  0.817400  0.498600  1.0  -0.6095
  O  O233  1  0.854100  0.125500  0.484200  1.0  -0.5472
  O  O234  1  0.934100  0.690200  0.565800  1.0  -0.4824
  O  O235  1  0.581600  0.706600  0.952300  1.0  -0.5795
  O  O236  1  0.965300  0.052100  0.090500  1.0  -0.8462
  O  O237  1  0.622200  0.317400  0.001400  1.0  -0.6093
  O  O238  1  0.645900  0.625500  0.015800  1.0  -0.5472
  O  O239  1  0.565900  0.190200  0.934200  1.0  -0.4817
  O  O240  1  0.081600  0.206600  0.952300  1.0  -0.5795
  O  O241  1  0.465300  0.552100  0.090500  1.0  -0.8462
  O  O242  1  0.122200  0.817400  0.001400  1.0  -0.6093
  O  O243  1  0.145900  0.125500  0.015800  1.0  -0.5472
  O  O244  1  0.065900  0.690200  0.934200  1.0  -0.4817
  O  O245  1  0.581600  0.293400  0.452300  1.0  -0.5784
  O  O246  1  0.965300  0.947900  0.590500  1.0  -0.8463
  O  O247  1  0.622200  0.682600  0.501400  1.0  -0.6091
  O  O248  1  0.645900  0.374500  0.515800  1.0  -0.5473
  O  O249  1  0.565900  0.809800  0.434200  1.0  -0.483
  O  O250  1  0.081600  0.793400  0.452300  1.0  -0.5784
  O  O251  1  0.465300  0.447900  0.590500  1.0  -0.8463
  O  O252  1  0.122200  0.182600  0.501400  1.0  -0.6091
  O  O253  1  0.145900  0.874500  0.515800  1.0  -0.5473
  O  O254  1  0.065900  0.309800  0.434200  1.0  -0.483
  O  O255  1  0.418400  0.293400  0.047700  1.0  -0.5807
  O  O256  1  0.034700  0.947900  0.909500  1.0  -0.8457
  O  O257  1  0.377800  0.682600  0.998600  1.0  -0.6099
  O  O258  1  0.354100  0.374500  0.984200  1.0  -0.5478
  O  O259  1  0.434100  0.809800  0.065800  1.0  -0.4828
  O  O260  1  0.918400  0.793400  0.047700  1.0  -0.5807
  O  O261  1  0.534700  0.447900  0.909500  1.0  -0.8457
  O  O262  1  0.877800  0.182600  0.998600  1.0  -0.6099
  O  O263  1  0.854100  0.874500  0.984200  1.0  -0.5478
  O  O264  1  0.934100  0.309800  0.065800  1.0  -0.4828
