# generated using pymatgen
data_Mn5H110C162(N4O13)2
_symmetry_space_group_name_H-M   'P 1'
_cell_length_a   13.02030000
_cell_length_b   19.77600000
_cell_length_c   20.82740000
_cell_angle_alpha   61.93200000
_cell_angle_beta   73.26800000
_cell_angle_gamma   80.16200000
_symmetry_Int_Tables_number   1
_chemical_formula_structural   Mn5H110C162(N4O13)2
_chemical_formula_sum   'Mn5 H110 C162 N8 O26'
_cell_volume   4527.78392138
_cell_formula_units_Z   1
loop_
 _symmetry_equiv_pos_site_id
 _symmetry_equiv_pos_as_xyz
  1  'x, y, z'
loop_
 _atom_site_type_symbol
 _atom_site_label
 _atom_site_symmetry_multiplicity
 _atom_site_fract_x
 _atom_site_fract_y
 _atom_site_fract_z
 _atom_site_occupancy
 _atom_site_charge
  Mn  Mn1  1  0.915450  0.797650  0.099580  1.0  1.1205
  Mn  Mn2  1  0.706610  0.701940  0.096200  1.0  1.0874
  Mn  Mn3  1  0.084550  0.202350  0.900420  1.0  1.1195
  Mn  Mn4  1  0.293390  0.298060  0.903800  1.0  1.0848
  Mn  Mn5  1  0.000000  0.000000  0.000000  1.0  1.1515
  H  H6  1  0.295700  0.542400  0.356200  1.0  0.337
  H  H7  1  0.142900  0.729900  0.962600  1.0  0.1123
  H  H8  1  0.335500  0.913800  0.744500  1.0  0.0994
  H  H9  1  0.527400  0.821300  0.581800  1.0  0.119
  H  H10  1  0.951600  0.880100  0.908500  1.0  0.1026
  H  H11  1  0.199600  0.735400  0.740100  1.0  0.0995
  H  H12  1  0.258000  0.939800  0.845400  1.0  0.1037
  H  H13  1  0.909200  0.730500  0.841500  1.0  0.1129
  H  H14  1  0.217400  0.705000  0.862100  1.0  0.1165
  H  H15  1  0.466000  0.842600  0.686000  1.0  0.0981
  H  H16  1  0.236300  0.342800  0.270200  1.0  0.1115
  H  H17  1  0.046400  0.587800  0.351600  1.0  0.1107
  H  H18  1  0.076900  0.583500  0.539000  1.0  0.1217
  H  H19  1  0.732100  0.867400  0.229200  1.0  0.0966
  H  H20  1  0.068400  0.577500  0.226800  1.0  0.1038
  H  H21  1  0.646800  0.943600  0.285900  1.0  0.0969
  H  H22  1  0.315400  0.223600  0.327800  1.0  0.1095
  H  H23  1  0.149300  0.459800  0.285300  1.0  0.1127
  H  H24  1  0.515900  0.953700  0.392500  1.0  0.1007
  H  H25  1  0.869400  0.630100  0.375400  1.0  0.1128
  H  H26  1  0.549100  0.652700  0.622400  1.0  0.122
  H  H27  1  0.147800  0.970000  0.491000  1.0  0.0906
  H  H28  1  0.038600  0.957400  0.788600  1.0  0.1181
  H  H29  1  0.743900  0.735000  0.378300  1.0  0.106
  H  H30  1  0.408500  0.014800  0.460100  1.0  0.113
  H  H31  1  0.302600  0.868900  0.492900  1.0  0.0916
  H  H32  1  0.723700  0.609200  0.596700  1.0  0.1088
  H  H33  1  0.122800  0.966300  0.182100  1.0  0.0975
  H  H34  1  0.259500  0.714000  0.637500  1.0  0.108
  H  H35  1  0.184700  0.901300  0.419300  1.0  0.0995
  H  H36  1  0.035500  0.148900  0.471600  1.0  0.0967
  H  H37  1  0.067200  0.886800  0.610800  1.0  0.1026
  H  H38  1  0.954900  0.267600  0.411800  1.0  0.1018
  H  H39  1  0.991800  0.811100  0.720400  1.0  0.1065
  H  H40  1  0.571000  0.782900  0.403500  1.0  0.1119
  H  H41  1  0.200700  0.939000  0.277800  1.0  0.106
  H  H42  1  0.229500  0.109900  0.310600  1.0  0.1084
  H  H43  1  0.900600  0.360000  0.295300  1.0  0.097
  H  H44  1  0.340200  0.050300  0.241200  1.0  0.1135
  H  H45  1  0.265800  0.709000  0.399500  1.0  0.1014
  H  H46  1  0.821800  0.478100  0.234600  1.0  0.1098
  H  H47  1  0.903100  0.627100  0.560900  1.0  0.1008
  H  H48  1  0.972500  0.772200  0.304800  1.0  0.0876
  H  H49  1  0.055500  0.741800  0.398700  1.0  0.0958
  H  H50  1  0.389100  0.674500  0.472100  1.0  0.1367
  H  H51  1  0.458700  0.848300  0.193000  1.0  0.118
  H  H52  1  0.375000  0.930700  0.245000  1.0  0.1018
  H  H53  1  0.660400  0.069700  0.917500  1.0  0.0826
  H  H54  1  0.578900  0.039600  0.997000  1.0  0.127
  H  H55  1  0.116200  0.027000  0.683700  1.0  0.1185
  H  H56  1  0.579600  0.922400  0.004300  1.0  0.0957
  H  H57  1  0.628400  0.961900  0.916700  1.0  0.0869
  H  H58  1  0.203700  0.107500  0.564700  1.0  0.1173
  H  H59  1  0.746800  0.036900  0.021100  1.0  0.2828
  H  H60  1  0.765900  0.877700  0.966700  1.0  0.2926
  H  H61  1  0.704300  0.457600  0.643800  1.0  0.3403
  H  H62  1  0.857100  0.270100  0.037400  1.0  0.1131
  H  H63  1  0.664500  0.086200  0.255500  1.0  0.0994
  H  H64  1  0.472600  0.178700  0.418200  1.0  0.1187
  H  H65  1  0.048400  0.119900  0.091500  1.0  0.1026
  H  H66  1  0.800400  0.264600  0.259900  1.0  0.0988
  H  H67  1  0.742000  0.060200  0.154600  1.0  0.1035
  H  H68  1  0.090800  0.269500  0.158500  1.0  0.1128
  H  H69  1  0.782600  0.295000  0.137900  1.0  0.1162
  H  H70  1  0.534000  0.157400  0.314000  1.0  0.0974
  H  H71  1  0.763700  0.657200  0.729800  1.0  0.111
  H  H72  1  0.953600  0.412200  0.648400  1.0  0.1108
  H  H73  1  0.923100  0.416500  0.461000  1.0  0.1236
  H  H74  1  0.267900  0.132600  0.770800  1.0  0.0966
  H  H75  1  0.931600  0.422500  0.773200  1.0  0.1043
  H  H76  1  0.353200  0.056400  0.714100  1.0  0.0964
  H  H77  1  0.684600  0.776400  0.672200  1.0  0.1105
  H  H78  1  0.850700  0.540200  0.714700  1.0  0.1122
  H  H79  1  0.484100  0.046300  0.607500  1.0  0.1005
  H  H80  1  0.130600  0.369900  0.624600  1.0  0.1129
  H  H81  1  0.450900  0.347300  0.377600  1.0  0.1215
  H  H82  1  0.852200  0.030000  0.509000  1.0  0.0897
  H  H83  1  0.961400  0.042600  0.211400  1.0  0.117
  H  H84  1  0.256100  0.265000  0.621700  1.0  0.1063
  H  H85  1  0.591500  0.985200  0.539900  1.0  0.1141
  H  H86  1  0.697400  0.131100  0.507100  1.0  0.0917
  H  H87  1  0.276300  0.390800  0.403300  1.0  0.1086
  H  H88  1  0.877200  0.033700  0.817900  1.0  0.0978
  H  H89  1  0.740500  0.286000  0.362500  1.0  0.1078
  H  H90  1  0.815300  0.098700  0.580700  1.0  0.0996
  H  H91  1  0.964500  0.851100  0.528400  1.0  0.096
  H  H92  1  0.932800  0.113200  0.389200  1.0  0.1024
  H  H93  1  0.045100  0.732400  0.588200  1.0  0.1021
  H  H94  1  0.008200  0.188900  0.279600  1.0  0.1068
  H  H95  1  0.429000  0.217100  0.596500  1.0  0.1124
  H  H96  1  0.799300  0.061000  0.722200  1.0  0.1057
  H  H97  1  0.770500  0.890100  0.689400  1.0  0.1083
  H  H98  1  0.099400  0.640000  0.704700  1.0  0.0964
  H  H99  1  0.659800  0.949700  0.758800  1.0  0.1135
  H  H100  1  0.734200  0.291000  0.600500  1.0  0.1014
  H  H101  1  0.178200  0.521900  0.765400  1.0  0.1092
  H  H102  1  0.096900  0.372900  0.439100  1.0  0.1003
  H  H103  1  0.027500  0.227800  0.695200  1.0  0.0877
  H  H104  1  0.944500  0.258200  0.601300  1.0  0.0957
  H  H105  1  0.610900  0.325500  0.527900  1.0  0.1374
  H  H106  1  0.541300  0.151700  0.807000  1.0  0.1183
  H  H107  1  0.625000  0.069300  0.755000  1.0  0.1017
  H  H108  1  0.339600  0.930300  0.082500  1.0  0.0781
  H  H109  1  0.421100  0.960400  0.003000  1.0  0.1275
  H  H110  1  0.883800  0.973000  0.316300  1.0  0.1185
  H  H111  1  0.420400  0.077600  0.995700  1.0  0.095
  H  H112  1  0.371600  0.038100  0.083300  1.0  0.0866
  H  H113  1  0.796300  0.892500  0.435300  1.0  0.1175
  H  H114  1  0.253200  0.963100  0.978900  1.0  0.2842
  H  H115  1  0.234100  0.122300  0.033300  1.0  0.2925
  C  C116  1  0.122700  0.858600  0.974400  1.0  0.7135
  C  C117  1  0.604400  0.849700  0.205400  1.0  -0.084
  C  C118  1  0.188800  0.838300  0.913600  1.0  -0.1578
  C  C119  1  0.085900  0.319100  0.334200  1.0  0.0477
  C  C120  1  0.034700  0.395800  0.296300  1.0  0.066
  C  C121  1  0.361600  0.769800  0.489300  1.0  0.1552
  C  C122  1  0.180100  0.767800  0.918100  1.0  -0.0643
  C  C123  1  0.080100  0.946700  0.662200  1.0  0.0363
  C  C124  1  0.183800  0.173000  0.405000  1.0  0.1606
  C  C125  1  0.325000  0.791900  0.724700  1.0  0.0792
  C  C126  1  0.937700  0.541000  0.222300  1.0  -0.1339
  C  C127  1  0.295300  0.876800  0.788000  1.0  -0.1056
  C  C128  1  0.541400  0.723200  0.515800  1.0  0.2088
  C  C129  1  0.461100  0.803700  0.613900  1.0  -0.1894
  C  C130  1  0.866300  0.635400  0.470100  1.0  0.049
  C  C131  1  0.889300  0.618900  0.179600  1.0  0.7467
  C  C132  1  0.960300  0.865000  0.871100  1.0  -0.1195
  C  C133  1  0.283300  0.807200  0.790900  1.0  0.0874
  C  C134  1  0.214900  0.809500  0.399400  1.0  0.0285
  C  C135  1  0.922200  0.796300  0.888800  1.0  -0.1335
  C  C136  1  0.399400  0.764500  0.599200  1.0  0.1561
  C  C137  1  0.266000  0.753100  0.708200  1.0  -0.1333
  C  C138  1  0.248800  0.892600  0.848600  1.0  -0.0643
  C  C139  1  0.002800  0.881400  0.166300  1.0  0.7119
  C  C140  1  0.079300  0.580800  0.443300  1.0  -0.1447
  C  C141  1  0.934600  0.776600  0.831200  1.0  -0.0549
  C  C142  1  0.225400  0.752800  0.858000  1.0  -0.1223
  C  C143  1  0.146800  0.832600  0.345400  1.0  0.0889
  C  C144  1  0.024400  0.894600  0.740100  1.0  0.0231
  C  C145  1  0.423900  0.816700  0.676200  1.0  -0.1195
  C  C146  1  0.753600  0.666200  0.484600  1.0  0.0639
  C  C147  1  0.184500  0.047700  0.514900  1.0  0.2022
  C  C148  1  0.194600  0.303900  0.310400  1.0  -0.1302
  C  C149  1  0.788100  0.947300  0.002600  1.0  0.5099
  C  C150  1  0.017200  0.595400  0.394200  1.0  -0.0469
  C  C151  1  0.035600  0.593100  0.505600  1.0  -0.1174
  C  C152  1  0.659000  0.879000  0.233000  1.0  -0.053
  C  C153  1  0.034600  0.533600  0.239500  1.0  -0.0363
  C  C154  1  0.196500  0.555600  0.428300  1.0  0.6432
  C  C155  1  0.607700  0.925600  0.266500  1.0  -0.1201
  C  C156  1  0.242500  0.232000  0.345200  1.0  -0.1796
  C  C157  1  0.864900  0.746000  0.968000  1.0  0.678
  C  C158  1  0.083200  0.462700  0.275200  1.0  -0.1461
  C  C159  1  0.457700  0.984600  0.375600  1.0  -0.0986
  C  C160  1  0.911200  0.621600  0.408200  1.0  -0.1112
  C  C161  1  0.658100  0.797700  0.170600  1.0  0.6822
  C  C162  1  0.305900  0.067100  0.393800  1.0  0.148
  C  C163  1  0.046000  0.867900  0.230900  1.0  -0.0675
  C  C164  1  0.588400  0.670400  0.572900  1.0  -0.1752
  C  C165  1  0.142800  0.981900  0.530100  1.0  -0.1549
  C  C166  1  0.500600  0.946000  0.271900  1.0  0.0602
  C  C167  1  0.011600  0.912000  0.798400  1.0  -0.1085
  C  C168  1  0.705300  0.718600  0.427900  1.0  -0.1081
  C  C169  1  0.392800  0.021300  0.416700  1.0  -0.1559
  C  C170  1  0.297400  0.836400  0.473200  1.0  -0.1724
  C  C171  1  0.693100  0.643500  0.557300  1.0  -0.1274
  C  C172  1  0.111200  0.919700  0.224900  1.0  -0.1115
  C  C173  1  0.301900  0.740000  0.647000  1.0  -0.2062
  C  C174  1  0.226100  0.855900  0.429100  1.0  -0.1575
  C  C175  1  0.076300  0.187600  0.430200  1.0  -0.118
  C  C176  1  0.438700  0.992500  0.310700  1.0  0.0327
  C  C177  1  0.092800  0.931900  0.602600  1.0  -0.1042
  C  C178  1  0.028000  0.259500  0.394500  1.0  -0.102
  C  C179  1  0.984700  0.825300  0.758200  1.0  -0.0962
  C  C180  1  0.600900  0.747300  0.442800  1.0  -0.1652
  C  C181  1  0.159100  0.902700  0.281900  1.0  -0.1568
  C  C182  1  0.286900  0.078000  0.327700  1.0  -0.1624
  C  C183  1  0.936100  0.403800  0.280800  1.0  -0.1251
  C  C184  1  0.353400  0.041500  0.286100  1.0  -0.1465
  C  C185  1  0.274800  0.742200  0.417400  1.0  -0.1056
  C  C186  1  0.888300  0.475000  0.244300  1.0  -0.0479
  C  C187  1  0.931500  0.619500  0.518300  1.0  -0.117
  C  C188  1  0.023400  0.804600  0.297200  1.0  -0.0322
  C  C189  1  0.072900  0.786200  0.354100  1.0  -0.1841
  C  C190  1  0.349100  0.720500  0.461500  1.0  -0.2059
  C  C191  1  0.498000  0.868100  0.210700  1.0  -0.0971
  C  C192  1  0.447400  0.917300  0.243100  1.0  -0.1417
  C  C193  1  0.644800  0.027400  0.967400  1.0  0.0355
  C  C194  1  0.122700  0.014100  0.645200  1.0  -0.0979
  C  C195  1  0.637900  0.952500  0.964800  1.0  0.0412
  C  C196  1  0.175000  0.063300  0.573100  1.0  -0.1693
  C  C197  1  0.877300  0.141400  0.025600  1.0  0.7144
  C  C198  1  0.395600  0.150300  0.794600  1.0  -0.0827
  C  C199  1  0.811200  0.161700  0.086400  1.0  -0.1622
  C  C200  1  0.914100  0.680900  0.665800  1.0  0.0485
  C  C201  1  0.965300  0.604200  0.703700  1.0  0.0645
  C  C202  1  0.638400  0.230200  0.510700  1.0  0.1556
  C  C203  1  0.819900  0.232200  0.081900  1.0  -0.0665
  C  C204  1  0.919900  0.053300  0.337800  1.0  0.0357
  C  C205  1  0.816200  0.827000  0.595000  1.0  0.16
  C  C206  1  0.675000  0.208100  0.275300  1.0  0.0786
  C  C207  1  0.062300  0.459000  0.777700  1.0  -0.1327
  C  C208  1  0.704700  0.123200  0.212000  1.0  -0.1044
  C  C209  1  0.458600  0.276800  0.484200  1.0  0.2091
  C  C210  1  0.538900  0.196300  0.386100  1.0  -0.1881
  C  C211  1  0.133700  0.364600  0.529900  1.0  0.0491
  C  C212  1  0.110700  0.381100  0.820400  1.0  0.7463
  C  C213  1  0.039700  0.135000  0.128900  1.0  -0.1196
  C  C214  1  0.716700  0.192800  0.209100  1.0  0.0857
  C  C215  1  0.785100  0.190500  0.600600  1.0  0.028
  C  C216  1  0.077800  0.203700  0.111200  1.0  -0.1313
  C  C217  1  0.600600  0.235500  0.400800  1.0  0.1541
  C  C218  1  0.734000  0.246900  0.291800  1.0  -0.1342
  C  C219  1  0.751200  0.107400  0.151400  1.0  -0.0647
  C  C220  1  0.997200  0.118600  0.833700  1.0  0.7115
  C  C221  1  0.920700  0.419200  0.556700  1.0  -0.1457
  C  C222  1  0.065400  0.223400  0.168800  1.0  -0.0572
  C  C223  1  0.774600  0.247200  0.142000  1.0  -0.1227
  C  C224  1  0.853200  0.167400  0.654600  1.0  0.0884
  C  C225  1  0.975600  0.105400  0.259900  1.0  0.0243
  C  C226  1  0.576100  0.183300  0.323800  1.0  -0.1196
  C  C227  1  0.246400  0.333800  0.515400  1.0  0.0644
  C  C228  1  0.815500  0.952300  0.485100  1.0  0.2023
  C  C229  1  0.805400  0.696100  0.689600  1.0  -0.1298
  C  C230  1  0.211900  0.052700  0.997400  1.0  0.5057
  C  C231  1  0.982800  0.404600  0.605800  1.0  -0.0472
  C  C232  1  0.964400  0.406900  0.494400  1.0  -0.1155
  C  C233  1  0.341000  0.121000  0.767000  1.0  -0.0524
  C  C234  1  0.965400  0.466400  0.760500  1.0  -0.0355
  C  C235  1  0.803500  0.444400  0.571700  1.0  0.644
  C  C236  1  0.392300  0.074400  0.733500  1.0  -0.121
  C  C237  1  0.757500  0.768000  0.654800  1.0  -0.1807
  C  C238  1  0.135100  0.254000  0.032000  1.0  0.6776
  C  C239  1  0.916800  0.537300  0.724800  1.0  -0.1467
  C  C240  1  0.542300  0.015400  0.624400  1.0  -0.0966
  C  C241  1  0.088800  0.378400  0.591800  1.0  -0.1124
  C  C242  1  0.341900  0.202300  0.829400  1.0  0.6815
  C  C243  1  0.694100  0.932900  0.606200  1.0  0.147
  C  C244  1  0.954000  0.132100  0.769100  1.0  -0.0676
  C  C245  1  0.411600  0.329600  0.427100  1.0  -0.1778
  C  C246  1  0.857200  0.018100  0.469900  1.0  -0.1533
  C  C247  1  0.499400  0.054000  0.728100  1.0  0.0581
  C  C248  1  0.988400  0.088000  0.201600  1.0  -0.1097
  C  C249  1  0.294700  0.281400  0.572100  1.0  -0.1072
  C  C250  1  0.607200  0.978700  0.583300  1.0  -0.1542
  C  C251  1  0.702600  0.163600  0.526800  1.0  -0.173
  C  C252  1  0.306900  0.356500  0.442700  1.0  -0.1276
  C  C253  1  0.888800  0.080300  0.775100  1.0  -0.1124
  C  C254  1  0.698100  0.260000  0.353000  1.0  -0.2053
  C  C255  1  0.773900  0.144100  0.570900  1.0  -0.1589
  C  C256  1  0.923700  0.812400  0.569800  1.0  -0.1181
  C  C257  1  0.561300  0.007500  0.689300  1.0  0.0317
  C  C258  1  0.907200  0.068100  0.397400  1.0  -0.1037
  C  C259  1  0.972000  0.740500  0.605500  1.0  -0.103
  C  C260  1  0.015300  0.174700  0.241800  1.0  -0.0984
  C  C261  1  0.399100  0.252700  0.557200  1.0  -0.1648
  C  C262  1  0.840900  0.097300  0.718100  1.0  -0.1571
  C  C263  1  0.713100  0.922000  0.672300  1.0  -0.1622
  C  C264  1  0.063900  0.596200  0.719200  1.0  -0.1261
  C  C265  1  0.646600  0.958500  0.713900  1.0  -0.1454
  C  C266  1  0.725200  0.257800  0.582600  1.0  -0.1057
  C  C267  1  0.111700  0.525000  0.755700  1.0  -0.0465
  C  C268  1  0.068500  0.380500  0.481700  1.0  -0.1157
  C  C269  1  0.976600  0.195400  0.702800  1.0  -0.0351
  C  C270  1  0.927100  0.213800  0.645900  1.0  -0.1826
  C  C271  1  0.650900  0.279500  0.538500  1.0  -0.2048
  C  C272  1  0.502000  0.131900  0.789300  1.0  -0.1005
  C  C273  1  0.552600  0.082700  0.756900  1.0  -0.1395
  C  C274  1  0.355200  0.972600  0.032600  1.0  0.0352
  C  C275  1  0.877300  0.985900  0.354800  1.0  -0.0974
  C  C276  1  0.362100  0.047500  0.035200  1.0  0.0411
  C  C277  1  0.825000  0.936700  0.426900  1.0  -0.169
  N  N278  1  0.732400  0.010000  0.002500  1.0  -0.3956
  N  N279  1  0.739200  0.915900  0.976100  1.0  -0.389
  N  N280  1  0.234700  0.099700  0.439900  1.0  -0.1976
  N  N281  1  0.435900  0.751800  0.534100  1.0  -0.1724
  N  N282  1  0.267600  0.990000  0.997500  1.0  -0.3969
  N  N283  1  0.260800  0.084100  0.023900  1.0  -0.3891
  N  N284  1  0.765300  0.900300  0.560100  1.0  -0.1991
  N  N285  1  0.564100  0.248200  0.465900  1.0  -0.1728
  O  O286  1  0.873500  0.921840  0.024330  1.0  -0.6753
  O  O287  1  0.941900  0.675800  0.157280  1.0  -0.6105
  O  O288  1  0.121200  0.925790  0.964780  1.0  -0.5832
  O  O289  1  0.070000  0.805420  0.031620  1.0  -0.6271
  O  O290  1  0.845200  0.771330  0.016390  1.0  -0.6586
  O  O291  1  0.020000  0.944800  0.110120  1.0  -0.5979
  O  O292  1  0.797700  0.620150  0.169000  1.0  -0.6766
  O  O293  1  0.957500  0.827300  0.172480  1.0  -0.6095
  O  O294  1  0.757300  0.788000  0.161500  1.0  -0.6566
  O  O295  1  0.834500  0.682300  0.983870  1.0  -0.5879
  O  O296  1  0.230200  0.548600  0.365600  1.0  -0.5101
  O  O297  1  0.253700  0.544800  0.468900  1.0  -0.5117
  O  O298  1  0.605800  0.764500  0.153600  1.0  -0.6103
  O  O299  1  0.126500  0.078160  0.975670  1.0  -0.6758
  O  O300  1  0.058100  0.324200  0.842720  1.0  -0.6094
  O  O301  1  0.878800  0.074210  0.035220  1.0  -0.5845
  O  O302  1  0.930000  0.194580  0.968380  1.0  -0.6289
  O  O303  1  0.154800  0.228670  0.983610  1.0  -0.6584
  O  O304  1  0.980000  0.055200  0.889880  1.0  -0.599
  O  O305  1  0.202300  0.379850  0.831000  1.0  -0.6749
  O  O306  1  0.042500  0.172700  0.827520  1.0  -0.6099
  O  O307  1  0.242700  0.212000  0.838500  1.0  -0.6568
  O  O308  1  0.165500  0.317700  0.016130  1.0  -0.5893
  O  O309  1  0.769800  0.451400  0.634400  1.0  -0.5089
  O  O310  1  0.746300  0.455200  0.531100  1.0  -0.5122
  O  O311  1  0.394200  0.235500  0.846400  1.0  -0.6114
