# generated using pymatgen
data_MnH25C39NO6
_symmetry_space_group_name_H-M   'P 1'
_cell_length_a   37.47500000
_cell_length_b   13.32700000
_cell_length_c   15.99410000
_cell_angle_alpha   90.00000000
_cell_angle_beta   90.00000000
_cell_angle_gamma   90.00000000
_symmetry_Int_Tables_number   1
_chemical_formula_structural   MnH25C39NO6
_chemical_formula_sum   'Mn8 H200 C312 N8 O48'
_cell_volume   7987.92256698
_cell_formula_units_Z   8
loop_
 _symmetry_equiv_pos_site_id
 _symmetry_equiv_pos_as_xyz
  1  'x, y, z'
loop_
 _atom_site_type_symbol
 _atom_site_label
 _atom_site_symmetry_multiplicity
 _atom_site_fract_x
 _atom_site_fract_y
 _atom_site_fract_z
 _atom_site_occupancy
 _atom_site_charge
  Mn  Mn1  1  0.971640  0.135970  0.138800  1.0  1.0998
  Mn  Mn2  1  0.028360  0.864030  0.138800  1.0  1.0972
  Mn  Mn3  1  0.471640  0.864030  0.638800  1.0  1.0993
  Mn  Mn4  1  0.528360  0.135970  0.638800  1.0  1.0958
  Mn  Mn5  1  0.971640  0.635970  0.638800  1.0  1.0998
  Mn  Mn6  1  0.028360  0.364030  0.638800  1.0  1.0972
  Mn  Mn7  1  0.471640  0.364030  0.138800  1.0  1.0993
  Mn  Mn8  1  0.528360  0.635970  0.138800  1.0  1.0958
  H  H9  1  0.752300  0.015400  0.884000  1.0  0.1301
  H  H10  1  0.679500  0.735400  0.882400  1.0  0.1269
  H  H11  1  0.794600  0.734900  0.896600  1.0  0.1168
  H  H12  1  0.869300  0.305600  0.023200  1.0  0.1003
  H  H13  1  0.730100  0.737800  0.964900  1.0  0.1069
  H  H14  1  0.930700  0.474200  0.174000  1.0  0.1178
  H  H15  1  0.786000  0.455100  0.235100  1.0  0.1151
  H  H16  1  0.766500  0.316500  0.164400  1.0  0.1035
  H  H17  1  0.700800  0.011000  0.804300  1.0  0.1218
  H  H18  1  0.748000  0.141600  0.153700  1.0  0.1059
  H  H19  1  0.832600  0.443700  0.998200  1.0  0.1061
  H  H20  1  0.894500  0.610400  0.148100  1.0  0.1109
  H  H21  1  0.573600  0.770300  0.773600  1.0  0.1271
  H  H22  1  0.838300  0.694500  0.164600  1.0  0.1122
  H  H23  1  0.804000  0.831400  0.132200  1.0  0.111
  H  H24  1  0.857400  0.179100  0.214400  1.0  0.1059
  H  H25  1  0.830200  0.595000  0.930500  1.0  0.1113
  H  H26  1  0.628800  0.755800  0.834400  1.0  0.1198
  H  H27  1  0.876100  0.311900  0.289900  1.0  0.1332
  H  H28  1  0.835800  0.982900  0.002300  1.0  0.1394
  H  H29  1  0.847700  0.122800  0.074900  1.0  0.0927
  H  H30  1  0.607300  0.011800  0.650800  1.0  0.1242
  H  H31  1  0.733400  0.005100  0.073600  1.0  0.1118
  H  H32  1  0.661100  0.997700  0.720000  1.0  0.1297
  H  H33  1  0.882000  0.528000  0.375500  1.0  0.3381
  H  H34  1  0.247700  0.984600  0.884000  1.0  0.1298
  H  H35  1  0.320500  0.264600  0.882400  1.0  0.1277
  H  H36  1  0.205400  0.265100  0.896600  1.0  0.1172
  H  H37  1  0.130700  0.694400  0.023200  1.0  0.1006
  H  H38  1  0.269900  0.262200  0.964900  1.0  0.107
  H  H39  1  0.069300  0.525800  0.174000  1.0  0.1181
  H  H40  1  0.214000  0.544900  0.235100  1.0  0.1152
  H  H41  1  0.233500  0.683500  0.164400  1.0  0.1047
  H  H42  1  0.299200  0.989000  0.804300  1.0  0.1201
  H  H43  1  0.252000  0.858400  0.153700  1.0  0.1059
  H  H44  1  0.167400  0.556300  0.998200  1.0  0.1057
  H  H45  1  0.105500  0.389600  0.148100  1.0  0.111
  H  H46  1  0.426400  0.229700  0.773600  1.0  0.1275
  H  H47  1  0.161700  0.305500  0.164600  1.0  0.112
  H  H48  1  0.196000  0.168600  0.132200  1.0  0.1113
  H  H49  1  0.142600  0.820900  0.214400  1.0  0.1051
  H  H50  1  0.169800  0.405000  0.930500  1.0  0.1113
  H  H51  1  0.371200  0.244200  0.834400  1.0  0.1202
  H  H52  1  0.123900  0.688100  0.289900  1.0  0.1346
  H  H53  1  0.164200  0.017100  0.002300  1.0  0.1395
  H  H54  1  0.152300  0.877200  0.074900  1.0  0.0922
  H  H55  1  0.392700  0.988200  0.650800  1.0  0.1235
  H  H56  1  0.266600  0.994900  0.073600  1.0  0.1117
  H  H57  1  0.338900  0.002300  0.720000  1.0  0.1273
  H  H58  1  0.118000  0.472000  0.375500  1.0  0.3398
  H  H59  1  0.252300  0.984600  0.384000  1.0  0.1299
  H  H60  1  0.179500  0.264600  0.382400  1.0  0.1272
  H  H61  1  0.294600  0.265100  0.396600  1.0  0.1168
  H  H62  1  0.369300  0.694400  0.523200  1.0  0.1009
  H  H63  1  0.230100  0.262200  0.464900  1.0  0.1069
  H  H64  1  0.430700  0.525800  0.674000  1.0  0.1181
  H  H65  1  0.286000  0.544900  0.735100  1.0  0.1153
  H  H66  1  0.266500  0.683500  0.664400  1.0  0.1035
  H  H67  1  0.200800  0.989000  0.304300  1.0  0.1211
  H  H68  1  0.248000  0.858400  0.653700  1.0  0.106
  H  H69  1  0.332600  0.556300  0.498200  1.0  0.1062
  H  H70  1  0.394500  0.389600  0.648100  1.0  0.1115
  H  H71  1  0.073600  0.229700  0.273600  1.0  0.1275
  H  H72  1  0.338300  0.305500  0.664600  1.0  0.1121
  H  H73  1  0.304000  0.168600  0.632200  1.0  0.1113
  H  H74  1  0.357400  0.820900  0.714400  1.0  0.1054
  H  H75  1  0.330200  0.405000  0.430500  1.0  0.1109
  H  H76  1  0.128800  0.244200  0.334400  1.0  0.1201
  H  H77  1  0.376100  0.688100  0.789900  1.0  0.1331
  H  H78  1  0.335800  0.017100  0.502300  1.0  0.1395
  H  H79  1  0.347700  0.877200  0.574900  1.0  0.0928
  H  H80  1  0.107300  0.988200  0.150800  1.0  0.124
  H  H81  1  0.233400  0.994900  0.573600  1.0  0.1119
  H  H82  1  0.161100  0.002300  0.220000  1.0  0.1297
  H  H83  1  0.382000  0.472000  0.875500  1.0  0.3372
  H  H84  1  0.747700  0.015400  0.384000  1.0  0.1302
  H  H85  1  0.820500  0.735400  0.382400  1.0  0.1274
  H  H86  1  0.705400  0.734900  0.396600  1.0  0.1173
  H  H87  1  0.630700  0.305600  0.523200  1.0  0.1
  H  H88  1  0.769900  0.737800  0.464900  1.0  0.1071
  H  H89  1  0.569300  0.474200  0.674000  1.0  0.1178
  H  H90  1  0.714000  0.455100  0.735100  1.0  0.1149
  H  H91  1  0.733500  0.316500  0.664400  1.0  0.1046
  H  H92  1  0.799200  0.011000  0.304300  1.0  0.1209
  H  H93  1  0.752000  0.141600  0.653700  1.0  0.1056
  H  H94  1  0.667400  0.443700  0.498200  1.0  0.1055
  H  H95  1  0.605500  0.610400  0.648100  1.0  0.1119
  H  H96  1  0.926400  0.770300  0.273600  1.0  0.1274
  H  H97  1  0.661700  0.694500  0.664600  1.0  0.1122
  H  H98  1  0.696000  0.831400  0.632200  1.0  0.1107
  H  H99  1  0.642600  0.179100  0.714400  1.0  0.1053
  H  H100  1  0.669800  0.595000  0.430500  1.0  0.1115
  H  H101  1  0.871200  0.755800  0.334400  1.0  0.1201
  H  H102  1  0.623900  0.311900  0.789900  1.0  0.1346
  H  H103  1  0.664200  0.982900  0.502300  1.0  0.1393
  H  H104  1  0.652300  0.122800  0.574900  1.0  0.0923
  H  H105  1  0.892700  0.011800  0.150800  1.0  0.1236
  H  H106  1  0.766600  0.005100  0.573600  1.0  0.1117
  H  H107  1  0.838900  0.997700  0.220000  1.0  0.1272
  H  H108  1  0.618000  0.528000  0.875500  1.0  0.3396
  H  H109  1  0.752300  0.515400  0.384000  1.0  0.1301
  H  H110  1  0.679500  0.235400  0.382400  1.0  0.1269
  H  H111  1  0.794600  0.234900  0.396600  1.0  0.1168
  H  H112  1  0.869300  0.805600  0.523200  1.0  0.1003
  H  H113  1  0.730100  0.237800  0.464900  1.0  0.1069
  H  H114  1  0.930700  0.974200  0.674000  1.0  0.1178
  H  H115  1  0.786000  0.955100  0.735100  1.0  0.1151
  H  H116  1  0.766500  0.816500  0.664400  1.0  0.1035
  H  H117  1  0.700800  0.511000  0.304300  1.0  0.1213
  H  H118  1  0.748000  0.641600  0.653700  1.0  0.1059
  H  H119  1  0.832600  0.943700  0.498200  1.0  0.1061
  H  H120  1  0.894500  0.110400  0.648100  1.0  0.1109
  H  H121  1  0.573600  0.270300  0.273600  1.0  0.1271
  H  H122  1  0.838300  0.194500  0.664600  1.0  0.1122
  H  H123  1  0.804000  0.331400  0.632200  1.0  0.111
  H  H124  1  0.857400  0.679100  0.714400  1.0  0.1059
  H  H125  1  0.830200  0.095000  0.430500  1.0  0.1114
  H  H126  1  0.628800  0.255800  0.334400  1.0  0.1198
  H  H127  1  0.876100  0.811900  0.789900  1.0  0.1332
  H  H128  1  0.835800  0.482900  0.502300  1.0  0.1394
  H  H129  1  0.847700  0.622800  0.574900  1.0  0.0927
  H  H130  1  0.607300  0.511800  0.150800  1.0  0.1242
  H  H131  1  0.733400  0.505100  0.573600  1.0  0.1118
  H  H132  1  0.661100  0.497700  0.220000  1.0  0.1297
  H  H133  1  0.882000  0.028000  0.875500  1.0  0.3377
  H  H134  1  0.247700  0.484600  0.384000  1.0  0.1298
  H  H135  1  0.320500  0.764600  0.382400  1.0  0.1277
  H  H136  1  0.205400  0.765100  0.396600  1.0  0.1172
  H  H137  1  0.130700  0.194400  0.523200  1.0  0.1006
  H  H138  1  0.269900  0.762200  0.464900  1.0  0.107
  H  H139  1  0.069300  0.025800  0.674000  1.0  0.1181
  H  H140  1  0.214000  0.044900  0.735100  1.0  0.1152
  H  H141  1  0.233500  0.183500  0.664400  1.0  0.1047
  H  H142  1  0.299200  0.489000  0.304300  1.0  0.1199
  H  H143  1  0.252000  0.358400  0.653700  1.0  0.1059
  H  H144  1  0.167400  0.056300  0.498200  1.0  0.1057
  H  H145  1  0.105500  0.889600  0.648100  1.0  0.111
  H  H146  1  0.426400  0.729700  0.273600  1.0  0.1275
  H  H147  1  0.161700  0.805500  0.664600  1.0  0.112
  H  H148  1  0.196000  0.668600  0.632200  1.0  0.1113
  H  H149  1  0.142600  0.320900  0.714400  1.0  0.1051
  H  H150  1  0.169800  0.905000  0.430500  1.0  0.1114
  H  H151  1  0.371200  0.744200  0.334400  1.0  0.1202
  H  H152  1  0.123900  0.188100  0.789900  1.0  0.1346
  H  H153  1  0.164200  0.517100  0.502300  1.0  0.1395
  H  H154  1  0.152300  0.377200  0.574900  1.0  0.0922
  H  H155  1  0.392700  0.488200  0.150800  1.0  0.1235
  H  H156  1  0.266600  0.494900  0.573600  1.0  0.1117
  H  H157  1  0.338900  0.502300  0.220000  1.0  0.1273
  H  H158  1  0.118000  0.972000  0.875500  1.0  0.3394
  H  H159  1  0.252300  0.484600  0.884000  1.0  0.1299
  H  H160  1  0.179500  0.764600  0.882400  1.0  0.1272
  H  H161  1  0.294600  0.765100  0.896600  1.0  0.1168
  H  H162  1  0.369300  0.194400  0.023200  1.0  0.1009
  H  H163  1  0.230100  0.762200  0.964900  1.0  0.1069
  H  H164  1  0.430700  0.025800  0.174000  1.0  0.1181
  H  H165  1  0.286000  0.044900  0.235100  1.0  0.1153
  H  H166  1  0.266500  0.183500  0.164400  1.0  0.1035
  H  H167  1  0.200800  0.489000  0.804300  1.0  0.1206
  H  H168  1  0.248000  0.358400  0.153700  1.0  0.106
  H  H169  1  0.332600  0.056300  0.998200  1.0  0.1062
  H  H170  1  0.394500  0.889600  0.148100  1.0  0.1115
  H  H171  1  0.073600  0.729700  0.773600  1.0  0.1275
  H  H172  1  0.338300  0.805500  0.164600  1.0  0.1121
  H  H173  1  0.304000  0.668600  0.132200  1.0  0.1113
  H  H174  1  0.357400  0.320900  0.214400  1.0  0.1054
  H  H175  1  0.330200  0.905000  0.930500  1.0  0.111
  H  H176  1  0.128800  0.744200  0.834400  1.0  0.1201
  H  H177  1  0.376100  0.188100  0.289900  1.0  0.1331
  H  H178  1  0.335800  0.517100  0.002300  1.0  0.1395
  H  H179  1  0.347700  0.377200  0.074900  1.0  0.0928
  H  H180  1  0.107300  0.488200  0.650800  1.0  0.124
  H  H181  1  0.233400  0.494900  0.073600  1.0  0.1119
  H  H182  1  0.161100  0.502300  0.720000  1.0  0.1297
  H  H183  1  0.382000  0.972000  0.375500  1.0  0.3371
  H  H184  1  0.747700  0.515400  0.884000  1.0  0.1302
  H  H185  1  0.820500  0.235400  0.882400  1.0  0.1274
  H  H186  1  0.705400  0.234900  0.896600  1.0  0.1173
  H  H187  1  0.630700  0.805600  0.023200  1.0  0.1
  H  H188  1  0.769900  0.237800  0.964900  1.0  0.1071
  H  H189  1  0.569300  0.974200  0.174000  1.0  0.1178
  H  H190  1  0.714000  0.955100  0.235100  1.0  0.1149
  H  H191  1  0.733500  0.816500  0.164400  1.0  0.1046
  H  H192  1  0.799200  0.511000  0.804300  1.0  0.1206
  H  H193  1  0.752000  0.641600  0.153700  1.0  0.1056
  H  H194  1  0.667400  0.943700  0.998200  1.0  0.1055
  H  H195  1  0.605500  0.110400  0.148100  1.0  0.1119
  H  H196  1  0.926400  0.270300  0.773600  1.0  0.1274
  H  H197  1  0.661700  0.194500  0.164600  1.0  0.1122
  H  H198  1  0.696000  0.331400  0.132200  1.0  0.1107
  H  H199  1  0.642600  0.679100  0.214400  1.0  0.1053
  H  H200  1  0.669800  0.095000  0.930500  1.0  0.1116
  H  H201  1  0.871200  0.255800  0.834400  1.0  0.1201
  H  H202  1  0.623900  0.811900  0.289900  1.0  0.1346
  H  H203  1  0.664200  0.482900  0.002300  1.0  0.1393
  H  H204  1  0.652300  0.622800  0.074900  1.0  0.0923
  H  H205  1  0.892700  0.511800  0.650800  1.0  0.1236
  H  H206  1  0.766600  0.505100  0.073600  1.0  0.1117
  H  H207  1  0.838900  0.497700  0.720000  1.0  0.1272
  H  H208  1  0.618000  0.028000  0.375500  1.0  0.3395
  C  C209  1  0.746080  0.877100  0.935200  1.0  0.1849
  C  C210  1  0.685520  0.872500  0.834100  1.0  -0.0782
  C  C211  1  0.809960  0.232800  0.176900  1.0  0.0685
  C  C212  1  0.837980  0.628900  0.050000  1.0  0.0637
  C  C213  1  0.800190  0.146400  0.124800  1.0  0.0498
  C  C214  1  0.737600  0.959100  0.885000  1.0  -0.1846
  C  C215  1  0.694100  0.791900  0.882800  1.0  -0.1184
  C  C216  1  0.803550  0.727700  0.950500  1.0  -0.1473
  C  C217  1  0.874700  0.367200  0.047400  1.0  -0.0066
  C  C218  1  0.859660  0.541700  0.069600  1.0  0.0279
  C  C219  1  0.584850  0.893400  0.706100  1.0  -0.089
  C  C220  1  0.649990  0.877400  0.785800  1.0  -0.0009
  C  C221  1  0.905110  0.376400  0.097900  1.0  -0.0824
  C  C222  1  0.724390  0.793600  0.932700  1.0  -0.1878
  C  C223  1  0.796370  0.798000  0.009700  1.0  0.1672
  C  C224  1  0.911540  0.467900  0.137500  1.0  -0.0411
  C  C225  1  0.800700  0.399000  0.231500  1.0  -0.1257
  C  C226  1  0.789270  0.315800  0.187600  1.0  -0.1042
  C  C227  1  0.706910  0.955400  0.836300  1.0  -0.0743
  C  C228  1  0.765690  0.109600  0.122800  1.0  -0.1161
  C  C229  1  0.852400  0.450400  0.032900  1.0  -0.1569
  C  C230  1  0.889470  0.549400  0.122500  1.0  -0.0944
  C  C231  1  0.591300  0.816800  0.761500  1.0  -0.0937
  C  C232  1  0.829750  0.702000  0.110400  1.0  -0.1026
  C  C233  1  0.782260  0.975000  0.033100  1.0  0.194
  C  C234  1  0.809300  0.784400  0.091000  1.0  -0.1692
  C  C235  1  0.548100  0.908200  0.669200  1.0  0.694
  C  C236  1  0.928600  0.287400  0.112900  1.0  0.6617
  C  C237  1  0.842700  0.235100  0.218100  1.0  -0.1476
  C  C238  1  0.833500  0.399900  0.269900  1.0  -0.131
  C  C239  1  0.825060  0.642200  0.971500  1.0  -0.1337
  C  C240  1  0.624290  0.809500  0.798900  1.0  -0.1147
  C  C241  1  0.854100  0.314700  0.263200  1.0  -0.09
  C  C242  1  0.817870  0.014300  0.032700  1.0  -0.2477
  C  C243  1  0.824620  0.097000  0.076900  1.0  -0.0861
  C  C244  1  0.610900  0.960500  0.689300  1.0  -0.1717
  C  C245  1  0.844100  0.492600  0.314500  1.0  0.5712
  C  C246  1  0.757020  0.026300  0.075900  1.0  -0.1865
  C  C247  1  0.643230  0.950900  0.730800  1.0  -0.0866
  C  C248  1  0.253920  0.122900  0.935200  1.0  0.1849
  C  C249  1  0.314480  0.127500  0.834100  1.0  -0.0765
  C  C250  1  0.190040  0.767200  0.176900  1.0  0.0685
  C  C251  1  0.162020  0.371100  0.050000  1.0  0.0634
  C  C252  1  0.199810  0.853600  0.124800  1.0  0.0491
  C  C253  1  0.262400  0.040900  0.885000  1.0  -0.1842
  C  C254  1  0.305900  0.208100  0.882800  1.0  -0.1188
  C  C255  1  0.196450  0.272300  0.950500  1.0  -0.1477
  C  C256  1  0.125300  0.632800  0.047400  1.0  -0.0112
  C  C257  1  0.140340  0.458300  0.069600  1.0  0.0274
  C  C258  1  0.415150  0.106600  0.706100  1.0  -0.0873
  C  C259  1  0.350010  0.122600  0.785800  1.0  -0.0032
  C  C260  1  0.094890  0.623600  0.097900  1.0  -0.0824
  C  C261  1  0.275610  0.206400  0.932700  1.0  -0.1899
  C  C262  1  0.203630  0.202000  0.009700  1.0  0.1669
  C  C263  1  0.088460  0.532100  0.137500  1.0  -0.0416
  C  C264  1  0.199300  0.601000  0.231500  1.0  -0.125
  C  C265  1  0.210730  0.684200  0.187600  1.0  -0.1048
  C  C266  1  0.293090  0.044600  0.836300  1.0  -0.0739
  C  C267  1  0.234310  0.890400  0.122800  1.0  -0.1178
  C  C268  1  0.147600  0.549600  0.032900  1.0  -0.1601
  C  C269  1  0.110530  0.450600  0.122500  1.0  -0.0944
  C  C270  1  0.408700  0.183200  0.761500  1.0  -0.0935
  C  C271  1  0.170250  0.298000  0.110400  1.0  -0.1031
  C  C272  1  0.217740  0.025000  0.033100  1.0  0.193
  C  C273  1  0.190700  0.215600  0.091000  1.0  -0.1695
  C  C274  1  0.451900  0.091800  0.669200  1.0  0.6923
  C  C275  1  0.071400  0.712600  0.112900  1.0  0.662
  C  C276  1  0.157300  0.764900  0.218100  1.0  -0.1464
  C  C277  1  0.166500  0.600100  0.269900  1.0  -0.1316
  C  C278  1  0.174940  0.357800  0.971500  1.0  -0.1358
  C  C279  1  0.375710  0.190500  0.798900  1.0  -0.1161
  C  C280  1  0.145900  0.685300  0.263200  1.0  -0.0873
  C  C281  1  0.182130  0.985700  0.032700  1.0  -0.2483
  C  C282  1  0.175380  0.903000  0.076900  1.0  -0.0848
  C  C283  1  0.389100  0.039500  0.689300  1.0  -0.1709
  C  C284  1  0.155900  0.507400  0.314500  1.0  0.5728
  C  C285  1  0.242980  0.973700  0.075900  1.0  -0.1863
  C  C286  1  0.356770  0.049100  0.730800  1.0  -0.083
  C  C287  1  0.246080  0.122900  0.435200  1.0  0.185
  C  C288  1  0.185520  0.127500  0.334100  1.0  -0.0777
  C  C289  1  0.309960  0.767200  0.676900  1.0  0.0686
  C  C290  1  0.337980  0.371100  0.550000  1.0  0.0645
  C  C291  1  0.300190  0.853600  0.624800  1.0  0.0491
  C  C292  1  0.237600  0.040900  0.385000  1.0  -0.1854
  C  C293  1  0.194100  0.208100  0.382800  1.0  -0.1185
  C  C294  1  0.303550  0.272300  0.450500  1.0  -0.147
  C  C295  1  0.374700  0.632800  0.547400  1.0  -0.0078
  C  C296  1  0.359660  0.458300  0.569600  1.0  0.0273
  C  C297  1  0.084850  0.106600  0.206100  1.0  -0.0888
  C  C298  1  0.149990  0.122600  0.285800  1.0  -0.0011
  C  C299  1  0.405110  0.623600  0.597900  1.0  -0.0822
  C  C300  1  0.224390  0.206400  0.432700  1.0  -0.1881
  C  C301  1  0.296370  0.202000  0.509700  1.0  0.1676
  C  C302  1  0.411540  0.532100  0.637500  1.0  -0.041
  C  C303  1  0.300700  0.601000  0.731500  1.0  -0.1263
  C  C304  1  0.289270  0.684200  0.687600  1.0  -0.1039
  C  C305  1  0.206910  0.044600  0.336300  1.0  -0.0737
  C  C306  1  0.265690  0.890400  0.622800  1.0  -0.1166
  C  C307  1  0.352400  0.549600  0.532900  1.0  -0.1568
  C  C308  1  0.389470  0.450600  0.622500  1.0  -0.0936
  C  C309  1  0.091300  0.183200  0.261500  1.0  -0.0936
  C  C310  1  0.329750  0.298000  0.610400  1.0  -0.1027
  C  C311  1  0.282260  0.025000  0.533100  1.0  0.1942
  C  C312  1  0.309300  0.215600  0.591000  1.0  -0.1695
  C  C313  1  0.048100  0.091800  0.169200  1.0  0.694
  C  C314  1  0.428600  0.712600  0.612900  1.0  0.6612
  C  C315  1  0.342700  0.764900  0.718100  1.0  -0.1479
  C  C316  1  0.333500  0.600100  0.769900  1.0  -0.1306
  C  C317  1  0.325060  0.357800  0.471500  1.0  -0.1349
  C  C318  1  0.124290  0.190500  0.298900  1.0  -0.1153
  C  C319  1  0.354100  0.685300  0.763200  1.0  -0.0897
  C  C320  1  0.317870  0.985700  0.532700  1.0  -0.2473
  C  C321  1  0.324620  0.903000  0.576900  1.0  -0.0861
  C  C322  1  0.110900  0.039500  0.189300  1.0  -0.172
  C  C323  1  0.344100  0.507400  0.814500  1.0  0.5733
  C  C324  1  0.257020  0.973700  0.575900  1.0  -0.1862
  C  C325  1  0.143230  0.049100  0.230800  1.0  -0.086
  C  C326  1  0.753920  0.877100  0.435200  1.0  0.1849
  C  C327  1  0.814480  0.872500  0.334100  1.0  -0.0768
  C  C328  1  0.690040  0.232800  0.676900  1.0  0.0685
  C  C329  1  0.662020  0.628900  0.550000  1.0  0.0632
  C  C330  1  0.699810  0.146400  0.624800  1.0  0.05
  C  C331  1  0.762400  0.959100  0.385000  1.0  -0.1837
  C  C332  1  0.805900  0.791900  0.382800  1.0  -0.119
  C  C333  1  0.696450  0.727700  0.450500  1.0  -0.1479
  C  C334  1  0.625300  0.367200  0.547400  1.0  -0.0103
  C  C335  1  0.640340  0.541700  0.569600  1.0  0.0279
  C  C336  1  0.915150  0.893400  0.206100  1.0  -0.0871
  C  C337  1  0.850010  0.877400  0.285800  1.0  -0.0033
  C  C338  1  0.594890  0.376400  0.597900  1.0  -0.0834
  C  C339  1  0.775610  0.793600  0.432700  1.0  -0.1894
  C  C340  1  0.703630  0.798000  0.509700  1.0  0.1665
  C  C341  1  0.588460  0.467900  0.637500  1.0  -0.0413
  C  C342  1  0.699300  0.399000  0.731500  1.0  -0.1245
  C  C343  1  0.710730  0.315800  0.687600  1.0  -0.105
  C  C344  1  0.793090  0.955400  0.336300  1.0  -0.0745
  C  C345  1  0.734310  0.109600  0.622800  1.0  -0.1173
  C  C346  1  0.647600  0.450400  0.532900  1.0  -0.16
  C  C347  1  0.610530  0.549400  0.622500  1.0  -0.0954
  C  C348  1  0.908700  0.816800  0.261500  1.0  -0.0943
  C  C349  1  0.670250  0.702000  0.610400  1.0  -0.1029
  C  C350  1  0.717740  0.975000  0.533100  1.0  0.1929
  C  C351  1  0.690700  0.784400  0.591000  1.0  -0.169
  C  C352  1  0.951900  0.908200  0.169200  1.0  0.6928
  C  C353  1  0.571400  0.287400  0.612900  1.0  0.6621
  C  C354  1  0.657300  0.235100  0.718100  1.0  -0.147
  C  C355  1  0.666500  0.399900  0.769900  1.0  -0.1315
  C  C356  1  0.674940  0.642200  0.471500  1.0  -0.1353
  C  C357  1  0.875710  0.809500  0.298900  1.0  -0.1163
  C  C358  1  0.645900  0.314700  0.763200  1.0  -0.0877
  C  C359  1  0.682130  0.014300  0.532700  1.0  -0.2486
  C  C360  1  0.675380  0.097000  0.576900  1.0  -0.0848
  C  C361  1  0.889100  0.960500  0.189300  1.0  -0.1709
  C  C362  1  0.655900  0.492600  0.814500  1.0  0.5706
  C  C363  1  0.742980  0.026300  0.575900  1.0  -0.1867
  C  C364  1  0.856770  0.950900  0.230800  1.0  -0.0838
  C  C365  1  0.746080  0.377100  0.435200  1.0  0.1849
  C  C366  1  0.685520  0.372500  0.334100  1.0  -0.0782
  C  C367  1  0.809960  0.732800  0.676900  1.0  0.0685
  C  C368  1  0.837980  0.128900  0.550000  1.0  0.0637
  C  C369  1  0.800190  0.646400  0.624800  1.0  0.0498
  C  C370  1  0.737600  0.459100  0.385000  1.0  -0.1846
  C  C371  1  0.694100  0.291900  0.382800  1.0  -0.1184
  C  C372  1  0.803550  0.227700  0.450500  1.0  -0.1473
  C  C373  1  0.874700  0.867200  0.547400  1.0  -0.0066
  C  C374  1  0.859660  0.041700  0.569600  1.0  0.0279
  C  C375  1  0.584850  0.393400  0.206100  1.0  -0.089
  C  C376  1  0.649990  0.377400  0.285800  1.0  -0.0009
  C  C377  1  0.905110  0.876400  0.597900  1.0  -0.0824
  C  C378  1  0.724390  0.293600  0.432700  1.0  -0.1878
  C  C379  1  0.796370  0.298000  0.509700  1.0  0.1672
  C  C380  1  0.911540  0.967900  0.637500  1.0  -0.0411
  C  C381  1  0.800700  0.899000  0.731500  1.0  -0.1257
  C  C382  1  0.789270  0.815800  0.687600  1.0  -0.1042
  C  C383  1  0.706910  0.455400  0.336300  1.0  -0.0743
  C  C384  1  0.765690  0.609600  0.622800  1.0  -0.1161
  C  C385  1  0.852400  0.950400  0.532900  1.0  -0.1569
  C  C386  1  0.889470  0.049400  0.622500  1.0  -0.0944
  C  C387  1  0.591300  0.316800  0.261500  1.0  -0.0937
  C  C388  1  0.829750  0.202000  0.610400  1.0  -0.1026
  C  C389  1  0.782260  0.475000  0.533100  1.0  0.194
  C  C390  1  0.809300  0.284400  0.591000  1.0  -0.1692
  C  C391  1  0.548100  0.408200  0.169200  1.0  0.694
  C  C392  1  0.928600  0.787400  0.612900  1.0  0.6617
  C  C393  1  0.842700  0.735100  0.718100  1.0  -0.1476
  C  C394  1  0.833500  0.899900  0.769900  1.0  -0.131
  C  C395  1  0.825060  0.142200  0.471500  1.0  -0.1337
  C  C396  1  0.624290  0.309500  0.298900  1.0  -0.1147
  C  C397  1  0.854100  0.814700  0.763200  1.0  -0.09
  C  C398  1  0.817870  0.514300  0.532700  1.0  -0.2477
  C  C399  1  0.824620  0.597000  0.576900  1.0  -0.0861
  C  C400  1  0.610900  0.460500  0.189300  1.0  -0.1717
  C  C401  1  0.844100  0.992600  0.814500  1.0  0.5712
  C  C402  1  0.757020  0.526300  0.575900  1.0  -0.1865
  C  C403  1  0.643230  0.450900  0.230800  1.0  -0.0866
  C  C404  1  0.253920  0.622900  0.435200  1.0  0.1849
  C  C405  1  0.314480  0.627500  0.334100  1.0  -0.0765
  C  C406  1  0.190040  0.267200  0.676900  1.0  0.0685
  C  C407  1  0.162020  0.871100  0.550000  1.0  0.0634
  C  C408  1  0.199810  0.353600  0.624800  1.0  0.0491
  C  C409  1  0.262400  0.540900  0.385000  1.0  -0.1842
  C  C410  1  0.305900  0.708100  0.382800  1.0  -0.1188
  C  C411  1  0.196450  0.772300  0.450500  1.0  -0.1477
  C  C412  1  0.125300  0.132800  0.547400  1.0  -0.0112
  C  C413  1  0.140340  0.958300  0.569600  1.0  0.0274
  C  C414  1  0.415150  0.606600  0.206100  1.0  -0.0873
  C  C415  1  0.350010  0.622600  0.285800  1.0  -0.0032
  C  C416  1  0.094890  0.123600  0.597900  1.0  -0.0824
  C  C417  1  0.275610  0.706400  0.432700  1.0  -0.1899
  C  C418  1  0.203630  0.702000  0.509700  1.0  0.1669
  C  C419  1  0.088460  0.032100  0.637500  1.0  -0.0416
  C  C420  1  0.199300  0.101000  0.731500  1.0  -0.125
  C  C421  1  0.210730  0.184200  0.687600  1.0  -0.1048
  C  C422  1  0.293090  0.544600  0.336300  1.0  -0.0739
  C  C423  1  0.234310  0.390400  0.622800  1.0  -0.1178
  C  C424  1  0.147600  0.049600  0.532900  1.0  -0.1601
  C  C425  1  0.110530  0.950600  0.622500  1.0  -0.0944
  C  C426  1  0.408700  0.683200  0.261500  1.0  -0.0935
  C  C427  1  0.170250  0.798000  0.610400  1.0  -0.1031
  C  C428  1  0.217740  0.525000  0.533100  1.0  0.193
  C  C429  1  0.190700  0.715600  0.591000  1.0  -0.1695
  C  C430  1  0.451900  0.591800  0.169200  1.0  0.6923
  C  C431  1  0.071400  0.212600  0.612900  1.0  0.662
  C  C432  1  0.157300  0.264900  0.718100  1.0  -0.1464
  C  C433  1  0.166500  0.100100  0.769900  1.0  -0.1316
  C  C434  1  0.174940  0.857800  0.471500  1.0  -0.1358
  C  C435  1  0.375710  0.690500  0.298900  1.0  -0.1161
  C  C436  1  0.145900  0.185300  0.763200  1.0  -0.0873
  C  C437  1  0.182130  0.485700  0.532700  1.0  -0.2483
  C  C438  1  0.175380  0.403000  0.576900  1.0  -0.0848
  C  C439  1  0.389100  0.539500  0.189300  1.0  -0.1709
  C  C440  1  0.155900  0.007400  0.814500  1.0  0.5728
  C  C441  1  0.242980  0.473700  0.575900  1.0  -0.1863
  C  C442  1  0.356770  0.549100  0.230800  1.0  -0.083
  C  C443  1  0.246080  0.622900  0.935200  1.0  0.185
  C  C444  1  0.185520  0.627500  0.834100  1.0  -0.0777
  C  C445  1  0.309960  0.267200  0.176900  1.0  0.0686
  C  C446  1  0.337980  0.871100  0.050000  1.0  0.0645
  C  C447  1  0.300190  0.353600  0.124800  1.0  0.0491
  C  C448  1  0.237600  0.540900  0.885000  1.0  -0.1854
  C  C449  1  0.194100  0.708100  0.882800  1.0  -0.1185
  C  C450  1  0.303550  0.772300  0.950500  1.0  -0.147
  C  C451  1  0.374700  0.132800  0.047400  1.0  -0.0078
  C  C452  1  0.359660  0.958300  0.069600  1.0  0.0273
  C  C453  1  0.084850  0.606600  0.706100  1.0  -0.0888
  C  C454  1  0.149990  0.622600  0.785800  1.0  -0.0011
  C  C455  1  0.405110  0.123600  0.097900  1.0  -0.0822
  C  C456  1  0.224390  0.706400  0.932700  1.0  -0.1881
  C  C457  1  0.296370  0.702000  0.009700  1.0  0.1676
  C  C458  1  0.411540  0.032100  0.137500  1.0  -0.041
  C  C459  1  0.300700  0.101000  0.231500  1.0  -0.1263
  C  C460  1  0.289270  0.184200  0.187600  1.0  -0.1039
  C  C461  1  0.206910  0.544600  0.836300  1.0  -0.0737
  C  C462  1  0.265690  0.390400  0.122800  1.0  -0.1166
  C  C463  1  0.352400  0.049600  0.032900  1.0  -0.1568
  C  C464  1  0.389470  0.950600  0.122500  1.0  -0.0936
  C  C465  1  0.091300  0.683200  0.761500  1.0  -0.0936
  C  C466  1  0.329750  0.798000  0.110400  1.0  -0.1027
  C  C467  1  0.282260  0.525000  0.033100  1.0  0.1942
  C  C468  1  0.309300  0.715600  0.091000  1.0  -0.1695
  C  C469  1  0.048100  0.591800  0.669200  1.0  0.694
  C  C470  1  0.428600  0.212600  0.112900  1.0  0.6612
  C  C471  1  0.342700  0.264900  0.218100  1.0  -0.1479
  C  C472  1  0.333500  0.100100  0.269900  1.0  -0.1306
  C  C473  1  0.325060  0.857800  0.971500  1.0  -0.1349
  C  C474  1  0.124290  0.690500  0.798900  1.0  -0.1153
  C  C475  1  0.354100  0.185300  0.263200  1.0  -0.0897
  C  C476  1  0.317870  0.485700  0.032700  1.0  -0.2473
  C  C477  1  0.324620  0.403000  0.076900  1.0  -0.0861
  C  C478  1  0.110900  0.539500  0.689300  1.0  -0.172
  C  C479  1  0.344100  0.007400  0.314500  1.0  0.5733
  C  C480  1  0.257020  0.473700  0.075900  1.0  -0.1862
  C  C481  1  0.143230  0.549100  0.730800  1.0  -0.086
  C  C482  1  0.753920  0.377100  0.935200  1.0  0.1849
  C  C483  1  0.814480  0.372500  0.834100  1.0  -0.0768
  C  C484  1  0.690040  0.732800  0.176900  1.0  0.0685
  C  C485  1  0.662020  0.128900  0.050000  1.0  0.0632
  C  C486  1  0.699810  0.646400  0.124800  1.0  0.05
  C  C487  1  0.762400  0.459100  0.885000  1.0  -0.1837
  C  C488  1  0.805900  0.291900  0.882800  1.0  -0.119
  C  C489  1  0.696450  0.227700  0.950500  1.0  -0.1479
  C  C490  1  0.625300  0.867200  0.047400  1.0  -0.0103
  C  C491  1  0.640340  0.041700  0.069600  1.0  0.0279
  C  C492  1  0.915150  0.393400  0.706100  1.0  -0.0871
  C  C493  1  0.850010  0.377400  0.785800  1.0  -0.0033
  C  C494  1  0.594890  0.876400  0.097900  1.0  -0.0834
  C  C495  1  0.775610  0.293600  0.932700  1.0  -0.1894
  C  C496  1  0.703630  0.298000  0.009700  1.0  0.1665
  C  C497  1  0.588460  0.967900  0.137500  1.0  -0.0413
  C  C498  1  0.699300  0.899000  0.231500  1.0  -0.1245
  C  C499  1  0.710730  0.815800  0.187600  1.0  -0.105
  C  C500  1  0.793090  0.455400  0.836300  1.0  -0.0745
  C  C501  1  0.734310  0.609600  0.122800  1.0  -0.1173
  C  C502  1  0.647600  0.950400  0.032900  1.0  -0.16
  C  C503  1  0.610530  0.049400  0.122500  1.0  -0.0954
  C  C504  1  0.908700  0.316800  0.761500  1.0  -0.0943
  C  C505  1  0.670250  0.202000  0.110400  1.0  -0.1029
  C  C506  1  0.717740  0.475000  0.033100  1.0  0.1929
  C  C507  1  0.690700  0.284400  0.091000  1.0  -0.169
  C  C508  1  0.951900  0.408200  0.669200  1.0  0.6928
  C  C509  1  0.571400  0.787400  0.112900  1.0  0.6621
  C  C510  1  0.657300  0.735100  0.218100  1.0  -0.147
  C  C511  1  0.666500  0.899900  0.269900  1.0  -0.1315
  C  C512  1  0.674940  0.142200  0.971500  1.0  -0.1353
  C  C513  1  0.875710  0.309500  0.798900  1.0  -0.1163
  C  C514  1  0.645900  0.814700  0.263200  1.0  -0.0877
  C  C515  1  0.682130  0.514300  0.032700  1.0  -0.2486
  C  C516  1  0.675380  0.597000  0.076900  1.0  -0.0848
  C  C517  1  0.889100  0.460500  0.689300  1.0  -0.1709
  C  C518  1  0.655900  0.992600  0.314500  1.0  0.5706
  C  C519  1  0.742980  0.526300  0.075900  1.0  -0.1867
  C  C520  1  0.856770  0.450900  0.730800  1.0  -0.0838
  N  N521  1  0.775570  0.883200  0.989400  1.0  -0.1681
  N  N522  1  0.224430  0.116800  0.989400  1.0  -0.1688
  N  N523  1  0.275570  0.116800  0.489400  1.0  -0.1682
  N  N524  1  0.724430  0.883200  0.489400  1.0  -0.1687
  N  N525  1  0.775570  0.383200  0.489400  1.0  -0.1681
  N  N526  1  0.224430  0.616800  0.489400  1.0  -0.1688
  N  N527  1  0.275570  0.616800  0.989400  1.0  -0.1682
  N  N528  1  0.724430  0.383200  0.989400  1.0  -0.1687
  O  O529  1  0.918990  0.201800  0.090600  1.0  -0.5501
  O  O530  1  0.958230  0.301600  0.151100  1.0  -0.6076
  O  O531  1  0.542990  0.983800  0.622400  1.0  -0.6455
  O  O532  1  0.524730  0.841100  0.681100  1.0  -0.598
  O  O533  1  0.875380  0.476300  0.352500  1.0  -0.5244
  O  O534  1  0.828840  0.568200  0.317300  1.0  -0.4359
  O  O535  1  0.081010  0.798200  0.090600  1.0  -0.5488
  O  O536  1  0.041770  0.698400  0.151100  1.0  -0.6071
  O  O537  1  0.457010  0.016200  0.622400  1.0  -0.6435
  O  O538  1  0.475270  0.158900  0.681100  1.0  -0.5985
  O  O539  1  0.124620  0.523700  0.352500  1.0  -0.521
  O  O540  1  0.171160  0.431800  0.317300  1.0  -0.4358
  O  O541  1  0.418990  0.798200  0.590600  1.0  -0.5482
  O  O542  1  0.458230  0.698400  0.651100  1.0  -0.6069
  O  O543  1  0.042990  0.016200  0.122400  1.0  -0.6454
  O  O544  1  0.024730  0.158900  0.181100  1.0  -0.5985
  O  O545  1  0.375380  0.523700  0.852500  1.0  -0.5237
  O  O546  1  0.328840  0.431800  0.817300  1.0  -0.4357
  O  O547  1  0.581010  0.201800  0.590600  1.0  -0.5496
  O  O548  1  0.541770  0.301600  0.651100  1.0  -0.6068
  O  O549  1  0.957010  0.983800  0.122400  1.0  -0.6436
  O  O550  1  0.975270  0.841100  0.181100  1.0  -0.5979
  O  O551  1  0.624620  0.476300  0.852500  1.0  -0.5193
  O  O552  1  0.671160  0.568200  0.817300  1.0  -0.4359
  O  O553  1  0.918990  0.701800  0.590600  1.0  -0.5501
  O  O554  1  0.958230  0.801600  0.651100  1.0  -0.6076
  O  O555  1  0.542990  0.483800  0.122400  1.0  -0.6455
  O  O556  1  0.524730  0.341100  0.181100  1.0  -0.598
  O  O557  1  0.875380  0.976300  0.852500  1.0  -0.5244
  O  O558  1  0.828840  0.068200  0.817300  1.0  -0.4359
  O  O559  1  0.081010  0.298200  0.590600  1.0  -0.5488
  O  O560  1  0.041770  0.198400  0.651100  1.0  -0.6071
  O  O561  1  0.457010  0.516200  0.122400  1.0  -0.6435
  O  O562  1  0.475270  0.658900  0.181100  1.0  -0.5985
  O  O563  1  0.124620  0.023700  0.852500  1.0  -0.521
  O  O564  1  0.171160  0.931800  0.817300  1.0  -0.4358
  O  O565  1  0.418990  0.298200  0.090600  1.0  -0.5482
  O  O566  1  0.458230  0.198400  0.151100  1.0  -0.6069
  O  O567  1  0.042990  0.516200  0.622400  1.0  -0.6454
  O  O568  1  0.024730  0.658900  0.681100  1.0  -0.5985
  O  O569  1  0.375380  0.023700  0.352500  1.0  -0.5237
  O  O570  1  0.328840  0.931800  0.317300  1.0  -0.4357
  O  O571  1  0.581010  0.701800  0.090600  1.0  -0.5496
  O  O572  1  0.541770  0.801600  0.151100  1.0  -0.6068
  O  O573  1  0.957010  0.483800  0.622400  1.0  -0.6436
  O  O574  1  0.975270  0.341100  0.681100  1.0  -0.5979
  O  O575  1  0.624620  0.976300  0.352500  1.0  -0.5193
  O  O576  1  0.671160  0.068200  0.317300  1.0  -0.4359
