# generated using pymatgen
data_Mn3H49C78N2O13
_symmetry_space_group_name_H-M   'P 1'
_cell_length_a   10.15650000
_cell_length_b   37.90510000
_cell_length_c   41.21750000
_cell_angle_alpha   90.00000000
_cell_angle_beta   99.89400000
_cell_angle_gamma   90.00000000
_symmetry_Int_Tables_number   1
_chemical_formula_structural   Mn3H49C78N2O13
_chemical_formula_sum   'Mn12 H196 C312 N8 O52'
_cell_volume   15632.04266581
_cell_formula_units_Z   4
loop_
 _symmetry_equiv_pos_site_id
 _symmetry_equiv_pos_as_xyz
  1  'x, y, z'
loop_
 _atom_site_type_symbol
 _atom_site_label
 _atom_site_symmetry_multiplicity
 _atom_site_fract_x
 _atom_site_fract_y
 _atom_site_fract_z
 _atom_site_occupancy
 _atom_site_charge
  Mn  Mn1  1  0.849240  0.332990  0.292570  1.0  1.1363
  Mn  Mn2  1  0.527120  0.379980  0.281390  1.0  1.19
  Mn  Mn3  1  0.924240  0.899280  0.226830  1.0  1.0507
  Mn  Mn4  1  0.150760  0.832990  0.207430  1.0  1.1367
  Mn  Mn5  1  0.472880  0.879980  0.218610  1.0  1.1679
  Mn  Mn6  1  0.075760  0.399280  0.273170  1.0  1.0522
  Mn  Mn7  1  0.150760  0.667010  0.707430  1.0  1.1377
  Mn  Mn8  1  0.472880  0.620020  0.718610  1.0  1.19
  Mn  Mn9  1  0.075760  0.100720  0.773170  1.0  1.0531
  Mn  Mn10  1  0.849240  0.167010  0.792570  1.0  1.1373
  Mn  Mn11  1  0.527120  0.120020  0.781390  1.0  1.1685
  Mn  Mn12  1  0.924240  0.600720  0.726830  1.0  1.0512
  H  H13  1  0.558000  0.282500  0.139500  1.0  0.1153
  H  H14  1  0.753800  0.201300  0.083000  1.0  0.1239
  H  H15  1  0.456300  0.111400  0.074300  1.0  0.0954
  H  H16  1  0.147700  0.203000  0.930600  1.0  0.1163
  H  H17  1  0.671200  0.267700  0.252400  1.0  0.128
  H  H18  1  0.928800  0.975200  0.130900  1.0  0.1277
  H  H19  1  0.933700  0.241500  0.165100  1.0  0.1129
  H  H20  1  0.243200  0.100400  0.877800  1.0  0.124
  H  H21  1  0.109400  0.201500  0.876200  1.0  0.1148
  H  H22  1  0.676000  0.220300  0.217700  1.0  0.1214
  H  H23  1  0.188300  0.098800  0.980900  1.0  0.1088
  H  H24  1  0.026700  0.186600  0.076000  1.0  0.1242
  H  H25  1  0.620400  0.177100  0.183300  1.0  0.1353
  H  H26  1  0.353600  0.220600  0.164300  1.0  0.1344
  H  H27  1  0.255700  0.200800  0.040900  1.0  0.1191
  H  H28  1  0.665600  0.131300  0.150800  1.0  0.1135
  H  H29  1  0.227500  0.988000  0.228400  1.0  0.1397
  H  H30  1  0.247500  0.203700  0.983900  1.0  0.1297
  H  H31  1  0.211900  0.096600  0.034900  1.0  0.1103
  H  H32  1  0.688500  0.245300  0.113600  1.0  0.1083
  H  H33  1  0.130600  0.034100  0.200000  1.0  0.0991
  H  H34  1  0.505600  0.132500  0.888100  1.0  0.1031
  H  H35  1  0.937600  0.116100  0.057700  1.0  0.1063
  H  H36  1  0.149000  0.109200  0.122700  1.0  0.1364
  H  H37  1  0.924500  0.117900  0.002500  1.0  0.1131
  H  H38  1  0.869000  0.018700  0.103800  1.0  0.1278
  H  H39  1  0.003400  0.077000  0.181900  1.0  0.1167
  H  H40  1  0.901000  0.145900  0.897000  1.0  0.1023
  H  H41  1  0.010100  0.924300  0.159000  1.0  0.1164
  H  H42  1  0.921500  0.142300  0.952700  1.0  0.1085
  H  H43  1  0.776800  0.066800  0.076600  1.0  0.1407
  H  H44  1  0.526300  0.129700  0.945200  1.0  0.1195
  H  H45  1  0.248100  0.324000  0.207400  1.0  0.1063
  H  H46  1  0.546300  0.330100  0.172000  1.0  0.1352
  H  H47  1  0.667000  0.048600  0.158400  1.0  0.1006
  H  H48  1  0.397500  0.178100  0.126200  1.0  0.1017
  H  H49  1  0.982100  0.230600  0.109900  1.0  0.126
  H  H50  1  0.269400  0.102200  0.935300  1.0  0.109
  H  H51  1  0.927200  0.128300  0.153600  1.0  0.141
  H  H52  1  0.572300  0.157900  0.051700  1.0  0.1204
  H  H53  1  0.322000  0.000000  0.152300  1.0  0.1159
  H  H54  1  0.889100  0.280700  0.203900  1.0  0.0753
  H  H55  1  0.252300  0.060800  0.154200  1.0  0.1043
  H  H56  1  0.555000  0.064600  0.104000  1.0  0.1182
  H  H57  1  0.312000  0.281400  0.174600  1.0  0.1307
  H  H58  1  0.779100  0.003000  0.190200  1.0  0.116
  H  H59  1  0.427000  0.954200  0.186800  1.0  0.0977
  H  H60  1  0.552100  0.156400  0.994800  1.0  0.1146
  H  H61  1  0.356000  0.351000  0.273000  1.0  0.327
  H  H62  1  0.442000  0.782500  0.360500  1.0  0.1143
  H  H63  1  0.246200  0.701300  0.417000  1.0  0.1229
  H  H64  1  0.543700  0.611400  0.425700  1.0  0.0947
  H  H65  1  0.852300  0.703000  0.569400  1.0  0.1162
  H  H66  1  0.328800  0.767700  0.247600  1.0  0.1279
  H  H67  1  0.071200  0.475200  0.369100  1.0  0.1288
  H  H68  1  0.066300  0.741500  0.334900  1.0  0.1128
  H  H69  1  0.756800  0.600400  0.622200  1.0  0.1242
  H  H70  1  0.890600  0.701500  0.623800  1.0  0.1143
  H  H71  1  0.324000  0.720300  0.282300  1.0  0.1204
  H  H72  1  0.811700  0.598800  0.519100  1.0  0.1096
  H  H73  1  0.973300  0.686600  0.424000  1.0  0.1254
  H  H74  1  0.379600  0.677100  0.316700  1.0  0.1351
  H  H75  1  0.646400  0.720600  0.335700  1.0  0.1339
  H  H76  1  0.744300  0.700800  0.459100  1.0  0.1194
  H  H77  1  0.334400  0.631300  0.349200  1.0  0.1148
  H  H78  1  0.772500  0.488000  0.271600  1.0  0.1415
  H  H79  1  0.752500  0.703700  0.516100  1.0  0.1297
  H  H80  1  0.788100  0.596600  0.465100  1.0  0.11
  H  H81  1  0.311500  0.745300  0.386400  1.0  0.1082
  H  H82  1  0.869400  0.534100  0.300000  1.0  0.1007
  H  H83  1  0.494400  0.632500  0.611900  1.0  0.1019
  H  H84  1  0.062400  0.616100  0.442300  1.0  0.1066
  H  H85  1  0.851000  0.609200  0.377300  1.0  0.1361
  H  H86  1  0.075500  0.617900  0.497500  1.0  0.1136
  H  H87  1  0.131000  0.518700  0.396200  1.0  0.1273
  H  H88  1  0.996600  0.577000  0.318100  1.0  0.1171
  H  H89  1  0.099000  0.645900  0.603000  1.0  0.1026
  H  H90  1  0.989900  0.424300  0.341000  1.0  0.117
  H  H91  1  0.078500  0.642300  0.547300  1.0  0.1083
  H  H92  1  0.223200  0.566800  0.423400  1.0  0.1398
  H  H93  1  0.473700  0.629700  0.554800  1.0  0.1192
  H  H94  1  0.751900  0.824000  0.292600  1.0  0.1067
  H  H95  1  0.453700  0.830100  0.328000  1.0  0.1351
  H  H96  1  0.333000  0.548600  0.341600  1.0  0.101
  H  H97  1  0.602500  0.678100  0.373800  1.0  0.1016
  H  H98  1  0.017900  0.730600  0.390100  1.0  0.1255
  H  H99  1  0.730600  0.602200  0.564700  1.0  0.1086
  H  H100  1  0.072800  0.628300  0.346400  1.0  0.1427
  H  H101  1  0.427700  0.657900  0.448300  1.0  0.1193
  H  H102  1  0.678000  0.500000  0.347700  1.0  0.1163
  H  H103  1  0.110900  0.780700  0.296100  1.0  0.0751
  H  H104  1  0.747700  0.560800  0.345800  1.0  0.1039
  H  H105  1  0.445000  0.564600  0.396000  1.0  0.1186
  H  H106  1  0.688000  0.781400  0.325400  1.0  0.1297
  H  H107  1  0.220900  0.503000  0.309800  1.0  0.1167
  H  H108  1  0.573000  0.454200  0.313200  1.0  0.0974
  H  H109  1  0.447900  0.656400  0.505200  1.0  0.1149
  H  H110  1  0.644000  0.851000  0.227000  1.0  0.3301
  H  H111  1  0.442000  0.717500  0.860500  1.0  0.1137
  H  H112  1  0.246200  0.798700  0.917000  1.0  0.1231
  H  H113  1  0.543700  0.888600  0.925700  1.0  0.0953
  H  H114  1  0.852300  0.797000  0.069400  1.0  0.1154
  H  H115  1  0.328800  0.732300  0.747600  1.0  0.1283
  H  H116  1  0.071200  0.024800  0.869100  1.0  0.1291
  H  H117  1  0.066300  0.758500  0.834900  1.0  0.1127
  H  H118  1  0.756800  0.899600  0.122200  1.0  0.1245
  H  H119  1  0.890600  0.798500  0.123800  1.0  0.1139
  H  H120  1  0.324000  0.779700  0.782300  1.0  0.1213
  H  H121  1  0.811700  0.901200  0.019100  1.0  0.1097
  H  H122  1  0.973300  0.813400  0.924000  1.0  0.1249
  H  H123  1  0.379600  0.822900  0.816700  1.0  0.1352
  H  H124  1  0.646400  0.779400  0.835700  1.0  0.1341
  H  H125  1  0.744300  0.799200  0.959100  1.0  0.1212
  H  H126  1  0.334400  0.868700  0.849200  1.0  0.1142
  H  H127  1  0.772500  0.012000  0.771600  1.0  0.1408
  H  H128  1  0.752500  0.796300  0.016100  1.0  0.1294
  H  H129  1  0.788100  0.903400  0.965100  1.0  0.1105
  H  H130  1  0.311500  0.754700  0.886400  1.0  0.1085
  H  H131  1  0.869400  0.965900  0.800000  1.0  0.0998
  H  H132  1  0.494400  0.867500  0.111900  1.0  0.102
  H  H133  1  0.062400  0.883900  0.942300  1.0  0.1067
  H  H134  1  0.851000  0.890800  0.877300  1.0  0.1362
  H  H135  1  0.075500  0.882100  0.997500  1.0  0.1133
  H  H136  1  0.131000  0.981300  0.896200  1.0  0.1277
  H  H137  1  0.996600  0.923000  0.818100  1.0  0.1163
  H  H138  1  0.099000  0.854100  0.103000  1.0  0.1024
  H  H139  1  0.989900  0.075700  0.841000  1.0  0.1168
  H  H140  1  0.078500  0.857700  0.047300  1.0  0.108
  H  H141  1  0.223200  0.933200  0.923400  1.0  0.1395
  H  H142  1  0.473700  0.870300  0.054800  1.0  0.1194
  H  H143  1  0.751900  0.676000  0.792600  1.0  0.106
  H  H144  1  0.453700  0.669900  0.828000  1.0  0.135
  H  H145  1  0.333000  0.951400  0.841600  1.0  0.1007
  H  H146  1  0.602500  0.821900  0.873800  1.0  0.1014
  H  H147  1  0.017900  0.769400  0.890100  1.0  0.1253
  H  H148  1  0.730600  0.897800  0.064700  1.0  0.1102
  H  H149  1  0.072800  0.871700  0.846400  1.0  0.1421
  H  H150  1  0.427700  0.842100  0.948300  1.0  0.1199
  H  H151  1  0.678000  0.000000  0.847700  1.0  0.1157
  H  H152  1  0.110900  0.719300  0.796100  1.0  0.075
  H  H153  1  0.747700  0.939200  0.845800  1.0  0.1036
  H  H154  1  0.445000  0.935400  0.896000  1.0  0.1184
  H  H155  1  0.688000  0.718600  0.825400  1.0  0.1299
  H  H156  1  0.220900  0.997000  0.809800  1.0  0.1168
  H  H157  1  0.573000  0.045800  0.813200  1.0  0.0974
  H  H158  1  0.447900  0.843600  0.005200  1.0  0.115
  H  H159  1  0.644000  0.649000  0.727000  1.0  0.3283
  H  H160  1  0.558000  0.217500  0.639500  1.0  0.1151
  H  H161  1  0.753800  0.298700  0.583000  1.0  0.124
  H  H162  1  0.456300  0.388600  0.574300  1.0  0.096
  H  H163  1  0.147700  0.297000  0.430600  1.0  0.116
  H  H164  1  0.671200  0.232300  0.752400  1.0  0.1281
  H  H165  1  0.928800  0.524800  0.630900  1.0  0.1283
  H  H166  1  0.933700  0.258500  0.665100  1.0  0.1128
  H  H167  1  0.243200  0.399600  0.377800  1.0  0.1243
  H  H168  1  0.109400  0.298500  0.376200  1.0  0.1133
  H  H169  1  0.676000  0.279700  0.717700  1.0  0.1206
  H  H170  1  0.188300  0.401200  0.480900  1.0  0.1101
  H  H171  1  0.026700  0.313400  0.576000  1.0  0.1246
  H  H172  1  0.620400  0.322900  0.683300  1.0  0.1351
  H  H173  1  0.353600  0.279400  0.664300  1.0  0.1345
  H  H174  1  0.255700  0.299200  0.540900  1.0  0.121
  H  H175  1  0.665600  0.368700  0.650800  1.0  0.1126
  H  H176  1  0.227500  0.512000  0.728400  1.0  0.1399
  H  H177  1  0.247500  0.296300  0.483900  1.0  0.1289
  H  H178  1  0.211900  0.403400  0.534900  1.0  0.1102
  H  H179  1  0.688500  0.254700  0.613600  1.0  0.1079
  H  H180  1  0.130600  0.465900  0.700000  1.0  0.0991
  H  H181  1  0.505600  0.367500  0.388100  1.0  0.1029
  H  H182  1  0.937600  0.383900  0.557700  1.0  0.1062
  H  H183  1  0.149000  0.390800  0.622700  1.0  0.1364
  H  H184  1  0.924500  0.382100  0.502500  1.0  0.1134
  H  H185  1  0.869000  0.481300  0.603800  1.0  0.1279
  H  H186  1  0.003400  0.423000  0.681900  1.0  0.1169
  H  H187  1  0.901000  0.354100  0.397000  1.0  0.1019
  H  H188  1  0.010100  0.575700  0.659000  1.0  0.1166
  H  H189  1  0.921500  0.357700  0.452700  1.0  0.1086
  H  H190  1  0.776800  0.433200  0.576600  1.0  0.1413
  H  H191  1  0.526300  0.370300  0.445200  1.0  0.1195
  H  H192  1  0.248100  0.176000  0.707400  1.0  0.1065
  H  H193  1  0.546300  0.169900  0.672000  1.0  0.135
  H  H194  1  0.667000  0.451400  0.658400  1.0  0.1008
  H  H195  1  0.397500  0.321900  0.626200  1.0  0.1018
  H  H196  1  0.982100  0.269400  0.609900  1.0  0.1253
  H  H197  1  0.269400  0.397800  0.435300  1.0  0.1097
  H  H198  1  0.927200  0.371700  0.653600  1.0  0.1413
  H  H199  1  0.572300  0.342100  0.551700  1.0  0.1207
  H  H200  1  0.322000  0.500000  0.652300  1.0  0.1158
  H  H201  1  0.889100  0.219300  0.703900  1.0  0.0753
  H  H202  1  0.252300  0.439200  0.654200  1.0  0.1039
  H  H203  1  0.555000  0.435400  0.604000  1.0  0.1181
  H  H204  1  0.312000  0.218600  0.674600  1.0  0.1307
  H  H205  1  0.779100  0.497000  0.690200  1.0  0.1165
  H  H206  1  0.427000  0.545800  0.686800  1.0  0.0973
  H  H207  1  0.552100  0.343600  0.494800  1.0  0.1143
  H  H208  1  0.356000  0.149000  0.773000  1.0  0.3294
  C  C209  1  0.584200  0.280100  0.162100  1.0  -0.1056
  C  C210  1  0.728000  0.195900  0.103000  1.0  -0.1382
  C  C211  1  0.415700  0.101700  0.090800  1.0  -0.1407
  C  C212  1  0.702200  0.136500  0.885100  1.0  -0.1116
  C  C213  1  0.300500  0.115300  0.096600  1.0  0.1996
  C  C214  1  0.657200  0.216600  0.151700  1.0  0.0725
  C  C215  1  0.162100  0.182100  0.920000  1.0  -0.1404
  C  C216  1  0.728200  0.160400  0.113500  1.0  0.1398
  C  C217  1  0.737000  0.136800  0.990900  1.0  0.0644
  C  C218  1  0.648100  0.270700  0.229800  1.0  -0.1223
  C  C219  1  0.956400  0.042500  0.145500  1.0  0.0422
  C  C220  1  0.986200  0.977300  0.150900  1.0  -0.1017
  C  C221  1  0.999400  0.257400  0.174300  1.0  -0.1583
  C  C222  1  0.758900  0.135900  0.061400  1.0  0.1965
  C  C223  1  0.208500  0.151000  0.939700  1.0  0.0659
  C  C224  1  0.418200  0.058700  0.133700  1.0  0.0555
  C  C225  1  0.580800  0.333333  0.237800  1.0  0.6569
  C  C226  1  0.605100  0.303800  0.216500  1.0  -0.0881
  C  C227  1  0.218600  0.120500  0.888200  1.0  -0.1407
  C  C228  1  0.140300  0.181100  0.887600  1.0  -0.0934
  C  C229  1  0.161400  0.150500  0.868900  1.0  -0.0687
  C  C230  1  0.655600  0.242600  0.208700  1.0  -0.109
  C  C231  1  0.207200  0.119700  0.992600  1.0  -0.1436
  C  C232  1  0.091600  0.193600  0.093500  1.0  -0.1152
  C  C233  1  0.647100  0.181400  0.163200  1.0  -0.1695
  C  C234  1  0.830300  0.101600  0.113500  1.0  0.0691
  C  C235  1  0.236500  0.148100  0.045000  1.0  0.2579
  C  C236  1  0.289300  0.214200  0.146400  1.0  -0.1569
  C  C237  1  0.245600  0.180100  0.028700  1.0  -0.1266
  C  C238  1  0.613500  0.972600  0.191600  1.0  -0.0712
  C  C239  1  0.677500  0.154300  0.144200  1.0  -0.1509
  C  C240  1  0.166800  0.984600  0.209000  1.0  -0.1555
  C  C241  1  0.240000  0.182000  0.994000  1.0  -0.1413
  C  C242  1  0.217600  0.118500  0.025000  1.0  -0.1665
  C  C243  1  0.691000  0.222300  0.121700  1.0  -0.1093
  C  C244  1  0.694000  0.138400  0.848600  1.0  0.7322
  C  C245  1  0.107800  0.011700  0.191800  1.0  -0.1174
  C  C246  1  0.590200  0.133900  0.900900  1.0  -0.0532
  C  C247  1  0.859300  0.124700  0.045100  1.0  -0.1698
  C  C248  1  0.231700  0.100600  0.119600  1.0  -0.1684
  C  C249  1  0.851500  0.125300  0.011600  1.0  -0.1328
  C  C250  1  0.633800  0.246300  0.174600  1.0  0.0491
  C  C251  1  0.222800  0.150400  0.974800  1.0  0.0637
  C  C252  1  0.880300  0.040600  0.114100  1.0  -0.1011
  C  C253  1  0.962000  0.075200  0.160100  1.0  -0.1059
  C  C254  1  0.485800  0.028000  0.153100  1.0  0.0848
  C  C255  1  0.825000  0.141700  0.906200  1.0  -0.0289
  C  C256  1  0.038000  0.946400  0.167300  1.0  -0.1042
  C  C257  1  0.837200  0.140900  0.939700  1.0  -0.1512
  C  C258  1  0.722500  0.137900  0.954900  1.0  0.0661
  C  C259  1  0.034400  0.331800  0.237500  1.0  0.7138
  C  C260  1  0.822300  0.069000  0.098100  1.0  -0.1443
  C  C261  1  0.601800  0.133300  0.935600  1.0  -0.1605
  C  C262  1  0.188600  0.305900  0.200000  1.0  -0.0635
  C  C263  1  0.573300  0.308300  0.181200  1.0  -0.184
  C  C264  1  0.127000  0.257000  0.164200  1.0  -0.0337
  C  C265  1  0.618900  0.029200  0.163800  1.0  -0.134
  C  C266  1  0.061000  0.305100  0.211700  1.0  -0.1197
  C  C267  1  0.312900  0.188200  0.123900  1.0  -0.1092
  C  C268  1  0.065000  0.219500  0.113500  1.0  -0.1288
  C  C269  1  0.236700  0.122000  0.923300  1.0  -0.1497
  C  C270  1  0.909800  0.106100  0.144200  1.0  -0.158
  C  C271  1  0.641600  0.149100  0.042000  1.0  -0.1942
  C  C272  1  0.413300  0.000900  0.160300  1.0  -0.1492
  C  C273  1  0.163500  0.229800  0.140100  1.0  0.0075
  C  C274  1  0.972800  0.281300  0.197700  1.0  -0.0071
  C  C275  1  0.215800  0.177000  0.098900  1.0  0.1392
  C  C276  1  0.294900  0.071300  0.138500  1.0  -0.0933
  C  C277  1  0.475300  0.073600  0.108700  1.0  -0.1407
  C  C278  1  0.225500  0.281800  0.179100  1.0  -0.1465
  C  C279  1  0.195000  0.916400  0.213100  1.0  0.6527
  C  C280  1  0.016700  0.009800  0.163200  1.0  0.0373
  C  C281  1  0.687200  0.001800  0.183200  1.0  -0.0772
  C  C282  1  0.683100  0.943900  0.211000  1.0  0.6849
  C  C283  1  0.128000  0.148400  0.835000  1.0  0.7024
  C  C284  1  0.132200  0.949600  0.196100  1.0  -0.1043
  C  C285  1  0.478300  0.972600  0.180900  1.0  -0.0276
  C  C286  1  0.631300  0.148600  0.007500  1.0  -0.0921
  C  C287  1  0.415800  0.780100  0.337900  1.0  -0.1053
  C  C288  1  0.272000  0.695900  0.397000  1.0  -0.1395
  C  C289  1  0.584300  0.601700  0.409200  1.0  -0.1394
  C  C290  1  0.297800  0.636500  0.614900  1.0  -0.1122
  C  C291  1  0.699500  0.615300  0.403400  1.0  0.1999
  C  C292  1  0.342800  0.716600  0.348300  1.0  0.0725
  C  C293  1  0.837900  0.682100  0.580000  1.0  -0.139
  C  C294  1  0.271800  0.660400  0.386500  1.0  0.1397
  C  C295  1  0.263000  0.636800  0.509100  1.0  0.0645
  C  C296  1  0.351900  0.770700  0.270200  1.0  -0.1217
  C  C297  1  0.043600  0.542500  0.354500  1.0  0.0425
  C  C298  1  0.013800  0.477300  0.349100  1.0  -0.1011
  C  C299  1  0.000600  0.757400  0.325700  1.0  -0.1578
  C  C300  1  0.241100  0.635900  0.438600  1.0  0.1967
  C  C301  1  0.791500  0.651000  0.560300  1.0  0.0647
  C  C302  1  0.581800  0.558700  0.366300  1.0  0.0555
  C  C303  1  0.419200  0.833300  0.262200  1.0  0.6664
  C  C304  1  0.394900  0.803800  0.283500  1.0  -0.0874
  C  C305  1  0.781400  0.620500  0.611800  1.0  -0.1404
  C  C306  1  0.859700  0.681100  0.612400  1.0  -0.0905
  C  C307  1  0.838600  0.650500  0.631100  1.0  -0.0698
  C  C308  1  0.344400  0.742600  0.291300  1.0  -0.1059
  C  C309  1  0.792800  0.619700  0.507400  1.0  -0.1422
  C  C310  1  0.908400  0.693600  0.406500  1.0  -0.1152
  C  C311  1  0.352900  0.681400  0.336800  1.0  -0.1713
  C  C312  1  0.169700  0.601600  0.386500  1.0  0.0695
  C  C313  1  0.763500  0.648100  0.455000  1.0  0.2583
  C  C314  1  0.710700  0.714200  0.353600  1.0  -0.1573
  C  C315  1  0.754400  0.680100  0.471300  1.0  -0.1271
  C  C316  1  0.386500  0.472600  0.308400  1.0  -0.072
  C  C317  1  0.322500  0.654300  0.355800  1.0  -0.1515
  C  C318  1  0.833200  0.484600  0.291000  1.0  -0.1521
  C  C319  1  0.760000  0.682000  0.506000  1.0  -0.1423
  C  C320  1  0.782400  0.618500  0.475000  1.0  -0.1658
  C  C321  1  0.309000  0.722300  0.378300  1.0  -0.1072
  C  C322  1  0.306000  0.638400  0.651400  1.0  0.7309
  C  C323  1  0.892200  0.511700  0.308200  1.0  -0.117
  C  C324  1  0.409800  0.633900  0.599100  1.0  -0.0533
  C  C325  1  0.140700  0.624700  0.454900  1.0  -0.1697
  C  C326  1  0.768300  0.600600  0.380400  1.0  -0.1692
  C  C327  1  0.148500  0.625300  0.488400  1.0  -0.1325
  C  C328  1  0.366200  0.746300  0.325400  1.0  0.049
  C  C329  1  0.777200  0.650400  0.525200  1.0  0.0619
  C  C330  1  0.119700  0.540600  0.385900  1.0  -0.1011
  C  C331  1  0.038000  0.575200  0.339900  1.0  -0.1034
  C  C332  1  0.514200  0.528000  0.346900  1.0  0.0852
  C  C333  1  0.175000  0.641700  0.593800  1.0  -0.0287
  C  C334  1  0.962000  0.446400  0.332700  1.0  -0.1046
  C  C335  1  0.162800  0.640900  0.560300  1.0  -0.1511
  C  C336  1  0.277500  0.637900  0.545100  1.0  0.0658
  C  C337  1  0.965600  0.831800  0.262500  1.0  0.7137
  C  C338  1  0.177700  0.569000  0.401900  1.0  -0.1469
  C  C339  1  0.398200  0.633300  0.564400  1.0  -0.1601
  C  C340  1  0.811400  0.805900  0.300000  1.0  -0.0635
  C  C341  1  0.426700  0.808300  0.318800  1.0  -0.1832
  C  C342  1  0.873000  0.757000  0.335800  1.0  -0.0344
  C  C343  1  0.381100  0.529200  0.336200  1.0  -0.1346
  C  C344  1  0.939000  0.805100  0.288300  1.0  -0.1205
  C  C345  1  0.687100  0.688200  0.376100  1.0  -0.1084
  C  C346  1  0.935000  0.719500  0.386500  1.0  -0.1277
  C  C347  1  0.763300  0.622000  0.576700  1.0  -0.1502
  C  C348  1  0.090200  0.606100  0.355800  1.0  -0.1577
  C  C349  1  0.358400  0.649100  0.458000  1.0  -0.1951
  C  C350  1  0.586700  0.500900  0.339700  1.0  -0.1491
  C  C351  1  0.836500  0.729800  0.359900  1.0  0.0073
  C  C352  1  0.027200  0.781300  0.302300  1.0  -0.0083
  C  C353  1  0.784200  0.677000  0.401100  1.0  0.1391
  C  C354  1  0.705100  0.571300  0.361500  1.0  -0.0932
  C  C355  1  0.524700  0.573600  0.391300  1.0  -0.1393
  C  C356  1  0.774500  0.781800  0.320900  1.0  -0.1486
  C  C357  1  0.805000  0.416400  0.286900  1.0  0.653
  C  C358  1  0.983300  0.509800  0.336800  1.0  0.037
  C  C359  1  0.312800  0.501800  0.316800  1.0  -0.0783
  C  C360  1  0.316900  0.443900  0.289000  1.0  0.6825
  C  C361  1  0.872000  0.648400  0.665000  1.0  0.7007
  C  C362  1  0.867800  0.449600  0.303900  1.0  -0.1081
  C  C363  1  0.521700  0.472600  0.319100  1.0  -0.027
  C  C364  1  0.368700  0.648600  0.492500  1.0  -0.0928
  C  C365  1  0.415800  0.719900  0.837900  1.0  -0.1058
  C  C366  1  0.272000  0.804100  0.897000  1.0  -0.1389
  C  C367  1  0.584300  0.898300  0.909200  1.0  -0.1386
  C  C368  1  0.297800  0.863500  0.114900  1.0  -0.1127
  C  C369  1  0.699500  0.884700  0.903400  1.0  0.1999
  C  C370  1  0.342800  0.783400  0.848300  1.0  0.0725
  C  C371  1  0.837900  0.817900  0.080000  1.0  -0.141
  C  C372  1  0.271800  0.839600  0.886500  1.0  0.1398
  C  C373  1  0.263000  0.863200  0.009100  1.0  0.0644
  C  C374  1  0.351900  0.729300  0.770200  1.0  -0.1231
  C  C375  1  0.043600  0.957500  0.854500  1.0  0.0423
  C  C376  1  0.013800  0.022700  0.849100  1.0  -0.1017
  C  C377  1  0.000600  0.742600  0.825700  1.0  -0.1583
  C  C378  1  0.241100  0.864100  0.938600  1.0  0.1967
  C  C379  1  0.791500  0.849000  0.060300  1.0  0.0644
  C  C380  1  0.581800  0.941300  0.866300  1.0  0.0559
  C  C381  1  0.419200  0.666667  0.762200  1.0  0.6563
  C  C382  1  0.394900  0.696200  0.783500  1.0  -0.0892
  C  C383  1  0.781400  0.879500  0.111800  1.0  -0.1424
  C  C384  1  0.859700  0.818900  0.112400  1.0  -0.0933
  C  C385  1  0.838600  0.849500  0.131100  1.0  -0.07
  C  C386  1  0.344400  0.757400  0.791300  1.0  -0.105
  C  C387  1  0.792800  0.880300  0.007400  1.0  -0.1443
  C  C388  1  0.908400  0.806400  0.906500  1.0  -0.1153
  C  C389  1  0.352900  0.818600  0.836800  1.0  -0.1709
  C  C390  1  0.169700  0.898400  0.886500  1.0  0.0689
  C  C391  1  0.763500  0.851900  0.955000  1.0  0.2585
  C  C392  1  0.710700  0.785800  0.853600  1.0  -0.1573
  C  C393  1  0.754400  0.819900  0.971300  1.0  -0.1275
  C  C394  1  0.386500  0.027400  0.808400  1.0  -0.0711
  C  C395  1  0.322500  0.845700  0.855800  1.0  -0.1523
  C  C396  1  0.833200  0.015400  0.791000  1.0  -0.1523
  C  C397  1  0.760000  0.818000  0.006000  1.0  -0.1421
  C  C398  1  0.782400  0.881500  0.975000  1.0  -0.1682
  C  C399  1  0.309000  0.777700  0.878300  1.0  -0.1063
  C  C400  1  0.306000  0.861600  0.151400  1.0  0.7311
  C  C401  1  0.892200  0.988300  0.808200  1.0  -0.116
  C  C402  1  0.409800  0.866100  0.099100  1.0  -0.0538
  C  C403  1  0.140700  0.875300  0.954900  1.0  -0.1696
  C  C404  1  0.768300  0.899400  0.880400  1.0  -0.1686
  C  C405  1  0.148500  0.874700  0.988400  1.0  -0.1329
  C  C406  1  0.366200  0.753700  0.825400  1.0  0.0488
  C  C407  1  0.777200  0.849600  0.025200  1.0  0.0621
  C  C408  1  0.119700  0.959400  0.885900  1.0  -0.1013
  C  C409  1  0.038000  0.924800  0.839900  1.0  -0.1015
  C  C410  1  0.514200  0.972000  0.846900  1.0  0.0848
  C  C411  1  0.175000  0.858300  0.093800  1.0  -0.0286
  C  C412  1  0.962000  0.053600  0.832700  1.0  -0.1055
  C  C413  1  0.162800  0.859100  0.060300  1.0  -0.1509
  C  C414  1  0.277500  0.862100  0.045100  1.0  0.0658
  C  C415  1  0.965600  0.668200  0.762500  1.0  0.7139
  C  C416  1  0.177700  0.931000  0.901900  1.0  -0.1467
  C  C417  1  0.398200  0.866700  0.064400  1.0  -0.1594
  C  C418  1  0.811400  0.694100  0.800000  1.0  -0.0625
  C  C419  1  0.426700  0.691700  0.818800  1.0  -0.1828
  C  C420  1  0.873000  0.743000  0.835800  1.0  -0.0346
  C  C421  1  0.381100  0.970800  0.836200  1.0  -0.1351
  C  C422  1  0.939000  0.694900  0.788300  1.0  -0.1209
  C  C423  1  0.687100  0.811800  0.876100  1.0  -0.1087
  C  C424  1  0.935000  0.780500  0.886500  1.0  -0.1285
  C  C425  1  0.763300  0.878000  0.076700  1.0  -0.1489
  C  C426  1  0.090200  0.893900  0.855800  1.0  -0.1577
  C  C427  1  0.358400  0.850900  0.958000  1.0  -0.1946
  C  C428  1  0.586700  0.999100  0.839700  1.0  -0.1488
  C  C429  1  0.836500  0.770200  0.859900  1.0  0.0061
  C  C430  1  0.027200  0.718700  0.802300  1.0  -0.0084
  C  C431  1  0.784200  0.823000  0.901100  1.0  0.1391
  C  C432  1  0.705100  0.928700  0.861500  1.0  -0.0933
  C  C433  1  0.524700  0.926400  0.891300  1.0  -0.1384
  C  C434  1  0.774500  0.718200  0.820900  1.0  -0.1482
  C  C435  1  0.805000  0.083600  0.786900  1.0  0.6533
  C  C436  1  0.983300  0.990200  0.836800  1.0  0.0373
  C  C437  1  0.312800  0.998200  0.816800  1.0  -0.0785
  C  C438  1  0.316900  0.056100  0.789000  1.0  0.6822
  C  C439  1  0.872000  0.851600  0.165000  1.0  0.7018
  C  C440  1  0.867800  0.050400  0.803900  1.0  -0.1067
  C  C441  1  0.521700  0.027400  0.819100  1.0  -0.0274
  C  C442  1  0.368700  0.851400  0.992500  1.0  -0.0932
  C  C443  1  0.584200  0.219900  0.662100  1.0  -0.1036
  C  C444  1  0.728000  0.304100  0.603000  1.0  -0.1374
  C  C445  1  0.415700  0.398300  0.590800  1.0  -0.1393
  C  C446  1  0.702200  0.363500  0.385100  1.0  -0.1117
  C  C447  1  0.300500  0.384700  0.596600  1.0  0.1999
  C  C448  1  0.657200  0.283400  0.651700  1.0  0.0723
  C  C449  1  0.162100  0.317900  0.420000  1.0  -0.1421
  C  C450  1  0.728200  0.339600  0.613500  1.0  0.1399
  C  C451  1  0.737000  0.363200  0.490900  1.0  0.0644
  C  C452  1  0.648100  0.229300  0.729800  1.0  -0.1219
  C  C453  1  0.956400  0.457500  0.645500  1.0  0.0417
  C  C454  1  0.986200  0.522700  0.650900  1.0  -0.1019
  C  C455  1  0.999400  0.242600  0.674300  1.0  -0.1589
  C  C456  1  0.758900  0.364100  0.561400  1.0  0.1966
  C  C457  1  0.208500  0.349000  0.439700  1.0  0.0658
  C  C458  1  0.418200  0.441300  0.633700  1.0  0.0558
  C  C459  1  0.580800  0.166700  0.737800  1.0  0.6669
  C  C460  1  0.605100  0.196200  0.716500  1.0  -0.0888
  C  C461  1  0.218600  0.379500  0.388200  1.0  -0.1423
  C  C462  1  0.140300  0.318900  0.387600  1.0  -0.0939
  C  C463  1  0.161400  0.349500  0.368900  1.0  -0.0692
  C  C464  1  0.655600  0.257400  0.708700  1.0  -0.1085
  C  C465  1  0.207200  0.380300  0.492600  1.0  -0.1463
  C  C466  1  0.091600  0.306400  0.593500  1.0  -0.1143
  C  C467  1  0.647100  0.318600  0.663200  1.0  -0.1691
  C  C468  1  0.830300  0.398400  0.613500  1.0  0.0686
  C  C469  1  0.236500  0.351900  0.545000  1.0  0.2581
  C  C470  1  0.289300  0.285800  0.646400  1.0  -0.1568
  C  C471  1  0.245600  0.319900  0.528700  1.0  -0.1268
  C  C472  1  0.613500  0.527400  0.691600  1.0  -0.071
  C  C473  1  0.677500  0.345700  0.644200  1.0  -0.1522
  C  C474  1  0.166800  0.515400  0.709000  1.0  -0.1554
  C  C475  1  0.240000  0.318000  0.494000  1.0  -0.1409
  C  C476  1  0.217600  0.381500  0.525000  1.0  -0.1686
  C  C477  1  0.691000  0.277700  0.621700  1.0  -0.1074
  C  C478  1  0.694000  0.361600  0.348600  1.0  0.7317
  C  C479  1  0.107800  0.488300  0.691800  1.0  -0.1166
  C  C480  1  0.590200  0.366100  0.400900  1.0  -0.0534
  C  C481  1  0.859300  0.375300  0.545100  1.0  -0.1692
  C  C482  1  0.231700  0.399400  0.619600  1.0  -0.1681
  C  C483  1  0.851500  0.374700  0.511600  1.0  -0.1324
  C  C484  1  0.633800  0.253700  0.674600  1.0  0.0488
  C  C485  1  0.222800  0.349600  0.474800  1.0  0.0638
  C  C486  1  0.880300  0.459400  0.614100  1.0  -0.1021
  C  C487  1  0.962000  0.424800  0.660100  1.0  -0.1053
  C  C488  1  0.485800  0.472000  0.653100  1.0  0.0844
  C  C489  1  0.825000  0.358300  0.406200  1.0  -0.0294
  C  C490  1  0.038000  0.553600  0.667300  1.0  -0.1048
  C  C491  1  0.837200  0.359100  0.439700  1.0  -0.1513
  C  C492  1  0.722500  0.362100  0.454900  1.0  0.066
  C  C493  1  0.034400  0.168200  0.737500  1.0  0.7145
  C  C494  1  0.822300  0.431000  0.598100  1.0  -0.1447
  C  C495  1  0.601800  0.366700  0.435600  1.0  -0.1601
  C  C496  1  0.188600  0.194100  0.700000  1.0  -0.0629
  C  C497  1  0.573300  0.191700  0.681200  1.0  -0.1832
  C  C498  1  0.127000  0.243000  0.664200  1.0  -0.0337
  C  C499  1  0.618900  0.470800  0.663800  1.0  -0.1339
  C  C500  1  0.061000  0.194900  0.711700  1.0  -0.1193
  C  C501  1  0.312900  0.311800  0.623900  1.0  -0.1094
  C  C502  1  0.065000  0.280500  0.613500  1.0  -0.1289
  C  C503  1  0.236700  0.378000  0.423300  1.0  -0.1484
  C  C504  1  0.909800  0.393900  0.644200  1.0  -0.1575
  C  C505  1  0.641600  0.350900  0.542000  1.0  -0.1938
  C  C506  1  0.413300  0.499100  0.660300  1.0  -0.1486
  C  C507  1  0.163500  0.270200  0.640100  1.0  0.0063
  C  C508  1  0.972800  0.218700  0.697700  1.0  -0.007
  C  C509  1  0.215800  0.323000  0.598900  1.0  0.1392
  C  C510  1  0.294900  0.428700  0.638500  1.0  -0.0934
  C  C511  1  0.475300  0.426400  0.608700  1.0  -0.1392
  C  C512  1  0.225500  0.218200  0.679100  1.0  -0.1472
  C  C513  1  0.195000  0.583600  0.713100  1.0  0.6531
  C  C514  1  0.016700  0.490200  0.663200  1.0  0.0375
  C  C515  1  0.687200  0.498200  0.683200  1.0  -0.0777
  C  C516  1  0.683100  0.556100  0.711000  1.0  0.6851
  C  C517  1  0.128000  0.351600  0.335000  1.0  0.7012
  C  C518  1  0.132200  0.550400  0.696100  1.0  -0.1047
  C  C519  1  0.478300  0.527400  0.680900  1.0  -0.0274
  C  C520  1  0.631300  0.351400  0.507500  1.0  -0.0924
  N  N521  1  0.766300  0.132900  0.095200  1.0  -0.1795
  N  N522  1  0.238700  0.146800  0.078400  1.0  -0.237
  N  N523  1  0.233700  0.632900  0.404800  1.0  -0.1796
  N  N524  1  0.761300  0.646800  0.421600  1.0  -0.2372
  N  N525  1  0.233700  0.867100  0.904800  1.0  -0.1788
  N  N526  1  0.761300  0.853200  0.921600  1.0  -0.2372
  N  N527  1  0.766300  0.367100  0.595200  1.0  -0.1786
  N  N528  1  0.238700  0.353200  0.578400  1.0  -0.2371
  O  O529  1  0.647500  0.332800  0.268500  1.0  -0.6588
  O  O530  1  0.501500  0.356300  0.229200  1.0  -0.5153
  O  O531  1  0.172500  0.123400  0.820260  1.0  -0.5881
  O  O532  1  0.808900  0.944070  0.214920  1.0  -0.6088
  O  O533  1  0.925800  0.326300  0.246460  1.0  -0.6347
  O  O534  1  0.315700  0.915400  0.223490  1.0  -0.6134
  O  O535  1  0.111900  0.888700  0.213210  1.0  -0.6534
  O  O536  1  0.118000  0.356000  0.245000  1.0  -0.5669
  O  O537  1  0.051600  0.172700  0.818560  1.0  -0.6388
  O  O538  1  0.583200  0.126900  0.832120  1.0  -0.6117
  O  O539  1  0.785500  0.151000  0.837100  1.0  -0.6478
  O  O540  1  0.617100  0.918740  0.221680  1.0  -0.699
  O  O541  1  0.357600  0.343600  0.284990  1.0  -0.6344
  O  O542  1  0.352500  0.832800  0.231500  1.0  -0.6621
  O  O543  1  0.498500  0.856300  0.270800  1.0  -0.5117
  O  O544  1  0.827500  0.623400  0.679740  1.0  -0.5892
  O  O545  1  0.191100  0.444070  0.285080  1.0  -0.6064
  O  O546  1  0.074200  0.826300  0.253540  1.0  -0.6353
  O  O547  1  0.684300  0.415400  0.276510  1.0  -0.6102
  O  O548  1  0.888100  0.388700  0.286790  1.0  -0.655
  O  O549  1  0.882000  0.856000  0.255000  1.0  -0.5655
  O  O550  1  0.948400  0.672700  0.681440  1.0  -0.6383
  O  O551  1  0.416800  0.626900  0.667880  1.0  -0.6109
  O  O552  1  0.214500  0.651000  0.662900  1.0  -0.646
  O  O553  1  0.382900  0.418740  0.278320  1.0  -0.7016
  O  O554  1  0.642400  0.843600  0.215010  1.0  -0.632
  O  O555  1  0.352500  0.667200  0.731500  1.0  -0.6572
  O  O556  1  0.498500  0.643700  0.770800  1.0  -0.5158
  O  O557  1  0.827500  0.876600  0.179740  1.0  -0.589
  O  O558  1  0.191100  0.055930  0.785080  1.0  -0.6093
  O  O559  1  0.074200  0.673700  0.753540  1.0  -0.6358
  O  O560  1  0.684300  0.084600  0.776510  1.0  -0.6108
  O  O561  1  0.888100  0.111300  0.786790  1.0  -0.6543
  O  O562  1  0.882000  0.644000  0.755000  1.0  -0.5659
  O  O563  1  0.948400  0.827300  0.181440  1.0  -0.6373
  O  O564  1  0.416800  0.873100  0.167880  1.0  -0.6109
  O  O565  1  0.214500  0.849000  0.162900  1.0  -0.6457
  O  O566  1  0.382900  0.081260  0.778320  1.0  -0.7
  O  O567  1  0.642400  0.656400  0.715010  1.0  -0.632
  O  O568  1  0.647500  0.167200  0.768500  1.0  -0.6604
  O  O569  1  0.501500  0.143700  0.729200  1.0  -0.5123
  O  O570  1  0.172500  0.376600  0.320260  1.0  -0.5888
  O  O571  1  0.808900  0.555930  0.714920  1.0  -0.6052
  O  O572  1  0.925800  0.173700  0.746460  1.0  -0.6346
  O  O573  1  0.315700  0.584600  0.723490  1.0  -0.6136
  O  O574  1  0.111900  0.611300  0.713210  1.0  -0.6533
  O  O575  1  0.118000  0.144000  0.745000  1.0  -0.5671
  O  O576  1  0.051600  0.327300  0.318560  1.0  -0.6382
  O  O577  1  0.583200  0.373100  0.332120  1.0  -0.6114
  O  O578  1  0.785500  0.349000  0.337100  1.0  -0.6466
  O  O579  1  0.617100  0.581260  0.721680  1.0  -0.6984
  O  O580  1  0.357600  0.156400  0.784990  1.0  -0.6357
