# generated using pymatgen
data_Dy2FeH2C4(S2O11)2
_symmetry_space_group_name_H-M   'P 1'
_cell_length_a   15.57600000
_cell_length_b   16.42700000
_cell_length_c   12.47700000
_cell_angle_alpha   90.00000000
_cell_angle_beta   92.31400000
_cell_angle_gamma   90.00000000
_symmetry_Int_Tables_number   1
_chemical_formula_structural   Dy2FeH2C4(S2O11)2
_chemical_formula_sum   'Dy8 Fe4 H8 C16 S16 O88'
_cell_volume   3189.84870465
_cell_formula_units_Z   4
loop_
 _symmetry_equiv_pos_site_id
 _symmetry_equiv_pos_as_xyz
  1  'x, y, z'
loop_
 _atom_site_type_symbol
 _atom_site_label
 _atom_site_symmetry_multiplicity
 _atom_site_fract_x
 _atom_site_fract_y
 _atom_site_fract_z
 _atom_site_occupancy
 _atom_site_charge
  Dy  Dy1  1  0.119730  0.187110  0.907300  1.0  2.3026
  Dy  Dy2  1  0.619730  0.687110  0.907300  1.0  2.3026
  Dy  Dy3  1  0.880270  0.187110  0.592700  1.0  2.3046
  Dy  Dy4  1  0.380270  0.687110  0.592700  1.0  2.3046
  Dy  Dy5  1  0.880270  0.812890  0.092700  1.0  2.3056
  Dy  Dy6  1  0.380270  0.312890  0.092700  1.0  2.3056
  Dy  Dy7  1  0.119730  0.812890  0.407300  1.0  2.3033
  Dy  Dy8  1  0.619730  0.312890  0.407300  1.0  2.3033
  Fe  Fe9  1  0.000000  0.048310  0.750000  1.0  1.0622
  Fe  Fe10  1  0.500000  0.548310  0.750000  1.0  1.0622
  Fe  Fe11  1  0.000000  0.951690  0.250000  1.0  1.0625
  Fe  Fe12  1  0.500000  0.451690  0.250000  1.0  1.0625
  H  H13  1  0.083500  0.974700  0.000900  1.0  0.1374
  H  H14  1  0.583500  0.474700  0.000900  1.0  0.1374
  H  H15  1  0.916500  0.974700  0.499100  1.0  0.1363
  H  H16  1  0.416500  0.474700  0.499100  1.0  0.1363
  H  H17  1  0.916500  0.025300  0.999100  1.0  0.1366
  H  H18  1  0.416500  0.525300  0.999100  1.0  0.1366
  H  H19  1  0.083500  0.025300  0.500900  1.0  0.1379
  H  H20  1  0.583500  0.525300  0.500900  1.0  0.1379
  C  C21  1  0.065000  0.073100  0.092300  1.0  0.7506
  C  C22  1  0.041600  0.019200  0.997800  1.0  0.0577
  C  C23  1  0.565000  0.573100  0.092300  1.0  0.7506
  C  C24  1  0.541600  0.519200  0.997800  1.0  0.0577
  C  C25  1  0.935000  0.073100  0.407700  1.0  0.7492
  C  C26  1  0.958400  0.019200  0.502200  1.0  0.0582
  C  C27  1  0.435000  0.573100  0.407700  1.0  0.7492
  C  C28  1  0.458400  0.519200  0.502200  1.0  0.0582
  C  C29  1  0.935000  0.926900  0.907700  1.0  0.7493
  C  C30  1  0.958400  0.980800  0.002200  1.0  0.0585
  C  C31  1  0.435000  0.426900  0.907700  1.0  0.7493
  C  C32  1  0.458400  0.480800  0.002200  1.0  0.0585
  C  C33  1  0.065000  0.926900  0.592300  1.0  0.7506
  C  C34  1  0.041600  0.980800  0.497800  1.0  0.058
  C  C35  1  0.565000  0.426900  0.592300  1.0  0.7506
  C  C36  1  0.541600  0.480800  0.497800  1.0  0.058
  S  S37  1  0.104890  0.219410  0.663560  1.0  1.7048
  S  S38  1  0.188760  0.351270  0.072900  1.0  1.6442
  S  S39  1  0.604890  0.719410  0.663560  1.0  1.7048
  S  S40  1  0.688760  0.851270  0.072900  1.0  1.6442
  S  S41  1  0.895110  0.219410  0.836440  1.0  1.7014
  S  S42  1  0.811240  0.351270  0.427100  1.0  1.6426
  S  S43  1  0.395110  0.719410  0.836440  1.0  1.7014
  S  S44  1  0.311240  0.851270  0.427100  1.0  1.6426
  S  S45  1  0.895110  0.780590  0.336440  1.0  1.7011
  S  S46  1  0.811240  0.648730  0.927100  1.0  1.6462
  S  S47  1  0.395110  0.280590  0.336440  1.0  1.7011
  S  S48  1  0.311240  0.148730  0.927100  1.0  1.6462
  S  S49  1  0.104890  0.780590  0.163560  1.0  1.7
  S  S50  1  0.188760  0.648730  0.572900  1.0  1.6481
  S  S51  1  0.604890  0.280590  0.163560  1.0  1.7
  S  S52  1  0.688760  0.148730  0.572900  1.0  1.6481
  O  O53  1  0.056800  0.062500  0.899300  1.0  -0.6301
  O  O54  1  0.101100  0.141000  0.723600  1.0  -0.8634
  O  O55  1  0.083700  0.145100  0.072800  1.0  -0.5589
  O  O56  1  0.021600  0.233700  0.607500  1.0  -0.6894
  O  O57  1  0.135800  0.311100  0.990200  1.0  -0.6373
  O  O58  1  0.120700  0.281900  0.748200  1.0  -0.7807
  O  O59  1  0.072800  0.042300  0.182800  1.0  -0.5484
  O  O60  1  0.173500  0.217700  0.589300  1.0  -0.5659
  O  O61  1  0.260100  0.393700  0.027400  1.0  -0.6942
  O  O62  1  0.134800  0.400200  0.135000  1.0  -0.492
  O  O63  1  0.234100  0.291300  0.139400  1.0  -0.6699
  O  O64  1  0.556800  0.562500  0.899300  1.0  -0.6301
  O  O65  1  0.601100  0.641000  0.723600  1.0  -0.8634
  O  O66  1  0.583700  0.645100  0.072800  1.0  -0.5589
  O  O67  1  0.521600  0.733700  0.607500  1.0  -0.6894
  O  O68  1  0.635800  0.811100  0.990200  1.0  -0.6373
  O  O69  1  0.620700  0.781900  0.748200  1.0  -0.7807
  O  O70  1  0.572800  0.542300  0.182800  1.0  -0.5484
  O  O71  1  0.673500  0.717700  0.589300  1.0  -0.5659
  O  O72  1  0.760100  0.893700  0.027400  1.0  -0.6942
  O  O73  1  0.634800  0.900200  0.135000  1.0  -0.492
  O  O74  1  0.734100  0.791300  0.139400  1.0  -0.6699
  O  O75  1  0.943200  0.062500  0.600700  1.0  -0.6314
  O  O76  1  0.898900  0.141000  0.776400  1.0  -0.8647
  O  O77  1  0.916300  0.145100  0.427200  1.0  -0.5577
  O  O78  1  0.978400  0.233700  0.892500  1.0  -0.6908
  O  O79  1  0.864200  0.311100  0.509800  1.0  -0.6379
  O  O80  1  0.879300  0.281900  0.751800  1.0  -0.7808
  O  O81  1  0.927200  0.042300  0.317200  1.0  -0.5454
  O  O82  1  0.826500  0.217700  0.910700  1.0  -0.5636
  O  O83  1  0.739900  0.393700  0.472600  1.0  -0.6921
  O  O84  1  0.865200  0.400200  0.365000  1.0  -0.4906
  O  O85  1  0.765900  0.291300  0.360600  1.0  -0.6708
  O  O86  1  0.443200  0.562500  0.600700  1.0  -0.6314
  O  O87  1  0.398900  0.641000  0.776400  1.0  -0.8647
  O  O88  1  0.416300  0.645100  0.427200  1.0  -0.5577
  O  O89  1  0.478400  0.733700  0.892500  1.0  -0.6908
  O  O90  1  0.364200  0.811100  0.509800  1.0  -0.6379
  O  O91  1  0.379300  0.781900  0.751800  1.0  -0.7808
  O  O92  1  0.427200  0.542300  0.317200  1.0  -0.5454
  O  O93  1  0.326500  0.717700  0.910700  1.0  -0.5636
  O  O94  1  0.239900  0.893700  0.472600  1.0  -0.6921
  O  O95  1  0.365200  0.900200  0.365000  1.0  -0.4906
  O  O96  1  0.265900  0.791300  0.360600  1.0  -0.6708
  O  O97  1  0.943200  0.937500  0.100700  1.0  -0.6306
  O  O98  1  0.898900  0.859000  0.276400  1.0  -0.8644
  O  O99  1  0.916300  0.854900  0.927200  1.0  -0.5589
  O  O100  1  0.978400  0.766300  0.392500  1.0  -0.69
  O  O101  1  0.864200  0.688900  0.009800  1.0  -0.6378
  O  O102  1  0.879300  0.718100  0.251800  1.0  -0.7811
  O  O103  1  0.927200  0.957700  0.817200  1.0  -0.545
  O  O104  1  0.826500  0.782300  0.410700  1.0  -0.5628
  O  O105  1  0.739900  0.606300  0.972600  1.0  -0.6937
  O  O106  1  0.865200  0.599800  0.865000  1.0  -0.4888
  O  O107  1  0.765900  0.708700  0.860600  1.0  -0.6728
  O  O108  1  0.443200  0.437500  0.100700  1.0  -0.6306
  O  O109  1  0.398900  0.359000  0.276400  1.0  -0.8644
  O  O110  1  0.416300  0.354900  0.927200  1.0  -0.5589
  O  O111  1  0.478400  0.266300  0.392500  1.0  -0.69
  O  O112  1  0.364200  0.188900  0.009800  1.0  -0.6378
  O  O113  1  0.379300  0.218100  0.251800  1.0  -0.7811
  O  O114  1  0.427200  0.457700  0.817200  1.0  -0.545
  O  O115  1  0.326500  0.282300  0.410700  1.0  -0.5628
  O  O116  1  0.239900  0.106300  0.972600  1.0  -0.6937
  O  O117  1  0.365200  0.099800  0.865000  1.0  -0.4888
  O  O118  1  0.265900  0.208700  0.860600  1.0  -0.6728
  O  O119  1  0.056800  0.937500  0.399300  1.0  -0.6299
  O  O120  1  0.101100  0.859000  0.223600  1.0  -0.8635
  O  O121  1  0.083700  0.854900  0.572800  1.0  -0.5612
  O  O122  1  0.021600  0.766300  0.107500  1.0  -0.689
  O  O123  1  0.135800  0.688900  0.490200  1.0  -0.6367
  O  O124  1  0.120700  0.718100  0.248200  1.0  -0.7814
  O  O125  1  0.072800  0.957700  0.682800  1.0  -0.5473
  O  O126  1  0.173500  0.782300  0.089300  1.0  -0.5652
  O  O127  1  0.260100  0.606300  0.527400  1.0  -0.6925
  O  O128  1  0.134800  0.599800  0.635000  1.0  -0.4901
  O  O129  1  0.234100  0.708700  0.639400  1.0  -0.6708
  O  O130  1  0.556800  0.437500  0.399300  1.0  -0.6299
  O  O131  1  0.601100  0.359000  0.223600  1.0  -0.8635
  O  O132  1  0.583700  0.354900  0.572800  1.0  -0.5612
  O  O133  1  0.521600  0.266300  0.107500  1.0  -0.689
  O  O134  1  0.635800  0.188900  0.490200  1.0  -0.6367
  O  O135  1  0.620700  0.218100  0.248200  1.0  -0.7814
  O  O136  1  0.572800  0.457700  0.682800  1.0  -0.5473
  O  O137  1  0.673500  0.282300  0.089300  1.0  -0.5652
  O  O138  1  0.760100  0.106300  0.527400  1.0  -0.6925
  O  O139  1  0.634800  0.099800  0.635000  1.0  -0.4901
  O  O140  1  0.734100  0.208700  0.639400  1.0  -0.6708
