# generated using pymatgen
data_Gd2FeH2C4(S2O11)2
_symmetry_space_group_name_H-M   'P 1'
_cell_length_a   15.57700000
_cell_length_b   16.39400000
_cell_length_c   12.59300000
_cell_angle_alpha   90.00000000
_cell_angle_beta   92.84000000
_cell_angle_gamma   90.00000000
_symmetry_Int_Tables_number   1
_chemical_formula_structural   Gd2FeH2C4(S2O11)2
_chemical_formula_sum   'Gd8 Fe4 H8 C16 S16 O88'
_cell_volume   3211.91631575
_cell_formula_units_Z   4
loop_
 _symmetry_equiv_pos_site_id
 _symmetry_equiv_pos_as_xyz
  1  'x, y, z'
loop_
 _atom_site_type_symbol
 _atom_site_label
 _atom_site_symmetry_multiplicity
 _atom_site_fract_x
 _atom_site_fract_y
 _atom_site_fract_z
 _atom_site_occupancy
 _atom_site_charge
  Gd  Gd1  1  0.121310  0.188000  0.909390  1.0  2.2064
  Gd  Gd2  1  0.621310  0.688000  0.909390  1.0  2.2064
  Gd  Gd3  1  0.878690  0.188000  0.590610  1.0  2.2077
  Gd  Gd4  1  0.378690  0.688000  0.590610  1.0  2.2077
  Gd  Gd5  1  0.878690  0.812000  0.090610  1.0  2.2087
  Gd  Gd6  1  0.378690  0.312000  0.090610  1.0  2.2087
  Gd  Gd7  1  0.121310  0.812000  0.409390  1.0  2.2072
  Gd  Gd8  1  0.621310  0.312000  0.409390  1.0  2.2072
  Fe  Fe9  1  0.000000  0.048400  0.750000  1.0  1.0691
  Fe  Fe10  1  0.500000  0.548400  0.750000  1.0  1.0691
  Fe  Fe11  1  0.000000  0.951600  0.250000  1.0  1.0688
  Fe  Fe12  1  0.500000  0.451600  0.250000  1.0  1.0688
  H  H13  1  0.080100  0.976400  0.998700  1.0  0.1536
  H  H14  1  0.580100  0.476400  0.998700  1.0  0.1536
  H  H15  1  0.919900  0.976400  0.501300  1.0  0.156
  H  H16  1  0.419900  0.476400  0.501300  1.0  0.156
  H  H17  1  0.919900  0.023600  0.001300  1.0  0.1565
  H  H18  1  0.419900  0.523600  0.001300  1.0  0.1565
  H  H19  1  0.080100  0.023600  0.498700  1.0  0.1547
  H  H20  1  0.580100  0.523600  0.498700  1.0  0.1547
  C  C21  1  0.065600  0.073100  0.094900  1.0  0.7509
  C  C22  1  0.037400  0.020400  0.996400  1.0  0.0135
  C  C23  1  0.565600  0.573100  0.094900  1.0  0.7509
  C  C24  1  0.537400  0.520400  0.996400  1.0  0.0135
  C  C25  1  0.934400  0.073100  0.405100  1.0  0.7505
  C  C26  1  0.962600  0.020400  0.503600  1.0  0.0137
  C  C27  1  0.434400  0.573100  0.405100  1.0  0.7505
  C  C28  1  0.462600  0.520400  0.503600  1.0  0.0137
  C  C29  1  0.934400  0.926900  0.905100  1.0  0.7516
  C  C30  1  0.962600  0.979600  0.003600  1.0  0.0151
  C  C31  1  0.434400  0.426900  0.905100  1.0  0.7516
  C  C32  1  0.462600  0.479600  0.003600  1.0  0.0151
  C  C33  1  0.065600  0.926900  0.594900  1.0  0.7511
  C  C34  1  0.037400  0.979600  0.496400  1.0  0.014
  C  C35  1  0.565600  0.426900  0.594900  1.0  0.7511
  C  C36  1  0.537400  0.479600  0.496400  1.0  0.014
  S  S37  1  0.105860  0.219120  0.665570  1.0  1.6908
  S  S38  1  0.185870  0.349430  0.076200  1.0  1.6858
  S  S39  1  0.605860  0.719120  0.665570  1.0  1.6908
  S  S40  1  0.685870  0.849430  0.076200  1.0  1.6858
  S  S41  1  0.894140  0.219120  0.834430  1.0  1.6907
  S  S42  1  0.814130  0.349430  0.423800  1.0  1.6861
  S  S43  1  0.394140  0.719120  0.834430  1.0  1.6907
  S  S44  1  0.314130  0.849430  0.423800  1.0  1.6861
  S  S45  1  0.894140  0.780880  0.334430  1.0  1.6908
  S  S46  1  0.814130  0.650570  0.923800  1.0  1.6848
  S  S47  1  0.394140  0.280880  0.334430  1.0  1.6908
  S  S48  1  0.314130  0.150570  0.923800  1.0  1.6848
  S  S49  1  0.105860  0.780880  0.165570  1.0  1.6906
  S  S50  1  0.185870  0.650570  0.576200  1.0  1.6844
  S  S51  1  0.605860  0.280880  0.165570  1.0  1.6906
  S  S52  1  0.685870  0.150570  0.576200  1.0  1.6844
  O  O53  1  0.054500  0.061700  0.900200  1.0  -0.6094
  O  O54  1  0.102000  0.141200  0.726200  1.0  -0.8482
  O  O55  1  0.086000  0.144000  0.075400  1.0  -0.5496
  O  O56  1  0.022400  0.233300  0.607900  1.0  -0.7624
  O  O57  1  0.131200  0.316900  0.990000  1.0  -0.6059
  O  O58  1  0.121200  0.282700  0.748800  1.0  -0.7537
  O  O59  1  0.073700  0.042800  0.185300  1.0  -0.5372
  O  O60  1  0.174600  0.217800  0.593900  1.0  -0.4976
  O  O61  1  0.256200  0.397600  0.035600  1.0  -0.6762
  O  O62  1  0.131500  0.391600  0.147100  1.0  -0.5268
  O  O63  1  0.230800  0.282800  0.131700  1.0  -0.6768
  O  O64  1  0.554500  0.561700  0.900200  1.0  -0.6094
  O  O65  1  0.602000  0.641200  0.726200  1.0  -0.8482
  O  O66  1  0.586000  0.644000  0.075400  1.0  -0.5496
  O  O67  1  0.522400  0.733300  0.607900  1.0  -0.7624
  O  O68  1  0.631200  0.816900  0.990000  1.0  -0.6059
  O  O69  1  0.621200  0.782700  0.748800  1.0  -0.7537
  O  O70  1  0.573700  0.542800  0.185300  1.0  -0.5372
  O  O71  1  0.674600  0.717800  0.593900  1.0  -0.4976
  O  O72  1  0.756200  0.897600  0.035600  1.0  -0.6762
  O  O73  1  0.631500  0.891600  0.147100  1.0  -0.5268
  O  O74  1  0.730800  0.782800  0.131700  1.0  -0.6768
  O  O75  1  0.945500  0.061700  0.599800  1.0  -0.6116
  O  O76  1  0.898000  0.141200  0.773800  1.0  -0.8491
  O  O77  1  0.914000  0.144000  0.424600  1.0  -0.5476
  O  O78  1  0.977600  0.233300  0.892100  1.0  -0.7641
  O  O79  1  0.868800  0.316900  0.510000  1.0  -0.6059
  O  O80  1  0.878800  0.282700  0.751200  1.0  -0.7533
  O  O81  1  0.926300  0.042800  0.314700  1.0  -0.5346
  O  O82  1  0.825400  0.217800  0.906100  1.0  -0.4961
  O  O83  1  0.743800  0.397600  0.464400  1.0  -0.6726
  O  O84  1  0.868500  0.391600  0.352900  1.0  -0.5239
  O  O85  1  0.769200  0.282800  0.368300  1.0  -0.6767
  O  O86  1  0.445500  0.561700  0.599800  1.0  -0.6116
  O  O87  1  0.398000  0.641200  0.773800  1.0  -0.8491
  O  O88  1  0.414000  0.644000  0.424600  1.0  -0.5476
  O  O89  1  0.477600  0.733300  0.892100  1.0  -0.7641
  O  O90  1  0.368800  0.816900  0.510000  1.0  -0.6059
  O  O91  1  0.378800  0.782700  0.751200  1.0  -0.7533
  O  O92  1  0.426300  0.542800  0.314700  1.0  -0.5346
  O  O93  1  0.325400  0.717800  0.906100  1.0  -0.4961
  O  O94  1  0.243800  0.897600  0.464400  1.0  -0.6726
  O  O95  1  0.368500  0.891600  0.352900  1.0  -0.5239
  O  O96  1  0.269200  0.782800  0.368300  1.0  -0.6767
  O  O97  1  0.945500  0.938300  0.099800  1.0  -0.6116
  O  O98  1  0.898000  0.858800  0.273800  1.0  -0.8484
  O  O99  1  0.914000  0.856000  0.924600  1.0  -0.5498
  O  O100  1  0.977600  0.766700  0.392100  1.0  -0.7639
  O  O101  1  0.868800  0.683100  0.010000  1.0  -0.6059
  O  O102  1  0.878800  0.717300  0.251200  1.0  -0.7542
  O  O103  1  0.926300  0.957200  0.814700  1.0  -0.535
  O  O104  1  0.825400  0.782200  0.406100  1.0  -0.4954
  O  O105  1  0.743800  0.602400  0.964400  1.0  -0.6726
  O  O106  1  0.868500  0.608400  0.852900  1.0  -0.5228
  O  O107  1  0.769200  0.717200  0.868300  1.0  -0.6751
  O  O108  1  0.445500  0.438300  0.099800  1.0  -0.6116
  O  O109  1  0.398000  0.358800  0.273800  1.0  -0.8484
  O  O110  1  0.414000  0.356000  0.924600  1.0  -0.5498
  O  O111  1  0.477600  0.266700  0.392100  1.0  -0.7639
  O  O112  1  0.368800  0.183100  0.010000  1.0  -0.6059
  O  O113  1  0.378800  0.217300  0.251200  1.0  -0.7542
  O  O114  1  0.426300  0.457200  0.814700  1.0  -0.535
  O  O115  1  0.325400  0.282200  0.406100  1.0  -0.4954
  O  O116  1  0.243800  0.102400  0.964400  1.0  -0.6726
  O  O117  1  0.368500  0.108400  0.852900  1.0  -0.5228
  O  O118  1  0.269200  0.217200  0.868300  1.0  -0.6751
  O  O119  1  0.054500  0.938300  0.400200  1.0  -0.6102
  O  O120  1  0.102000  0.858800  0.226200  1.0  -0.8478
  O  O121  1  0.086000  0.856000  0.575400  1.0  -0.5526
  O  O122  1  0.022400  0.766700  0.107900  1.0  -0.7625
  O  O123  1  0.131200  0.683100  0.490000  1.0  -0.6056
  O  O124  1  0.121200  0.717300  0.248800  1.0  -0.7544
  O  O125  1  0.073700  0.957200  0.685300  1.0  -0.537
  O  O126  1  0.174600  0.782200  0.093900  1.0  -0.4972
  O  O127  1  0.256200  0.602400  0.535600  1.0  -0.6734
  O  O128  1  0.131500  0.608400  0.647100  1.0  -0.5252
  O  O129  1  0.230800  0.717200  0.631700  1.0  -0.6731
  O  O130  1  0.554500  0.438300  0.400200  1.0  -0.6102
  O  O131  1  0.602000  0.358800  0.226200  1.0  -0.8478
  O  O132  1  0.586000  0.356000  0.575400  1.0  -0.5526
  O  O133  1  0.522400  0.266700  0.107900  1.0  -0.7625
  O  O134  1  0.631200  0.183100  0.490000  1.0  -0.6056
  O  O135  1  0.621200  0.217300  0.248800  1.0  -0.7544
  O  O136  1  0.573700  0.457200  0.685300  1.0  -0.537
  O  O137  1  0.674600  0.282200  0.093900  1.0  -0.4972
  O  O138  1  0.756200  0.102400  0.535600  1.0  -0.6734
  O  O139  1  0.631500  0.108400  0.647100  1.0  -0.5252
  O  O140  1  0.730800  0.217200  0.631700  1.0  -0.6731
