# generated using pymatgen
data_Eu2FeH2C4(S2O11)2
_symmetry_space_group_name_H-M   'P 1'
_cell_length_a   15.52440000
_cell_length_b   16.39870000
_cell_length_c   12.64330000
_cell_angle_alpha   90.00000000
_cell_angle_beta   93.07500000
_cell_angle_gamma   90.00000000
_symmetry_Int_Tables_number   1
_chemical_formula_structural   Eu2FeH2C4(S2O11)2
_chemical_formula_sum   'Eu8 Fe4 H8 C16 S16 O88'
_cell_volume   3214.09661904
_cell_formula_units_Z   4
loop_
 _symmetry_equiv_pos_site_id
 _symmetry_equiv_pos_as_xyz
  1  'x, y, z'
loop_
 _atom_site_type_symbol
 _atom_site_label
 _atom_site_symmetry_multiplicity
 _atom_site_fract_x
 _atom_site_fract_y
 _atom_site_fract_z
 _atom_site_occupancy
 _atom_site_charge
  Eu  Eu1  1  0.121970  0.188990  0.911470  1.0  2.1158
  Eu  Eu2  1  0.621970  0.688990  0.911470  1.0  2.1158
  Eu  Eu3  1  0.878030  0.188990  0.588530  1.0  2.1165
  Eu  Eu4  1  0.378030  0.688990  0.588530  1.0  2.1165
  Eu  Eu5  1  0.878030  0.811010  0.088530  1.0  2.118
  Eu  Eu6  1  0.378030  0.311010  0.088530  1.0  2.118
  Eu  Eu7  1  0.121970  0.811010  0.411470  1.0  2.1173
  Eu  Eu8  1  0.621970  0.311010  0.411470  1.0  2.1173
  Fe  Fe9  1  0.000000  0.049590  0.750000  1.0  1.0517
  Fe  Fe10  1  0.500000  0.549590  0.750000  1.0  1.0517
  Fe  Fe11  1  0.000000  0.950410  0.250000  1.0  1.0527
  Fe  Fe12  1  0.500000  0.450410  0.250000  1.0  1.0527
  H  H13  1  0.080600  0.978900  0.999700  1.0  0.1721
  H  H14  1  0.580600  0.478900  0.999700  1.0  0.1721
  H  H15  1  0.919400  0.978900  0.500300  1.0  0.1714
  H  H16  1  0.419400  0.478900  0.500300  1.0  0.1714
  H  H17  1  0.919400  0.021100  0.000300  1.0  0.1716
  H  H18  1  0.419400  0.521100  0.000300  1.0  0.1716
  H  H19  1  0.080600  0.021100  0.499700  1.0  0.1718
  H  H20  1  0.580600  0.521100  0.499700  1.0  0.1718
  C  C21  1  0.064800  0.073400  0.095200  1.0  0.7462
  C  C22  1  0.036800  0.022000  0.996900  1.0  0.0616
  C  C23  1  0.564800  0.573400  0.095200  1.0  0.7462
  C  C24  1  0.536800  0.522000  0.996900  1.0  0.0616
  C  C25  1  0.935200  0.073400  0.404800  1.0  0.747
  C  C26  1  0.963200  0.022000  0.503100  1.0  0.0625
  C  C27  1  0.435200  0.573400  0.404800  1.0  0.747
  C  C28  1  0.463200  0.522000  0.503100  1.0  0.0625
  C  C29  1  0.935200  0.926600  0.904800  1.0  0.7477
  C  C30  1  0.963200  0.978000  0.003100  1.0  0.0638
  C  C31  1  0.435200  0.426600  0.904800  1.0  0.7477
  C  C32  1  0.463200  0.478000  0.003100  1.0  0.0638
  C  C33  1  0.064800  0.926600  0.595200  1.0  0.7467
  C  C34  1  0.036800  0.978000  0.496900  1.0  0.0621
  C  C35  1  0.564800  0.426600  0.595200  1.0  0.7467
  C  C36  1  0.536800  0.478000  0.496900  1.0  0.0621
  S  S37  1  0.107250  0.219200  0.667030  1.0  1.7004
  S  S38  1  0.183650  0.349510  0.075700  1.0  1.7143
  S  S39  1  0.607250  0.719200  0.667030  1.0  1.7004
  S  S40  1  0.683650  0.849510  0.075700  1.0  1.7143
  S  S41  1  0.892750  0.219200  0.832970  1.0  1.7005
  S  S42  1  0.816350  0.349510  0.424300  1.0  1.7134
  S  S43  1  0.392750  0.719200  0.832970  1.0  1.7005
  S  S44  1  0.316350  0.849510  0.424300  1.0  1.7134
  S  S45  1  0.892750  0.780800  0.332970  1.0  1.6998
  S  S46  1  0.816350  0.650490  0.924300  1.0  1.7145
  S  S47  1  0.392750  0.280800  0.332970  1.0  1.6998
  S  S48  1  0.316350  0.150490  0.924300  1.0  1.7145
  S  S49  1  0.107250  0.780800  0.167030  1.0  1.699
  S  S50  1  0.183650  0.650490  0.575700  1.0  1.7149
  S  S51  1  0.607250  0.280800  0.167030  1.0  1.699
  S  S52  1  0.683650  0.150490  0.575700  1.0  1.7149
  O  O53  1  0.054500  0.062200  0.901100  1.0  -0.6123
  O  O54  1  0.103100  0.141400  0.727900  1.0  -0.8198
  O  O55  1  0.086300  0.143200  0.076600  1.0  -0.5539
  O  O56  1  0.024200  0.233800  0.608500  1.0  -0.722
  O  O57  1  0.126700  0.321100  0.988800  1.0  -0.6351
  O  O58  1  0.122000  0.282400  0.749500  1.0  -0.7088
  O  O59  1  0.074900  0.041200  0.184200  1.0  -0.5394
  O  O60  1  0.176700  0.218200  0.596200  1.0  -0.5227
  O  O61  1  0.254800  0.400100  0.040800  1.0  -0.6754
  O  O62  1  0.131500  0.388900  0.152600  1.0  -0.5479
  O  O63  1  0.227800  0.277400  0.122800  1.0  -0.7059
  O  O64  1  0.554500  0.562200  0.901100  1.0  -0.6123
  O  O65  1  0.603100  0.641400  0.727900  1.0  -0.8198
  O  O66  1  0.586300  0.643200  0.076600  1.0  -0.5539
  O  O67  1  0.524200  0.733800  0.608500  1.0  -0.722
  O  O68  1  0.626700  0.821100  0.988800  1.0  -0.6351
  O  O69  1  0.622000  0.782400  0.749500  1.0  -0.7088
  O  O70  1  0.574900  0.541200  0.184200  1.0  -0.5394
  O  O71  1  0.676700  0.718200  0.596200  1.0  -0.5227
  O  O72  1  0.754800  0.900100  0.040800  1.0  -0.6754
  O  O73  1  0.631500  0.888900  0.152600  1.0  -0.5479
  O  O74  1  0.727800  0.777400  0.122800  1.0  -0.7059
  O  O75  1  0.945500  0.062200  0.598900  1.0  -0.6144
  O  O76  1  0.896900  0.141400  0.772100  1.0  -0.8213
  O  O77  1  0.913700  0.143200  0.423400  1.0  -0.5518
  O  O78  1  0.975800  0.233800  0.891500  1.0  -0.7211
  O  O79  1  0.873300  0.321100  0.511200  1.0  -0.6358
  O  O80  1  0.878000  0.282400  0.750500  1.0  -0.7081
  O  O81  1  0.925100  0.041200  0.315800  1.0  -0.5354
  O  O82  1  0.823300  0.218200  0.903800  1.0  -0.5209
  O  O83  1  0.745200  0.400100  0.459200  1.0  -0.6727
  O  O84  1  0.868500  0.388900  0.347400  1.0  -0.5457
  O  O85  1  0.772200  0.277400  0.377200  1.0  -0.7074
  O  O86  1  0.445500  0.562200  0.598900  1.0  -0.6144
  O  O87  1  0.396900  0.641400  0.772100  1.0  -0.8213
  O  O88  1  0.413700  0.643200  0.423400  1.0  -0.5518
  O  O89  1  0.475800  0.733800  0.891500  1.0  -0.7211
  O  O90  1  0.373300  0.821100  0.511200  1.0  -0.6358
  O  O91  1  0.378000  0.782400  0.750500  1.0  -0.7081
  O  O92  1  0.425100  0.541200  0.315800  1.0  -0.5354
  O  O93  1  0.323300  0.718200  0.903800  1.0  -0.5209
  O  O94  1  0.245200  0.900100  0.459200  1.0  -0.6727
  O  O95  1  0.368500  0.888900  0.347400  1.0  -0.5457
  O  O96  1  0.272200  0.777400  0.377200  1.0  -0.7074
  O  O97  1  0.945500  0.937800  0.098900  1.0  -0.6147
  O  O98  1  0.896900  0.858600  0.272100  1.0  -0.8205
  O  O99  1  0.913700  0.856800  0.923400  1.0  -0.5531
  O  O100  1  0.975800  0.766200  0.391500  1.0  -0.7223
  O  O101  1  0.873300  0.678900  0.011200  1.0  -0.6346
  O  O102  1  0.878000  0.717600  0.250500  1.0  -0.7095
  O  O103  1  0.925100  0.958800  0.815800  1.0  -0.5346
  O  O104  1  0.823300  0.781800  0.403800  1.0  -0.5198
  O  O105  1  0.745200  0.599900  0.959200  1.0  -0.6739
  O  O106  1  0.868500  0.611100  0.847400  1.0  -0.5459
  O  O107  1  0.772200  0.722600  0.877200  1.0  -0.7056
  O  O108  1  0.445500  0.437800  0.098900  1.0  -0.6147
  O  O109  1  0.396900  0.358600  0.272100  1.0  -0.8205
  O  O110  1  0.413700  0.356800  0.923400  1.0  -0.5531
  O  O111  1  0.475800  0.266200  0.391500  1.0  -0.7223
  O  O112  1  0.373300  0.178900  0.011200  1.0  -0.6346
  O  O113  1  0.378000  0.217600  0.250500  1.0  -0.7095
  O  O114  1  0.425100  0.458800  0.815800  1.0  -0.5346
  O  O115  1  0.323300  0.281800  0.403800  1.0  -0.5198
  O  O116  1  0.245200  0.099900  0.959200  1.0  -0.6739
  O  O117  1  0.368500  0.111100  0.847400  1.0  -0.5459
  O  O118  1  0.272200  0.222600  0.877200  1.0  -0.7056
  O  O119  1  0.054500  0.937800  0.401100  1.0  -0.6134
  O  O120  1  0.103100  0.858600  0.227900  1.0  -0.8193
  O  O121  1  0.086300  0.856800  0.576600  1.0  -0.5559
  O  O122  1  0.024200  0.766200  0.108500  1.0  -0.7217
  O  O123  1  0.126700  0.678900  0.488800  1.0  -0.633
  O  O124  1  0.122000  0.717600  0.249500  1.0  -0.7104
  O  O125  1  0.074900  0.958800  0.684200  1.0  -0.5387
  O  O126  1  0.176700  0.781800  0.096200  1.0  -0.5222
  O  O127  1  0.254800  0.599900  0.540800  1.0  -0.675
  O  O128  1  0.131500  0.611100  0.652600  1.0  -0.548
  O  O129  1  0.227800  0.722600  0.622800  1.0  -0.703
  O  O130  1  0.554500  0.437800  0.401100  1.0  -0.6134
  O  O131  1  0.603100  0.358600  0.227900  1.0  -0.8193
  O  O132  1  0.586300  0.356800  0.576600  1.0  -0.5559
  O  O133  1  0.524200  0.266200  0.108500  1.0  -0.7217
  O  O134  1  0.626700  0.178900  0.488800  1.0  -0.633
  O  O135  1  0.622000  0.217600  0.249500  1.0  -0.7104
  O  O136  1  0.574900  0.458800  0.684200  1.0  -0.5387
  O  O137  1  0.676700  0.281800  0.096200  1.0  -0.5222
  O  O138  1  0.754800  0.099900  0.540800  1.0  -0.675
  O  O139  1  0.631500  0.111100  0.652600  1.0  -0.548
  O  O140  1  0.727800  0.222600  0.622800  1.0  -0.703
