# generated using pymatgen
data_Er2FeH2C4(S2O11)2
_symmetry_space_group_name_H-M   'P 1'
_cell_length_a   15.55550000
_cell_length_b   16.54290000
_cell_length_c   12.39640000
_cell_angle_alpha   90.00000000
_cell_angle_beta   91.90600000
_cell_angle_gamma   90.00000000
_symmetry_Int_Tables_number   1
_chemical_formula_structural   Er2FeH2C4(S2O11)2
_chemical_formula_sum   'Er8 Fe4 H8 C16 S16 O88'
_cell_volume   3188.23889827
_cell_formula_units_Z   4
loop_
 _symmetry_equiv_pos_site_id
 _symmetry_equiv_pos_as_xyz
  1  'x, y, z'
loop_
 _atom_site_type_symbol
 _atom_site_label
 _atom_site_symmetry_multiplicity
 _atom_site_fract_x
 _atom_site_fract_y
 _atom_site_fract_z
 _atom_site_occupancy
 _atom_site_charge
  Er  Er1  1  0.118010  0.186080  0.906410  1.0  1.4337
  Er  Er2  1  0.618010  0.686080  0.906410  1.0  1.4337
  Er  Er3  1  0.881990  0.186080  0.593590  1.0  1.4354
  Er  Er4  1  0.381990  0.686080  0.593590  1.0  1.4354
  Er  Er5  1  0.881990  0.813920  0.093590  1.0  1.4428
  Er  Er6  1  0.381990  0.313920  0.093590  1.0  1.4428
  Er  Er7  1  0.118010  0.813920  0.406410  1.0  1.4408
  Er  Er8  1  0.618010  0.313920  0.406410  1.0  1.4408
  Fe  Fe9  1  0.000000  0.047280  0.750000  1.0  1.1037
  Fe  Fe10  1  0.500000  0.547280  0.750000  1.0  1.1037
  Fe  Fe11  1  0.000000  0.952720  0.250000  1.0  1.1021
  Fe  Fe12  1  0.500000  0.452720  0.250000  1.0  1.1021
  H  H13  1  0.085600  0.974200  0.998200  1.0  0.2101
  H  H14  1  0.585600  0.474200  0.998200  1.0  0.2101
  H  H15  1  0.914400  0.974200  0.501800  1.0  0.2092
  H  H16  1  0.414400  0.474200  0.501800  1.0  0.2092
  H  H17  1  0.914400  0.025800  0.001800  1.0  0.2086
  H  H18  1  0.414400  0.525800  0.001800  1.0  0.2086
  H  H19  1  0.085600  0.025800  0.498200  1.0  0.2101
  H  H20  1  0.585600  0.525800  0.498200  1.0  0.2101
  C  C21  1  0.066000  0.073500  0.091200  1.0  0.8215
  C  C22  1  0.043800  0.018500  0.996200  1.0  0.157
  C  C23  1  0.566000  0.573500  0.091200  1.0  0.8215
  C  C24  1  0.543800  0.518500  0.996200  1.0  0.157
  C  C25  1  0.934000  0.073500  0.408800  1.0  0.8213
  C  C26  1  0.956200  0.018500  0.503800  1.0  0.1569
  C  C27  1  0.434000  0.573500  0.408800  1.0  0.8213
  C  C28  1  0.456200  0.518500  0.503800  1.0  0.1569
  C  C29  1  0.934000  0.926500  0.908800  1.0  0.8222
  C  C30  1  0.956200  0.981500  0.003800  1.0  0.1566
  C  C31  1  0.434000  0.426500  0.908800  1.0  0.8222
  C  C32  1  0.456200  0.481500  0.003800  1.0  0.1566
  C  C33  1  0.066000  0.926500  0.591200  1.0  0.8229
  C  C34  1  0.043800  0.981500  0.496200  1.0  0.1563
  C  C35  1  0.566000  0.426500  0.591200  1.0  0.8229
  C  C36  1  0.543800  0.481500  0.496200  1.0  0.1563
  S  S37  1  0.104820  0.218540  0.663070  1.0  1.755
  S  S38  1  0.189530  0.350920  0.070900  1.0  1.636
  S  S39  1  0.604820  0.718540  0.663070  1.0  1.755
  S  S40  1  0.689530  0.850920  0.070900  1.0  1.636
  S  S41  1  0.895180  0.218540  0.836930  1.0  1.7517
  S  S42  1  0.810470  0.350920  0.429100  1.0  1.6354
  S  S43  1  0.395180  0.718540  0.836930  1.0  1.7517
  S  S44  1  0.310470  0.850920  0.429100  1.0  1.6354
  S  S45  1  0.895180  0.781460  0.336930  1.0  1.7525
  S  S46  1  0.810470  0.649080  0.929100  1.0  1.6357
  S  S47  1  0.395180  0.281460  0.336930  1.0  1.7525
  S  S48  1  0.310470  0.149080  0.929100  1.0  1.6357
  S  S49  1  0.104820  0.781460  0.163070  1.0  1.7513
  S  S50  1  0.189530  0.649080  0.570900  1.0  1.6364
  S  S51  1  0.604820  0.281460  0.163070  1.0  1.7513
  S  S52  1  0.689530  0.149080  0.570900  1.0  1.6364
  O  O53  1  0.056500  0.062700  0.899300  1.0  -0.559
  O  O54  1  0.100700  0.140300  0.724300  1.0  -0.8091
  O  O55  1  0.082700  0.146400  0.073500  1.0  -0.4983
  O  O56  1  0.022000  0.232800  0.606700  1.0  -0.6224
  O  O57  1  0.137600  0.305100  0.993400  1.0  -0.6406
  O  O58  1  0.119200  0.280500  0.748700  1.0  -0.7367
  O  O59  1  0.074500  0.042900  0.183400  1.0  -0.5006
  O  O60  1  0.174000  0.218000  0.588500  1.0  -0.5126
  O  O61  1  0.262600  0.388400  0.018900  1.0  -0.6418
  O  O62  1  0.134800  0.406000  0.122800  1.0  -0.4202
  O  O63  1  0.235700  0.296300  0.145400  1.0  -0.6285
  O  O64  1  0.556500  0.562700  0.899300  1.0  -0.559
  O  O65  1  0.600700  0.640300  0.724300  1.0  -0.8091
  O  O66  1  0.582700  0.646400  0.073500  1.0  -0.4983
  O  O67  1  0.522000  0.732800  0.606700  1.0  -0.6224
  O  O68  1  0.637600  0.805100  0.993400  1.0  -0.6406
  O  O69  1  0.619200  0.780500  0.748700  1.0  -0.7367
  O  O70  1  0.574500  0.542900  0.183400  1.0  -0.5006
  O  O71  1  0.674000  0.718000  0.588500  1.0  -0.5126
  O  O72  1  0.762600  0.888400  0.018900  1.0  -0.6418
  O  O73  1  0.634800  0.906000  0.122800  1.0  -0.4202
  O  O74  1  0.735700  0.796300  0.145400  1.0  -0.6285
  O  O75  1  0.943500  0.062700  0.600700  1.0  -0.5626
  O  O76  1  0.899300  0.140300  0.775700  1.0  -0.8092
  O  O77  1  0.917300  0.146400  0.426500  1.0  -0.4976
  O  O78  1  0.978000  0.232800  0.893300  1.0  -0.6231
  O  O79  1  0.862400  0.305100  0.506600  1.0  -0.6391
  O  O80  1  0.880800  0.280500  0.751300  1.0  -0.7366
  O  O81  1  0.925500  0.042900  0.316600  1.0  -0.4977
  O  O82  1  0.826000  0.218000  0.911500  1.0  -0.5098
  O  O83  1  0.737400  0.388400  0.481100  1.0  -0.6381
  O  O84  1  0.865200  0.406000  0.377200  1.0  -0.42
  O  O85  1  0.764300  0.296300  0.354600  1.0  -0.6296
  O  O86  1  0.443500  0.562700  0.600700  1.0  -0.5626
  O  O87  1  0.399300  0.640300  0.775700  1.0  -0.8092
  O  O88  1  0.417300  0.646400  0.426500  1.0  -0.4976
  O  O89  1  0.478000  0.732800  0.893300  1.0  -0.6231
  O  O90  1  0.362400  0.805100  0.506600  1.0  -0.6391
  O  O91  1  0.380800  0.780500  0.751300  1.0  -0.7366
  O  O92  1  0.425500  0.542900  0.316600  1.0  -0.4977
  O  O93  1  0.326000  0.718000  0.911500  1.0  -0.5098
  O  O94  1  0.237400  0.888400  0.481100  1.0  -0.6381
  O  O95  1  0.365200  0.906000  0.377200  1.0  -0.42
  O  O96  1  0.264300  0.796300  0.354600  1.0  -0.6296
  O  O97  1  0.943500  0.937300  0.100700  1.0  -0.5624
  O  O98  1  0.899300  0.859700  0.275700  1.0  -0.8081
  O  O99  1  0.917300  0.853600  0.926500  1.0  -0.4978
  O  O100  1  0.978000  0.767200  0.393300  1.0  -0.6234
  O  O101  1  0.862400  0.694900  0.006600  1.0  -0.6392
  O  O102  1  0.880800  0.719500  0.251300  1.0  -0.7354
  O  O103  1  0.925500  0.957100  0.816600  1.0  -0.498
  O  O104  1  0.826000  0.782000  0.411500  1.0  -0.5093
  O  O105  1  0.737400  0.611600  0.981100  1.0  -0.6398
  O  O106  1  0.865200  0.594000  0.877200  1.0  -0.4181
  O  O107  1  0.764300  0.703700  0.854600  1.0  -0.63
  O  O108  1  0.443500  0.437300  0.100700  1.0  -0.5624
  O  O109  1  0.399300  0.359700  0.275700  1.0  -0.8081
  O  O110  1  0.417300  0.353600  0.926500  1.0  -0.4978
  O  O111  1  0.478000  0.267200  0.393300  1.0  -0.6234
  O  O112  1  0.362400  0.194900  0.006600  1.0  -0.6392
  O  O113  1  0.380800  0.219500  0.251300  1.0  -0.7354
  O  O114  1  0.425500  0.457100  0.816600  1.0  -0.498
  O  O115  1  0.326000  0.282000  0.411500  1.0  -0.5093
  O  O116  1  0.237400  0.111600  0.981100  1.0  -0.6398
  O  O117  1  0.365200  0.094000  0.877200  1.0  -0.4181
  O  O118  1  0.264300  0.203700  0.854600  1.0  -0.63
  O  O119  1  0.056500  0.937300  0.399300  1.0  -0.5596
  O  O120  1  0.100700  0.859700  0.224300  1.0  -0.8089
  O  O121  1  0.082700  0.853600  0.573500  1.0  -0.4997
  O  O122  1  0.022000  0.767200  0.106700  1.0  -0.6236
  O  O123  1  0.137600  0.694900  0.493400  1.0  -0.6392
  O  O124  1  0.119200  0.719500  0.248700  1.0  -0.7362
  O  O125  1  0.074500  0.957100  0.683400  1.0  -0.5011
  O  O126  1  0.174000  0.782000  0.088500  1.0  -0.5123
  O  O127  1  0.262600  0.611600  0.518900  1.0  -0.6418
  O  O128  1  0.134800  0.594000  0.622800  1.0  -0.4186
  O  O129  1  0.235700  0.703700  0.645400  1.0  -0.6297
  O  O130  1  0.556500  0.437300  0.399300  1.0  -0.5596
  O  O131  1  0.600700  0.359700  0.224300  1.0  -0.8089
  O  O132  1  0.582700  0.353600  0.573500  1.0  -0.4997
  O  O133  1  0.522000  0.267200  0.106700  1.0  -0.6236
  O  O134  1  0.637600  0.194900  0.493400  1.0  -0.6392
  O  O135  1  0.619200  0.219500  0.248700  1.0  -0.7362
  O  O136  1  0.574500  0.457100  0.683400  1.0  -0.5011
  O  O137  1  0.674000  0.282000  0.088500  1.0  -0.5123
  O  O138  1  0.762600  0.111600  0.518900  1.0  -0.6418
  O  O139  1  0.634800  0.094000  0.622800  1.0  -0.4186
  O  O140  1  0.735700  0.203700  0.645400  1.0  -0.6297
