# generated using pymatgen
data_Sm2FeH2C4(S2O11)2
_symmetry_space_group_name_H-M   'P 1'
_cell_length_a   15.49800000
_cell_length_b   16.40000000
_cell_length_c   12.66000000
_cell_angle_alpha   90.00000000
_cell_angle_beta   93.36000000
_cell_angle_gamma   90.00000000
_symmetry_Int_Tables_number   1
_chemical_formula_structural   Sm2FeH2C4(S2O11)2
_chemical_formula_sum   'Sm8 Fe4 H8 C16 S16 O88'
_cell_volume   3212.22539054
_cell_formula_units_Z   4
loop_
 _symmetry_equiv_pos_site_id
 _symmetry_equiv_pos_as_xyz
  1  'x, y, z'
loop_
 _atom_site_type_symbol
 _atom_site_label
 _atom_site_symmetry_multiplicity
 _atom_site_fract_x
 _atom_site_fract_y
 _atom_site_fract_z
 _atom_site_occupancy
 _atom_site_charge
  Sm  Sm1  1  0.122570  0.190190  0.913780  1.0  2.2634
  Sm  Sm2  1  0.622570  0.690190  0.913780  1.0  2.2634
  Sm  Sm3  1  0.877430  0.190190  0.586220  1.0  2.2642
  Sm  Sm4  1  0.377430  0.690190  0.586220  1.0  2.2642
  Sm  Sm5  1  0.877430  0.809810  0.086220  1.0  2.265
  Sm  Sm6  1  0.377430  0.309810  0.086220  1.0  2.265
  Sm  Sm7  1  0.122570  0.809810  0.413780  1.0  2.264
  Sm  Sm8  1  0.622570  0.309810  0.413780  1.0  2.264
  Fe  Fe9  1  0.000000  0.050610  0.750000  1.0  1.0222
  Fe  Fe10  1  0.500000  0.550610  0.750000  1.0  1.0222
  Fe  Fe11  1  0.000000  0.949390  0.250000  1.0  1.0213
  Fe  Fe12  1  0.500000  0.449390  0.250000  1.0  1.0213
  H  H13  1  0.081300  0.980600  0.998500  1.0  0.1616
  H  H14  1  0.581300  0.480600  0.998500  1.0  0.1616
  H  H15  1  0.918700  0.980600  0.501500  1.0  0.1607
  H  H16  1  0.418700  0.480600  0.501500  1.0  0.1607
  H  H17  1  0.918700  0.019400  0.001500  1.0  0.1617
  H  H18  1  0.418700  0.519400  0.001500  1.0  0.1617
  H  H19  1  0.081300  0.019400  0.498500  1.0  0.1619
  H  H20  1  0.581300  0.519400  0.498500  1.0  0.1619
  C  C21  1  0.063600  0.072700  0.096900  1.0  0.7276
  C  C22  1  0.036800  0.023100  0.996000  1.0  0.0455
  C  C23  1  0.563600  0.572700  0.096900  1.0  0.7276
  C  C24  1  0.536800  0.523100  0.996000  1.0  0.0455
  C  C25  1  0.936400  0.072700  0.403100  1.0  0.7282
  C  C26  1  0.963200  0.023100  0.504000  1.0  0.0458
  C  C27  1  0.436400  0.572700  0.403100  1.0  0.7282
  C  C28  1  0.463200  0.523100  0.504000  1.0  0.0458
  C  C29  1  0.936400  0.927300  0.903100  1.0  0.7286
  C  C30  1  0.963200  0.976900  0.004000  1.0  0.0462
  C  C31  1  0.436400  0.427300  0.903100  1.0  0.7286
  C  C32  1  0.463200  0.476900  0.004000  1.0  0.0462
  C  C33  1  0.063600  0.927300  0.596900  1.0  0.7276
  C  C34  1  0.036800  0.976900  0.496000  1.0  0.0451
  C  C35  1  0.563600  0.427300  0.596900  1.0  0.7276
  C  C36  1  0.536800  0.476900  0.496000  1.0  0.0451
  S  S37  1  0.108220  0.219110  0.667770  1.0  1.6707
  S  S38  1  0.182080  0.350540  0.074580  1.0  1.6921
  S  S39  1  0.608220  0.719110  0.667770  1.0  1.6707
  S  S40  1  0.682080  0.850540  0.074580  1.0  1.6921
  S  S41  1  0.891780  0.219110  0.832230  1.0  1.6718
  S  S42  1  0.817920  0.350540  0.425420  1.0  1.692
  S  S43  1  0.391780  0.719110  0.832230  1.0  1.6718
  S  S44  1  0.317920  0.850540  0.425420  1.0  1.692
  S  S45  1  0.891780  0.780890  0.332230  1.0  1.6713
  S  S46  1  0.817920  0.649460  0.925420  1.0  1.6937
  S  S47  1  0.391780  0.280890  0.332230  1.0  1.6713
  S  S48  1  0.317920  0.149460  0.925420  1.0  1.6937
  S  S49  1  0.108220  0.780890  0.167770  1.0  1.6689
  S  S50  1  0.182080  0.649460  0.574580  1.0  1.6941
  S  S51  1  0.608220  0.280890  0.167770  1.0  1.6689
  S  S52  1  0.682080  0.149460  0.574580  1.0  1.6941
  O  O53  1  0.053800  0.062900  0.901500  1.0  -0.61
  O  O54  1  0.103500  0.141600  0.729400  1.0  -0.8605
  O  O55  1  0.086100  0.142700  0.079000  1.0  -0.5555
  O  O56  1  0.025200  0.234300  0.609700  1.0  -0.684
  O  O57  1  0.124600  0.325600  0.986000  1.0  -0.6313
  O  O58  1  0.123600  0.282300  0.749900  1.0  -0.6932
  O  O59  1  0.075100  0.040200  0.186000  1.0  -0.5533
  O  O60  1  0.177400  0.217200  0.598100  1.0  -0.481
  O  O61  1  0.253400  0.400600  0.042900  1.0  -0.6719
  O  O62  1  0.131300  0.389100  0.152800  1.0  -0.5619
  O  O63  1  0.225100  0.275500  0.117900  1.0  -0.776
  O  O64  1  0.553800  0.562900  0.901500  1.0  -0.61
  O  O65  1  0.603500  0.641600  0.729400  1.0  -0.8605
  O  O66  1  0.586100  0.642700  0.079000  1.0  -0.5555
  O  O67  1  0.525200  0.734300  0.609700  1.0  -0.684
  O  O68  1  0.624600  0.825600  0.986000  1.0  -0.6313
  O  O69  1  0.623600  0.782300  0.749900  1.0  -0.6932
  O  O70  1  0.575100  0.540200  0.186000  1.0  -0.5533
  O  O71  1  0.677400  0.717200  0.598100  1.0  -0.481
  O  O72  1  0.753400  0.900600  0.042900  1.0  -0.6719
  O  O73  1  0.631300  0.889100  0.152800  1.0  -0.5619
  O  O74  1  0.725100  0.775500  0.117900  1.0  -0.776
  O  O75  1  0.946200  0.062900  0.598500  1.0  -0.6101
  O  O76  1  0.896500  0.141600  0.770600  1.0  -0.861
  O  O77  1  0.913900  0.142700  0.421000  1.0  -0.554
  O  O78  1  0.974800  0.234300  0.890300  1.0  -0.6835
  O  O79  1  0.875400  0.325600  0.514000  1.0  -0.6292
  O  O80  1  0.876400  0.282300  0.750100  1.0  -0.6923
  O  O81  1  0.924900  0.040200  0.314000  1.0  -0.5505
  O  O82  1  0.822600  0.217200  0.901900  1.0  -0.4783
  O  O83  1  0.746600  0.400600  0.457100  1.0  -0.6692
  O  O84  1  0.868700  0.389100  0.347200  1.0  -0.5595
  O  O85  1  0.774900  0.275500  0.382100  1.0  -0.778
  O  O86  1  0.446200  0.562900  0.598500  1.0  -0.6101
  O  O87  1  0.396500  0.641600  0.770600  1.0  -0.861
  O  O88  1  0.413900  0.642700  0.421000  1.0  -0.554
  O  O89  1  0.474800  0.734300  0.890300  1.0  -0.6835
  O  O90  1  0.375400  0.825600  0.514000  1.0  -0.6292
  O  O91  1  0.376400  0.782300  0.750100  1.0  -0.6923
  O  O92  1  0.424900  0.540200  0.314000  1.0  -0.5505
  O  O93  1  0.322600  0.717200  0.901900  1.0  -0.4783
  O  O94  1  0.246600  0.900600  0.457100  1.0  -0.6692
  O  O95  1  0.368700  0.889100  0.347200  1.0  -0.5595
  O  O96  1  0.274900  0.775500  0.382100  1.0  -0.778
  O  O97  1  0.946200  0.937100  0.098500  1.0  -0.6097
  O  O98  1  0.896500  0.858400  0.270600  1.0  -0.8606
  O  O99  1  0.913900  0.857300  0.921000  1.0  -0.555
  O  O100  1  0.974800  0.765700  0.390300  1.0  -0.6847
  O  O101  1  0.875400  0.674400  0.014000  1.0  -0.6304
  O  O102  1  0.876400  0.717700  0.250100  1.0  -0.6949
  O  O103  1  0.924900  0.959800  0.814000  1.0  -0.5501
  O  O104  1  0.822600  0.782800  0.401900  1.0  -0.4781
  O  O105  1  0.746600  0.599400  0.957100  1.0  -0.6696
  O  O106  1  0.868700  0.610900  0.847200  1.0  -0.5598
  O  O107  1  0.774900  0.724500  0.882100  1.0  -0.7796
  O  O108  1  0.446200  0.437100  0.098500  1.0  -0.6097
  O  O109  1  0.396500  0.358400  0.270600  1.0  -0.8606
  O  O110  1  0.413900  0.357300  0.921000  1.0  -0.555
  O  O111  1  0.474800  0.265700  0.390300  1.0  -0.6847
  O  O112  1  0.375400  0.174400  0.014000  1.0  -0.6304
  O  O113  1  0.376400  0.217700  0.250100  1.0  -0.6949
  O  O114  1  0.424900  0.459800  0.814000  1.0  -0.5501
  O  O115  1  0.322600  0.282800  0.401900  1.0  -0.4781
  O  O116  1  0.246600  0.099400  0.957100  1.0  -0.6696
  O  O117  1  0.368700  0.110900  0.847200  1.0  -0.5598
  O  O118  1  0.274900  0.224500  0.882100  1.0  -0.7796
  O  O119  1  0.053800  0.937100  0.401500  1.0  -0.6105
  O  O120  1  0.103500  0.858400  0.229400  1.0  -0.8609
  O  O121  1  0.086100  0.857300  0.579000  1.0  -0.5564
  O  O122  1  0.025200  0.765700  0.109700  1.0  -0.6835
  O  O123  1  0.124600  0.674400  0.486000  1.0  -0.6296
  O  O124  1  0.123600  0.717700  0.249900  1.0  -0.6958
  O  O125  1  0.075100  0.959800  0.686000  1.0  -0.5529
  O  O126  1  0.177400  0.782800  0.098100  1.0  -0.4804
  O  O127  1  0.253400  0.599400  0.542900  1.0  -0.6709
  O  O128  1  0.131300  0.610900  0.652800  1.0  -0.5615
  O  O129  1  0.225100  0.724500  0.617900  1.0  -0.7761
  O  O130  1  0.553800  0.437100  0.401500  1.0  -0.6105
  O  O131  1  0.603500  0.358400  0.229400  1.0  -0.8609
  O  O132  1  0.586100  0.357300  0.579000  1.0  -0.5564
  O  O133  1  0.525200  0.265700  0.109700  1.0  -0.6835
  O  O134  1  0.624600  0.174400  0.486000  1.0  -0.6296
  O  O135  1  0.623600  0.217700  0.249900  1.0  -0.6958
  O  O136  1  0.575100  0.459800  0.686000  1.0  -0.5529
  O  O137  1  0.677400  0.282800  0.098100  1.0  -0.4804
  O  O138  1  0.753400  0.099400  0.542900  1.0  -0.6709
  O  O139  1  0.631300  0.110900  0.652800  1.0  -0.5615
  O  O140  1  0.725100  0.224500  0.617900  1.0  -0.7761
