# generated using pymatgen
data_Co3H16(C2O)16
_symmetry_space_group_name_H-M   'P 1'
_cell_length_a   15.41400000
_cell_length_b   11.87700000
_cell_length_c   24.15400000
_cell_angle_alpha   90.00000000
_cell_angle_beta   90.00000000
_cell_angle_gamma   90.00000000
_symmetry_Int_Tables_number   1
_chemical_formula_structural   Co3H16(C2O)16
_chemical_formula_sum   'Co12 H64 C128 O64'
_cell_volume   4421.92297201
_cell_formula_units_Z   4
loop_
 _symmetry_equiv_pos_site_id
 _symmetry_equiv_pos_as_xyz
  1  'x, y, z'
loop_
 _atom_site_type_symbol
 _atom_site_label
 _atom_site_symmetry_multiplicity
 _atom_site_fract_x
 _atom_site_fract_y
 _atom_site_fract_z
 _atom_site_occupancy
 _atom_site_charge
  Co  Co1  1  0.550030  0.359510  0.624690  1.0  1.1586
  Co  Co2  1  0.949970  0.640490  0.124690  1.0  1.1594
  Co  Co3  1  0.449970  0.859510  0.875310  1.0  1.16
  Co  Co4  1  0.050030  0.140490  0.375310  1.0  1.1589
  Co  Co5  1  0.449970  0.640490  0.375310  1.0  1.1598
  Co  Co6  1  0.050030  0.359510  0.875310  1.0  1.1589
  Co  Co7  1  0.550030  0.140490  0.124690  1.0  1.1582
  Co  Co8  1  0.949970  0.859510  0.624690  1.0  1.1598
  Co  Co9  1  0.500000  0.500000  0.500000  1.0  1.1183
  Co  Co10  1  0.000000  0.500000  0.000000  1.0  1.1196
  Co  Co11  1  0.500000  0.000000  0.000000  1.0  1.1188
  Co  Co12  1  0.000000  0.000000  0.500000  1.0  1.1191
  H  H13  1  0.443300  0.641500  0.720300  1.0  0.1243
  H  H14  1  0.272600  0.893100  0.708600  1.0  0.1272
  H  H15  1  0.232800  0.831000  0.621700  1.0  0.1169
  H  H16  1  0.301500  0.677700  0.582600  1.0  0.1103
  H  H17  1  0.204500  0.752300  0.470700  1.0  0.1176
  H  H18  1  0.058100  0.548600  0.563500  1.0  0.1334
  H  H19  1  0.153600  0.403700  0.546700  1.0  0.1144
  H  H20  1  0.279100  0.435500  0.496200  1.0  0.1271
  H  H21  1  0.056700  0.358500  0.220300  1.0  0.1244
  H  H22  1  0.227400  0.106900  0.208600  1.0  0.127
  H  H23  1  0.267200  0.169000  0.121700  1.0  0.1167
  H  H24  1  0.198500  0.322300  0.082600  1.0  0.1101
  H  H25  1  0.295500  0.247700  0.970700  1.0  0.1174
  H  H26  1  0.441900  0.451400  0.063500  1.0  0.1333
  H  H27  1  0.346400  0.596300  0.046700  1.0  0.1146
  H  H28  1  0.220900  0.564500  0.996200  1.0  0.1273
  H  H29  1  0.556700  0.141500  0.779700  1.0  0.1242
  H  H30  1  0.727400  0.393100  0.791400  1.0  0.1261
  H  H31  1  0.767200  0.331000  0.878300  1.0  0.1165
  H  H32  1  0.698500  0.177700  0.917400  1.0  0.1113
  H  H33  1  0.795500  0.252300  0.029300  1.0  0.118
  H  H34  1  0.941900  0.048600  0.936500  1.0  0.1336
  H  H35  1  0.846400  0.903700  0.953300  1.0  0.1143
  H  H36  1  0.720900  0.935500  0.003800  1.0  0.1272
  H  H37  1  0.943300  0.858500  0.279700  1.0  0.1243
  H  H38  1  0.772600  0.606900  0.291400  1.0  0.1261
  H  H39  1  0.732800  0.669000  0.378300  1.0  0.1167
  H  H40  1  0.801500  0.822300  0.417400  1.0  0.1113
  H  H41  1  0.704500  0.747700  0.529300  1.0  0.1182
  H  H42  1  0.558100  0.951400  0.436500  1.0  0.1334
  H  H43  1  0.653600  0.096300  0.453300  1.0  0.1148
  H  H44  1  0.779100  0.064500  0.503800  1.0  0.127
  H  H45  1  0.556700  0.358500  0.279700  1.0  0.1243
  H  H46  1  0.727400  0.106900  0.291400  1.0  0.1258
  H  H47  1  0.767200  0.169000  0.378300  1.0  0.1167
  H  H48  1  0.698500  0.322300  0.417400  1.0  0.1113
  H  H49  1  0.795500  0.247700  0.529300  1.0  0.118
  H  H50  1  0.941900  0.451400  0.436500  1.0  0.1336
  H  H51  1  0.846400  0.596300  0.453300  1.0  0.1149
  H  H52  1  0.720900  0.564500  0.503800  1.0  0.1271
  H  H53  1  0.943300  0.641500  0.779700  1.0  0.1241
  H  H54  1  0.772600  0.893100  0.791400  1.0  0.1264
  H  H55  1  0.732800  0.831000  0.878300  1.0  0.1167
  H  H56  1  0.801500  0.677700  0.917400  1.0  0.1114
  H  H57  1  0.704500  0.752300  0.029300  1.0  0.1182
  H  H58  1  0.558100  0.548600  0.936500  1.0  0.1333
  H  H59  1  0.653600  0.403700  0.953300  1.0  0.1143
  H  H60  1  0.779100  0.435500  0.003800  1.0  0.1273
  H  H61  1  0.443300  0.858500  0.220300  1.0  0.1244
  H  H62  1  0.272600  0.606900  0.208600  1.0  0.1268
  H  H63  1  0.232800  0.669000  0.121700  1.0  0.1168
  H  H64  1  0.301500  0.822300  0.082600  1.0  0.1103
  H  H65  1  0.204500  0.747700  0.970700  1.0  0.1176
  H  H66  1  0.058100  0.951400  0.063500  1.0  0.1333
  H  H67  1  0.153600  0.096300  0.046700  1.0  0.1147
  H  H68  1  0.279100  0.064500  0.996200  1.0  0.1272
  H  H69  1  0.056700  0.141500  0.720300  1.0  0.1244
  H  H70  1  0.227400  0.393100  0.708600  1.0  0.1273
  H  H71  1  0.267200  0.331000  0.621700  1.0  0.1166
  H  H72  1  0.198500  0.177700  0.582600  1.0  0.1102
  H  H73  1  0.295500  0.252300  0.470700  1.0  0.1173
  H  H74  1  0.441900  0.048600  0.563500  1.0  0.1335
  H  H75  1  0.346400  0.903700  0.546700  1.0  0.1144
  H  H76  1  0.220900  0.935500  0.496200  1.0  0.1271
  C  C77  1  0.381900  0.645500  0.647700  1.0  -0.0949
  C  C78  1  0.402000  0.680800  0.700000  1.0  0.037
  C  C79  1  0.362200  0.774000  0.723500  1.0  -0.161
  C  C80  1  0.299500  0.830100  0.693500  1.0  -0.0318
  C  C81  1  0.276100  0.793600  0.641200  1.0  -0.1165
  C  C82  1  0.316900  0.702000  0.617900  1.0  -0.0179
  C  C83  1  0.429800  0.550100  0.620200  1.0  0.7353
  C  C84  1  0.389400  0.815400  0.779500  1.0  0.6872
  C  C85  1  0.254500  0.597800  0.479600  1.0  -0.0914
  C  C86  1  0.195600  0.683100  0.487800  1.0  -0.0586
  C  C87  1  0.123000  0.668000  0.521100  1.0  -0.1004
  C  C88  1  0.107600  0.561600  0.542400  1.0  -0.053
  C  C89  1  0.164900  0.475000  0.532600  1.0  -0.0982
  C  C90  1  0.239600  0.493500  0.501800  1.0  -0.0335
  C  C91  1  0.331200  0.618100  0.444500  1.0  0.6963
  C  C92  1  0.062600  0.763200  0.534700  1.0  0.7213
  C  C93  1  0.118100  0.354500  0.147700  1.0  -0.095
  C  C94  1  0.098000  0.319200  0.200000  1.0  0.0363
  C  C95  1  0.137800  0.226000  0.223500  1.0  -0.1603
  C  C96  1  0.200500  0.169900  0.193500  1.0  -0.032
  C  C97  1  0.223900  0.206400  0.141200  1.0  -0.1155
  C  C98  1  0.183100  0.298000  0.117900  1.0  -0.0184
  C  C99  1  0.070200  0.449900  0.120200  1.0  0.7344
  C  C100  1  0.110600  0.184600  0.279500  1.0  0.6872
  C  C101  1  0.245500  0.402200  0.979600  1.0  -0.0892
  C  C102  1  0.304400  0.316900  0.987800  1.0  -0.0591
  C  C103  1  0.377000  0.332000  0.021100  1.0  -0.1007
  C  C104  1  0.392400  0.438400  0.042400  1.0  -0.0517
  C  C105  1  0.335100  0.525000  0.032600  1.0  -0.0985
  C  C106  1  0.260400  0.506500  0.001800  1.0  -0.0301
  C  C107  1  0.168800  0.381900  0.944500  1.0  0.6972
  C  C108  1  0.437400  0.236800  0.034700  1.0  0.7205
  C  C109  1  0.618100  0.145500  0.852300  1.0  -0.0957
  C  C110  1  0.598000  0.180800  0.800000  1.0  0.0369
  C  C111  1  0.637800  0.274000  0.776500  1.0  -0.1596
  C  C112  1  0.700500  0.330100  0.806500  1.0  -0.0328
  C  C113  1  0.723900  0.293600  0.858800  1.0  -0.1143
  C  C114  1  0.683100  0.202000  0.882100  1.0  -0.0188
  C  C115  1  0.570200  0.050100  0.879800  1.0  0.7345
  C  C116  1  0.610600  0.315400  0.720500  1.0  0.6876
  C  C117  1  0.745500  0.097800  0.020400  1.0  -0.0906
  C  C118  1  0.804400  0.183100  0.012200  1.0  -0.0598
  C  C119  1  0.877000  0.168000  0.978900  1.0  -0.1006
  C  C120  1  0.892400  0.061600  0.957600  1.0  -0.0516
  C  C121  1  0.835100  0.975000  0.967400  1.0  -0.0983
  C  C122  1  0.760400  0.993500  0.998200  1.0  -0.0293
  C  C123  1  0.668800  0.118100  0.055500  1.0  0.697
  C  C124  1  0.937400  0.263200  0.965300  1.0  0.7202
  C  C125  1  0.881900  0.854500  0.352300  1.0  -0.0972
  C  C126  1  0.902000  0.819200  0.300000  1.0  0.0363
  C  C127  1  0.862200  0.726000  0.276500  1.0  -0.1607
  C  C128  1  0.799500  0.669900  0.306500  1.0  -0.0308
  C  C129  1  0.776100  0.706400  0.358800  1.0  -0.1147
  C  C130  1  0.816900  0.798000  0.382100  1.0  -0.0184
  C  C131  1  0.929800  0.949900  0.379800  1.0  0.735
  C  C132  1  0.889400  0.684600  0.220500  1.0  0.687
  C  C133  1  0.754500  0.902200  0.520400  1.0  -0.0925
  C  C134  1  0.695600  0.816900  0.512200  1.0  -0.0596
  C  C135  1  0.623000  0.832000  0.478900  1.0  -0.0996
  C  C136  1  0.607600  0.938400  0.457600  1.0  -0.0538
  C  C137  1  0.664900  0.025000  0.467400  1.0  -0.0977
  C  C138  1  0.739600  0.006500  0.498200  1.0  -0.0317
  C  C139  1  0.831200  0.881900  0.555500  1.0  0.6967
  C  C140  1  0.562600  0.736800  0.465300  1.0  0.7207
  C  C141  1  0.618100  0.354500  0.352300  1.0  -0.0957
  C  C142  1  0.598000  0.319200  0.300000  1.0  0.037
  C  C143  1  0.637800  0.226000  0.276500  1.0  -0.1601
  C  C144  1  0.700500  0.169900  0.306500  1.0  -0.0323
  C  C145  1  0.723900  0.206400  0.358800  1.0  -0.114
  C  C146  1  0.683100  0.298000  0.382100  1.0  -0.0188
  C  C147  1  0.570200  0.449900  0.379800  1.0  0.7348
  C  C148  1  0.610600  0.184600  0.220500  1.0  0.6874
  C  C149  1  0.745500  0.402200  0.520400  1.0  -0.0901
  C  C150  1  0.804400  0.316900  0.512200  1.0  -0.0596
  C  C151  1  0.877000  0.332000  0.478900  1.0  -0.1004
  C  C152  1  0.892400  0.438400  0.457600  1.0  -0.052
  C  C153  1  0.835100  0.525000  0.467400  1.0  -0.0986
  C  C154  1  0.760400  0.506500  0.498200  1.0  -0.0288
  C  C155  1  0.668800  0.381900  0.555500  1.0  0.6968
  C  C156  1  0.937400  0.236800  0.465300  1.0  0.7199
  C  C157  1  0.881900  0.645500  0.852300  1.0  -0.0963
  C  C158  1  0.902000  0.680800  0.800000  1.0  0.0363
  C  C159  1  0.862200  0.774000  0.776500  1.0  -0.1603
  C  C160  1  0.799500  0.830100  0.806500  1.0  -0.0314
  C  C161  1  0.776100  0.793600  0.858800  1.0  -0.1146
  C  C162  1  0.816900  0.702000  0.882100  1.0  -0.0185
  C  C163  1  0.929800  0.550100  0.879800  1.0  0.7347
  C  C164  1  0.889400  0.815400  0.720500  1.0  0.6873
  C  C165  1  0.754500  0.597800  0.020400  1.0  -0.0931
  C  C166  1  0.695600  0.683100  0.012200  1.0  -0.0597
  C  C167  1  0.623000  0.668000  0.978900  1.0  -0.0999
  C  C168  1  0.607600  0.561600  0.957600  1.0  -0.0534
  C  C169  1  0.664900  0.475000  0.967400  1.0  -0.0983
  C  C170  1  0.739600  0.493500  0.998200  1.0  -0.032
  C  C171  1  0.831200  0.618100  0.055500  1.0  0.6966
  C  C172  1  0.562600  0.763200  0.965300  1.0  0.721
  C  C173  1  0.381900  0.854500  0.147700  1.0  -0.0959
  C  C174  1  0.402000  0.819200  0.200000  1.0  0.0366
  C  C175  1  0.362200  0.726000  0.223500  1.0  -0.1609
  C  C176  1  0.299500  0.669900  0.193500  1.0  -0.0315
  C  C177  1  0.276100  0.706400  0.141200  1.0  -0.1166
  C  C178  1  0.316900  0.798000  0.117900  1.0  -0.018
  C  C179  1  0.429800  0.949900  0.120200  1.0  0.7352
  C  C180  1  0.389400  0.684600  0.279500  1.0  0.687
  C  C181  1  0.254500  0.902200  0.979600  1.0  -0.0917
  C  C182  1  0.195600  0.816900  0.987800  1.0  -0.059
  C  C183  1  0.123000  0.832000  0.021100  1.0  -0.1001
  C  C184  1  0.107600  0.938400  0.042400  1.0  -0.0535
  C  C185  1  0.164900  0.025000  0.032600  1.0  -0.0975
  C  C186  1  0.239600  0.006500  0.001800  1.0  -0.0327
  C  C187  1  0.331200  0.881900  0.944500  1.0  0.6965
  C  C188  1  0.062600  0.736800  0.034700  1.0  0.7212
  C  C189  1  0.118100  0.145500  0.647700  1.0  -0.0947
  C  C190  1  0.098000  0.180800  0.700000  1.0  0.0365
  C  C191  1  0.137800  0.274000  0.723500  1.0  -0.1604
  C  C192  1  0.200500  0.330100  0.693500  1.0  -0.0322
  C  C193  1  0.223900  0.293600  0.641200  1.0  -0.1156
  C  C194  1  0.183100  0.202000  0.617900  1.0  -0.0184
  C  C195  1  0.070200  0.050100  0.620200  1.0  0.7342
  C  C196  1  0.110600  0.315400  0.779500  1.0  0.6873
  C  C197  1  0.245500  0.097800  0.479600  1.0  -0.0889
  C  C198  1  0.304400  0.183100  0.487800  1.0  -0.0592
  C  C199  1  0.377000  0.168000  0.521100  1.0  -0.1009
  C  C200  1  0.392400  0.061600  0.542400  1.0  -0.0512
  C  C201  1  0.335100  0.975000  0.532600  1.0  -0.0983
  C  C202  1  0.260400  0.993500  0.501800  1.0  -0.0311
  C  C203  1  0.168800  0.118100  0.444500  1.0  0.6972
  C  C204  1  0.437400  0.263200  0.534700  1.0  0.7207
  O  O205  1  0.428300  0.546300  0.568450  1.0  -0.6055
  O  O206  1  0.469100  0.481000  0.651590  1.0  -0.5925
  O  O207  1  0.356000  0.901500  0.799540  1.0  -0.5566
  O  O208  1  0.445800  0.759600  0.805590  1.0  -0.5439
  O  O209  1  0.394400  0.547400  0.443960  1.0  -0.6636
  O  O210  1  0.333400  0.701300  0.413250  1.0  -0.5511
  O  O211  1  0.055800  0.841600  0.500500  1.0  -0.597
  O  O212  1  0.028800  0.758400  0.582320  1.0  -0.6032
  O  O213  1  0.071700  0.453700  0.068450  1.0  -0.6053
  O  O214  1  0.030900  0.519000  0.151590  1.0  -0.5931
  O  O215  1  0.144000  0.098500  0.299540  1.0  -0.5566
  O  O216  1  0.054200  0.240400  0.305590  1.0  -0.5445
  O  O217  1  0.105600  0.452600  0.943960  1.0  -0.6628
  O  O218  1  0.166600  0.298700  0.913250  1.0  -0.5515
  O  O219  1  0.444200  0.158400  0.000500  1.0  -0.5973
  O  O220  1  0.471200  0.241600  0.082320  1.0  -0.6013
  O  O221  1  0.571700  0.046300  0.931550  1.0  -0.606
  O  O222  1  0.530900  0.981000  0.848410  1.0  -0.5929
  O  O223  1  0.644000  0.401500  0.700460  1.0  -0.5552
  O  O224  1  0.554200  0.259600  0.694410  1.0  -0.5448
  O  O225  1  0.605600  0.047400  0.056040  1.0  -0.6626
  O  O226  1  0.666667  0.201300  0.086750  1.0  -0.5486
  O  O227  1  0.944200  0.341600  0.999500  1.0  -0.5964
  O  O228  1  0.971200  0.258400  0.917680  1.0  -0.6007
  O  O229  1  0.928300  0.953700  0.431550  1.0  -0.6066
  O  O230  1  0.969100  0.019000  0.348410  1.0  -0.593
  O  O231  1  0.856000  0.598500  0.200460  1.0  -0.5565
  O  O232  1  0.945800  0.740400  0.194410  1.0  -0.5449
  O  O233  1  0.894400  0.952600  0.556040  1.0  -0.6648
  O  O234  1  0.833400  0.798700  0.586750  1.0  -0.5523
  O  O235  1  0.555800  0.658400  0.499500  1.0  -0.5965
  O  O236  1  0.528800  0.741600  0.417680  1.0  -0.6013
  O  O237  1  0.571700  0.453700  0.431550  1.0  -0.606
  O  O238  1  0.530900  0.519000  0.348410  1.0  -0.5931
  O  O239  1  0.644000  0.098500  0.200460  1.0  -0.5567
  O  O240  1  0.554200  0.240400  0.194410  1.0  -0.5446
  O  O241  1  0.605600  0.452600  0.556040  1.0  -0.6634
  O  O242  1  0.666667  0.298700  0.586750  1.0  -0.5508
  O  O243  1  0.944200  0.158400  0.499500  1.0  -0.5972
  O  O244  1  0.971200  0.241600  0.417680  1.0  -0.6012
  O  O245  1  0.928300  0.546300  0.931550  1.0  -0.6067
  O  O246  1  0.969100  0.481000  0.848410  1.0  -0.5928
  O  O247  1  0.856000  0.901500  0.700460  1.0  -0.5563
  O  O248  1  0.945800  0.759600  0.694410  1.0  -0.5441
  O  O249  1  0.894400  0.547400  0.056040  1.0  -0.6636
  O  O250  1  0.833400  0.701300  0.086750  1.0  -0.5503
  O  O251  1  0.555800  0.841600  0.999500  1.0  -0.5959
  O  O252  1  0.528800  0.758400  0.917680  1.0  -0.6011
  O  O253  1  0.428300  0.953700  0.068450  1.0  -0.6057
  O  O254  1  0.469100  0.019000  0.151590  1.0  -0.5922
  O  O255  1  0.356000  0.598500  0.299540  1.0  -0.5567
  O  O256  1  0.445800  0.740400  0.305590  1.0  -0.5448
  O  O257  1  0.394400  0.952600  0.943960  1.0  -0.6636
  O  O258  1  0.333400  0.798700  0.913250  1.0  -0.5511
  O  O259  1  0.055800  0.658400  0.000500  1.0  -0.5969
  O  O260  1  0.028800  0.741600  0.082320  1.0  -0.6023
  O  O261  1  0.071700  0.046300  0.568450  1.0  -0.6051
  O  O262  1  0.030900  0.981000  0.651590  1.0  -0.5933
  O  O263  1  0.144000  0.401500  0.799540  1.0  -0.5554
  O  O264  1  0.054200  0.259600  0.805590  1.0  -0.5443
  O  O265  1  0.105600  0.047400  0.443960  1.0  -0.6631
  O  O266  1  0.166600  0.201300  0.413250  1.0  -0.5513
  O  O267  1  0.444200  0.341600  0.500500  1.0  -0.5973
  O  O268  1  0.471200  0.258400  0.582320  1.0  -0.6021
