# generated using pymatgen
data_Ni3H16(C2O)16
_symmetry_space_group_name_H-M   'P 1'
_cell_length_a   15.49120000
_cell_length_b   11.66870000
_cell_length_c   23.75020000
_cell_angle_alpha   90.00000000
_cell_angle_beta   90.00000000
_cell_angle_gamma   90.00000000
_symmetry_Int_Tables_number   1
_chemical_formula_structural   Ni3H16(C2O)16
_chemical_formula_sum   'Ni12 H64 C128 O64'
_cell_volume   4293.13758163
_cell_formula_units_Z   4
loop_
 _symmetry_equiv_pos_site_id
 _symmetry_equiv_pos_as_xyz
  1  'x, y, z'
loop_
 _atom_site_type_symbol
 _atom_site_label
 _atom_site_symmetry_multiplicity
 _atom_site_fract_x
 _atom_site_fract_y
 _atom_site_fract_z
 _atom_site_occupancy
 _atom_site_charge
  Ni  Ni1  1  0.046980  0.357330  0.123110  1.0  1.015
  Ni  Ni2  1  0.453020  0.642670  0.623110  1.0  1.0159
  Ni  Ni3  1  0.953020  0.857330  0.376890  1.0  1.0168
  Ni  Ni4  1  0.546980  0.142670  0.876890  1.0  1.0154
  Ni  Ni5  1  0.953020  0.642670  0.876890  1.0  1.0169
  Ni  Ni6  1  0.546980  0.357330  0.376890  1.0  1.0151
  Ni  Ni7  1  0.046980  0.142670  0.623110  1.0  1.015
  Ni  Ni8  1  0.453020  0.857330  0.123110  1.0  1.016
  Ni  Ni9  1  0.000000  0.500000  0.000000  1.0  1.0656
  Ni  Ni10  1  0.500000  0.500000  0.500000  1.0  1.0656
  Ni  Ni11  1  0.000000  0.000000  0.500000  1.0  1.0656
  Ni  Ni12  1  0.500000  0.000000  0.000000  1.0  1.0656
  H  H13  1  0.291800  0.243500  0.029900  1.0  0.1282
  H  H14  1  0.435500  0.455800  0.936300  1.0  0.1446
  H  H15  1  0.339100  0.601300  0.953800  1.0  0.1205
  H  H16  1  0.211000  0.564200  0.001600  1.0  0.1315
  H  H17  1  0.942500  0.635400  0.221200  1.0  0.1338
  H  H18  1  0.796300  0.679000  0.085100  1.0  0.1106
  H  H19  1  0.728900  0.833500  0.126900  1.0  0.1313
  H  H20  1  0.772400  0.893600  0.215500  1.0  0.1362
  H  H21  1  0.208200  0.756500  0.529900  1.0  0.1281
  H  H22  1  0.064500  0.544200  0.436300  1.0  0.1443
  H  H23  1  0.160900  0.398700  0.453800  1.0  0.1203
  H  H24  1  0.289000  0.435800  0.501600  1.0  0.1317
  H  H25  1  0.557500  0.364600  0.721200  1.0  0.1339
  H  H26  1  0.703700  0.321000  0.585100  1.0  0.1105
  H  H27  1  0.771100  0.166500  0.626900  1.0  0.1314
  H  H28  1  0.727600  0.106400  0.715500  1.0  0.1362
  H  H29  1  0.708200  0.743500  0.470100  1.0  0.1278
  H  H30  1  0.564500  0.955800  0.563700  1.0  0.1443
  H  H31  1  0.660900  0.101300  0.546200  1.0  0.1201
  H  H32  1  0.789000  0.064200  0.498400  1.0  0.1316
  H  H33  1  0.057500  0.135400  0.278800  1.0  0.1337
  H  H34  1  0.203700  0.179000  0.414900  1.0  0.1105
  H  H35  1  0.271100  0.333500  0.373100  1.0  0.1315
  H  H36  1  0.227600  0.393600  0.284500  1.0  0.1353
  H  H37  1  0.791800  0.256500  0.970100  1.0  0.1278
  H  H38  1  0.935500  0.044200  0.063700  1.0  0.1443
  H  H39  1  0.839100  0.898700  0.046200  1.0  0.1203
  H  H40  1  0.711000  0.935800  0.998400  1.0  0.1311
  H  H41  1  0.442500  0.864600  0.778800  1.0  0.134
  H  H42  1  0.296300  0.821000  0.914900  1.0  0.1106
  H  H43  1  0.228900  0.666500  0.873100  1.0  0.1307
  H  H44  1  0.272400  0.606400  0.784500  1.0  0.135
  H  H45  1  0.708200  0.756500  0.970100  1.0  0.1276
  H  H46  1  0.564500  0.544200  0.063700  1.0  0.1444
  H  H47  1  0.660900  0.398700  0.046200  1.0  0.1202
  H  H48  1  0.789000  0.435800  0.998400  1.0  0.1314
  H  H49  1  0.057500  0.364600  0.778800  1.0  0.1339
  H  H50  1  0.203700  0.321000  0.914900  1.0  0.1105
  H  H51  1  0.271100  0.166500  0.873100  1.0  0.1313
  H  H52  1  0.227600  0.106400  0.784500  1.0  0.1351
  H  H53  1  0.791800  0.243500  0.470100  1.0  0.1279
  H  H54  1  0.935500  0.455800  0.563700  1.0  0.1445
  H  H55  1  0.839100  0.601300  0.546200  1.0  0.1202
  H  H56  1  0.711000  0.564200  0.498400  1.0  0.1314
  H  H57  1  0.442500  0.635400  0.278800  1.0  0.134
  H  H58  1  0.296300  0.679000  0.414900  1.0  0.1107
  H  H59  1  0.228900  0.833500  0.373100  1.0  0.1311
  H  H60  1  0.272400  0.893600  0.284500  1.0  0.1352
  H  H61  1  0.291800  0.256500  0.529900  1.0  0.1279
  H  H62  1  0.435500  0.044200  0.436300  1.0  0.1442
  H  H63  1  0.339100  0.898700  0.453800  1.0  0.1206
  H  H64  1  0.211000  0.935800  0.501600  1.0  0.1313
  H  H65  1  0.942500  0.864600  0.721200  1.0  0.1338
  H  H66  1  0.796300  0.821000  0.585100  1.0  0.1108
  H  H67  1  0.728900  0.666500  0.626900  1.0  0.1313
  H  H68  1  0.772400  0.606400  0.715500  1.0  0.136
  H  H69  1  0.208200  0.743500  0.029900  1.0  0.1284
  H  H70  1  0.064500  0.955800  0.936300  1.0  0.1444
  H  H71  1  0.160900  0.101300  0.953800  1.0  0.1204
  H  H72  1  0.289000  0.064200  0.001600  1.0  0.1317
  H  H73  1  0.557500  0.135400  0.221200  1.0  0.1337
  H  H74  1  0.703700  0.179000  0.085100  1.0  0.1104
  H  H75  1  0.771100  0.333500  0.126900  1.0  0.1312
  H  H76  1  0.727600  0.393600  0.215500  1.0  0.1363
  C  C77  1  0.239190  0.399900  0.019920  1.0  -0.0717
  C  C78  1  0.300050  0.314200  0.012630  1.0  -0.0747
  C  C79  1  0.372950  0.332000  0.980020  1.0  -0.0865
  C  C80  1  0.386500  0.441400  0.957760  1.0  -0.0626
  C  C81  1  0.327940  0.528100  0.967320  1.0  -0.0947
  C  C82  1  0.252140  0.506900  0.997140  1.0  -0.0656
  C  C83  1  0.161410  0.376200  0.054260  1.0  0.6531
  C  C84  1  0.433570  0.235100  0.966010  1.0  0.7196
  C  C85  1  0.863430  0.772700  0.226840  1.0  -0.1389
  C  C86  1  0.900810  0.676800  0.201730  1.0  0.0297
  C  C87  1  0.876850  0.642300  0.148210  1.0  -0.102
  C  C88  1  0.812980  0.701800  0.120970  1.0  -0.003
  C  C89  1  0.772830  0.795100  0.145690  1.0  -0.1175
  C  C90  1  0.798690  0.830600  0.198770  1.0  -0.0117
  C  C91  1  0.893560  0.812100  0.283590  1.0  0.6709
  C  C92  1  0.925020  0.546300  0.119370  1.0  0.7136
  C  C93  1  0.260810  0.600100  0.519920  1.0  -0.0743
  C  C94  1  0.199950  0.685800  0.512630  1.0  -0.0754
  C  C95  1  0.127050  0.668000  0.480020  1.0  -0.0864
  C  C96  1  0.113500  0.558600  0.457760  1.0  -0.0632
  C  C97  1  0.172060  0.471900  0.467320  1.0  -0.0945
  C  C98  1  0.247860  0.493100  0.497140  1.0  -0.0675
  C  C99  1  0.338590  0.623800  0.554260  1.0  0.6527
  C  C100  1  0.066430  0.764900  0.466010  1.0  0.719
  C  C101  1  0.636570  0.227300  0.726840  1.0  -0.1373
  C  C102  1  0.599190  0.323200  0.701730  1.0  0.0291
  C  C103  1  0.623150  0.357700  0.648210  1.0  -0.1005
  C  C104  1  0.687020  0.298200  0.620970  1.0  -0.0025
  C  C105  1  0.727170  0.204900  0.645690  1.0  -0.1155
  C  C106  1  0.701310  0.169400  0.698770  1.0  -0.0133
  C  C107  1  0.606440  0.187900  0.783590  1.0  0.6707
  C  C108  1  0.574980  0.453700  0.619370  1.0  0.7124
  C  C109  1  0.760810  0.899900  0.480080  1.0  -0.0729
  C  C110  1  0.699950  0.814200  0.487370  1.0  -0.0726
  C  C111  1  0.627050  0.832000  0.519980  1.0  -0.087
  C  C112  1  0.613500  0.941400  0.542240  1.0  -0.0637
  C  C113  1  0.672060  0.028100  0.532680  1.0  -0.0947
  C  C114  1  0.747860  0.006900  0.502860  1.0  -0.0668
  C  C115  1  0.838590  0.876200  0.445740  1.0  0.6516
  C  C116  1  0.566430  0.735100  0.533990  1.0  0.7194
  C  C117  1  0.136570  0.272700  0.273160  1.0  -0.1374
  C  C118  1  0.099190  0.176800  0.298270  1.0  0.0289
  C  C119  1  0.123150  0.142300  0.351790  1.0  -0.1032
  C  C120  1  0.187020  0.201800  0.379030  1.0  -0.0031
  C  C121  1  0.227170  0.295100  0.354310  1.0  -0.1154
  C  C122  1  0.201310  0.330600  0.301230  1.0  -0.0128
  C  C123  1  0.106440  0.312100  0.216410  1.0  0.6703
  C  C124  1  0.074980  0.046300  0.380630  1.0  0.7134
  C  C125  1  0.739190  0.100100  0.980080  1.0  -0.0719
  C  C126  1  0.800050  0.185800  0.987370  1.0  -0.0745
  C  C127  1  0.872950  0.168000  0.019980  1.0  -0.0865
  C  C128  1  0.886500  0.058600  0.042240  1.0  -0.0626
  C  C129  1  0.827940  0.971900  0.032680  1.0  -0.0941
  C  C130  1  0.752140  0.993100  0.002860  1.0  -0.0662
  C  C131  1  0.661410  0.123800  0.945740  1.0  0.6529
  C  C132  1  0.933570  0.264900  0.033990  1.0  0.7205
  C  C133  1  0.363430  0.727300  0.773160  1.0  -0.1393
  C  C134  1  0.400810  0.823200  0.798270  1.0  0.0297
  C  C135  1  0.376850  0.857700  0.851790  1.0  -0.1036
  C  C136  1  0.312980  0.798200  0.879030  1.0  -0.0036
  C  C137  1  0.272830  0.704900  0.854310  1.0  -0.1167
  C  C138  1  0.298690  0.669400  0.801230  1.0  -0.0118
  C  C139  1  0.393560  0.687900  0.716410  1.0  0.6699
  C  C140  1  0.425020  0.953700  0.880630  1.0  0.7142
  C  C141  1  0.760810  0.600100  0.980080  1.0  -0.0726
  C  C142  1  0.699950  0.685800  0.987370  1.0  -0.073
  C  C143  1  0.627050  0.668000  0.019980  1.0  -0.0872
  C  C144  1  0.613500  0.558600  0.042240  1.0  -0.0638
  C  C145  1  0.672060  0.471900  0.032680  1.0  -0.0946
  C  C146  1  0.747860  0.493100  0.002860  1.0  -0.067
  C  C147  1  0.838590  0.623800  0.945740  1.0  0.6516
  C  C148  1  0.566430  0.764900  0.033990  1.0  0.7194
  C  C149  1  0.136570  0.227300  0.773160  1.0  -0.1383
  C  C150  1  0.099190  0.323200  0.798270  1.0  0.0294
  C  C151  1  0.123150  0.357700  0.851790  1.0  -0.1023
  C  C152  1  0.187020  0.298200  0.879030  1.0  -0.0033
  C  C153  1  0.227170  0.204900  0.854310  1.0  -0.1153
  C  C154  1  0.201310  0.169400  0.801230  1.0  -0.0133
  C  C155  1  0.106440  0.187900  0.716410  1.0  0.6701
  C  C156  1  0.074980  0.453700  0.880630  1.0  0.7134
  C  C157  1  0.739190  0.399900  0.480080  1.0  -0.0724
  C  C158  1  0.800050  0.314200  0.487370  1.0  -0.0738
  C  C159  1  0.872950  0.332000  0.519980  1.0  -0.087
  C  C160  1  0.886500  0.441400  0.542240  1.0  -0.0635
  C  C161  1  0.827940  0.528100  0.532680  1.0  -0.095
  C  C162  1  0.752140  0.506900  0.502860  1.0  -0.0657
  C  C163  1  0.661410  0.376200  0.445740  1.0  0.6529
  C  C164  1  0.933570  0.235100  0.533990  1.0  0.7202
  C  C165  1  0.363430  0.772700  0.273160  1.0  -0.1386
  C  C166  1  0.400810  0.676800  0.298270  1.0  0.0295
  C  C167  1  0.376850  0.642300  0.351790  1.0  -0.1033
  C  C168  1  0.312980  0.701800  0.379030  1.0  -0.0035
  C  C169  1  0.272830  0.795100  0.354310  1.0  -0.1167
  C  C170  1  0.298690  0.830600  0.301230  1.0  -0.0116
  C  C171  1  0.393560  0.812100  0.216410  1.0  0.6702
  C  C172  1  0.425020  0.546300  0.380630  1.0  0.7141
  C  C173  1  0.239190  0.100100  0.519920  1.0  -0.0721
  C  C174  1  0.300050  0.185800  0.512630  1.0  -0.0759
  C  C175  1  0.372950  0.168000  0.480020  1.0  -0.0862
  C  C176  1  0.386500  0.058600  0.457760  1.0  -0.0619
  C  C177  1  0.327940  0.971900  0.467320  1.0  -0.0941
  C  C178  1  0.252140  0.993100  0.497140  1.0  -0.0663
  C  C179  1  0.161410  0.123800  0.554260  1.0  0.6538
  C  C180  1  0.433570  0.264900  0.466010  1.0  0.7201
  C  C181  1  0.863430  0.727300  0.726840  1.0  -0.1387
  C  C182  1  0.900810  0.823200  0.701730  1.0  0.0297
  C  C183  1  0.876850  0.857700  0.648210  1.0  -0.1024
  C  C184  1  0.812980  0.798200  0.620970  1.0  -0.0028
  C  C185  1  0.772830  0.704900  0.645690  1.0  -0.1174
  C  C186  1  0.798690  0.669400  0.698770  1.0  -0.0123
  C  C187  1  0.893560  0.687900  0.783590  1.0  0.6708
  C  C188  1  0.925020  0.953700  0.619370  1.0  0.7136
  C  C189  1  0.260810  0.899900  0.019920  1.0  -0.0739
  C  C190  1  0.199950  0.814200  0.012630  1.0  -0.0745
  C  C191  1  0.127050  0.832000  0.980020  1.0  -0.086
  C  C192  1  0.113500  0.941400  0.957760  1.0  -0.0632
  C  C193  1  0.172060  0.028100  0.967320  1.0  -0.0945
  C  C194  1  0.247860  0.006900  0.997140  1.0  -0.0671
  C  C195  1  0.338590  0.876200  0.054260  1.0  0.6521
  C  C196  1  0.066430  0.735100  0.966010  1.0  0.7187
  C  C197  1  0.636570  0.272700  0.226840  1.0  -0.1373
  C  C198  1  0.599190  0.176800  0.201730  1.0  0.0288
  C  C199  1  0.623150  0.142300  0.148210  1.0  -0.1011
  C  C200  1  0.687020  0.201800  0.120970  1.0  -0.0027
  C  C201  1  0.727170  0.295100  0.145690  1.0  -0.1156
  C  C202  1  0.701310  0.330600  0.198770  1.0  -0.0129
  C  C203  1  0.606440  0.312100  0.283590  1.0  0.6708
  C  C204  1  0.574980  0.046300  0.119370  1.0  0.7124
  O  O205  1  0.157950  0.287410  0.083860  1.0  -0.5252
  O  O206  1  0.098920  0.449450  0.056840  1.0  -0.659
  O  O207  1  0.442790  0.158310  0.001530  1.0  -0.5684
  O  O208  1  0.467050  0.242710  0.918020  1.0  -0.5854
  O  O209  1  0.864270  0.900190  0.305510  1.0  -0.532
  O  O210  1  0.952860  0.754460  0.307100  1.0  -0.5255
  O  O211  1  0.926890  0.550960  0.066800  1.0  -0.5874
  O  O212  1  0.960810  0.471850  0.150590  1.0  -0.5563
  O  O213  1  0.342050  0.712590  0.583860  1.0  -0.5244
  O  O214  1  0.401080  0.550550  0.556840  1.0  -0.6603
  O  O215  1  0.057210  0.841690  0.501530  1.0  -0.5676
  O  O216  1  0.032950  0.757290  0.418020  1.0  -0.5841
  O  O217  1  0.635730  0.099810  0.805510  1.0  -0.5307
  O  O218  1  0.547140  0.245540  0.807100  1.0  -0.5254
  O  O219  1  0.573110  0.449040  0.566800  1.0  -0.5868
  O  O220  1  0.539190  0.528150  0.650590  1.0  -0.5566
  O  O221  1  0.842050  0.787410  0.416140  1.0  -0.5266
  O  O222  1  0.901080  0.949450  0.443160  1.0  -0.6612
  O  O223  1  0.557210  0.658310  0.498470  1.0  -0.5684
  O  O224  1  0.532950  0.742710  0.581980  1.0  -0.5848
  O  O225  1  0.135730  0.400190  0.194490  1.0  -0.5308
  O  O226  1  0.047140  0.254460  0.192900  1.0  -0.5255
  O  O227  1  0.073110  0.050960  0.433200  1.0  -0.5878
  O  O228  1  0.039190  0.971850  0.349410  1.0  -0.5574
  O  O229  1  0.657950  0.212590  0.916140  1.0  -0.5268
  O  O230  1  0.598920  0.050550  0.943160  1.0  -0.6602
  O  O231  1  0.942790  0.341690  0.998470  1.0  -0.5679
  O  O232  1  0.967050  0.257290  0.081980  1.0  -0.5842
  O  O233  1  0.364270  0.599810  0.694490  1.0  -0.5312
  O  O234  1  0.452860  0.745540  0.692900  1.0  -0.5261
  O  O235  1  0.426890  0.949040  0.933200  1.0  -0.5879
  O  O236  1  0.460810  0.028150  0.849410  1.0  -0.5566
  O  O237  1  0.842050  0.712590  0.916140  1.0  -0.5267
  O  O238  1  0.901080  0.550550  0.943160  1.0  -0.6608
  O  O239  1  0.557210  0.841690  0.998470  1.0  -0.5682
  O  O240  1  0.532950  0.757290  0.081980  1.0  -0.5845
  O  O241  1  0.135730  0.099810  0.694490  1.0  -0.5311
  O  O242  1  0.047140  0.245540  0.692900  1.0  -0.5256
  O  O243  1  0.073110  0.449040  0.933200  1.0  -0.5873
  O  O244  1  0.039190  0.528150  0.849410  1.0  -0.557
  O  O245  1  0.657950  0.287410  0.416140  1.0  -0.5269
  O  O246  1  0.598920  0.449450  0.443160  1.0  -0.66
  O  O247  1  0.942790  0.158310  0.498470  1.0  -0.5684
  O  O248  1  0.967050  0.242710  0.581980  1.0  -0.5841
  O  O249  1  0.364270  0.900190  0.194490  1.0  -0.5317
  O  O250  1  0.452860  0.754460  0.192900  1.0  -0.5251
  O  O251  1  0.426890  0.550960  0.433200  1.0  -0.5882
  O  O252  1  0.460810  0.471850  0.349410  1.0  -0.557
  O  O253  1  0.157950  0.212590  0.583860  1.0  -0.5236
  O  O254  1  0.098920  0.050550  0.556840  1.0  -0.6592
  O  O255  1  0.442790  0.341690  0.501530  1.0  -0.5674
  O  O256  1  0.467050  0.257290  0.418020  1.0  -0.5849
  O  O257  1  0.864270  0.599810  0.805510  1.0  -0.5308
  O  O258  1  0.952860  0.745540  0.807100  1.0  -0.526
  O  O259  1  0.926890  0.949040  0.566800  1.0  -0.5872
  O  O260  1  0.960810  0.028150  0.650590  1.0  -0.5553
  O  O261  1  0.342050  0.787410  0.083860  1.0  -0.5252
  O  O262  1  0.401080  0.949450  0.056840  1.0  -0.6603
  O  O263  1  0.057210  0.658310  0.001530  1.0  -0.5682
  O  O264  1  0.032950  0.742710  0.918020  1.0  -0.5843
  O  O265  1  0.635730  0.400190  0.305510  1.0  -0.5309
  O  O266  1  0.547140  0.254460  0.307100  1.0  -0.5258
  O  O267  1  0.573110  0.050960  0.066800  1.0  -0.587
  O  O268  1  0.539190  0.971850  0.150590  1.0  -0.5575
