# generated using pymatgen
data_Mn3H16(C2O)16
_symmetry_space_group_name_H-M   'P 1'
_cell_length_a   13.09200000
_cell_length_b   14.49000000
_cell_length_c   12.64000000
_cell_angle_alpha   90.00000000
_cell_angle_beta   116.85000000
_cell_angle_gamma   90.00000000
_symmetry_Int_Tables_number   1
_chemical_formula_structural   Mn3H16(C2O)16
_chemical_formula_sum   'Mn6 H32 C64 O32'
_cell_volume   2139.33988221
_cell_formula_units_Z   2
loop_
 _symmetry_equiv_pos_site_id
 _symmetry_equiv_pos_as_xyz
  1  'x, y, z'
loop_
 _atom_site_type_symbol
 _atom_site_label
 _atom_site_symmetry_multiplicity
 _atom_site_fract_x
 _atom_site_fract_y
 _atom_site_fract_z
 _atom_site_occupancy
 _atom_site_charge
  Mn  Mn1  1  0.271350  0.442890  0.244770  1.0  1.1267
  Mn  Mn2  1  0.728650  0.942890  0.255230  1.0  1.127
  Mn  Mn3  1  0.728650  0.557110  0.755230  1.0  1.1286
  Mn  Mn4  1  0.271350  0.057110  0.744770  1.0  1.1263
  Mn  Mn5  1  0.000000  0.500000  0.000000  1.0  1.1415
  Mn  Mn6  1  0.000000  0.000000  0.500000  1.0  1.1415
  H  H7  1  0.055400  0.186500  0.259200  1.0  0.1177
  H  H8  1  0.982600  0.262400  0.925700  1.0  0.1321
  H  H9  1  0.855600  0.137600  0.854500  1.0  0.126
  H  H10  1  0.827200  0.042600  0.984100  1.0  0.1233
  H  H11  1  0.429000  0.707000  0.187500  1.0  0.1245
  H  H12  1  0.408900  0.862900  0.915000  1.0  0.1178
  H  H13  1  0.248000  0.782100  0.787000  1.0  0.1157
  H  H14  1  0.172800  0.668500  0.860500  1.0  0.115
  H  H15  1  0.944600  0.686500  0.240800  1.0  0.1167
  H  H16  1  0.017400  0.762400  0.574300  1.0  0.1334
  H  H17  1  0.144400  0.637600  0.645500  1.0  0.1259
  H  H18  1  0.172800  0.542600  0.515900  1.0  0.1237
  H  H19  1  0.571000  0.207000  0.312500  1.0  0.1245
  H  H20  1  0.591100  0.362900  0.585000  1.0  0.1177
  H  H21  1  0.752000  0.282100  0.713000  1.0  0.1157
  H  H22  1  0.827200  0.168500  0.639500  1.0  0.1152
  H  H23  1  0.944600  0.813500  0.740800  1.0  0.1168
  H  H24  1  0.017400  0.737600  0.074300  1.0  0.1335
  H  H25  1  0.144400  0.862400  0.145500  1.0  0.1254
  H  H26  1  0.172800  0.957400  0.015900  1.0  0.1236
  H  H27  1  0.571000  0.293000  0.812500  1.0  0.1247
  H  H28  1  0.591100  0.137100  0.085000  1.0  0.1176
  H  H29  1  0.752000  0.217900  0.213000  1.0  0.1174
  H  H30  1  0.827200  0.331500  0.139500  1.0  0.1158
  H  H31  1  0.055400  0.313500  0.759200  1.0  0.1178
  H  H32  1  0.982600  0.237600  0.425700  1.0  0.132
  H  H33  1  0.855600  0.362400  0.354500  1.0  0.126
  H  H34  1  0.827200  0.457400  0.484100  1.0  0.1244
  H  H35  1  0.429000  0.793000  0.687500  1.0  0.1243
  H  H36  1  0.408900  0.637100  0.415000  1.0  0.1175
  H  H37  1  0.248000  0.717900  0.287000  1.0  0.1143
  H  H38  1  0.172800  0.831500  0.360500  1.0  0.1153
  C  C39  1  0.935800  0.105900  0.135000  1.0  -0.1417
  C  C40  1  0.014000  0.177600  0.177900  1.0  0.0013
  C  C41  1  0.031400  0.236700  0.099800  1.0  -0.1266
  C  C42  1  0.971800  0.223000  0.978000  1.0  -0.0331
  C  C43  1  0.895200  0.148600  0.935600  1.0  -0.0958
  C  C44  1  0.878300  0.091700  0.013600  1.0  -0.0221
  C  C45  1  0.908800  0.049000  0.219200  1.0  0.734
  C  C46  1  0.118000  0.312600  0.150400  1.0  0.7094
  C  C47  1  0.293400  0.674700  0.030300  1.0  -0.1478
  C  C48  1  0.391900  0.722900  0.107600  1.0  0.0306
  C  C49  1  0.434500  0.794500  0.065300  1.0  -0.143
  C  C50  1  0.379900  0.816100  0.944000  1.0  -0.0043
  C  C51  1  0.283400  0.768200  0.867500  1.0  -0.0879
  C  C52  1  0.239500  0.698900  0.911600  1.0  -0.005
  C  C53  1  0.243700  0.597700  0.071900  1.0  0.7515
  C  C54  1  0.537700  0.849100  0.146900  1.0  0.6904
  C  C55  1  0.064200  0.605900  0.365000  1.0  -0.1428
  C  C56  1  0.986000  0.677600  0.322100  1.0  0.0009
  C  C57  1  0.968600  0.736700  0.400200  1.0  -0.1276
  C  C58  1  0.028200  0.723000  0.522000  1.0  -0.0331
  C  C59  1  0.104800  0.648600  0.564400  1.0  -0.0947
  C  C60  1  0.121700  0.591700  0.486400  1.0  -0.0226
  C  C61  1  0.091200  0.549000  0.280800  1.0  0.7342
  C  C62  1  0.882000  0.812600  0.349600  1.0  0.7079
  C  C63  1  0.706600  0.174700  0.469700  1.0  -0.1471
  C  C64  1  0.608100  0.222900  0.392400  1.0  0.0304
  C  C65  1  0.565500  0.294500  0.434700  1.0  -0.1427
  C  C66  1  0.620100  0.316100  0.556000  1.0  -0.0033
  C  C67  1  0.716600  0.268200  0.632500  1.0  -0.0881
  C  C68  1  0.760500  0.198900  0.588400  1.0  -0.0054
  C  C69  1  0.756300  0.097700  0.428100  1.0  0.7494
  C  C70  1  0.462300  0.349100  0.353100  1.0  0.6871
  C  C71  1  0.064200  0.894100  0.865000  1.0  -0.1407
  C  C72  1  0.986000  0.822400  0.822100  1.0  0.0012
  C  C73  1  0.968600  0.763300  0.900200  1.0  -0.1279
  C  C74  1  0.028200  0.777000  0.022000  1.0  -0.0341
  C  C75  1  0.104800  0.851400  0.064400  1.0  -0.0946
  C  C76  1  0.121700  0.908300  0.986400  1.0  -0.0223
  C  C77  1  0.091200  0.951000  0.780800  1.0  0.7354
  C  C78  1  0.882000  0.687400  0.849600  1.0  0.707
  C  C79  1  0.706600  0.325300  0.969700  1.0  -0.1471
  C  C80  1  0.608100  0.277100  0.892400  1.0  0.0302
  C  C81  1  0.565500  0.205500  0.934700  1.0  -0.1429
  C  C82  1  0.620100  0.183900  0.056000  1.0  -0.0032
  C  C83  1  0.716600  0.231800  0.132500  1.0  -0.0875
  C  C84  1  0.760500  0.301100  0.088400  1.0  -0.0046
  C  C85  1  0.756300  0.402300  0.928100  1.0  0.7507
  C  C86  1  0.462300  0.150900  0.853100  1.0  0.6874
  C  C87  1  0.935800  0.394100  0.635000  1.0  -0.1403
  C  C88  1  0.014000  0.322400  0.677900  1.0  0.0011
  C  C89  1  0.031400  0.263300  0.599800  1.0  -0.1268
  C  C90  1  0.971800  0.277000  0.478000  1.0  -0.0332
  C  C91  1  0.895200  0.351400  0.435600  1.0  -0.0947
  C  C92  1  0.878300  0.408300  0.513600  1.0  -0.0224
  C  C93  1  0.908800  0.451000  0.719200  1.0  0.7348
  C  C94  1  0.118000  0.187400  0.650400  1.0  0.7088
  C  C95  1  0.293400  0.825300  0.530300  1.0  -0.1482
  C  C96  1  0.391900  0.777100  0.607600  1.0  0.0302
  C  C97  1  0.434500  0.705500  0.565300  1.0  -0.1428
  C  C98  1  0.379900  0.683900  0.444000  1.0  -0.0041
  C  C99  1  0.283400  0.731800  0.367500  1.0  -0.0876
  C  C100  1  0.239500  0.801100  0.411600  1.0  -0.0039
  C  C101  1  0.243700  0.902300  0.571900  1.0  0.7509
  C  C102  1  0.537700  0.650900  0.646900  1.0  0.6902
  O  O103  1  0.971500  0.056900  0.328300  1.0  -0.6294
  O  O104  1  0.818400  0.001000  0.171700  1.0  -0.5899
  O  O105  1  0.192800  0.304700  0.254800  1.0  -0.5518
  O  O106  1  0.116400  0.381700  0.086900  1.0  -0.6379
  O  O107  1  0.144200  0.573500  0.005500  1.0  -0.6102
  O  O108  1  0.307900  0.560900  0.172200  1.0  -0.6027
  O  O109  1  0.583900  0.835100  0.255400  1.0  -0.5669
  O  O110  1  0.574000  0.910900  0.099300  1.0  -0.5947
  O  O111  1  0.028500  0.556900  0.171700  1.0  -0.6283
  O  O112  1  0.181600  0.501000  0.328300  1.0  -0.5885
  O  O113  1  0.807200  0.804700  0.245200  1.0  -0.5507
  O  O114  1  0.883600  0.881700  0.413100  1.0  -0.6363
  O  O115  1  0.855800  0.073500  0.494500  1.0  -0.6099
  O  O116  1  0.692100  0.060900  0.327800  1.0  -0.6018
  O  O117  1  0.416100  0.335100  0.244600  1.0  -0.5663
  O  O118  1  0.426000  0.410900  0.400700  1.0  -0.5935
  O  O119  1  0.028500  0.943100  0.671700  1.0  -0.6279
  O  O120  1  0.181600  0.999000  0.828300  1.0  -0.5892
  O  O121  1  0.807200  0.695300  0.745200  1.0  -0.5502
  O  O122  1  0.883600  0.618300  0.913100  1.0  -0.6359
  O  O123  1  0.855800  0.426500  0.994500  1.0  -0.6117
  O  O124  1  0.692100  0.439100  0.827800  1.0  -0.6011
  O  O125  1  0.416100  0.164900  0.744600  1.0  -0.5654
  O  O126  1  0.426000  0.089100  0.900700  1.0  -0.5928
  O  O127  1  0.971500  0.443100  0.828300  1.0  -0.6291
  O  O128  1  0.818400  0.499000  0.671700  1.0  -0.5899
  O  O129  1  0.192800  0.195300  0.754800  1.0  -0.5511
  O  O130  1  0.116400  0.118300  0.586900  1.0  -0.6381
  O  O131  1  0.144200  0.926500  0.505500  1.0  -0.6106
  O  O132  1  0.307900  0.939100  0.672200  1.0  -0.6014
  O  O133  1  0.583900  0.664900  0.755400  1.0  -0.566
  O  O134  1  0.574000  0.589100  0.599300  1.0  -0.5954
