# generated using pymatgen
data_Mg3H24C42N6O25
_symmetry_space_group_name_H-M   'P 1'
_cell_length_a   16.61650000
_cell_length_b   16.61650000
_cell_length_c   15.33660000
_cell_angle_alpha   90.00000000
_cell_angle_beta   90.00000000
_cell_angle_gamma   120.00000000
_symmetry_Int_Tables_number   1
_chemical_formula_structural   Mg3H24C42N6O25
_chemical_formula_sum   'Mg6 H48 C84 N12 O50'
_cell_volume   3667.23572054
_cell_formula_units_Z   2
loop_
 _symmetry_equiv_pos_site_id
 _symmetry_equiv_pos_as_xyz
  1  'x, y, z'
loop_
 _atom_site_type_symbol
 _atom_site_label
 _atom_site_symmetry_multiplicity
 _atom_site_fract_x
 _atom_site_fract_y
 _atom_site_fract_z
 _atom_site_occupancy
 _atom_site_charge
  Mg  Mg1  1  0.530070  0.265030  0.250000  1.0  1.4598
  Mg  Mg2  1  0.734970  0.265030  0.250000  1.0  1.4607
  Mg  Mg3  1  0.734970  0.469930  0.250000  1.0  1.46
  Mg  Mg4  1  0.469930  0.734970  0.750000  1.0  1.4597
  Mg  Mg5  1  0.265030  0.734970  0.750000  1.0  1.461
  Mg  Mg6  1  0.265030  0.530070  0.750000  1.0  1.4597
  H  H7  1  0.410200  0.106400  0.090900  1.0  0.3865
  H  H8  1  0.893600  0.303800  0.090900  1.0  0.3844
  H  H9  1  0.696200  0.589800  0.090900  1.0  0.3832
  H  H10  1  0.589800  0.893600  0.590900  1.0  0.3866
  H  H11  1  0.106400  0.696200  0.590900  1.0  0.3848
  H  H12  1  0.303800  0.410200  0.590900  1.0  0.3821
  H  H13  1  0.106400  0.410200  0.909100  1.0  0.3828
  H  H14  1  0.303800  0.893600  0.909100  1.0  0.3865
  H  H15  1  0.589800  0.696200  0.909100  1.0  0.3845
  H  H16  1  0.893600  0.589800  0.409100  1.0  0.383
  H  H17  1  0.696200  0.106400  0.409100  1.0  0.3865
  H  H18  1  0.410200  0.303800  0.409100  1.0  0.3846
  H  H19  1  0.589800  0.893600  0.909100  1.0  0.3863
  H  H20  1  0.106400  0.696200  0.909100  1.0  0.3851
  H  H21  1  0.303800  0.410200  0.909100  1.0  0.3831
  H  H22  1  0.410200  0.106400  0.409100  1.0  0.3867
  H  H23  1  0.893600  0.303800  0.409100  1.0  0.3844
  H  H24  1  0.696200  0.589800  0.409100  1.0  0.3831
  H  H25  1  0.893600  0.589800  0.090900  1.0  0.3827
  H  H26  1  0.696200  0.106400  0.090900  1.0  0.3868
  H  H27  1  0.410200  0.303800  0.090900  1.0  0.3842
  H  H28  1  0.106400  0.410200  0.590900  1.0  0.3822
  H  H29  1  0.303800  0.893600  0.590900  1.0  0.3861
  H  H30  1  0.589800  0.696200  0.590900  1.0  0.3845
  H  H31  1  0.370600  0.304300  0.250000  1.0  0.0972
  H  H32  1  0.209600  0.224700  0.250000  1.0  0.1018
  H  H33  1  0.695700  0.066300  0.250000  1.0  0.0977
  H  H34  1  0.775300  0.984900  0.250000  1.0  0.1012
  H  H35  1  0.933700  0.629400  0.250000  1.0  0.0991
  H  H36  1  0.015100  0.790400  0.250000  1.0  0.1022
  H  H37  1  0.629400  0.695700  0.750000  1.0  0.0991
  H  H38  1  0.790400  0.775300  0.750000  1.0  0.102
  H  H39  1  0.304300  0.933700  0.750000  1.0  0.0974
  H  H40  1  0.224700  0.015100  0.750000  1.0  0.1015
  H  H41  1  0.066300  0.370600  0.750000  1.0  0.0994
  H  H42  1  0.984900  0.209600  0.750000  1.0  0.1016
  H  H43  1  0.304300  0.370600  0.750000  1.0  0.0991
  H  H44  1  0.224700  0.209600  0.750000  1.0  0.1018
  H  H45  1  0.066300  0.695700  0.750000  1.0  0.0984
  H  H46  1  0.984900  0.775300  0.750000  1.0  0.1018
  H  H47  1  0.629400  0.933700  0.750000  1.0  0.0975
  H  H48  1  0.790400  0.015100  0.750000  1.0  0.1016
  H  H49  1  0.695700  0.629400  0.250000  1.0  0.0992
  H  H50  1  0.775300  0.790400  0.250000  1.0  0.1015
  H  H51  1  0.933700  0.304300  0.250000  1.0  0.0979
  H  H52  1  0.015100  0.224700  0.250000  1.0  0.1026
  H  H53  1  0.370600  0.066300  0.250000  1.0  0.0978
  H  H54  1  0.209600  0.984900  0.250000  1.0  0.1011
  C  C55  1  0.445500  0.035100  0.031500  1.0  0.2577
  C  C56  1  0.964900  0.410400  0.031500  1.0  0.2572
  C  C57  1  0.589600  0.554500  0.031500  1.0  0.258
  C  C58  1  0.554500  0.964900  0.531500  1.0  0.2577
  C  C59  1  0.035100  0.589600  0.531500  1.0  0.2579
  C  C60  1  0.410400  0.445500  0.531500  1.0  0.2582
  C  C61  1  0.035100  0.445500  0.968500  1.0  0.257
  C  C62  1  0.410400  0.964900  0.968500  1.0  0.2574
  C  C63  1  0.554500  0.589600  0.968500  1.0  0.257
  C  C64  1  0.964900  0.554500  0.468500  1.0  0.2581
  C  C65  1  0.589600  0.035100  0.468500  1.0  0.2564
  C  C66  1  0.445500  0.410400  0.468500  1.0  0.2569
  C  C67  1  0.554500  0.964900  0.968500  1.0  0.2563
  C  C68  1  0.035100  0.589600  0.968500  1.0  0.2575
  C  C69  1  0.410400  0.445500  0.968500  1.0  0.2576
  C  C70  1  0.445500  0.035100  0.468500  1.0  0.2575
  C  C71  1  0.964900  0.410400  0.468500  1.0  0.2565
  C  C72  1  0.589600  0.554500  0.468500  1.0  0.2578
  C  C73  1  0.964900  0.554500  0.031500  1.0  0.2581
  C  C74  1  0.589600  0.035100  0.031500  1.0  0.2632
  C  C75  1  0.445500  0.410400  0.031500  1.0  0.2636
  C  C76  1  0.035100  0.445500  0.531500  1.0  0.2571
  C  C77  1  0.410400  0.964900  0.531500  1.0  0.2638
  C  C78  1  0.554500  0.589600  0.531500  1.0  0.2634
  C  C79  1  0.199100  0.099550  0.250000  1.0  -0.0022
  C  C80  1  0.093800  0.046900  0.250000  1.0  0.2871
  C  C81  1  0.900450  0.099550  0.250000  1.0  -0.0003
  C  C82  1  0.953100  0.046900  0.250000  1.0  0.2867
  C  C83  1  0.900450  0.800900  0.250000  1.0  0.0011
  C  C84  1  0.953100  0.906200  0.250000  1.0  0.2867
  C  C85  1  0.800900  0.900450  0.750000  1.0  -0.001
  C  C86  1  0.906200  0.953100  0.750000  1.0  0.2865
  C  C87  1  0.099550  0.900450  0.750000  1.0  -0.0022
  C  C88  1  0.046900  0.953100  0.750000  1.0  0.2868
  C  C89  1  0.099550  0.199100  0.750000  1.0  0.0013
  C  C90  1  0.046900  0.093800  0.750000  1.0  0.2872
  C  C91  1  0.572600  0.145200  0.130800  1.0  0.6578
  C  C92  1  0.535050  0.070100  0.062700  1.0  -0.076
  C  C93  1  0.854800  0.427400  0.130800  1.0  0.6569
  C  C94  1  0.929900  0.464950  0.062700  1.0  -0.0749
  C  C95  1  0.572600  0.427400  0.130800  1.0  0.6573
  C  C96  1  0.535050  0.464950  0.062700  1.0  -0.0756
  C  C97  1  0.427400  0.854800  0.630800  1.0  0.6574
  C  C98  1  0.464950  0.929900  0.562700  1.0  -0.0756
  C  C99  1  0.145200  0.572600  0.630800  1.0  0.6574
  C  C100  1  0.070100  0.535050  0.562700  1.0  -0.0757
  C  C101  1  0.427400  0.572600  0.630800  1.0  0.6575
  C  C102  1  0.464950  0.535050  0.562700  1.0  -0.075
  C  C103  1  0.145200  0.572600  0.869200  1.0  0.6581
  C  C104  1  0.070100  0.535050  0.937300  1.0  -0.0753
  C  C105  1  0.427400  0.854800  0.869200  1.0  0.6585
  C  C106  1  0.464950  0.929900  0.937300  1.0  -0.075
  C  C107  1  0.427400  0.572600  0.869200  1.0  0.6582
  C  C108  1  0.464950  0.535050  0.937300  1.0  -0.0746
  C  C109  1  0.854800  0.427400  0.369200  1.0  0.6576
  C  C110  1  0.929900  0.464950  0.437300  1.0  -0.0745
  C  C111  1  0.572600  0.145200  0.369200  1.0  0.6583
  C  C112  1  0.535050  0.070100  0.437300  1.0  -0.0754
  C  C113  1  0.572600  0.427400  0.369200  1.0  0.6579
  C  C114  1  0.535050  0.464950  0.437300  1.0  -0.0752
  C  C115  1  0.337200  0.239700  0.250000  1.0  0.0775
  C  C116  1  0.242700  0.193300  0.250000  1.0  -0.1164
  C  C117  1  0.760300  0.097500  0.250000  1.0  0.0746
  C  C118  1  0.806700  0.049400  0.250000  1.0  -0.1159
  C  C119  1  0.902500  0.662800  0.250000  1.0  0.0768
  C  C120  1  0.950600  0.757300  0.250000  1.0  -0.1171
  C  C121  1  0.662800  0.760300  0.750000  1.0  0.0764
  C  C122  1  0.757300  0.806700  0.750000  1.0  -0.1138
  C  C123  1  0.239700  0.902500  0.750000  1.0  0.0732
  C  C124  1  0.193300  0.950600  0.750000  1.0  -0.1127
  C  C125  1  0.097500  0.337200  0.750000  1.0  0.0768
  C  C126  1  0.049400  0.242700  0.750000  1.0  -0.1166
  C  C127  1  0.239700  0.337200  0.750000  1.0  0.0763
  C  C128  1  0.193300  0.242700  0.750000  1.0  -0.1156
  C  C129  1  0.097500  0.760300  0.750000  1.0  0.0785
  C  C130  1  0.049400  0.806700  0.750000  1.0  -0.1153
  C  C131  1  0.662800  0.902500  0.750000  1.0  0.0735
  C  C132  1  0.757300  0.950600  0.750000  1.0  -0.1136
  C  C133  1  0.760300  0.662800  0.250000  1.0  0.0772
  C  C134  1  0.806700  0.757300  0.250000  1.0  -0.1169
  C  C135  1  0.902500  0.239700  0.250000  1.0  0.076
  C  C136  1  0.950600  0.193300  0.250000  1.0  -0.1143
  C  C137  1  0.337200  0.097500  0.250000  1.0  0.0743
  C  C138  1  0.242700  0.049400  0.250000  1.0  -0.115
  N  N139  1  0.381300  0.190650  0.250000  1.0  -0.297
  N  N140  1  0.809350  0.190650  0.250000  1.0  -0.2987
  N  N141  1  0.809350  0.618700  0.250000  1.0  -0.3002
  N  N142  1  0.618700  0.809350  0.750000  1.0  -0.2986
  N  N143  1  0.190650  0.809350  0.750000  1.0  -0.2965
  N  N144  1  0.190650  0.381300  0.750000  1.0  -0.2993
  N  N145  1  0.047200  0.094400  0.250000  1.0  -0.4596
  N  N146  1  0.905600  0.952800  0.250000  1.0  -0.462
  N  N147  1  0.047200  0.952800  0.250000  1.0  -0.4623
  N  N148  1  0.952800  0.905600  0.750000  1.0  -0.4602
  N  N149  1  0.094400  0.047200  0.750000  1.0  -0.4621
  N  N150  1  0.952800  0.047200  0.750000  1.0  -0.4622
  O  O151  1  0.520000  0.174900  0.156460  1.0  -0.6562
  O  O152  1  0.385700  0.065300  0.054100  1.0  -0.5407
  O  O153  1  0.825100  0.345100  0.156460  1.0  -0.6577
  O  O154  1  0.934700  0.320400  0.054100  1.0  -0.5393
  O  O155  1  0.654900  0.480000  0.156460  1.0  -0.6565
  O  O156  1  0.679600  0.614300  0.054100  1.0  -0.5367
  O  O157  1  0.480000  0.825100  0.656460  1.0  -0.658
  O  O158  1  0.614300  0.934700  0.554100  1.0  -0.5413
  O  O159  1  0.174900  0.654900  0.656460  1.0  -0.657
  O  O160  1  0.065300  0.679600  0.554100  1.0  -0.5385
  O  O161  1  0.345100  0.520000  0.656460  1.0  -0.6556
  O  O162  1  0.320400  0.385700  0.554100  1.0  -0.5378
  O  O163  1  0.174900  0.520000  0.843540  1.0  -0.6565
  O  O164  1  0.065300  0.385700  0.945900  1.0  -0.5367
  O  O165  1  0.345100  0.825100  0.843540  1.0  -0.6561
  O  O166  1  0.320400  0.934700  0.945900  1.0  -0.5392
  O  O167  1  0.480000  0.654900  0.843540  1.0  -0.6556
  O  O168  1  0.614300  0.679600  0.945900  1.0  -0.5382
  O  O169  1  0.825100  0.480000  0.343540  1.0  -0.6544
  O  O170  1  0.934700  0.614300  0.445900  1.0  -0.5365
  O  O171  1  0.654900  0.174900  0.343540  1.0  -0.6565
  O  O172  1  0.679600  0.065300  0.445900  1.0  -0.5404
  O  O173  1  0.520000  0.345100  0.343540  1.0  -0.6568
  O  O174  1  0.385700  0.320400  0.445900  1.0  -0.5382
  O  O175  1  0.480000  0.825100  0.843540  1.0  -0.6571
  O  O176  1  0.614300  0.934700  0.945900  1.0  -0.541
  O  O177  1  0.174900  0.654900  0.843540  1.0  -0.6558
  O  O178  1  0.065300  0.679600  0.945900  1.0  -0.5392
  O  O179  1  0.345100  0.520000  0.843540  1.0  -0.6553
  O  O180  1  0.320400  0.385700  0.945900  1.0  -0.5382
  O  O181  1  0.520000  0.174900  0.343540  1.0  -0.6555
  O  O182  1  0.385700  0.065300  0.445900  1.0  -0.5399
  O  O183  1  0.825100  0.345100  0.343540  1.0  -0.657
  O  O184  1  0.934700  0.320400  0.445900  1.0  -0.5388
  O  O185  1  0.654900  0.480000  0.343540  1.0  -0.6557
  O  O186  1  0.679600  0.614300  0.445900  1.0  -0.5368
  O  O187  1  0.825100  0.480000  0.156460  1.0  -0.6552
  O  O188  1  0.934700  0.614300  0.054100  1.0  -0.5366
  O  O189  1  0.654900  0.174900  0.156460  1.0  -0.6572
  O  O190  1  0.679600  0.065300  0.054100  1.0  -0.5412
  O  O191  1  0.520000  0.345100  0.156460  1.0  -0.658
  O  O192  1  0.385700  0.320400  0.054100  1.0  -0.5379
  O  O193  1  0.174900  0.520000  0.656460  1.0  -0.6567
  O  O194  1  0.065300  0.385700  0.554100  1.0  -0.5364
  O  O195  1  0.345100  0.825100  0.656460  1.0  -0.6572
  O  O196  1  0.320400  0.934700  0.554100  1.0  -0.5392
  O  O197  1  0.480000  0.654900  0.656460  1.0  -0.6567
  O  O198  1  0.614300  0.679600  0.554100  1.0  -0.5383
  O  O199  1  0.666667  0.333333  0.250000  1.0  -0.7943
  O  O200  1  0.333333  0.666667  0.750000  1.0  -0.7944
