# generated using pymatgen
data_Zn3H12C20(N3O4)2
_symmetry_space_group_name_H-M   'P 1'
_cell_length_a   9.12120000
_cell_length_b   18.85760000
_cell_length_c   8.12650000
_cell_angle_alpha   90.00000000
_cell_angle_beta   111.96300000
_cell_angle_gamma   90.00000000
_symmetry_Int_Tables_number   1
_chemical_formula_structural   Zn3H12C20(N3O4)2
_chemical_formula_sum   'Zn6 H24 C40 N12 O16'
_cell_volume   1296.34621525
_cell_formula_units_Z   2
loop_
 _symmetry_equiv_pos_site_id
 _symmetry_equiv_pos_as_xyz
  1  'x, y, z'
loop_
 _atom_site_type_symbol
 _atom_site_label
 _atom_site_symmetry_multiplicity
 _atom_site_fract_x
 _atom_site_fract_y
 _atom_site_fract_z
 _atom_site_occupancy
 _atom_site_charge
  Zn  Zn1  1  0.301260  0.529660  0.336510  1.0  0.9079
  Zn  Zn2  1  0.698740  0.029660  0.163490  1.0  0.9078
  Zn  Zn3  1  0.698740  0.470340  0.663490  1.0  0.9079
  Zn  Zn4  1  0.301260  0.970340  0.836510  1.0  0.9083
  Zn  Zn5  1  0.000000  0.500000  0.500000  1.0  1.0413
  Zn  Zn6  1  0.000000  0.000000  0.000000  1.0  1.0413
  H  H7  1  0.265900  0.761400  0.342400  1.0  0.1124
  H  H8  1  0.185600  0.878000  0.319800  1.0  0.0964
  H  H9  1  0.804900  0.820700  0.420400  1.0  0.1055
  H  H10  1  0.887300  0.704600  0.448900  1.0  0.1018
  H  H11  1  0.252500  0.425400  0.870500  1.0  0.1196
  H  H12  1  0.535000  0.409300  0.927800  1.0  0.107
  H  H13  1  0.734100  0.261400  0.157600  1.0  0.1132
  H  H14  1  0.814400  0.378000  0.180200  1.0  0.0971
  H  H15  1  0.195100  0.320700  0.079600  1.0  0.1058
  H  H16  1  0.112700  0.204600  0.051100  1.0  0.1021
  H  H17  1  0.747500  0.925400  0.629500  1.0  0.1197
  H  H18  1  0.465000  0.909300  0.572200  1.0  0.1062
  H  H19  1  0.734100  0.238600  0.657600  1.0  0.1132
  H  H20  1  0.814400  0.122000  0.680200  1.0  0.0969
  H  H21  1  0.195100  0.179300  0.579600  1.0  0.1058
  H  H22  1  0.112700  0.295400  0.551100  1.0  0.1019
  H  H23  1  0.747500  0.574600  0.129500  1.0  0.12
  H  H24  1  0.465000  0.590700  0.072200  1.0  0.107
  H  H25  1  0.265900  0.738600  0.842400  1.0  0.1127
  H  H26  1  0.185600  0.622000  0.819800  1.0  0.0965
  H  H27  1  0.804900  0.679300  0.920400  1.0  0.1056
  H  H28  1  0.887300  0.795400  0.948900  1.0  0.1018
  H  H29  1  0.252500  0.074600  0.370500  1.0  0.1193
  H  H30  1  0.535000  0.090700  0.427800  1.0  0.1069
  C  C31  1  0.125300  0.643760  0.397500  1.0  0.6979
  C  C32  1  0.081700  0.720380  0.391000  1.0  -0.1738
  C  C33  1  0.172100  0.773150  0.356100  1.0  -0.0369
  C  C34  1  0.123700  0.842890  0.341600  1.0  -0.097
  C  C35  1  0.982600  0.860920  0.359400  1.0  -0.1304
  C  C36  1  0.896700  0.808680  0.402400  1.0  -0.0324
  C  C37  1  0.945700  0.739230  0.418900  1.0  -0.0245
  C  C38  1  0.915900  0.933740  0.310800  1.0  0.6494
  C  C39  1  0.304200  0.439700  0.796800  1.0  -0.0251
  C  C40  1  0.460800  0.430800  0.828600  1.0  -0.0089
  C  C41  1  0.874700  0.143760  0.102500  1.0  0.6977
  C  C42  1  0.918300  0.220380  0.109000  1.0  -0.174
  C  C43  1  0.827900  0.273150  0.143900  1.0  -0.0371
  C  C44  1  0.876300  0.342890  0.158400  1.0  -0.0975
  C  C45  1  0.017400  0.360920  0.140600  1.0  -0.1304
  C  C46  1  0.103300  0.308680  0.097600  1.0  -0.0325
  C  C47  1  0.054300  0.239230  0.081100  1.0  -0.0254
  C  C48  1  0.084100  0.433740  0.189200  1.0  0.6498
  C  C49  1  0.695800  0.939700  0.703200  1.0  -0.0245
  C  C50  1  0.539200  0.930800  0.671400  1.0  -0.0096
  C  C51  1  0.874700  0.356240  0.602500  1.0  0.6982
  C  C52  1  0.918300  0.279620  0.609000  1.0  -0.1739
  C  C53  1  0.827900  0.226850  0.643900  1.0  -0.0376
  C  C54  1  0.876300  0.157110  0.658400  1.0  -0.0975
  C  C55  1  0.017400  0.139080  0.640600  1.0  -0.131
  C  C56  1  0.103300  0.191320  0.597600  1.0  -0.0325
  C  C57  1  0.054300  0.260770  0.581100  1.0  -0.025
  C  C58  1  0.084100  0.066260  0.689200  1.0  0.6499
  C  C59  1  0.695800  0.560300  0.203200  1.0  -0.0245
  C  C60  1  0.539200  0.569200  0.171400  1.0  -0.0099
  C  C61  1  0.125300  0.856240  0.897500  1.0  0.6979
  C  C62  1  0.081700  0.779620  0.891000  1.0  -0.1743
  C  C63  1  0.172100  0.726850  0.856100  1.0  -0.0371
  C  C64  1  0.123700  0.657110  0.841600  1.0  -0.0971
  C  C65  1  0.982600  0.639080  0.859400  1.0  -0.1314
  C  C66  1  0.896700  0.691320  0.902400  1.0  -0.0318
  C  C67  1  0.945700  0.760770  0.918900  1.0  -0.0245
  C  C68  1  0.915900  0.566260  0.810800  1.0  0.6498
  C  C69  1  0.304200  0.060300  0.296800  1.0  -0.0254
  C  C70  1  0.460800  0.069200  0.328600  1.0  -0.0093
  N  N71  1  0.238900  0.472310  0.641600  1.0  -0.1452
  N  N72  1  0.351900  0.483780  0.578600  1.0  -0.0764
  N  N73  1  0.488900  0.458550  0.692400  1.0  -0.2229
  N  N74  1  0.761100  0.972310  0.858400  1.0  -0.1448
  N  N75  1  0.648100  0.983780  0.921400  1.0  -0.0796
  N  N76  1  0.511100  0.958550  0.807600  1.0  -0.2248
  N  N77  1  0.761100  0.527690  0.358400  1.0  -0.1448
  N  N78  1  0.648100  0.516220  0.421400  1.0  -0.0789
  N  N79  1  0.511100  0.541450  0.307600  1.0  -0.2248
  N  N80  1  0.238900  0.027690  0.141600  1.0  -0.145
  N  N81  1  0.351900  0.016220  0.078600  1.0  -0.0767
  N  N82  1  0.488900  0.041450  0.192400  1.0  -0.2228
  O  O83  1  0.057900  0.602350  0.464700  1.0  -0.6131
  O  O84  1  0.229100  0.626330  0.334600  1.0  -0.608
  O  O85  1  0.785700  0.948430  0.326400  1.0  -0.5953
  O  O86  1  0.983000  0.977380  0.247100  1.0  -0.6257
  O  O87  1  0.942100  0.102350  0.035300  1.0  -0.6135
  O  O88  1  0.770900  0.126330  0.165400  1.0  -0.6074
  O  O89  1  0.214300  0.448430  0.173600  1.0  -0.5958
  O  O90  1  0.017000  0.477380  0.252900  1.0  -0.6257
  O  O91  1  0.942100  0.397650  0.535300  1.0  -0.6136
  O  O92  1  0.770900  0.373670  0.665400  1.0  -0.6071
  O  O93  1  0.214300  0.051570  0.673600  1.0  -0.5963
  O  O94  1  0.017000  0.022620  0.752900  1.0  -0.6258
  O  O95  1  0.057900  0.897650  0.964700  1.0  -0.6132
  O  O96  1  0.229100  0.873670  0.834600  1.0  -0.6081
  O  O97  1  0.785700  0.551570  0.826400  1.0  -0.5959
  O  O98  1  0.983000  0.522620  0.747100  1.0  -0.6257
