# generated using pymatgen
data_Zn3H12C20(N3O4)2
_symmetry_space_group_name_H-M   'P 1'
_cell_length_a   9.26700000
_cell_length_b   19.04100000
_cell_length_c   8.29200000
_cell_angle_alpha   90.00000000
_cell_angle_beta   111.16400000
_cell_angle_gamma   90.00000000
_symmetry_Int_Tables_number   1
_chemical_formula_structural   Zn3H12C20(N3O4)2
_chemical_formula_sum   'Zn6 H24 C40 N12 O16'
_cell_volume   1364.45973315
_cell_formula_units_Z   2
loop_
 _symmetry_equiv_pos_site_id
 _symmetry_equiv_pos_as_xyz
  1  'x, y, z'
loop_
 _atom_site_type_symbol
 _atom_site_label
 _atom_site_symmetry_multiplicity
 _atom_site_fract_x
 _atom_site_fract_y
 _atom_site_fract_z
 _atom_site_occupancy
 _atom_site_charge
  Zn  Zn1  1  0.302400  0.469830  0.837510  1.0  0.9346
  Zn  Zn2  1  0.697600  0.969830  0.662490  1.0  0.934
  Zn  Zn3  1  0.697600  0.530170  0.162490  1.0  0.934
  Zn  Zn4  1  0.302400  0.030170  0.337510  1.0  0.9344
  Zn  Zn5  1  0.000000  0.500000  0.000000  1.0  0.9384
  Zn  Zn6  1  0.000000  0.000000  0.500000  1.0  0.9384
  H  H7  1  0.894000  0.293100  0.961200  1.0  0.1168
  H  H8  1  0.813400  0.176900  0.935600  1.0  0.1122
  H  H9  1  0.185700  0.120000  0.822400  1.0  0.1166
  H  H10  1  0.266100  0.236000  0.845200  1.0  0.1191
  H  H11  1  0.251200  0.574500  0.365800  1.0  0.115
  H  H12  1  0.529300  0.590200  0.423900  1.0  0.1126
  H  H13  1  0.106000  0.793100  0.538800  1.0  0.1167
  H  H14  1  0.186600  0.676900  0.564400  1.0  0.1126
  H  H15  1  0.814300  0.620000  0.677600  1.0  0.1168
  H  H16  1  0.733900  0.736000  0.654800  1.0  0.1194
  H  H17  1  0.748800  0.074500  0.134200  1.0  0.1152
  H  H18  1  0.470700  0.090200  0.076100  1.0  0.116
  H  H19  1  0.106000  0.706900  0.038800  1.0  0.1169
  H  H20  1  0.186600  0.823100  0.064400  1.0  0.1127
  H  H21  1  0.814300  0.880000  0.177600  1.0  0.1169
  H  H22  1  0.733900  0.764000  0.154800  1.0  0.1195
  H  H23  1  0.748800  0.425500  0.634200  1.0  0.1152
  H  H24  1  0.470700  0.409800  0.576100  1.0  0.1151
  H  H25  1  0.894000  0.206900  0.461200  1.0  0.1168
  H  H26  1  0.813400  0.323100  0.435600  1.0  0.1121
  H  H27  1  0.185700  0.380000  0.322400  1.0  0.1164
  H  H28  1  0.266100  0.264000  0.345200  1.0  0.119
  H  H29  1  0.251200  0.925500  0.865800  1.0  0.1153
  H  H30  1  0.529300  0.909800  0.923900  1.0  0.1123
  C  C31  1  0.128600  0.355000  0.904400  1.0  0.6911
  C  C32  1  0.087500  0.277600  0.899300  1.0  -0.0976
  C  C33  1  0.950700  0.258800  0.930300  1.0  -0.0274
  C  C34  1  0.902000  0.188800  0.914000  1.0  -0.0552
  C  C35  1  0.983900  0.136900  0.866000  1.0  -0.0953
  C  C36  1  0.125700  0.154900  0.845700  1.0  -0.1062
  C  C37  1  0.174500  0.224600  0.860900  1.0  -0.0545
  C  C38  1  0.917800  0.064400  0.816200  1.0  0.6785
  C  C39  1  0.302600  0.560700  0.293200  1.0  0.0067
  C  C40  1  0.457900  0.569300  0.326400  1.0  0.0148
  C  C41  1  0.871400  0.855000  0.595600  1.0  0.692
  C  C42  1  0.912500  0.777600  0.600700  1.0  -0.0981
  C  C43  1  0.049300  0.758800  0.569700  1.0  -0.0269
  C  C44  1  0.098000  0.688800  0.586000  1.0  -0.0547
  C  C45  1  0.016100  0.636900  0.634000  1.0  -0.0951
  C  C46  1  0.874300  0.654900  0.654300  1.0  -0.1095
  C  C47  1  0.825500  0.724600  0.639100  1.0  -0.0547
  C  C48  1  0.082200  0.564400  0.683800  1.0  0.6778
  C  C49  1  0.697400  0.060700  0.206800  1.0  0.0087
  C  C50  1  0.542100  0.069300  0.173600  1.0  0.0137
  C  C51  1  0.871400  0.645000  0.095600  1.0  0.6925
  C  C52  1  0.912500  0.722400  0.100700  1.0  -0.0988
  C  C53  1  0.049300  0.741200  0.069700  1.0  -0.0274
  C  C54  1  0.098000  0.811200  0.086000  1.0  -0.0548
  C  C55  1  0.016100  0.863100  0.134000  1.0  -0.0948
  C  C56  1  0.874300  0.845100  0.154300  1.0  -0.1063
  C  C57  1  0.825500  0.775400  0.139100  1.0  -0.0595
  C  C58  1  0.082200  0.935600  0.183800  1.0  0.6771
  C  C59  1  0.697400  0.439300  0.706800  1.0  0.0079
  C  C60  1  0.542100  0.430700  0.673600  1.0  0.0137
  C  C61  1  0.128600  0.145000  0.404400  1.0  0.6921
  C  C62  1  0.087500  0.222400  0.399300  1.0  -0.0975
  C  C63  1  0.950700  0.241200  0.430300  1.0  -0.0273
  C  C64  1  0.902000  0.311200  0.414000  1.0  -0.0544
  C  C65  1  0.983900  0.363100  0.366000  1.0  -0.0948
  C  C66  1  0.125700  0.345100  0.345700  1.0  -0.1074
  C  C67  1  0.174500  0.275400  0.360900  1.0  -0.0576
  C  C68  1  0.917800  0.435600  0.316200  1.0  0.6791
  C  C69  1  0.302600  0.939300  0.793200  1.0  0.0074
  C  C70  1  0.457900  0.930700  0.826400  1.0  0.0148
  N  N71  1  0.236800  0.529100  0.139100  1.0  -0.2031
  N  N72  1  0.351400  0.517100  0.076800  1.0  -0.1441
  N  N73  1  0.488000  0.541700  0.191100  1.0  -0.2485
  N  N74  1  0.763200  0.029100  0.360900  1.0  -0.2041
  N  N75  1  0.648600  0.017100  0.423200  1.0  -0.1442
  N  N76  1  0.512000  0.041700  0.308900  1.0  -0.2477
  N  N77  1  0.763200  0.470900  0.860900  1.0  -0.2041
  N  N78  1  0.648600  0.482900  0.923200  1.0  -0.1448
  N  N79  1  0.512000  0.458300  0.808900  1.0  -0.2474
  N  N80  1  0.236800  0.970900  0.639100  1.0  -0.2034
  N  N81  1  0.351400  0.982900  0.576800  1.0  -0.1437
  N  N82  1  0.488000  0.958300  0.691100  1.0  -0.248
  O  O83  1  0.060600  0.397200  0.970200  1.0  -0.6129
  O  O84  1  0.232800  0.372400  0.840800  1.0  -0.5893
  O  O85  1  0.787100  0.049600  0.830600  1.0  -0.5851
  O  O86  1  0.981700  0.020700  0.747300  1.0  -0.6679
  O  O87  1  0.939400  0.897200  0.529800  1.0  -0.6138
  O  O88  1  0.767200  0.872400  0.659200  1.0  -0.589
  O  O89  1  0.212900  0.549600  0.669400  1.0  -0.586
  O  O90  1  0.018300  0.520700  0.752700  1.0  -0.6681
  O  O91  1  0.939400  0.602800  0.029800  1.0  -0.6135
  O  O92  1  0.767200  0.627600  0.159200  1.0  -0.5896
  O  O93  1  0.212900  0.950400  0.169400  1.0  -0.5851
  O  O94  1  0.018300  0.979300  0.252700  1.0  -0.6671
  O  O95  1  0.060600  0.102800  0.470200  1.0  -0.6126
  O  O96  1  0.232800  0.127600  0.340800  1.0  -0.5896
  O  O97  1  0.787100  0.450400  0.330600  1.0  -0.5843
  O  O98  1  0.981700  0.479300  0.247300  1.0  -0.6667
