# generated using pymatgen
data_Mg3H12C24O25
_symmetry_space_group_name_H-M   'P 1'
_cell_length_a   15.94230000
_cell_length_b   15.94230000
_cell_length_c   16.04110000
_cell_angle_alpha   90.00000000
_cell_angle_beta   90.00000000
_cell_angle_gamma   120.00000000
_symmetry_Int_Tables_number   1
_chemical_formula_structural   Mg3H12C24O25
_chemical_formula_sum   'Mg6 H24 C48 O50'
_cell_volume   3530.74808829
_cell_formula_units_Z   2
loop_
 _symmetry_equiv_pos_site_id
 _symmetry_equiv_pos_as_xyz
  1  'x, y, z'
loop_
 _atom_site_type_symbol
 _atom_site_label
 _atom_site_symmetry_multiplicity
 _atom_site_fract_x
 _atom_site_fract_y
 _atom_site_fract_z
 _atom_site_occupancy
 _atom_site_charge
  Mg  Mg1  1  0.261830  0.523650  0.250000  1.0  1.4794
  Mg  Mg2  1  0.476350  0.738180  0.250000  1.0  1.4791
  Mg  Mg3  1  0.261830  0.738180  0.250000  1.0  1.4815
  Mg  Mg4  1  0.738170  0.476350  0.750000  1.0  1.4812
  Mg  Mg5  1  0.523650  0.261830  0.750000  1.0  1.4816
  Mg  Mg6  1  0.738170  0.261830  0.750000  1.0  1.4794
  H  H7  1  0.094800  0.400700  0.399300  1.0  0.3558
  H  H8  1  0.599300  0.694100  0.399300  1.0  0.3589
  H  H9  1  0.305900  0.905200  0.399300  1.0  0.3604
  H  H10  1  0.905200  0.599300  0.899300  1.0  0.3585
  H  H11  1  0.400700  0.305900  0.899300  1.0  0.3564
  H  H12  1  0.694100  0.094800  0.899300  1.0  0.3609
  H  H13  1  0.400700  0.094800  0.600700  1.0  0.3614
  H  H14  1  0.694100  0.599300  0.600700  1.0  0.3577
  H  H15  1  0.905200  0.305900  0.600700  1.0  0.3584
  H  H16  1  0.599300  0.905200  0.100700  1.0  0.3611
  H  H17  1  0.305900  0.400700  0.100700  1.0  0.3589
  H  H18  1  0.094800  0.694100  0.100700  1.0  0.3595
  H  H19  1  0.905200  0.599300  0.600700  1.0  0.359
  H  H20  1  0.400700  0.305900  0.600700  1.0  0.3586
  H  H21  1  0.694100  0.094800  0.600700  1.0  0.3611
  H  H22  1  0.094800  0.400700  0.100700  1.0  0.3572
  H  H23  1  0.599300  0.694100  0.100700  1.0  0.3592
  H  H24  1  0.305900  0.905200  0.100700  1.0  0.3612
  H  H25  1  0.599300  0.905200  0.399300  1.0  0.3611
  H  H26  1  0.305900  0.400700  0.399300  1.0  0.3582
  H  H27  1  0.094800  0.694100  0.399300  1.0  0.3573
  H  H28  1  0.400700  0.094800  0.899300  1.0  0.3603
  H  H29  1  0.694100  0.599300  0.899300  1.0  0.3571
  H  H30  1  0.905200  0.305900  0.899300  1.0  0.3582
  C  C31  1  0.033500  0.441300  0.468130  1.0  0.2826
  C  C32  1  0.558700  0.592200  0.468130  1.0  0.2826
  C  C33  1  0.407800  0.966500  0.468130  1.0  0.2846
  C  C34  1  0.966500  0.558700  0.968130  1.0  0.2831
  C  C35  1  0.441300  0.407800  0.968130  1.0  0.2833
  C  C36  1  0.592200  0.033500  0.968130  1.0  0.2837
  C  C37  1  0.441300  0.033500  0.531870  1.0  0.2844
  C  C38  1  0.592200  0.558700  0.531870  1.0  0.2823
  C  C39  1  0.966500  0.407800  0.531870  1.0  0.2824
  C  C40  1  0.558700  0.966500  0.031870  1.0  0.2834
  C  C41  1  0.407800  0.441300  0.031870  1.0  0.2832
  C  C42  1  0.033500  0.592200  0.031870  1.0  0.2832
  C  C43  1  0.966500  0.558700  0.531870  1.0  0.2826
  C  C44  1  0.441300  0.407800  0.531870  1.0  0.2812
  C  C45  1  0.592200  0.033500  0.531870  1.0  0.2815
  C  C46  1  0.033500  0.441300  0.031870  1.0  0.2805
  C  C47  1  0.558700  0.592200  0.031870  1.0  0.2804
  C  C48  1  0.407800  0.966500  0.031870  1.0  0.2839
  C  C49  1  0.558700  0.966500  0.468130  1.0  0.2836
  C  C50  1  0.407800  0.441300  0.468130  1.0  0.2832
  C  C51  1  0.033500  0.592200  0.468130  1.0  0.2831
  C  C52  1  0.441300  0.033500  0.968130  1.0  0.2844
  C  C53  1  0.592200  0.558700  0.968130  1.0  0.2826
  C  C54  1  0.966500  0.407800  0.968130  1.0  0.2828
  C  C55  1  0.069200  0.534600  0.435500  1.0  -0.1288
  C  C56  1  0.141100  0.570550  0.367500  1.0  0.6779
  C  C57  1  0.465400  0.534600  0.435500  1.0  -0.1283
  C  C58  1  0.429450  0.570550  0.367500  1.0  0.6778
  C  C59  1  0.465400  0.930800  0.435500  1.0  -0.1281
  C  C60  1  0.429450  0.858900  0.367500  1.0  0.6777
  C  C61  1  0.930800  0.465400  0.935500  1.0  -0.1281
  C  C62  1  0.858900  0.429450  0.867500  1.0  0.6774
  C  C63  1  0.534600  0.465400  0.935500  1.0  -0.1287
  C  C64  1  0.570550  0.429450  0.867500  1.0  0.6774
  C  C65  1  0.534600  0.069200  0.935500  1.0  -0.1283
  C  C66  1  0.570550  0.141100  0.867500  1.0  0.6788
  C  C67  1  0.534600  0.069200  0.564500  1.0  -0.1281
  C  C68  1  0.570550  0.141100  0.632500  1.0  0.6788
  C  C69  1  0.534600  0.465400  0.564500  1.0  -0.1285
  C  C70  1  0.570550  0.429450  0.632500  1.0  0.6776
  C  C71  1  0.930800  0.465400  0.564500  1.0  -0.1279
  C  C72  1  0.858900  0.429450  0.632500  1.0  0.6775
  C  C73  1  0.465400  0.930800  0.064500  1.0  -0.1279
  C  C74  1  0.429450  0.858900  0.132500  1.0  0.678
  C  C75  1  0.465400  0.534600  0.064500  1.0  -0.1281
  C  C76  1  0.429450  0.570550  0.132500  1.0  0.6779
  C  C77  1  0.069200  0.534600  0.064500  1.0  -0.1286
  C  C78  1  0.141100  0.570550  0.132500  1.0  0.678
  O  O79  1  0.169890  0.515470  0.340020  1.0  -0.6963
  O  O80  1  0.054600  0.375600  0.436500  1.0  -0.5203
  O  O81  1  0.484530  0.654420  0.340020  1.0  -0.6971
  O  O82  1  0.624400  0.679000  0.436500  1.0  -0.5197
  O  O83  1  0.345580  0.830110  0.340020  1.0  -0.6955
  O  O84  1  0.321000  0.945400  0.436500  1.0  -0.5242
  O  O85  1  0.830110  0.484530  0.840020  1.0  -0.6957
  O  O86  1  0.945400  0.624400  0.936500  1.0  -0.5181
  O  O87  1  0.515470  0.345580  0.840020  1.0  -0.6954
  O  O88  1  0.375600  0.321000  0.936500  1.0  -0.5225
  O  O89  1  0.654420  0.169890  0.840020  1.0  -0.6948
  O  O90  1  0.679000  0.054600  0.936500  1.0  -0.5223
  O  O91  1  0.515470  0.169890  0.659980  1.0  -0.6954
  O  O92  1  0.375600  0.054600  0.563500  1.0  -0.5237
  O  O93  1  0.654420  0.484530  0.659980  1.0  -0.6966
  O  O94  1  0.679000  0.624400  0.563500  1.0  -0.5193
  O  O95  1  0.830110  0.345580  0.659980  1.0  -0.6965
  O  O96  1  0.945400  0.321000  0.563500  1.0  -0.5217
  O  O97  1  0.484530  0.830110  0.159980  1.0  -0.6953
  O  O98  1  0.624400  0.945400  0.063500  1.0  -0.5248
  O  O99  1  0.345580  0.515470  0.159980  1.0  -0.6953
  O  O100  1  0.321000  0.375600  0.063500  1.0  -0.5207
  O  O101  1  0.169890  0.654420  0.159980  1.0  -0.6964
  O  O102  1  0.054600  0.679000  0.063500  1.0  -0.5208
  O  O103  1  0.830110  0.484530  0.659980  1.0  -0.6955
  O  O104  1  0.945400  0.624400  0.563500  1.0  -0.5196
  O  O105  1  0.515470  0.345580  0.659980  1.0  -0.6953
  O  O106  1  0.375600  0.321000  0.563500  1.0  -0.5224
  O  O107  1  0.654420  0.169890  0.659980  1.0  -0.6947
  O  O108  1  0.679000  0.054600  0.563500  1.0  -0.5242
  O  O109  1  0.169890  0.515470  0.159980  1.0  -0.6963
  O  O110  1  0.054600  0.375600  0.063500  1.0  -0.5212
  O  O111  1  0.484530  0.654420  0.159980  1.0  -0.6969
  O  O112  1  0.624400  0.679000  0.063500  1.0  -0.5211
  O  O113  1  0.345580  0.830110  0.159980  1.0  -0.6955
  O  O114  1  0.321000  0.945400  0.063500  1.0  -0.5253
  O  O115  1  0.484530  0.830110  0.340020  1.0  -0.6952
  O  O116  1  0.624400  0.945400  0.436500  1.0  -0.5228
  O  O117  1  0.345580  0.515470  0.340020  1.0  -0.6954
  O  O118  1  0.321000  0.375600  0.436500  1.0  -0.5198
  O  O119  1  0.169890  0.654420  0.340020  1.0  -0.6964
  O  O120  1  0.054600  0.679000  0.436500  1.0  -0.5208
  O  O121  1  0.515470  0.169890  0.840020  1.0  -0.6958
  O  O122  1  0.375600  0.054600  0.936500  1.0  -0.5231
  O  O123  1  0.654420  0.484530  0.840020  1.0  -0.6966
  O  O124  1  0.679000  0.624400  0.936500  1.0  -0.5179
  O  O125  1  0.830110  0.345580  0.840020  1.0  -0.6966
  O  O126  1  0.945400  0.321000  0.936500  1.0  -0.52
  O  O127  1  0.333333  0.666667  0.250000  1.0  -0.8331
  O  O128  1  0.666667  0.333333  0.750000  1.0  -0.8331
