# generated using pymatgen
data_Mg3H12C24O25
_symmetry_space_group_name_H-M   'P 1'
_cell_length_a   16.21220000
_cell_length_b   16.21220000
_cell_length_c   16.06420000
_cell_angle_alpha   90.00000000
_cell_angle_beta   90.00000000
_cell_angle_gamma   120.00000000
_symmetry_Int_Tables_number   1
_chemical_formula_structural   Mg3H12C24O25
_chemical_formula_sum   'Mg6 H24 C48 O50'
_cell_volume   3656.56787681
_cell_formula_units_Z   2
loop_
 _symmetry_equiv_pos_site_id
 _symmetry_equiv_pos_as_xyz
  1  'x, y, z'
loop_
 _atom_site_type_symbol
 _atom_site_label
 _atom_site_symmetry_multiplicity
 _atom_site_fract_x
 _atom_site_fract_y
 _atom_site_fract_z
 _atom_site_occupancy
 _atom_site_charge
  Mg  Mg1  1  0.261810  0.738190  0.250000  1.0  1.4959
  Mg  Mg2  1  0.261810  0.523620  0.250000  1.0  1.4947
  Mg  Mg3  1  0.476380  0.738190  0.250000  1.0  1.4956
  Mg  Mg4  1  0.738190  0.261810  0.750000  1.0  1.4963
  Mg  Mg5  1  0.738190  0.476380  0.750000  1.0  1.4956
  Mg  Mg6  1  0.523620  0.261810  0.750000  1.0  1.4963
  H  H7  1  0.106800  0.413100  0.096400  1.0  0.3221
  H  H8  1  0.586900  0.693700  0.096400  1.0  0.3225
  H  H9  1  0.306300  0.893200  0.096400  1.0  0.3234
  H  H10  1  0.893200  0.586900  0.596400  1.0  0.3223
  H  H11  1  0.413100  0.306300  0.596400  1.0  0.3223
  H  H12  1  0.693700  0.106800  0.596400  1.0  0.326
  H  H13  1  0.413100  0.106800  0.903600  1.0  0.3235
  H  H14  1  0.693700  0.586900  0.903600  1.0  0.3197
  H  H15  1  0.893200  0.306300  0.903600  1.0  0.3229
  H  H16  1  0.586900  0.893200  0.403600  1.0  0.3253
  H  H17  1  0.306300  0.413100  0.403600  1.0  0.321
  H  H18  1  0.106800  0.693700  0.403600  1.0  0.318
  H  H19  1  0.893200  0.586900  0.903600  1.0  0.3226
  H  H20  1  0.413100  0.306300  0.903600  1.0  0.3219
  H  H21  1  0.693700  0.106800  0.903600  1.0  0.3271
  H  H22  1  0.106800  0.413100  0.403600  1.0  0.3222
  H  H23  1  0.586900  0.693700  0.403600  1.0  0.3238
  H  H24  1  0.306300  0.893200  0.403600  1.0  0.3245
  H  H25  1  0.586900  0.893200  0.096400  1.0  0.3239
  H  H26  1  0.306300  0.413100  0.096400  1.0  0.3206
  H  H27  1  0.106800  0.693700  0.096400  1.0  0.3178
  H  H28  1  0.413100  0.106800  0.596400  1.0  0.322
  H  H29  1  0.693700  0.586900  0.596400  1.0  0.3203
  H  H30  1  0.893200  0.306300  0.596400  1.0  0.3226
  C  C31  1  0.033640  0.443070  0.031880  1.0  0.292
  C  C32  1  0.556930  0.590570  0.031880  1.0  0.2912
  C  C33  1  0.409430  0.966360  0.031880  1.0  0.2931
  C  C34  1  0.966360  0.556930  0.531880  1.0  0.2924
  C  C35  1  0.443070  0.409430  0.531880  1.0  0.2927
  C  C36  1  0.590570  0.033640  0.531880  1.0  0.2922
  C  C37  1  0.443070  0.033640  0.968120  1.0  0.2918
  C  C38  1  0.590570  0.556930  0.968120  1.0  0.2908
  C  C39  1  0.966360  0.409430  0.968120  1.0  0.2917
  C  C40  1  0.556930  0.966360  0.468120  1.0  0.2907
  C  C41  1  0.409430  0.443070  0.468120  1.0  0.2905
  C  C42  1  0.033640  0.590570  0.468120  1.0  0.2908
  C  C43  1  0.966360  0.556930  0.968120  1.0  0.2895
  C  C44  1  0.443070  0.409430  0.968120  1.0  0.2913
  C  C45  1  0.590570  0.033640  0.968120  1.0  0.2896
  C  C46  1  0.033640  0.443070  0.468120  1.0  0.2893
  C  C47  1  0.556930  0.590570  0.468120  1.0  0.291
  C  C48  1  0.409430  0.966360  0.468120  1.0  0.2917
  C  C49  1  0.556930  0.966360  0.031880  1.0  0.2934
  C  C50  1  0.409430  0.443070  0.031880  1.0  0.2932
  C  C51  1  0.033640  0.590570  0.031880  1.0  0.2936
  C  C52  1  0.443070  0.033640  0.531880  1.0  0.2928
  C  C53  1  0.590570  0.556930  0.531880  1.0  0.2929
  C  C54  1  0.966360  0.409430  0.531880  1.0  0.2927
  C  C55  1  0.068800  0.534400  0.063740  1.0  -0.119
  C  C56  1  0.142000  0.571000  0.131330  1.0  0.6809
  C  C57  1  0.465600  0.534400  0.063740  1.0  -0.1189
  C  C58  1  0.429000  0.571000  0.131330  1.0  0.6798
  C  C59  1  0.465600  0.931200  0.063740  1.0  -0.1187
  C  C60  1  0.429000  0.858000  0.131330  1.0  0.681
  C  C61  1  0.931200  0.465600  0.563740  1.0  -0.1189
  C  C62  1  0.858000  0.429000  0.631330  1.0  0.6797
  C  C63  1  0.534400  0.465600  0.563740  1.0  -0.119
  C  C64  1  0.571000  0.429000  0.631330  1.0  0.6806
  C  C65  1  0.534400  0.068800  0.563740  1.0  -0.1187
  C  C66  1  0.571000  0.142000  0.631330  1.0  0.6824
  C  C67  1  0.534400  0.068800  0.936260  1.0  -0.1188
  C  C68  1  0.571000  0.142000  0.868670  1.0  0.6825
  C  C69  1  0.534400  0.465600  0.936260  1.0  -0.1189
  C  C70  1  0.571000  0.429000  0.868670  1.0  0.6805
  C  C71  1  0.931200  0.465600  0.936260  1.0  -0.1188
  C  C72  1  0.858000  0.429000  0.868670  1.0  0.6798
  C  C73  1  0.465600  0.931200  0.436260  1.0  -0.1187
  C  C74  1  0.429000  0.858000  0.368670  1.0  0.6809
  C  C75  1  0.465600  0.534400  0.436260  1.0  -0.1189
  C  C76  1  0.429000  0.571000  0.368670  1.0  0.68
  C  C77  1  0.068800  0.534400  0.436260  1.0  -0.119
  C  C78  1  0.142000  0.571000  0.368670  1.0  0.6808
  O  O79  1  0.169310  0.653410  0.158270  1.0  -0.6846
  O  O80  1  0.063300  0.383400  0.058300  1.0  -0.5091
  O  O81  1  0.346590  0.515900  0.158270  1.0  -0.6835
  O  O82  1  0.616600  0.679900  0.058300  1.0  -0.5108
  O  O83  1  0.484100  0.830690  0.158270  1.0  -0.684
  O  O84  1  0.320100  0.936700  0.058300  1.0  -0.5129
  O  O85  1  0.830690  0.346590  0.658270  1.0  -0.6838
  O  O86  1  0.936700  0.616600  0.558300  1.0  -0.5083
  O  O87  1  0.653410  0.484100  0.658270  1.0  -0.6838
  O  O88  1  0.383400  0.320100  0.558300  1.0  -0.5108
  O  O89  1  0.515900  0.169310  0.658270  1.0  -0.6832
  O  O90  1  0.679900  0.063300  0.558300  1.0  -0.5121
  O  O91  1  0.653410  0.169310  0.841730  1.0  -0.6847
  O  O92  1  0.383400  0.063300  0.941700  1.0  -0.5124
  O  O93  1  0.515900  0.346590  0.841730  1.0  -0.6837
  O  O94  1  0.679900  0.616600  0.941700  1.0  -0.5079
  O  O95  1  0.830690  0.484100  0.841730  1.0  -0.6837
  O  O96  1  0.936700  0.320100  0.941700  1.0  -0.509
  O  O97  1  0.346590  0.830690  0.341730  1.0  -0.6833
  O  O98  1  0.616600  0.936700  0.441700  1.0  -0.5097
  O  O99  1  0.484100  0.653410  0.341730  1.0  -0.6851
  O  O100  1  0.320100  0.383400  0.441700  1.0  -0.5085
  O  O101  1  0.169310  0.515900  0.341730  1.0  -0.6844
  O  O102  1  0.063300  0.679900  0.441700  1.0  -0.5092
  O  O103  1  0.830690  0.346590  0.841730  1.0  -0.6839
  O  O104  1  0.936700  0.616600  0.941700  1.0  -0.507
  O  O105  1  0.653410  0.484100  0.841730  1.0  -0.6843
  O  O106  1  0.383400  0.320100  0.941700  1.0  -0.5107
  O  O107  1  0.515900  0.169310  0.841730  1.0  -0.6839
  O  O108  1  0.679900  0.063300  0.941700  1.0  -0.5104
  O  O109  1  0.169310  0.653410  0.341730  1.0  -0.6853
  O  O110  1  0.063300  0.383400  0.441700  1.0  -0.5084
  O  O111  1  0.346590  0.515900  0.341730  1.0  -0.6841
  O  O112  1  0.616600  0.679900  0.441700  1.0  -0.5088
  O  O113  1  0.484100  0.830690  0.341730  1.0  -0.6845
  O  O114  1  0.320100  0.936700  0.441700  1.0  -0.5123
  O  O115  1  0.346590  0.830690  0.158270  1.0  -0.6829
  O  O116  1  0.616600  0.936700  0.058300  1.0  -0.5115
  O  O117  1  0.484100  0.653410  0.158270  1.0  -0.6845
  O  O118  1  0.320100  0.383400  0.058300  1.0  -0.5087
  O  O119  1  0.169310  0.515900  0.158270  1.0  -0.6839
  O  O120  1  0.063300  0.679900  0.058300  1.0  -0.5106
  O  O121  1  0.653410  0.169310  0.658270  1.0  -0.684
  O  O122  1  0.383400  0.063300  0.558300  1.0  -0.5129
  O  O123  1  0.515900  0.346590  0.658270  1.0  -0.6833
  O  O124  1  0.679900  0.616600  0.558300  1.0  -0.5094
  O  O125  1  0.830690  0.484100  0.658270  1.0  -0.6832
  O  O126  1  0.936700  0.320100  0.558300  1.0  -0.51
  O  O127  1  0.333333  0.666667  0.250000  1.0  -0.8996
  O  O128  1  0.666667  0.333333  0.750000  1.0  -0.8996
