# generated using pymatgen
data_Mg3H12C42N18O37
_symmetry_space_group_name_H-M   'P 1'
_cell_length_a   16.90650000
_cell_length_b   16.90650000
_cell_length_c   14.71540000
_cell_angle_alpha   90.00000000
_cell_angle_beta   90.00000000
_cell_angle_gamma   120.00000000
_symmetry_Int_Tables_number   1
_chemical_formula_structural   Mg3H12C42N18O37
_chemical_formula_sum   'Mg6 H24 C84 N36 O74'
_cell_volume   3642.58857540
_cell_formula_units_Z   2
loop_
 _symmetry_equiv_pos_site_id
 _symmetry_equiv_pos_as_xyz
  1  'x, y, z'
loop_
 _atom_site_type_symbol
 _atom_site_label
 _atom_site_symmetry_multiplicity
 _atom_site_fract_x
 _atom_site_fract_y
 _atom_site_fract_z
 _atom_site_occupancy
 _atom_site_charge
  Mg  Mg1  1  0.532890  0.266450  0.750000  1.0  1.5775
  Mg  Mg2  1  0.733550  0.266450  0.750000  1.0  1.5779
  Mg  Mg3  1  0.733560  0.467110  0.750000  1.0  1.5782
  Mg  Mg4  1  0.467110  0.733560  0.250000  1.0  1.5774
  Mg  Mg5  1  0.266450  0.733560  0.250000  1.0  1.5773
  Mg  Mg6  1  0.266440  0.532890  0.250000  1.0  1.5772
  H  H7  1  0.207300  0.221800  0.750000  1.0  0.1979
  H  H8  1  0.365900  0.297400  0.750000  1.0  0.19
  H  H9  1  0.778200  0.985500  0.750000  1.0  0.1977
  H  H10  1  0.702600  0.068500  0.750000  1.0  0.1927
  H  H11  1  0.014500  0.792700  0.750000  1.0  0.199
  H  H12  1  0.931500  0.634100  0.750000  1.0  0.1918
  H  H13  1  0.792700  0.778200  0.250000  1.0  0.1986
  H  H14  1  0.634100  0.702600  0.250000  1.0  0.1922
  H  H15  1  0.221800  0.014500  0.250000  1.0  0.1974
  H  H16  1  0.297400  0.931500  0.250000  1.0  0.1902
  H  H17  1  0.985500  0.207300  0.250000  1.0  0.1985
  H  H18  1  0.068500  0.365900  0.250000  1.0  0.1892
  H  H19  1  0.221800  0.207300  0.250000  1.0  0.1986
  H  H20  1  0.297400  0.365900  0.250000  1.0  0.1895
  H  H21  1  0.985500  0.778200  0.250000  1.0  0.198
  H  H22  1  0.068500  0.702600  0.250000  1.0  0.1902
  H  H23  1  0.792700  0.014500  0.250000  1.0  0.1976
  H  H24  1  0.634100  0.931500  0.250000  1.0  0.1924
  H  H25  1  0.778200  0.792700  0.750000  1.0  0.1985
  H  H26  1  0.702600  0.634100  0.750000  1.0  0.1914
  H  H27  1  0.014500  0.221800  0.750000  1.0  0.1986
  H  H28  1  0.931500  0.297400  0.750000  1.0  0.1914
  H  H29  1  0.207300  0.985500  0.750000  1.0  0.1976
  H  H30  1  0.365900  0.068500  0.750000  1.0  0.1905
  C  C31  1  0.452400  0.037600  0.530000  1.0  0.2383
  C  C32  1  0.962400  0.414800  0.530000  1.0  0.2394
  C  C33  1  0.585200  0.547600  0.530000  1.0  0.24
  C  C34  1  0.547600  0.962400  0.030000  1.0  0.2393
  C  C35  1  0.037600  0.585200  0.030000  1.0  0.2402
  C  C36  1  0.414800  0.452400  0.030000  1.0  0.2397
  C  C37  1  0.037600  0.452400  0.470000  1.0  0.2397
  C  C38  1  0.414800  0.962400  0.470000  1.0  0.2383
  C  C39  1  0.547600  0.585200  0.470000  1.0  0.2405
  C  C40  1  0.962400  0.547600  0.970000  1.0  0.2404
  C  C41  1  0.585200  0.037600  0.970000  1.0  0.2395
  C  C42  1  0.452400  0.414800  0.970000  1.0  0.2394
  C  C43  1  0.547600  0.962400  0.470000  1.0  0.2393
  C  C44  1  0.037600  0.585200  0.470000  1.0  0.2404
  C  C45  1  0.414800  0.452400  0.470000  1.0  0.2398
  C  C46  1  0.452400  0.037600  0.970000  1.0  0.2385
  C  C47  1  0.962400  0.414800  0.970000  1.0  0.2396
  C  C48  1  0.585200  0.547600  0.970000  1.0  0.2403
  C  C49  1  0.962400  0.547600  0.530000  1.0  0.2402
  C  C50  1  0.585200  0.037600  0.530000  1.0  0.2395
  C  C51  1  0.452400  0.414800  0.530000  1.0  0.2393
  C  C52  1  0.037600  0.452400  0.030000  1.0  0.2396
  C  C53  1  0.414800  0.962400  0.030000  1.0  0.2381
  C  C54  1  0.547600  0.585200  0.030000  1.0  0.2404
  C  C55  1  0.190800  0.095400  0.750000  1.0  0.0974
  C  C56  1  0.088600  0.044300  0.750000  1.0  0.5098
  C  C57  1  0.904600  0.095400  0.750000  1.0  0.0989
  C  C58  1  0.955700  0.044300  0.750000  1.0  0.5093
  C  C59  1  0.904600  0.809200  0.750000  1.0  0.1018
  C  C60  1  0.955700  0.911400  0.750000  1.0  0.5091
  C  C61  1  0.809200  0.904600  0.250000  1.0  0.0984
  C  C62  1  0.911400  0.955700  0.250000  1.0  0.5092
  C  C63  1  0.095400  0.904600  0.250000  1.0  0.0975
  C  C64  1  0.044300  0.955700  0.250000  1.0  0.5097
  C  C65  1  0.095400  0.190800  0.250000  1.0  0.1021
  C  C66  1  0.044300  0.088600  0.250000  1.0  0.5091
  C  C67  1  0.575150  0.150300  0.628500  1.0  0.7604
  C  C68  1  0.537050  0.074100  0.559700  1.0  0.1383
  C  C69  1  0.849700  0.424850  0.628500  1.0  0.7601
  C  C70  1  0.925900  0.462950  0.559700  1.0  0.1376
  C  C71  1  0.575150  0.424850  0.628500  1.0  0.7597
  C  C72  1  0.537050  0.462950  0.559700  1.0  0.1387
  C  C73  1  0.424850  0.849700  0.128500  1.0  0.7607
  C  C74  1  0.462950  0.925900  0.059700  1.0  0.138
  C  C75  1  0.150300  0.575150  0.128500  1.0  0.7596
  C  C76  1  0.074100  0.537050  0.059700  1.0  0.1386
  C  C77  1  0.424850  0.575150  0.128500  1.0  0.76
  C  C78  1  0.462950  0.537050  0.059700  1.0  0.1376
  C  C79  1  0.150300  0.575150  0.371500  1.0  0.7581
  C  C80  1  0.074100  0.537050  0.440300  1.0  0.1379
  C  C81  1  0.424850  0.849700  0.371500  1.0  0.7593
  C  C82  1  0.462950  0.925900  0.440300  1.0  0.1374
  C  C83  1  0.424850  0.575150  0.371500  1.0  0.7585
  C  C84  1  0.462950  0.537050  0.440300  1.0  0.1369
  C  C85  1  0.849700  0.424850  0.871500  1.0  0.7586
  C  C86  1  0.925900  0.462950  0.940300  1.0  0.1368
  C  C87  1  0.575150  0.150300  0.871500  1.0  0.7592
  C  C88  1  0.537050  0.074100  0.940300  1.0  0.1377
  C  C89  1  0.575150  0.424850  0.871500  1.0  0.7582
  C  C90  1  0.537050  0.462950  0.940300  1.0  0.1379
  C  C91  1  0.238000  0.189000  0.750000  1.0  -0.122
  C  C92  1  0.333600  0.233900  0.750000  1.0  0.1542
  C  C93  1  0.811000  0.049000  0.750000  1.0  -0.1217
  C  C94  1  0.766100  0.099700  0.750000  1.0  0.1507
  C  C95  1  0.951000  0.762000  0.750000  1.0  -0.1255
  C  C96  1  0.900300  0.666400  0.750000  1.0  0.1559
  C  C97  1  0.762000  0.811000  0.250000  1.0  -0.1232
  C  C98  1  0.666400  0.766100  0.250000  1.0  0.1563
  C  C99  1  0.189000  0.951000  0.250000  1.0  -0.1245
  C  C100  1  0.233900  0.900300  0.250000  1.0  0.1538
  C  C101  1  0.049000  0.238000  0.250000  1.0  -0.1236
  C  C102  1  0.099700  0.333600  0.250000  1.0  0.1543
  C  C103  1  0.189000  0.238000  0.250000  1.0  -0.1238
  C  C104  1  0.233900  0.333600  0.250000  1.0  0.1559
  C  C105  1  0.049000  0.811000  0.250000  1.0  -0.1225
  C  C106  1  0.099700  0.766100  0.250000  1.0  0.1528
  C  C107  1  0.762000  0.951000  0.250000  1.0  -0.1251
  C  C108  1  0.666400  0.900300  0.250000  1.0  0.1554
  C  C109  1  0.811000  0.762000  0.750000  1.0  -0.125
  C  C110  1  0.766100  0.666400  0.750000  1.0  0.1532
  C  C111  1  0.951000  0.189000  0.750000  1.0  -0.1231
  C  C112  1  0.900300  0.233900  0.750000  1.0  0.1579
  C  C113  1  0.238000  0.049000  0.750000  1.0  -0.122
  C  C114  1  0.333600  0.099700  0.750000  1.0  0.1498
  N  N115  1  0.390900  0.072500  0.556700  1.0  0.3326
  N  N116  1  0.927500  0.318400  0.556700  1.0  0.3327
  N  N117  1  0.681600  0.609100  0.556700  1.0  0.3327
  N  N118  1  0.609100  0.927500  0.056700  1.0  0.3313
  N  N119  1  0.072500  0.681600  0.056700  1.0  0.3347
  N  N120  1  0.318400  0.390900  0.056700  1.0  0.3326
  N  N121  1  0.072500  0.390900  0.443300  1.0  0.3311
  N  N122  1  0.318400  0.927500  0.443300  1.0  0.3318
  N  N123  1  0.609100  0.681600  0.443300  1.0  0.334
  N  N124  1  0.927500  0.609100  0.943300  1.0  0.3332
  N  N125  1  0.681600  0.072500  0.943300  1.0  0.3321
  N  N126  1  0.390900  0.318400  0.943300  1.0  0.3331
  N  N127  1  0.609100  0.927500  0.443300  1.0  0.3311
  N  N128  1  0.072500  0.681600  0.443300  1.0  0.3345
  N  N129  1  0.318400  0.390900  0.443300  1.0  0.3322
  N  N130  1  0.390900  0.072500  0.943300  1.0  0.3327
  N  N131  1  0.927500  0.318400  0.943300  1.0  0.3325
  N  N132  1  0.681600  0.609100  0.943300  1.0  0.3324
  N  N133  1  0.927500  0.609100  0.556700  1.0  0.3338
  N  N134  1  0.681600  0.072500  0.556700  1.0  0.3325
  N  N135  1  0.390900  0.318400  0.556700  1.0  0.3329
  N  N136  1  0.072500  0.390900  0.056700  1.0  0.3311
  N  N137  1  0.318400  0.927500  0.056700  1.0  0.3318
  N  N138  1  0.609100  0.681600  0.056700  1.0  0.3344
  N  N139  1  0.380000  0.190000  0.750000  1.0  -0.2353
  N  N140  1  0.810000  0.190000  0.750000  1.0  -0.2351
  N  N141  1  0.810000  0.620000  0.750000  1.0  -0.2363
  N  N142  1  0.620000  0.810000  0.250000  1.0  -0.2364
  N  N143  1  0.190000  0.810000  0.250000  1.0  -0.2352
  N  N144  1  0.190000  0.380000  0.250000  1.0  -0.2374
  N  N145  1  0.047000  0.953000  0.750000  1.0  -0.4171
  N  N146  1  0.047000  0.094000  0.750000  1.0  -0.4165
  N  N147  1  0.906000  0.953000  0.750000  1.0  -0.4183
  N  N148  1  0.953000  0.047000  0.250000  1.0  -0.4176
  N  N149  1  0.953000  0.906000  0.250000  1.0  -0.417
  N  N150  1  0.094000  0.047000  0.250000  1.0  -0.4163
  O  O151  1  0.523590  0.178500  0.654000  1.0  -0.555
  O  O152  1  0.414000  0.137200  0.504700  1.0  -0.5094
  O  O153  1  0.333000  0.042000  0.615700  1.0  -0.4933
  O  O154  1  0.821500  0.345090  0.654000  1.0  -0.5553
  O  O155  1  0.862800  0.276800  0.504700  1.0  -0.5072
  O  O156  1  0.958000  0.291000  0.615700  1.0  -0.4965
  O  O157  1  0.654910  0.476410  0.654000  1.0  -0.5544
  O  O158  1  0.723200  0.586000  0.504700  1.0  -0.5069
  O  O159  1  0.709000  0.667000  0.615700  1.0  -0.4933
  O  O160  1  0.476410  0.821500  0.154000  1.0  -0.5543
  O  O161  1  0.586000  0.862800  0.004700  1.0  -0.5074
  O  O162  1  0.667000  0.958000  0.115700  1.0  -0.4951
  O  O163  1  0.178500  0.654910  0.154000  1.0  -0.5554
  O  O164  1  0.137200  0.723200  0.004700  1.0  -0.5091
  O  O165  1  0.042000  0.709000  0.115700  1.0  -0.4936
  O  O166  1  0.345090  0.523590  0.154000  1.0  -0.5541
  O  O167  1  0.276800  0.414000  0.004700  1.0  -0.5069
  O  O168  1  0.291000  0.333000  0.115700  1.0  -0.4923
  O  O169  1  0.178500  0.523590  0.346000  1.0  -0.5552
  O  O170  1  0.137200  0.414000  0.495300  1.0  -0.5042
  O  O171  1  0.042000  0.333000  0.384300  1.0  -0.4923
  O  O172  1  0.345090  0.821500  0.346000  1.0  -0.5547
  O  O173  1  0.276800  0.862800  0.495300  1.0  -0.5064
  O  O174  1  0.291000  0.958000  0.384300  1.0  -0.4937
  O  O175  1  0.476410  0.654910  0.346000  1.0  -0.5552
  O  O176  1  0.586000  0.723200  0.495300  1.0  -0.5076
  O  O177  1  0.667000  0.709000  0.384300  1.0  -0.4978
  O  O178  1  0.821500  0.476410  0.846000  1.0  -0.5538
  O  O179  1  0.862800  0.586000  0.995300  1.0  -0.5056
  O  O180  1  0.958000  0.667000  0.884300  1.0  -0.4925
  O  O181  1  0.654910  0.178500  0.846000  1.0  -0.5549
  O  O182  1  0.723200  0.137200  0.995300  1.0  -0.5063
  O  O183  1  0.709000  0.042000  0.884300  1.0  -0.4944
  O  O184  1  0.523590  0.345090  0.846000  1.0  -0.5557
  O  O185  1  0.414000  0.276800  0.995300  1.0  -0.5056
  O  O186  1  0.333000  0.291000  0.884300  1.0  -0.4936
  O  O187  1  0.476410  0.821500  0.346000  1.0  -0.5548
  O  O188  1  0.586000  0.862800  0.495300  1.0  -0.5052
  O  O189  1  0.667000  0.958000  0.384300  1.0  -0.4952
  O  O190  1  0.178500  0.654910  0.346000  1.0  -0.5544
  O  O191  1  0.137200  0.723200  0.495300  1.0  -0.5064
  O  O192  1  0.042000  0.709000  0.384300  1.0  -0.4936
  O  O193  1  0.345090  0.523590  0.346000  1.0  -0.5544
  O  O194  1  0.276800  0.414000  0.495300  1.0  -0.5058
  O  O195  1  0.291000  0.333000  0.384300  1.0  -0.4924
  O  O196  1  0.523590  0.178500  0.846000  1.0  -0.5544
  O  O197  1  0.414000  0.137200  0.995300  1.0  -0.5079
  O  O198  1  0.333000  0.042000  0.884300  1.0  -0.4934
  O  O199  1  0.821500  0.345090  0.846000  1.0  -0.5565
  O  O200  1  0.862800  0.276800  0.995300  1.0  -0.5067
  O  O201  1  0.958000  0.291000  0.884300  1.0  -0.4972
  O  O202  1  0.654910  0.476410  0.846000  1.0  -0.5547
  O  O203  1  0.723200  0.586000  0.995300  1.0  -0.5041
  O  O204  1  0.709000  0.667000  0.884300  1.0  -0.4929
  O  O205  1  0.821500  0.476410  0.654000  1.0  -0.5537
  O  O206  1  0.862800  0.586000  0.504700  1.0  -0.5073
  O  O207  1  0.958000  0.667000  0.615700  1.0  -0.4927
  O  O208  1  0.654910  0.178500  0.654000  1.0  -0.5552
  O  O209  1  0.723200  0.137200  0.504700  1.0  -0.5091
  O  O210  1  0.709000  0.042000  0.615700  1.0  -0.4936
  O  O211  1  0.523590  0.345090  0.654000  1.0  -0.5553
  O  O212  1  0.414000  0.276800  0.504700  1.0  -0.5075
  O  O213  1  0.333000  0.291000  0.615700  1.0  -0.4934
  O  O214  1  0.178500  0.523590  0.154000  1.0  -0.5549
  O  O215  1  0.137200  0.414000  0.004700  1.0  -0.5065
  O  O216  1  0.042000  0.333000  0.115700  1.0  -0.4922
  O  O217  1  0.345090  0.821500  0.154000  1.0  -0.5544
  O  O218  1  0.276800  0.862800  0.004700  1.0  -0.5073
  O  O219  1  0.291000  0.958000  0.115700  1.0  -0.4941
  O  O220  1  0.476410  0.654910  0.154000  1.0  -0.5556
  O  O221  1  0.586000  0.723200  0.004700  1.0  -0.5088
  O  O222  1  0.667000  0.709000  0.115700  1.0  -0.4972
  O  O223  1  0.666667  0.333333  0.750000  1.0  -0.6992
  O  O224  1  0.333333  0.666667  0.250000  1.0  -0.6993
