# generated using pymatgen
data_CdH6(C3O2)2
_symmetry_space_group_name_H-M   'P 1'
_cell_length_a   11.80550000
_cell_length_b   15.26680000
_cell_length_c   17.06910000
_cell_angle_alpha   90.00000000
_cell_angle_beta   90.00000000
_cell_angle_gamma   92.45200000
_symmetry_Int_Tables_number   1
_chemical_formula_structural   CdH6(C3O2)2
_chemical_formula_sum   'Cd12 H72 C72 O48'
_cell_volume   3073.58485954
_cell_formula_units_Z   12
loop_
 _symmetry_equiv_pos_site_id
 _symmetry_equiv_pos_as_xyz
  1  'x, y, z'
loop_
 _atom_site_type_symbol
 _atom_site_label
 _atom_site_symmetry_multiplicity
 _atom_site_fract_x
 _atom_site_fract_y
 _atom_site_fract_z
 _atom_site_occupancy
 _atom_site_charge
  Cd  Cd1  1  0.303320  0.271770  0.879010  1.0  1.2492
  Cd  Cd2  1  0.566990  0.193890  0.825450  1.0  1.091
  Cd  Cd3  1  0.744890  0.991610  0.691200  1.0  1.1151
  Cd  Cd4  1  0.196680  0.228230  0.379010  1.0  1.2453
  Cd  Cd5  1  0.933010  0.306110  0.325450  1.0  1.0921
  Cd  Cd6  1  0.755110  0.508390  0.191200  1.0  1.1152
  Cd  Cd7  1  0.696680  0.728230  0.120990  1.0  1.2457
  Cd  Cd8  1  0.433010  0.806110  0.174550  1.0  1.0928
  Cd  Cd9  1  0.255110  0.008390  0.308800  1.0  1.1149
  Cd  Cd10  1  0.803320  0.771770  0.620990  1.0  1.2464
  Cd  Cd11  1  0.066990  0.693890  0.674550  1.0  1.0912
  Cd  Cd12  1  0.244890  0.491610  0.808800  1.0  1.1147
  H  H13  1  0.656600  0.391500  0.824100  1.0  0.0972
  H  H14  1  0.569300  0.431200  0.938900  1.0  0.0847
  H  H15  1  0.547500  0.524600  0.905300  1.0  0.077
  H  H16  1  0.913000  0.148000  0.694800  1.0  0.0939
  H  H17  1  0.920100  0.329900  0.734700  1.0  0.0921
  H  H18  1  0.965300  0.256100  0.789200  1.0  0.0905
  H  H19  1  0.108000  0.225800  0.699500  1.0  0.0968
  H  H20  1  0.030200  0.359500  0.600800  1.0  0.0958
  H  H21  1  0.129900  0.298600  0.581600  1.0  0.0855
  H  H22  1  0.612400  0.558800  0.760000  1.0  0.0793
  H  H23  1  0.669500  0.483200  0.714000  1.0  0.0945
  H  H24  1  0.827000  0.491600  0.799000  1.0  0.0994
  H  H25  1  0.722800  0.630500  0.876900  1.0  0.0777
  H  H26  1  0.843800  0.598100  0.897100  1.0  0.0834
  H  H27  1  0.764900  0.460700  0.936000  1.0  0.1
  H  H28  1  0.813600  0.183700  0.581700  1.0  0.0894
  H  H29  1  0.823700  0.283600  0.603700  1.0  0.091
  H  H30  1  0.007100  0.179100  0.567500  1.0  0.0994
  H  H31  1  0.843400  0.108500  0.324100  1.0  0.0969
  H  H32  1  0.930700  0.068800  0.438900  1.0  0.0841
  H  H33  1  0.952500  0.975400  0.405300  1.0  0.0767
  H  H34  1  0.587000  0.352000  0.194800  1.0  0.0937
  H  H35  1  0.579900  0.170100  0.234700  1.0  0.0916
  H  H36  1  0.534700  0.243900  0.289200  1.0  0.0897
  H  H37  1  0.392000  0.274200  0.199500  1.0  0.0962
  H  H38  1  0.469800  0.140500  0.100800  1.0  0.0929
  H  H39  1  0.370100  0.201400  0.081600  1.0  0.0854
  H  H40  1  0.887600  0.941200  0.260000  1.0  0.079
  H  H41  1  0.830500  0.016800  0.214000  1.0  0.0948
  H  H42  1  0.673000  0.008400  0.299000  1.0  0.101
  H  H43  1  0.777200  0.869500  0.376900  1.0  0.0786
  H  H44  1  0.656200  0.901900  0.397100  1.0  0.0845
  H  H45  1  0.735100  0.039300  0.436000  1.0  0.101
  H  H46  1  0.686400  0.316300  0.081700  1.0  0.089
  H  H47  1  0.676300  0.216400  0.103700  1.0  0.0913
  H  H48  1  0.492900  0.320900  0.067500  1.0  0.0983
  H  H49  1  0.343400  0.608500  0.175900  1.0  0.0961
  H  H50  1  0.430700  0.568800  0.061100  1.0  0.0846
  H  H51  1  0.452500  0.475400  0.094700  1.0  0.0772
  H  H52  1  0.087000  0.852000  0.305200  1.0  0.0954
  H  H53  1  0.079900  0.670100  0.265300  1.0  0.0914
  H  H54  1  0.034700  0.743900  0.210800  1.0  0.0895
  H  H55  1  0.892000  0.774200  0.300500  1.0  0.097
  H  H56  1  0.969800  0.640500  0.399200  1.0  0.0929
  H  H57  1  0.870100  0.701400  0.418400  1.0  0.0858
  H  H58  1  0.387600  0.441200  0.240000  1.0  0.0792
  H  H59  1  0.330500  0.516800  0.286000  1.0  0.0947
  H  H60  1  0.173000  0.508400  0.201000  1.0  0.1009
  H  H61  1  0.277200  0.369500  0.123100  1.0  0.0788
  H  H62  1  0.156200  0.401900  0.102900  1.0  0.0839
  H  H63  1  0.235100  0.539300  0.064000  1.0  0.1015
  H  H64  1  0.186400  0.816300  0.418300  1.0  0.0887
  H  H65  1  0.176300  0.716400  0.396300  1.0  0.091
  H  H66  1  0.992900  0.820900  0.432500  1.0  0.0984
  H  H67  1  0.156600  0.891500  0.675900  1.0  0.0971
  H  H68  1  0.069300  0.931200  0.561100  1.0  0.0839
  H  H69  1  0.047500  0.024600  0.594700  1.0  0.0773
  H  H70  1  0.413000  0.648000  0.805200  1.0  0.0929
  H  H71  1  0.420100  0.829900  0.765300  1.0  0.0927
  H  H72  1  0.465300  0.756100  0.710800  1.0  0.0902
  H  H73  1  0.608000  0.725800  0.800500  1.0  0.0977
  H  H74  1  0.530200  0.859500  0.899200  1.0  0.0947
  H  H75  1  0.629900  0.798600  0.918400  1.0  0.0839
  H  H76  1  0.112400  0.058800  0.740000  1.0  0.0786
  H  H77  1  0.169500  0.983200  0.786000  1.0  0.0954
  H  H78  1  0.327000  0.991600  0.701000  1.0  0.0996
  H  H79  1  0.222800  0.130500  0.623100  1.0  0.0789
  H  H80  1  0.343800  0.098100  0.602900  1.0  0.0848
  H  H81  1  0.264900  0.960700  0.564000  1.0  0.1
  H  H82  1  0.313600  0.683700  0.918300  1.0  0.089
  H  H83  1  0.323700  0.783600  0.896300  1.0  0.0911
  H  H84  1  0.507100  0.679100  0.932500  1.0  0.0984
  C  C85  1  0.488300  0.408900  0.798200  1.0  0.727
  C  C86  1  0.608100  0.442000  0.822700  1.0  -0.1697
  C  C87  1  0.599500  0.477100  0.904600  1.0  -0.0971
  C  C88  1  0.763600  0.195000  0.736900  1.0  0.7047
  C  C89  1  0.876700  0.204500  0.692700  1.0  -0.1659
  C  C90  1  0.955000  0.273500  0.735100  1.0  -0.1101
  C  C91  1  0.070500  0.281500  0.693800  1.0  -0.1682
  C  C92  1  0.056500  0.300600  0.606800  1.0  -0.1158
  C  C93  1  0.661300  0.509700  0.765200  1.0  -0.112
  C  C94  1  0.778500  0.542100  0.796300  1.0  -0.1702
  C  C95  1  0.837100  0.611500  0.743500  1.0  0.7305
  C  C96  1  0.769000  0.579500  0.878300  1.0  -0.1113
  C  C97  1  0.715400  0.510700  0.935200  1.0  -0.1805
  C  C98  1  0.706100  0.543100  0.018400  1.0  0.7356
  C  C99  1  0.861300  0.228500  0.607200  1.0  -0.1179
  C  C100  1  0.141000  0.352300  0.735000  1.0  0.7167
  C  C101  1  0.974100  0.236800  0.565700  1.0  -0.1636
  C  C102  1  0.961400  0.260700  0.479200  1.0  0.696
  C  C103  1  0.011700  0.091100  0.298200  1.0  0.7282
  C  C104  1  0.891900  0.058000  0.322700  1.0  -0.1738
  C  C105  1  0.900500  0.022900  0.404600  1.0  -0.0986
  C  C106  1  0.736400  0.305000  0.236900  1.0  0.7051
  C  C107  1  0.623300  0.295500  0.192700  1.0  -0.1714
  C  C108  1  0.545000  0.226500  0.235100  1.0  -0.1104
  C  C109  1  0.429500  0.218500  0.193800  1.0  -0.1687
  C  C110  1  0.443500  0.199400  0.106800  1.0  -0.1164
  C  C111  1  0.838700  0.990300  0.265200  1.0  -0.113
  C  C112  1  0.721500  0.957900  0.296300  1.0  -0.1687
  C  C113  1  0.662900  0.888500  0.243500  1.0  0.733
  C  C114  1  0.731000  0.920500  0.378300  1.0  -0.1108
  C  C115  1  0.784600  0.989300  0.435200  1.0  -0.1741
  C  C116  1  0.793900  0.956900  0.518400  1.0  0.7349
  C  C117  1  0.638700  0.271500  0.107200  1.0  -0.1174
  C  C118  1  0.359000  0.147700  0.235000  1.0  0.7155
  C  C119  1  0.525900  0.263200  0.065700  1.0  -0.1586
  C  C120  1  0.538600  0.239300  0.979200  1.0  0.6954
  C  C121  1  0.511700  0.591100  0.201800  1.0  0.7297
  C  C122  1  0.391900  0.558000  0.177300  1.0  -0.1792
  C  C123  1  0.400500  0.522900  0.095400  1.0  -0.0986
  C  C124  1  0.236400  0.805000  0.263100  1.0  0.7037
  C  C125  1  0.123300  0.795500  0.307300  1.0  -0.173
  C  C126  1  0.045000  0.726500  0.264900  1.0  -0.1117
  C  C127  1  0.929500  0.718500  0.306200  1.0  -0.169
  C  C128  1  0.943500  0.699400  0.393200  1.0  -0.1165
  C  C129  1  0.338700  0.490300  0.234800  1.0  -0.112
  C  C130  1  0.221500  0.457900  0.203700  1.0  -0.1709
  C  C131  1  0.162900  0.388500  0.256500  1.0  0.7308
  C  C132  1  0.231000  0.420500  0.121700  1.0  -0.1122
  C  C133  1  0.284600  0.489300  0.064800  1.0  -0.1741
  C  C134  1  0.293900  0.456900  0.981600  1.0  0.7355
  C  C135  1  0.138700  0.771500  0.392800  1.0  -0.1172
  C  C136  1  0.859000  0.647700  0.265000  1.0  0.7159
  C  C137  1  0.025900  0.763200  0.434300  1.0  -0.1577
  C  C138  1  0.038600  0.739300  0.520800  1.0  0.6967
  C  C139  1  0.988300  0.908900  0.701800  1.0  0.7272
  C  C140  1  0.108100  0.942000  0.677300  1.0  -0.168
  C  C141  1  0.099500  0.977100  0.595400  1.0  -0.0971
  C  C142  1  0.263600  0.695000  0.763100  1.0  0.7042
  C  C143  1  0.376700  0.704500  0.807300  1.0  -0.1668
  C  C144  1  0.455000  0.773500  0.764900  1.0  -0.1097
  C  C145  1  0.570500  0.781500  0.806200  1.0  -0.1675
  C  C146  1  0.556500  0.800600  0.893200  1.0  -0.115
  C  C147  1  0.161300  0.009700  0.734800  1.0  -0.1118
  C  C148  1  0.278500  0.042100  0.703700  1.0  -0.1707
  C  C149  1  0.337100  0.111500  0.756500  1.0  0.7287
  C  C150  1  0.269000  0.079500  0.621700  1.0  -0.112
  C  C151  1  0.215400  0.010700  0.564800  1.0  -0.175
  C  C152  1  0.206100  0.043100  0.481600  1.0  0.7357
  C  C153  1  0.361300  0.728500  0.892800  1.0  -0.1184
  C  C154  1  0.641000  0.852300  0.765000  1.0  0.7174
  C  C155  1  0.474100  0.736800  0.934300  1.0  -0.165
  C  C156  1  0.461400  0.760700  0.020800  1.0  0.6972
  O  O157  1  0.459800  0.328300  0.809100  1.0  -0.7091
  O  O158  1  0.716300  0.260700  0.758600  1.0  -0.5701
  O  O159  1  0.720100  0.119900  0.749200  1.0  -0.6503
  O  O160  1  0.423300  0.465700  0.773400  1.0  -0.6271
  O  O161  1  0.779400  0.653500  0.697800  1.0  -0.6495
  O  O162  1  0.942400  0.623600  0.754000  1.0  -0.65
  O  O163  1  0.697000  0.622800  0.029900  1.0  -0.6675
  O  O164  1  0.704800  0.484300  0.069400  1.0  -0.6194
  O  O165  1  0.173500  0.340200  0.803600  1.0  -0.7195
  O  O166  1  0.162400  0.424500  0.701300  1.0  -0.5831
  O  O167  1  0.049400  0.290700  0.443000  1.0  -0.6979
  O  O168  1  0.868600  0.252300  0.445200  1.0  -0.5676
  O  O169  1  0.040200  0.171700  0.309100  1.0  -0.708
  O  O170  1  0.783700  0.239300  0.258600  1.0  -0.5709
  O  O171  1  0.779900  0.380100  0.249200  1.0  -0.6493
  O  O172  1  0.076700  0.034300  0.273400  1.0  -0.6268
  O  O173  1  0.720600  0.846500  0.197800  1.0  -0.651
  O  O174  1  0.557600  0.876400  0.254000  1.0  -0.6506
  O  O175  1  0.803000  0.877200  0.529900  1.0  -0.6676
  O  O176  1  0.795200  0.015700  0.569400  1.0  -0.6208
  O  O177  1  0.326500  0.159800  0.303600  1.0  -0.7185
  O  O178  1  0.337600  0.075500  0.201300  1.0  -0.5832
  O  O179  1  0.450600  0.209300  0.943000  1.0  -0.6989
  O  O180  1  0.631400  0.247700  0.945200  1.0  -0.5648
  O  O181  1  0.540200  0.671700  0.190900  1.0  -0.708
  O  O182  1  0.283700  0.739300  0.241400  1.0  -0.5715
  O  O183  1  0.279900  0.880100  0.250800  1.0  -0.6492
  O  O184  1  0.576700  0.534300  0.226600  1.0  -0.6285
  O  O185  1  0.220600  0.346500  0.302200  1.0  -0.6498
  O  O186  1  0.057600  0.376400  0.246000  1.0  -0.6501
  O  O187  1  0.303000  0.377200  0.970100  1.0  -0.6669
  O  O188  1  0.295200  0.515700  0.930600  1.0  -0.6207
  O  O189  1  0.826500  0.659800  0.196400  1.0  -0.7153
  O  O190  1  0.837600  0.575500  0.298700  1.0  -0.5812
  O  O191  1  0.950600  0.709300  0.557000  1.0  -0.6984
  O  O192  1  0.131400  0.747700  0.554800  1.0  -0.5654
  O  O193  1  0.959800  0.828300  0.690900  1.0  -0.7089
  O  O194  1  0.216300  0.760700  0.741400  1.0  -0.5707
  O  O195  1  0.220100  0.619900  0.750800  1.0  -0.6508
  O  O196  1  0.923300  0.965700  0.726600  1.0  -0.6277
  O  O197  1  0.279400  0.153500  0.802200  1.0  -0.6504
  O  O198  1  0.442400  0.123600  0.746000  1.0  -0.6493
  O  O199  1  0.197000  0.122800  0.470100  1.0  -0.6662
  O  O200  1  0.204800  0.984300  0.430600  1.0  -0.6192
  O  O201  1  0.673500  0.840200  0.696400  1.0  -0.7164
  O  O202  1  0.662400  0.924500  0.798700  1.0  -0.5814
  O  O203  1  0.549400  0.790700  0.057000  1.0  -0.6968
  O  O204  1  0.368600  0.752300  0.054800  1.0  -0.5671
