# generated using pymatgen
data_Cd3H30C24(NO3)4
_symmetry_space_group_name_H-M   'P 1'
_cell_length_a   9.04390000
_cell_length_b   16.69500000
_cell_length_c   26.52300000
_cell_angle_alpha   90.00000000
_cell_angle_beta   90.00000000
_cell_angle_gamma   90.00000000
_symmetry_Int_Tables_number   1
_chemical_formula_structural   Cd3H30C24(NO3)4
_chemical_formula_sum   'Cd12 H120 C96 N16 O48'
_cell_volume   4004.65235019
_cell_formula_units_Z   4
loop_
 _symmetry_equiv_pos_site_id
 _symmetry_equiv_pos_as_xyz
  1  'x, y, z'
loop_
 _atom_site_type_symbol
 _atom_site_label
 _atom_site_symmetry_multiplicity
 _atom_site_fract_x
 _atom_site_fract_y
 _atom_site_fract_z
 _atom_site_occupancy
 _atom_site_charge
  Cd  Cd1  1  0.022510  0.589630  0.889870  1.0  1.2286
  Cd  Cd2  1  0.474530  0.025270  0.021910  1.0  0.9841
  Cd  Cd3  1  0.477920  0.127740  0.755290  1.0  0.9887
  Cd  Cd4  1  0.477490  0.089630  0.889870  1.0  1.2289
  Cd  Cd5  1  0.025470  0.525270  0.021910  1.0  0.9849
  Cd  Cd6  1  0.022080  0.627740  0.755290  1.0  0.989
  Cd  Cd7  1  0.977490  0.410370  0.389870  1.0  1.229
  Cd  Cd8  1  0.525470  0.974730  0.521910  1.0  0.9845
  Cd  Cd9  1  0.522080  0.872260  0.255290  1.0  0.9886
  Cd  Cd10  1  0.522510  0.910370  0.389870  1.0  1.2286
  Cd  Cd11  1  0.974530  0.474730  0.521910  1.0  0.9841
  Cd  Cd12  1  0.977920  0.372260  0.255290  1.0  0.9882
  H  H13  1  0.381400  0.389100  0.892600  1.0  0.1047
  H  H14  1  0.503100  0.473200  0.976500  1.0  0.0788
  H  H15  1  0.506500  0.505000  0.920800  1.0  0.0907
  H  H16  1  0.664900  0.398100  0.897000  1.0  0.0961
  H  H17  1  0.753200  0.308100  0.959300  1.0  0.0823
  H  H18  1  0.658400  0.351400  0.000700  1.0  0.0881
  H  H19  1  0.539500  0.264300  0.918100  1.0  0.0886
  H  H20  1  0.299600  0.293600  0.950000  1.0  0.0818
  H  H21  1  0.367400  0.342200  0.995100  1.0  0.0732
  H  H22  1  0.654700  0.774400  0.871200  1.0  0.0886
  H  H23  1  0.507400  0.702600  0.787800  1.0  0.0791
  H  H24  1  0.505700  0.667400  0.842700  1.0  0.0859
  H  H25  1  0.381200  0.781800  0.872200  1.0  0.091
  H  H26  1  0.300600  0.880500  0.816800  1.0  0.0785
  H  H27  1  0.374800  0.835700  0.771300  1.0  0.0942
  H  H28  1  0.531100  0.901000  0.854000  1.0  0.0909
  H  H29  1  0.748000  0.868100  0.814700  1.0  0.0801
  H  H30  1  0.660500  0.827700  0.770500  1.0  0.0762
  H  H31  1  0.541700  0.022200  0.653600  1.0  0.0848
  H  H32  1  0.406200  0.074300  0.636700  1.0  0.0826
  H  H33  1  0.409500  0.216400  0.649000  1.0  0.0842
  H  H34  1  0.550500  0.257100  0.672100  1.0  0.087
  H  H35  1  0.763700  0.089100  0.689200  1.0  0.0886
  H  H36  1  0.760200  0.182600  0.695700  1.0  0.091
  H  H37  1  0.780300  0.230300  0.568700  1.0  0.0768
  H  H38  1  0.771100  0.267400  0.622900  1.0  0.0717
  H  H39  1  0.781000  0.088800  0.558800  1.0  0.0776
  H  H40  1  0.773200  0.033100  0.606200  1.0  0.0723
  H  H41  1  0.423300  0.159500  0.564900  1.0  0.0846
  H  H42  1  0.570000  0.164800  0.533600  1.0  0.0879
  H  H43  1  0.118600  0.889100  0.892600  1.0  0.1048
  H  H44  1  0.996900  0.973200  0.976500  1.0  0.079
  H  H45  1  0.993500  0.005000  0.920800  1.0  0.0906
  H  H46  1  0.835100  0.898100  0.897000  1.0  0.0961
  H  H47  1  0.746800  0.808100  0.959300  1.0  0.0829
  H  H48  1  0.841600  0.851400  0.000700  1.0  0.0882
  H  H49  1  0.960500  0.764300  0.918100  1.0  0.0887
  H  H50  1  0.200400  0.793600  0.950000  1.0  0.0826
  H  H51  1  0.132600  0.842200  0.995100  1.0  0.0733
  H  H52  1  0.845300  0.274400  0.871200  1.0  0.0881
  H  H53  1  0.992600  0.202600  0.787800  1.0  0.0787
  H  H54  1  0.994300  0.167400  0.842700  1.0  0.0855
  H  H55  1  0.118800  0.281800  0.872200  1.0  0.0914
  H  H56  1  0.199400  0.380500  0.816800  1.0  0.0826
  H  H57  1  0.125200  0.335700  0.771300  1.0  0.0937
  H  H58  1  0.968900  0.401000  0.854000  1.0  0.091
  H  H59  1  0.752000  0.368100  0.814700  1.0  0.0802
  H  H60  1  0.839500  0.327700  0.770500  1.0  0.0756
  H  H61  1  0.958300  0.522200  0.653600  1.0  0.0854
  H  H62  1  0.093800  0.574300  0.636700  1.0  0.0794
  H  H63  1  0.090500  0.716400  0.649000  1.0  0.0827
  H  H64  1  0.949500  0.757100  0.672100  1.0  0.0855
  H  H65  1  0.736300  0.589100  0.689200  1.0  0.0884
  H  H66  1  0.739800  0.682600  0.695700  1.0  0.0917
  H  H67  1  0.719700  0.730300  0.568700  1.0  0.0768
  H  H68  1  0.728900  0.767400  0.622900  1.0  0.0731
  H  H69  1  0.719000  0.588800  0.558800  1.0  0.0781
  H  H70  1  0.726800  0.533100  0.606200  1.0  0.0716
  H  H71  1  0.076700  0.659500  0.564900  1.0  0.0846
  H  H72  1  0.930000  0.664800  0.533600  1.0  0.0878
  H  H73  1  0.458300  0.977800  0.153600  1.0  0.0833
  H  H74  1  0.593800  0.925700  0.136700  1.0  0.0804
  H  H75  1  0.590500  0.783600  0.149000  1.0  0.0815
  H  H76  1  0.449500  0.742900  0.172100  1.0  0.0871
  H  H77  1  0.236300  0.910900  0.189200  1.0  0.0881
  H  H78  1  0.239800  0.817400  0.195700  1.0  0.0919
  H  H79  1  0.219700  0.769700  0.068700  1.0  0.0779
  H  H80  1  0.228900  0.732600  0.122900  1.0  0.0714
  H  H81  1  0.219000  0.911200  0.058800  1.0  0.0776
  H  H82  1  0.226800  0.966900  0.106200  1.0  0.0728
  H  H83  1  0.576700  0.840500  0.064900  1.0  0.0844
  H  H84  1  0.430000  0.835200  0.033600  1.0  0.0875
  H  H85  1  0.618600  0.610900  0.392600  1.0  0.1043
  H  H86  1  0.496900  0.526800  0.476500  1.0  0.0794
  H  H87  1  0.493500  0.495000  0.420800  1.0  0.0904
  H  H88  1  0.335100  0.601900  0.397000  1.0  0.0956
  H  H89  1  0.246800  0.691900  0.459300  1.0  0.0826
  H  H90  1  0.341600  0.648600  0.500700  1.0  0.0884
  H  H91  1  0.460500  0.735700  0.418100  1.0  0.0882
  H  H92  1  0.700400  0.706400  0.450000  1.0  0.0819
  H  H93  1  0.632600  0.657800  0.495100  1.0  0.0727
  H  H94  1  0.345300  0.225600  0.371200  1.0  0.0876
  H  H95  1  0.492600  0.297400  0.287800  1.0  0.0791
  H  H96  1  0.494300  0.332600  0.342700  1.0  0.0863
  H  H97  1  0.618800  0.218200  0.372200  1.0  0.0904
  H  H98  1  0.699400  0.119500  0.316800  1.0  0.0812
  H  H99  1  0.625200  0.164300  0.271300  1.0  0.094
  H  H100  1  0.468900  0.099000  0.354000  1.0  0.0908
  H  H101  1  0.252000  0.131900  0.314700  1.0  0.0792
  H  H102  1  0.339500  0.172300  0.270500  1.0  0.0753
  H  H103  1  0.041700  0.477800  0.153600  1.0  0.0845
  H  H104  1  0.906200  0.425700  0.136700  1.0  0.0828
  H  H105  1  0.909500  0.283600  0.149000  1.0  0.0846
  H  H106  1  0.050500  0.242900  0.172100  1.0  0.0862
  H  H107  1  0.263700  0.410900  0.189200  1.0  0.0882
  H  H108  1  0.260200  0.317400  0.195700  1.0  0.0912
  H  H109  1  0.280300  0.269700  0.068700  1.0  0.0772
  H  H110  1  0.271100  0.232600  0.122900  1.0  0.0716
  H  H111  1  0.281000  0.411200  0.058800  1.0  0.0772
  H  H112  1  0.273200  0.466900  0.106200  1.0  0.0735
  H  H113  1  0.923300  0.340500  0.064900  1.0  0.0845
  H  H114  1  0.070000  0.335200  0.033600  1.0  0.0879
  H  H115  1  0.881400  0.110900  0.392600  1.0  0.1042
  H  H116  1  0.003100  0.026800  0.476500  1.0  0.0792
  H  H117  1  0.006500  0.995000  0.420800  1.0  0.0905
  H  H118  1  0.164900  0.101900  0.397000  1.0  0.0956
  H  H119  1  0.253200  0.191900  0.459300  1.0  0.0825
  H  H120  1  0.158400  0.148600  0.500700  1.0  0.088
  H  H121  1  0.039500  0.235700  0.418100  1.0  0.088
  H  H122  1  0.799600  0.206400  0.450000  1.0  0.0814
  H  H123  1  0.867400  0.157800  0.495100  1.0  0.073
  H  H124  1  0.154700  0.725600  0.371200  1.0  0.088
  H  H125  1  0.007400  0.797400  0.287800  1.0  0.0792
  H  H126  1  0.005700  0.832600  0.342700  1.0  0.0861
  H  H127  1  0.881200  0.718200  0.372200  1.0  0.09
  H  H128  1  0.800600  0.619500  0.316800  1.0  0.0782
  H  H129  1  0.874800  0.664300  0.271300  1.0  0.0942
  H  H130  1  0.031100  0.599000  0.354000  1.0  0.0907
  H  H131  1  0.248000  0.631900  0.314700  1.0  0.0792
  H  H132  1  0.160500  0.672300  0.270500  1.0  0.0761
  C  C133  1  0.241300  0.454800  0.937800  1.0  0.697
  C  C134  1  0.377000  0.403600  0.928300  1.0  -0.1683
  C  C135  1  0.509600  0.457100  0.941400  1.0  -0.103
  C  C136  1  0.657800  0.413300  0.932600  1.0  -0.1603
  C  C137  1  0.661600  0.336700  0.965400  1.0  -0.1171
  C  C138  1  0.531100  0.282500  0.953100  1.0  -0.1662
  C  C139  1  0.380600  0.328300  0.959900  1.0  -0.1225
  C  C140  1  0.784700  0.468200  0.945500  1.0  0.7221
  C  C141  1  0.529000  0.210000  0.987700  1.0  0.7246
  C  C142  1  0.787300  0.704600  0.826300  1.0  0.7111
  C  C143  1  0.655900  0.761000  0.835200  1.0  -0.1788
  C  C144  1  0.510100  0.716500  0.823300  1.0  -0.1028
  C  C145  1  0.376800  0.769000  0.836200  1.0  -0.1676
  C  C146  1  0.237000  0.719600  0.826800  1.0  0.7074
  C  C147  1  0.383000  0.846600  0.807100  1.0  -0.1023
  C  C148  1  0.528600  0.889900  0.817800  1.0  -0.1616
  C  C149  1  0.658500  0.839100  0.806300  1.0  -0.1079
  C  C150  1  0.531800  0.970400  0.791000  1.0  0.7189
  C  C151  1  0.513200  0.073300  0.639200  1.0  0.1297
  C  C152  1  0.516600  0.214000  0.650500  1.0  0.1253
  C  C153  1  0.728000  0.138600  0.674400  1.0  0.1134
  C  C154  1  0.737900  0.223200  0.602000  1.0  0.1609
  C  C155  1  0.738700  0.083400  0.592200  1.0  0.1427
  C  C156  1  0.530300  0.158700  0.567400  1.0  0.1491
  C  C157  1  0.258700  0.954800  0.937800  1.0  0.6971
  C  C158  1  0.123000  0.903600  0.928300  1.0  -0.1674
  C  C159  1  0.990400  0.957100  0.941400  1.0  -0.103
  C  C160  1  0.842200  0.913300  0.932600  1.0  -0.1608
  C  C161  1  0.838400  0.836700  0.965400  1.0  -0.1155
  C  C162  1  0.968900  0.782500  0.953100  1.0  -0.166
  C  C163  1  0.119400  0.828300  0.959900  1.0  -0.1244
  C  C164  1  0.715300  0.968200  0.945500  1.0  0.7224
  C  C165  1  0.971000  0.710000  0.987700  1.0  0.7248
  C  C166  1  0.712700  0.204600  0.826300  1.0  0.7091
  C  C167  1  0.844100  0.261000  0.835200  1.0  -0.1789
  C  C168  1  0.989900  0.216500  0.823300  1.0  -0.1027
  C  C169  1  0.123200  0.269000  0.836200  1.0  -0.1676
  C  C170  1  0.263000  0.219600  0.826800  1.0  0.7068
  C  C171  1  0.117000  0.346600  0.807100  1.0  -0.1012
  C  C172  1  0.971400  0.389900  0.817800  1.0  -0.1617
  C  C173  1  0.841500  0.339100  0.806300  1.0  -0.1082
  C  C174  1  0.968200  0.470400  0.791000  1.0  0.7187
  C  C175  1  0.986800  0.573300  0.639200  1.0  0.1291
  C  C176  1  0.983400  0.714000  0.650500  1.0  0.1248
  C  C177  1  0.772000  0.638600  0.674400  1.0  0.1169
  C  C178  1  0.762100  0.723200  0.602000  1.0  0.1616
  C  C179  1  0.761300  0.583400  0.592200  1.0  0.1434
  C  C180  1  0.969700  0.658700  0.567400  1.0  0.1476
  C  C181  1  0.486800  0.926700  0.139200  1.0  0.129
  C  C182  1  0.483400  0.786000  0.150500  1.0  0.123
  C  C183  1  0.272000  0.861400  0.174400  1.0  0.117
  C  C184  1  0.262100  0.776800  0.102000  1.0  0.1632
  C  C185  1  0.261300  0.916600  0.092200  1.0  0.1437
  C  C186  1  0.469700  0.841300  0.067400  1.0  0.147
  C  C187  1  0.758700  0.545200  0.437800  1.0  0.6975
  C  C188  1  0.623000  0.596400  0.428300  1.0  -0.1686
  C  C189  1  0.490400  0.542900  0.441400  1.0  -0.1028
  C  C190  1  0.342200  0.586700  0.432600  1.0  -0.163
  C  C191  1  0.338400  0.663300  0.465400  1.0  -0.115
  C  C192  1  0.468900  0.717500  0.453100  1.0  -0.1664
  C  C193  1  0.619400  0.671700  0.459900  1.0  -0.1211
  C  C194  1  0.215300  0.531800  0.445500  1.0  0.7228
  C  C195  1  0.471000  0.790000  0.487700  1.0  0.7248
  C  C196  1  0.212700  0.295400  0.326300  1.0  0.7108
  C  C197  1  0.344100  0.239000  0.335200  1.0  -0.1785
  C  C198  1  0.489900  0.283500  0.323300  1.0  -0.1039
  C  C199  1  0.623200  0.231000  0.336200  1.0  -0.1671
  C  C200  1  0.763000  0.280400  0.326800  1.0  0.7051
  C  C201  1  0.617000  0.153400  0.307100  1.0  -0.1027
  C  C202  1  0.471400  0.110100  0.317800  1.0  -0.1622
  C  C203  1  0.341500  0.160900  0.306300  1.0  -0.1095
  C  C204  1  0.468200  0.029600  0.291000  1.0  0.7179
  C  C205  1  0.013200  0.426700  0.139200  1.0  0.1294
  C  C206  1  0.016600  0.286000  0.150500  1.0  0.1241
  C  C207  1  0.228000  0.361400  0.174400  1.0  0.1149
  C  C208  1  0.237900  0.276800  0.102000  1.0  0.1621
  C  C209  1  0.238700  0.416600  0.092200  1.0  0.143
  C  C210  1  0.030300  0.341300  0.067400  1.0  0.1484
  C  C211  1  0.741300  0.045200  0.437800  1.0  0.6958
  C  C212  1  0.877000  0.096400  0.428300  1.0  -0.1695
  C  C213  1  0.009600  0.042900  0.441400  1.0  -0.1027
  C  C214  1  0.157800  0.086700  0.432600  1.0  -0.1628
  C  C215  1  0.161600  0.163300  0.465400  1.0  -0.1156
  C  C216  1  0.031100  0.217500  0.453100  1.0  -0.1661
  C  C217  1  0.880600  0.171700  0.459900  1.0  -0.1202
  C  C218  1  0.284700  0.031800  0.445500  1.0  0.7237
  C  C219  1  0.029000  0.290000  0.487700  1.0  0.7251
  C  C220  1  0.287300  0.795400  0.326300  1.0  0.7108
  C  C221  1  0.155900  0.739000  0.335200  1.0  -0.1785
  C  C222  1  0.010100  0.783500  0.323300  1.0  -0.1042
  C  C223  1  0.876800  0.731000  0.336200  1.0  -0.1672
  C  C224  1  0.737000  0.780400  0.326800  1.0  0.707
  C  C225  1  0.883000  0.653400  0.307100  1.0  -0.1034
  C  C226  1  0.028600  0.610100  0.317800  1.0  -0.1618
  C  C227  1  0.158500  0.660900  0.306300  1.0  -0.11
  C  C228  1  0.031800  0.529600  0.291000  1.0  0.7184
  N  N229  1  0.561500  0.137200  0.672300  1.0  -0.3338
  N  N230  1  0.578500  0.225700  0.598100  1.0  -0.4028
  N  N231  1  0.791500  0.148300  0.623400  1.0  -0.3808
  N  N232  1  0.577600  0.080600  0.587800  1.0  -0.3471
  N  N233  1  0.938500  0.637200  0.672300  1.0  -0.3306
  N  N234  1  0.921500  0.725700  0.598100  1.0  -0.4025
  N  N235  1  0.708500  0.648300  0.623400  1.0  -0.3809
  N  N236  1  0.922400  0.580600  0.587800  1.0  -0.3512
  N  N237  1  0.438500  0.862800  0.172300  1.0  -0.3302
  N  N238  1  0.421500  0.774300  0.098100  1.0  -0.4027
  N  N239  1  0.208500  0.851700  0.123400  1.0  -0.381
  N  N240  1  0.422400  0.919400  0.087800  1.0  -0.3569
  N  N241  1  0.061500  0.362800  0.172300  1.0  -0.3336
  N  N242  1  0.078500  0.274300  0.098100  1.0  -0.4034
  N  N243  1  0.291500  0.351700  0.123400  1.0  -0.3809
  N  N244  1  0.077600  0.419400  0.087800  1.0  -0.3544
  O  O245  1  0.220000  0.513900  0.909000  1.0  -0.6431
  O  O246  1  0.494500  0.142600  0.971200  1.0  -0.6761
  O  O247  1  0.846000  0.501800  0.909600  1.0  -0.6225
  O  O248  1  0.834400  0.666500  0.861300  1.0  -0.6214
  O  O249  1  0.466800  0.029300  0.811670  1.0  -0.674
  O  O250  1  0.183600  0.682500  0.862500  1.0  -0.6327
  O  O251  1  0.160200  0.439500  0.975300  1.0  -0.6306
  O  O252  1  0.815000  0.475800  0.992500  1.0  -0.6455
  O  O253  1  0.834800  0.702400  0.780800  1.0  -0.6662
  O  O254  1  0.190700  0.716800  0.781000  1.0  -0.6583
  O  O255  1  0.590800  0.977400  0.749000  1.0  -0.6272
  O  O256  1  0.567200  0.222300  0.032100  1.0  -0.611
  O  O257  1  0.280000  0.013900  0.909000  1.0  -0.6443
  O  O258  1  0.005500  0.642600  0.971200  1.0  -0.6758
  O  O259  1  0.654000  0.001800  0.909600  1.0  -0.6226
  O  O260  1  0.665600  0.166500  0.861300  1.0  -0.6211
  O  O261  1  0.033200  0.529300  0.811670  1.0  -0.673
  O  O262  1  0.316400  0.182500  0.862500  1.0  -0.6342
  O  O263  1  0.339800  0.939500  0.975300  1.0  -0.6302
  O  O264  1  0.685000  0.975800  0.992500  1.0  -0.6435
  O  O265  1  0.665200  0.202400  0.780800  1.0  -0.6657
  O  O266  1  0.309300  0.216800  0.781000  1.0  -0.6601
  O  O267  1  0.909200  0.477400  0.749000  1.0  -0.6263
  O  O268  1  0.932800  0.722300  0.032100  1.0  -0.6162
  O  O269  1  0.780000  0.486100  0.409000  1.0  -0.6443
  O  O270  1  0.505500  0.857400  0.471200  1.0  -0.6772
  O  O271  1  0.154000  0.498200  0.409600  1.0  -0.6236
  O  O272  1  0.165600  0.333500  0.361300  1.0  -0.6203
  O  O273  1  0.533200  0.970700  0.311670  1.0  -0.6718
  O  O274  1  0.816400  0.317500  0.362500  1.0  -0.6317
  O  O275  1  0.839800  0.560500  0.475300  1.0  -0.6305
  O  O276  1  0.185000  0.524200  0.492500  1.0  -0.6451
  O  O277  1  0.165200  0.297600  0.280800  1.0  -0.6655
  O  O278  1  0.809300  0.283200  0.281000  1.0  -0.6605
  O  O279  1  0.409200  0.022600  0.249000  1.0  -0.6264
  O  O280  1  0.432800  0.777700  0.532100  1.0  -0.616
  O  O281  1  0.720000  0.986100  0.409000  1.0  -0.6441
  O  O282  1  0.994500  0.357400  0.471200  1.0  -0.6769
  O  O283  1  0.346000  0.998200  0.409600  1.0  -0.6234
  O  O284  1  0.334400  0.833500  0.361300  1.0  -0.6212
  O  O285  1  0.966800  0.470700  0.311670  1.0  -0.6732
  O  O286  1  0.683600  0.817500  0.362500  1.0  -0.634
  O  O287  1  0.660200  0.060500  0.475300  1.0  -0.6302
  O  O288  1  0.315000  0.024200  0.492500  1.0  -0.6465
  O  O289  1  0.334800  0.797600  0.280800  1.0  -0.6661
  O  O290  1  0.690700  0.783200  0.281000  1.0  -0.6584
  O  O291  1  0.090800  0.522600  0.249000  1.0  -0.6274
  O  O292  1  0.067200  0.277700  0.532100  1.0  -0.6096
