# generated using pymatgen
data_CdH18C28(NO)4
_symmetry_space_group_name_H-M   'P 1'
_cell_length_a   8.94500000
_cell_length_b   14.85600000
_cell_length_c   19.86100000
_cell_angle_alpha   91.64400000
_cell_angle_beta   101.97400000
_cell_angle_gamma   93.75500000
_symmetry_Int_Tables_number   1
_chemical_formula_structural   CdH18C28(NO)4
_chemical_formula_sum   'Cd3 H54 C84 N12 O12'
_cell_volume   2573.88152239
_cell_formula_units_Z   3
loop_
 _symmetry_equiv_pos_site_id
 _symmetry_equiv_pos_as_xyz
  1  'x, y, z'
loop_
 _atom_site_type_symbol
 _atom_site_label
 _atom_site_symmetry_multiplicity
 _atom_site_fract_x
 _atom_site_fract_y
 _atom_site_fract_z
 _atom_site_occupancy
 _atom_site_charge
  Cd  Cd1  1  0.959810  0.020520  0.271830  1.0  1.0762
  Cd  Cd2  1  0.040190  0.979480  0.728170  1.0  1.0743
  Cd  Cd3  1  0.000000  0.500000  0.000000  1.0  0.9628
  H  H4  1  0.742800  0.934900  0.967000  1.0  0.1186
  H  H5  1  0.500200  0.746900  0.051400  1.0  0.1177
  H  H6  1  0.533000  0.715400  0.853200  1.0  0.1163
  H  H7  1  0.889000  0.923200  0.106800  1.0  0.085
  H  H8  1  0.587200  0.985400  0.214100  1.0  0.0897
  H  H9  1  0.444500  0.910300  0.106900  1.0  0.1177
  H  H10  1  0.239200  0.675200  0.993600  1.0  0.0856
  H  H11  1  0.285200  0.440200  0.912200  1.0  0.1016
  H  H12  1  0.498800  0.541200  0.894700  1.0  0.1214
  H  H13  1  0.924100  0.897800  0.878000  1.0  0.0911
  H  H14  1  0.677500  0.905100  0.691400  1.0  0.0923
  H  H15  1  0.506000  0.846800  0.763000  1.0  0.1235
  H  H16  1  0.738900  0.463400  0.776600  1.0  0.0988
  H  H17  1  0.687500  0.456400  0.658300  1.0  0.0814
  H  H18  1  0.807400  0.720900  0.657500  1.0  0.0922
  H  H19  1  0.864500  0.727700  0.775800  1.0  0.0806
  H  H20  1  0.796400  0.460600  0.558800  1.0  0.0982
  H  H21  1  0.614800  0.560100  0.377300  1.0  0.0981
  H  H22  1  0.608000  0.698400  0.552800  1.0  0.1034
  H  H23  1  0.566100  0.403600  0.348300  1.0  0.0938
  H  H24  1  0.632900  0.280900  0.291700  1.0  0.0843
  H  H25  1  0.011700  0.270000  0.438300  1.0  0.0931
  H  H26  1  0.949900  0.396600  0.492900  1.0  0.0917
  H  H27  1  0.565500  0.691300  0.329000  1.0  0.1106
  H  H28  1  0.402900  0.786900  0.266200  1.0  0.0991
  H  H29  1  0.234600  0.843000  0.432200  1.0  0.102
  H  H30  1  0.390100  0.744100  0.493800  1.0  0.0992
  H  H31  1  0.257200  0.065100  0.033000  1.0  0.118
  H  H32  1  0.499800  0.253100  0.948600  1.0  0.1169
  H  H33  1  0.467000  0.284600  0.146800  1.0  0.1165
  H  H34  1  0.111000  0.076800  0.893200  1.0  0.0856
  H  H35  1  0.412800  0.014600  0.785900  1.0  0.0895
  H  H36  1  0.555500  0.089700  0.893100  1.0  0.1176
  H  H37  1  0.760800  0.324800  0.006400  1.0  0.0844
  H  H38  1  0.714800  0.559800  0.087800  1.0  0.0988
  H  H39  1  0.501200  0.458800  0.105300  1.0  0.1221
  H  H40  1  0.075900  0.102200  0.122000  1.0  0.0907
  H  H41  1  0.322500  0.094900  0.308600  1.0  0.0918
  H  H42  1  0.494000  0.153200  0.237000  1.0  0.1235
  H  H43  1  0.261100  0.536600  0.223400  1.0  0.0988
  H  H44  1  0.312500  0.543600  0.341700  1.0  0.0818
  H  H45  1  0.192600  0.279100  0.342500  1.0  0.0922
  H  H46  1  0.135500  0.272300  0.224200  1.0  0.0807
  H  H47  1  0.203600  0.539400  0.441200  1.0  0.0976
  H  H48  1  0.385200  0.439900  0.622700  1.0  0.097
  H  H49  1  0.392000  0.301600  0.447200  1.0  0.1031
  H  H50  1  0.433900  0.596400  0.651700  1.0  0.0941
  H  H51  1  0.367100  0.719100  0.708300  1.0  0.0839
  H  H52  1  0.988300  0.730000  0.561700  1.0  0.0928
  H  H53  1  0.050100  0.603400  0.507100  1.0  0.0917
  H  H54  1  0.434500  0.308700  0.671000  1.0  0.1106
  H  H55  1  0.597100  0.213100  0.733800  1.0  0.0991
  H  H56  1  0.765400  0.157000  0.567800  1.0  0.1015
  H  H57  1  0.609900  0.255900  0.506200  1.0  0.1001
  C  C58  1  0.683100  0.880600  0.963250  1.0  -0.2088
  C  C59  1  0.626500  0.848200  0.018760  1.0  0.1702
  C  C60  1  0.536600  0.767800  0.013640  1.0  -0.2323
  C  C61  1  0.501900  0.718900  0.951030  1.0  0.147
  C  C62  1  0.556500  0.748600  0.894930  1.0  -0.2351
  C  C63  1  0.647200  0.829000  0.902270  1.0  0.1611
  C  C64  1  0.796700  0.929400  0.120410  1.0  0.1324
  C  C65  1  0.630100  0.963200  0.178700  1.0  0.0155
  C  C66  1  0.550300  0.921700  0.119800  1.0  -0.1374
  C  C67  1  0.276800  0.628600  0.971120  1.0  0.131
  C  C68  1  0.302500  0.500800  0.926500  1.0  -0.0074
  C  C69  1  0.421100  0.555900  0.916900  1.0  -0.1197
  C  C70  1  0.841900  0.892500  0.840380  1.0  0.1347
  C  C71  1  0.705500  0.896000  0.738320  1.0  0.0152
  C  C72  1  0.609800  0.864100  0.777420  1.0  -0.1611
  C  C73  1  0.857800  0.600400  0.866870  1.0  0.7288
  C  C74  1  0.810900  0.596100  0.789440  1.0  -0.1291
  C  C75  1  0.754900  0.515100  0.752880  1.0  -0.056
  C  C76  1  0.723200  0.511100  0.681890  1.0  -0.1169
  C  C77  1  0.743700  0.587500  0.644820  1.0  0.0341
  C  C78  1  0.795400  0.668800  0.681240  1.0  -0.1222
  C  C79  1  0.829100  0.672900  0.752320  1.0  -0.0188
  C  C80  1  0.708700  0.580800  0.568130  1.0  0.0255
  C  C81  1  0.746500  0.505700  0.533530  1.0  -0.1025
  C  C82  1  0.711400  0.496600  0.462100  1.0  -0.0419
  C  C83  1  0.636300  0.564700  0.425210  1.0  -0.1059
  C  C84  1  0.592400  0.639500  0.458370  1.0  0.026
  C  C85  1  0.632500  0.647600  0.530030  1.0  -0.1122
  C  C86  1  0.751700  0.415200  0.426840  1.0  0.0364
  C  C87  1  0.657100  0.377800  0.366250  1.0  -0.1321
  C  C88  1  0.696500  0.303400  0.332690  1.0  -0.026
  C  C89  1  0.828500  0.261400  0.358690  1.0  -0.1001
  C  C90  1  0.922600  0.297300  0.419610  1.0  -0.0654
  C  C91  1  0.884800  0.373200  0.452600  1.0  -0.1114
  C  C92  1  0.870200  0.179200  0.322100  1.0  0.6881
  C  C93  1  0.496300  0.706500  0.418820  1.0  0.0158
  C  C94  1  0.497900  0.721000  0.350100  1.0  -0.1445
  C  C95  1  0.400600  0.779100  0.312260  1.0  -0.0787
  C  C96  1  0.300300  0.825600  0.342220  1.0  -0.1444
  C  C97  1  0.299900  0.811900  0.410800  1.0  -0.0548
  C  C98  1  0.394700  0.752900  0.448030  1.0  -0.1248
  C  C99  1  0.186300  0.885000  0.301900  1.0  0.7459
  C  C100  1  0.316900  0.119400  0.036750  1.0  -0.2112
  C  C101  1  0.373500  0.151800  0.981240  1.0  0.1702
  C  C102  1  0.463400  0.232200  0.986360  1.0  -0.23
  C  C103  1  0.498100  0.281100  0.048970  1.0  0.1466
  C  C104  1  0.443500  0.251400  0.105070  1.0  -0.2343
  C  C105  1  0.352800  0.171000  0.097730  1.0  0.1603
  C  C106  1  0.203300  0.070600  0.879590  1.0  0.1301
  C  C107  1  0.369900  0.036800  0.821300  1.0  0.0144
  C  C108  1  0.449700  0.078300  0.880200  1.0  -0.137
  C  C109  1  0.723200  0.371400  0.028880  1.0  0.1331
  C  C110  1  0.697500  0.499200  0.073500  1.0  -0.0056
  C  C111  1  0.578900  0.444100  0.083100  1.0  -0.1204
  C  C112  1  0.158100  0.107500  0.159620  1.0  0.1319
  C  C113  1  0.294500  0.104000  0.261680  1.0  0.0152
  C  C114  1  0.390200  0.135900  0.222580  1.0  -0.1612
  C  C115  1  0.142200  0.399600  0.133130  1.0  0.7302
  C  C116  1  0.189100  0.403900  0.210560  1.0  -0.1292
  C  C117  1  0.245100  0.484900  0.247120  1.0  -0.0566
  C  C118  1  0.276800  0.488900  0.318110  1.0  -0.1175
  C  C119  1  0.256300  0.412500  0.355180  1.0  0.0331
  C  C120  1  0.204600  0.331200  0.318760  1.0  -0.1226
  C  C121  1  0.170900  0.327100  0.247680  1.0  -0.0183
  C  C122  1  0.291300  0.419200  0.431870  1.0  0.0249
  C  C123  1  0.253500  0.494300  0.466470  1.0  -0.102
  C  C124  1  0.288600  0.503400  0.537900  1.0  -0.0418
  C  C125  1  0.363700  0.435300  0.574790  1.0  -0.1032
  C  C126  1  0.407600  0.360500  0.541630  1.0  0.0253
  C  C127  1  0.367500  0.352400  0.469970  1.0  -0.1106
  C  C128  1  0.248300  0.584800  0.573160  1.0  0.0355
  C  C129  1  0.342900  0.622200  0.633750  1.0  -0.1318
  C  C130  1  0.303500  0.696600  0.667310  1.0  -0.0261
  C  C131  1  0.171500  0.738600  0.641310  1.0  -0.0996
  C  C132  1  0.077400  0.702700  0.580390  1.0  -0.0638
  C  C133  1  0.115200  0.626800  0.547400  1.0  -0.1104
  C  C134  1  0.129800  0.820800  0.677900  1.0  0.6884
  C  C135  1  0.503700  0.293500  0.581180  1.0  0.017
  C  C136  1  0.502100  0.279000  0.649900  1.0  -0.1415
  C  C137  1  0.599400  0.220900  0.687740  1.0  -0.0769
  C  C138  1  0.699700  0.174400  0.657780  1.0  -0.1453
  C  C139  1  0.700100  0.188100  0.589200  1.0  -0.0562
  C  C140  1  0.605300  0.247100  0.551970  1.0  -0.124
  C  C141  1  0.813700  0.115000  0.698100  1.0  0.7442
  N  N142  1  0.784500  0.968000  0.178910  1.0  -0.3592
  N  N143  1  0.658000  0.899400  0.082370  1.0  0.0271
  N  N144  1  0.211100  0.547000  0.960440  1.0  -0.3699
  N  N145  1  0.404200  0.637800  0.946160  1.0  0.0479
  N  N146  1  0.850900  0.913390  0.777850  1.0  -0.3654
  N  N147  1  0.697100  0.862100  0.843310  1.0  0.0331
  N  N148  1  0.215500  0.032000  0.821090  1.0  -0.3618
  N  N149  1  0.342000  0.100600  0.917630  1.0  0.0272
  N  N150  1  0.788900  0.453000  0.039560  1.0  -0.3715
  N  N151  1  0.595800  0.362200  0.053840  1.0  0.049
  N  N152  1  0.149100  0.086610  0.222150  1.0  -0.3646
  N  N153  1  0.302900  0.137900  0.156690  1.0  0.0328
  O  O154  1  0.839800  0.526990  0.896700  1.0  -0.6267
  O  O155  1  0.914900  0.673610  0.896700  1.0  -0.5643
  O  O156  1  0.981100  0.138190  0.352190  1.0  -0.5944
  O  O157  1  0.792200  0.155180  0.263640  1.0  -0.659
  O  O158  1  0.149000  0.874430  0.238420  1.0  -0.4903
  O  O159  1  0.133600  0.942240  0.336490  1.0  -0.6378
  O  O160  1  0.160200  0.473010  0.103300  1.0  -0.6281
  O  O161  1  0.085100  0.326390  0.103300  1.0  -0.5653
  O  O162  1  0.018900  0.861810  0.647810  1.0  -0.5922
  O  O163  1  0.207800  0.844820  0.736360  1.0  -0.6592
  O  O164  1  0.851000  0.125570  0.761580  1.0  -0.4907
  O  O165  1  0.866400  0.057760  0.663510  1.0  -0.6382
