# generated using pymatgen
data_Nd2(CO2)7
_symmetry_space_group_name_H-M   'P 1'
_cell_length_a   10.03500000
_cell_length_b   21.20400000
_cell_length_c   11.11500000
_cell_angle_alpha   90.00000000
_cell_angle_beta   92.45300000
_cell_angle_gamma   90.00000000
_symmetry_Int_Tables_number   1
_chemical_formula_structural   Nd2(CO2)7
_chemical_formula_sum   'Nd8 C28 O56'
_cell_volume   2362.90629036
_cell_formula_units_Z   4
loop_
 _symmetry_equiv_pos_site_id
 _symmetry_equiv_pos_as_xyz
  1  'x, y, z'
loop_
 _atom_site_type_symbol
 _atom_site_label
 _atom_site_symmetry_multiplicity
 _atom_site_fract_x
 _atom_site_fract_y
 _atom_site_fract_z
 _atom_site_occupancy
 _atom_site_charge
  Nd  Nd1  1  0.567690  0.095460  0.940230  1.0  2.1994
  Nd  Nd2  1  0.078360  0.105150  0.306400  1.0  2.1605
  Nd  Nd3  1  0.932310  0.595460  0.559770  1.0  2.2021
  Nd  Nd4  1  0.421640  0.605150  0.193600  1.0  2.1595
  Nd  Nd5  1  0.432310  0.904540  0.059770  1.0  2.2017
  Nd  Nd6  1  0.921640  0.894840  0.693600  1.0  2.1593
  Nd  Nd7  1  0.067690  0.404540  0.440230  1.0  2.1996
  Nd  Nd8  1  0.578360  0.394850  0.806400  1.0  2.1606
  C  C9  1  0.326100  0.129500  0.122700  1.0  0.5754
  C  C10  1  0.315100  0.056610  0.125000  1.0  0.6117
  C  C11  1  0.869100  0.091620  0.069200  1.0  0.5715
  C  C12  1  0.777200  0.090270  0.176800  1.0  0.5584
  C  C13  1  0.619900  0.250570  0.926000  1.0  0.5717
  C  C14  1  0.523500  0.239370  0.816400  1.0  0.5587
  C  C15  1  0.011300  0.973380  0.452400  1.0  0.5793
  C  C16  1  0.173900  0.629500  0.377300  1.0  0.5756
  C  C17  1  0.184900  0.556610  0.375000  1.0  0.6112
  C  C18  1  0.630900  0.591620  0.430800  1.0  0.5722
  C  C19  1  0.722800  0.590270  0.323200  1.0  0.5591
  C  C20  1  0.880100  0.750570  0.574000  1.0  0.5715
  C  C21  1  0.976500  0.739370  0.683600  1.0  0.5591
  C  C22  1  0.488700  0.473380  0.047600  1.0  0.5797
  C  C23  1  0.673900  0.870500  0.877300  1.0  0.5761
  C  C24  1  0.684900  0.943390  0.875000  1.0  0.6113
  C  C25  1  0.130900  0.908380  0.930800  1.0  0.5724
  C  C26  1  0.222800  0.909730  0.823200  1.0  0.5591
  C  C27  1  0.380100  0.749430  0.074000  1.0  0.571
  C  C28  1  0.476500  0.760630  0.183600  1.0  0.5588
  C  C29  1  0.988700  0.026620  0.547600  1.0  0.5791
  C  C30  1  0.826100  0.370500  0.622700  1.0  0.5758
  C  C31  1  0.815100  0.443390  0.625000  1.0  0.6115
  C  C32  1  0.369100  0.408380  0.569200  1.0  0.5716
  C  C33  1  0.277200  0.409730  0.676800  1.0  0.5582
  C  C34  1  0.119900  0.249430  0.426000  1.0  0.5716
  C  C35  1  0.023500  0.260630  0.316400  1.0  0.5589
  C  C36  1  0.511300  0.526620  0.952400  1.0  0.5804
  O  O37  1  0.403900  0.153740  0.050500  1.0  -0.6542
  O  O38  1  0.254300  0.159100  0.192600  1.0  -0.6087
  O  O39  1  0.398300  0.025980  0.063900  1.0  -0.7547
  O  O40  1  0.227900  0.034290  0.188100  1.0  -0.5758
  O  O41  1  0.814800  0.088510  0.966800  1.0  -0.5846
  O  O42  1  0.992600  0.096330  0.093100  1.0  -0.5671
  O  O43  1  0.654400  0.086520  0.151800  1.0  -0.5604
  O  O44  1  0.832300  0.092440  0.280400  1.0  -0.5686
  O  O45  1  0.663600  0.203150  0.982700  1.0  -0.5634
  O  O46  1  0.649100  0.307400  0.948900  1.0  -0.5945
  O  O47  1  0.494300  0.182580  0.794600  1.0  -0.599
  O  O48  1  0.481600  0.286720  0.759900  1.0  -0.5579
  O  O49  1  0.035700  0.991110  0.348400  1.0  -0.5986
  O  O50  1  0.004100  0.917510  0.488600  1.0  -0.6021
  O  O51  1  0.096100  0.653740  0.449500  1.0  -0.6504
  O  O52  1  0.245700  0.659100  0.307400  1.0  -0.6107
  O  O53  1  0.101700  0.525980  0.436100  1.0  -0.7533
  O  O54  1  0.272100  0.534290  0.311900  1.0  -0.5793
  O  O55  1  0.685200  0.588510  0.533200  1.0  -0.5859
  O  O56  1  0.507400  0.596330  0.406900  1.0  -0.5604
  O  O57  1  0.845600  0.586520  0.348200  1.0  -0.5603
  O  O58  1  0.667700  0.592440  0.219600  1.0  -0.5705
  O  O59  1  0.836400  0.703150  0.517300  1.0  -0.5635
  O  O60  1  0.850900  0.807400  0.551100  1.0  -0.5927
  O  O61  1  0.005700  0.682580  0.705400  1.0  -0.5977
  O  O62  1  0.018400  0.786720  0.740100  1.0  -0.5585
  O  O63  1  0.464300  0.491110  0.151600  1.0  -0.5995
  O  O64  1  0.495900  0.417510  0.011400  1.0  -0.6032
  O  O65  1  0.596100  0.846260  0.949500  1.0  -0.6494
  O  O66  1  0.745700  0.840900  0.807400  1.0  -0.6095
  O  O67  1  0.601700  0.974020  0.936100  1.0  -0.7505
  O  O68  1  0.772100  0.965710  0.811900  1.0  -0.5795
  O  O69  1  0.185200  0.911490  0.033200  1.0  -0.5857
  O  O70  1  0.007400  0.903670  0.906900  1.0  -0.56
  O  O71  1  0.345600  0.913480  0.848200  1.0  -0.5603
  O  O72  1  0.167700  0.907560  0.719600  1.0  -0.5733
  O  O73  1  0.336400  0.796850  0.017300  1.0  -0.5671
  O  O74  1  0.350900  0.692600  0.051100  1.0  -0.5912
  O  O75  1  0.505700  0.817420  0.205400  1.0  -0.5983
  O  O76  1  0.518400  0.713280  0.240100  1.0  -0.5556
  O  O77  1  0.964300  0.008890  0.651600  1.0  -0.6011
  O  O78  1  0.995900  0.082490  0.511400  1.0  -0.6042
  O  O79  1  0.903900  0.346260  0.550500  1.0  -0.6509
  O  O80  1  0.754300  0.340900  0.692600  1.0  -0.6075
  O  O81  1  0.898300  0.474020  0.563900  1.0  -0.7555
  O  O82  1  0.727900  0.465710  0.688100  1.0  -0.5761
  O  O83  1  0.314800  0.411490  0.466800  1.0  -0.5847
  O  O84  1  0.492600  0.403670  0.593100  1.0  -0.5653
  O  O85  1  0.154400  0.413480  0.651800  1.0  -0.561
  O  O86  1  0.332300  0.407560  0.780400  1.0  -0.5695
  O  O87  1  0.163600  0.296850  0.482700  1.0  -0.5664
  O  O88  1  0.149100  0.192600  0.448900  1.0  -0.5929
  O  O89  1  0.994300  0.317420  0.294600  1.0  -0.5987
  O  O90  1  0.981600  0.213280  0.259900  1.0  -0.5579
  O  O91  1  0.535700  0.508890  0.848400  1.0  -0.6009
  O  O92  1  0.504100  0.582490  0.988600  1.0  -0.6048
