# generated using pymatgen
data_Nd(CO2)4
_symmetry_space_group_name_H-M   'P 1'
_cell_length_a   14.18400000
_cell_length_b   11.51500000
_cell_length_c   15.61900000
_cell_angle_alpha   90.00000000
_cell_angle_beta   106.63300000
_cell_angle_gamma   90.00000000
_symmetry_Int_Tables_number   1
_chemical_formula_structural   Nd(CO2)4
_chemical_formula_sum   'Nd8 C32 O64'
_cell_volume   2444.29129608
_cell_formula_units_Z   8
loop_
 _symmetry_equiv_pos_site_id
 _symmetry_equiv_pos_as_xyz
  1  'x, y, z'
loop_
 _atom_site_type_symbol
 _atom_site_label
 _atom_site_symmetry_multiplicity
 _atom_site_fract_x
 _atom_site_fract_y
 _atom_site_fract_z
 _atom_site_occupancy
 _atom_site_charge
  Nd  Nd1  1  0.324550  0.357170  0.339830  1.0  2.2434
  Nd  Nd2  1  0.824550  0.857170  0.339830  1.0  2.2434
  Nd  Nd3  1  0.675450  0.357170  0.160170  1.0  2.2438
  Nd  Nd4  1  0.175450  0.857170  0.160170  1.0  2.2438
  Nd  Nd5  1  0.675450  0.642830  0.660170  1.0  2.2433
  Nd  Nd6  1  0.175450  0.142830  0.660170  1.0  2.2433
  Nd  Nd7  1  0.324550  0.642830  0.839830  1.0  2.2427
  Nd  Nd8  1  0.824550  0.142830  0.839830  1.0  2.2427
  C  C9  1  0.207450  0.134400  0.221880  1.0  0.592
  C  C10  1  0.311860  0.083700  0.262030  1.0  0.5773
  C  C11  1  0.297290  0.211200  0.514240  1.0  0.5774
  C  C12  1  0.537950  0.364800  0.297780  1.0  0.5659
  C  C13  1  0.707450  0.634400  0.221880  1.0  0.592
  C  C14  1  0.811860  0.583700  0.262030  1.0  0.5773
  C  C15  1  0.797290  0.711200  0.514240  1.0  0.5774
  C  C16  1  0.037950  0.864800  0.297780  1.0  0.5659
  C  C17  1  0.792550  0.134400  0.278120  1.0  0.5927
  C  C18  1  0.688140  0.083700  0.237970  1.0  0.5767
  C  C19  1  0.702710  0.211200  0.985760  1.0  0.5778
  C  C20  1  0.462050  0.364800  0.202220  1.0  0.5654
  C  C21  1  0.292550  0.634400  0.278120  1.0  0.5927
  C  C22  1  0.188140  0.583700  0.237970  1.0  0.5767
  C  C23  1  0.202710  0.711200  0.985760  1.0  0.5778
  C  C24  1  0.962050  0.864800  0.202220  1.0  0.5654
  C  C25  1  0.792550  0.865600  0.778120  1.0  0.5926
  C  C26  1  0.688140  0.916300  0.737970  1.0  0.5766
  C  C27  1  0.702710  0.788800  0.485760  1.0  0.5778
  C  C28  1  0.462050  0.635200  0.702220  1.0  0.5655
  C  C29  1  0.292550  0.365600  0.778120  1.0  0.5926
  C  C30  1  0.188140  0.416300  0.737970  1.0  0.5766
  C  C31  1  0.202710  0.288800  0.485760  1.0  0.5778
  C  C32  1  0.962050  0.135200  0.702220  1.0  0.5655
  C  C33  1  0.207450  0.865600  0.721880  1.0  0.5917
  C  C34  1  0.311860  0.916300  0.762030  1.0  0.5772
  C  C35  1  0.297290  0.788800  0.014240  1.0  0.5772
  C  C36  1  0.537950  0.635200  0.797780  1.0  0.5662
  C  C37  1  0.707450  0.365600  0.721880  1.0  0.5917
  C  C38  1  0.811860  0.416300  0.762030  1.0  0.5772
  C  C39  1  0.797290  0.288800  0.014240  1.0  0.5772
  C  C40  1  0.037950  0.135200  0.797780  1.0  0.5662
  O  O41  1  0.195150  0.239820  0.236000  1.0  -0.596
  O  O42  1  0.142890  0.066770  0.176520  1.0  -0.6059
  O  O43  1  0.321720  0.977950  0.245620  1.0  -0.5492
  O  O44  1  0.376530  0.150730  0.306940  1.0  -0.5455
  O  O45  1  0.356740  0.220680  0.468630  1.0  -0.5644
  O  O46  1  0.305420  0.146090  0.580190  1.0  -0.5768
  O  O47  1  0.503470  0.364810  0.363260  1.0  -0.5712
  O  O48  1  0.627570  0.365990  0.300230  1.0  -0.5475
  O  O49  1  0.695150  0.739820  0.236000  1.0  -0.5949
  O  O50  1  0.642890  0.566770  0.176520  1.0  -0.6058
  O  O51  1  0.821720  0.477950  0.245620  1.0  -0.5492
  O  O52  1  0.876530  0.650730  0.306940  1.0  -0.5455
  O  O53  1  0.856740  0.720680  0.468630  1.0  -0.5644
  O  O54  1  0.805420  0.646090  0.580190  1.0  -0.5768
  O  O55  1  0.003470  0.864810  0.363260  1.0  -0.5712
  O  O56  1  0.127570  0.865990  0.300230  1.0  -0.5475
  O  O57  1  0.804850  0.239820  0.264000  1.0  -0.5939
  O  O58  1  0.857110  0.066770  0.323480  1.0  -0.6064
  O  O59  1  0.678280  0.977950  0.254380  1.0  -0.5508
  O  O60  1  0.623470  0.150730  0.193060  1.0  -0.545
  O  O61  1  0.643260  0.220680  0.031370  1.0  -0.5645
  O  O62  1  0.694580  0.146090  0.919810  1.0  -0.5787
  O  O63  1  0.496530  0.364810  0.136740  1.0  -0.5706
  O  O64  1  0.372430  0.365990  0.199770  1.0  -0.5462
  O  O65  1  0.304850  0.739820  0.264000  1.0  -0.5941
  O  O66  1  0.357110  0.566770  0.323480  1.0  -0.6064
  O  O67  1  0.178280  0.477950  0.254380  1.0  -0.5508
  O  O68  1  0.123470  0.650730  0.193060  1.0  -0.545
  O  O69  1  0.143260  0.720680  0.031370  1.0  -0.5645
  O  O70  1  0.194580  0.646090  0.919810  1.0  -0.5787
  O  O71  1  0.996530  0.864810  0.136740  1.0  -0.5704
  O  O72  1  0.872430  0.865990  0.199770  1.0  -0.5455
  O  O73  1  0.804850  0.760180  0.764000  1.0  -0.5941
  O  O74  1  0.857110  0.933230  0.823480  1.0  -0.6057
  O  O75  1  0.678280  0.022050  0.754380  1.0  -0.5509
  O  O76  1  0.623470  0.849270  0.693060  1.0  -0.5453
  O  O77  1  0.643260  0.779320  0.531370  1.0  -0.5647
  O  O78  1  0.694580  0.853910  0.419810  1.0  -0.5785
  O  O79  1  0.496530  0.635190  0.636740  1.0  -0.5706
  O  O80  1  0.372430  0.634010  0.699770  1.0  -0.5464
  O  O81  1  0.304850  0.260180  0.764000  1.0  -0.5946
  O  O82  1  0.357110  0.433230  0.823480  1.0  -0.6057
  O  O83  1  0.178280  0.522050  0.754380  1.0  -0.5509
  O  O84  1  0.123470  0.349270  0.693060  1.0  -0.5453
  O  O85  1  0.143260  0.279320  0.531370  1.0  -0.5647
  O  O86  1  0.194580  0.353910  0.419810  1.0  -0.5785
  O  O87  1  0.996530  0.135190  0.636740  1.0  -0.5706
  O  O88  1  0.872430  0.134010  0.699770  1.0  -0.5464
  O  O89  1  0.195150  0.760180  0.736000  1.0  -0.5956
  O  O90  1  0.142890  0.933230  0.676520  1.0  -0.6059
  O  O91  1  0.321720  0.022050  0.745620  1.0  -0.5485
  O  O92  1  0.376530  0.849270  0.806940  1.0  -0.5471
  O  O93  1  0.356740  0.779320  0.968630  1.0  -0.5642
  O  O94  1  0.305420  0.853910  0.080190  1.0  -0.5768
  O  O95  1  0.503470  0.635190  0.863260  1.0  -0.571
  O  O96  1  0.627570  0.634010  0.800230  1.0  -0.5472
  O  O97  1  0.695150  0.260180  0.736000  1.0  -0.5944
  O  O98  1  0.642890  0.433230  0.676520  1.0  -0.6057
  O  O99  1  0.821720  0.522050  0.745620  1.0  -0.5485
  O  O100  1  0.876530  0.349270  0.806940  1.0  -0.5471
  O  O101  1  0.856740  0.279320  0.968630  1.0  -0.5642
  O  O102  1  0.805420  0.353910  0.080190  1.0  -0.5768
  O  O103  1  0.003470  0.135190  0.863260  1.0  -0.5709
  O  O104  1  0.127570  0.134010  0.800230  1.0  -0.5464
