# generated using pymatgen
data_Yb(CO2)4
_symmetry_space_group_name_H-M   'P 1'
_cell_length_a   8.44100000
_cell_length_b   8.44100000
_cell_length_c   17.50000000
_cell_angle_alpha   90.00000000
_cell_angle_beta   90.00000000
_cell_angle_gamma   90.00000000
_symmetry_Int_Tables_number   1
_chemical_formula_structural   Yb(CO2)4
_chemical_formula_sum   'Yb4 C16 O32'
_cell_volume   1246.88341750
_cell_formula_units_Z   4
loop_
 _symmetry_equiv_pos_site_id
 _symmetry_equiv_pos_as_xyz
  1  'x, y, z'
loop_
 _atom_site_type_symbol
 _atom_site_label
 _atom_site_symmetry_multiplicity
 _atom_site_fract_x
 _atom_site_fract_y
 _atom_site_fract_z
 _atom_site_occupancy
 _atom_site_charge
  Yb  Yb1  1  0.000000  0.250000  0.125000  1.0  1.129
  Yb  Yb2  1  0.500000  0.750000  0.625000  1.0  1.129
  Yb  Yb3  1  0.500000  0.250000  0.375000  1.0  1.129
  Yb  Yb4  1  0.000000  0.750000  0.875000  1.0  1.129
  C  C5  1  0.077200  0.034100  0.982880  1.0  0.6063
  C  C6  1  0.577200  0.534100  0.482880  1.0  0.6063
  C  C7  1  0.422800  0.965900  0.482880  1.0  0.605
  C  C8  1  0.922800  0.465900  0.982880  1.0  0.605
  C  C9  1  0.715900  0.327200  0.232880  1.0  0.6018
  C  C10  1  0.215900  0.827200  0.732880  1.0  0.6018
  C  C11  1  0.784100  0.672800  0.732880  1.0  0.6033
  C  C12  1  0.284100  0.172800  0.232880  1.0  0.6033
  C  C13  1  0.922800  0.965900  0.017120  1.0  0.6058
  C  C14  1  0.422800  0.465900  0.517120  1.0  0.6058
  C  C15  1  0.577200  0.034100  0.517120  1.0  0.6073
  C  C16  1  0.077200  0.534100  0.017120  1.0  0.6073
  C  C17  1  0.284100  0.672800  0.767120  1.0  0.6045
  C  C18  1  0.784100  0.172800  0.267120  1.0  0.6045
  C  C19  1  0.215900  0.327200  0.267120  1.0  0.602
  C  C20  1  0.715900  0.827200  0.767120  1.0  0.602
  O  O21  1  0.138600  0.147900  0.017360  1.0  -0.4304
  O  O22  1  0.126500  0.970300  0.922630  1.0  -0.4568
  O  O23  1  0.638600  0.647900  0.517360  1.0  -0.4304
  O  O24  1  0.626500  0.470300  0.422630  1.0  -0.4568
  O  O25  1  0.361400  0.852100  0.517360  1.0  -0.4298
  O  O26  1  0.373500  0.029700  0.422630  1.0  -0.4578
  O  O27  1  0.861400  0.352100  0.017360  1.0  -0.4298
  O  O28  1  0.873500  0.529700  0.922630  1.0  -0.4578
  O  O29  1  0.602100  0.388600  0.267360  1.0  -0.4232
  O  O30  1  0.779700  0.376500  0.172630  1.0  -0.4595
  O  O31  1  0.102100  0.888600  0.767360  1.0  -0.4232
  O  O32  1  0.279700  0.876500  0.672630  1.0  -0.4595
  O  O33  1  0.897900  0.611400  0.767360  1.0  -0.4242
  O  O34  1  0.720300  0.623500  0.672630  1.0  -0.462
  O  O35  1  0.397900  0.111400  0.267360  1.0  -0.4242
  O  O36  1  0.220300  0.123500  0.172630  1.0  -0.462
  O  O37  1  0.861400  0.852100  0.982640  1.0  -0.4297
  O  O38  1  0.873500  0.029700  0.077370  1.0  -0.4586
  O  O39  1  0.361400  0.352100  0.482640  1.0  -0.4297
  O  O40  1  0.373500  0.529700  0.577370  1.0  -0.4586
  O  O41  1  0.638600  0.147900  0.482640  1.0  -0.4302
  O  O42  1  0.626500  0.970300  0.577370  1.0  -0.4592
  O  O43  1  0.138600  0.647900  0.982640  1.0  -0.4302
  O  O44  1  0.126500  0.470300  0.077370  1.0  -0.4592
  O  O45  1  0.397900  0.611400  0.732640  1.0  -0.4249
  O  O46  1  0.220300  0.623500  0.827370  1.0  -0.4625
  O  O47  1  0.897900  0.111400  0.232640  1.0  -0.4249
  O  O48  1  0.720300  0.123500  0.327370  1.0  -0.4625
  O  O49  1  0.102100  0.388600  0.232640  1.0  -0.4235
  O  O50  1  0.279700  0.376500  0.327370  1.0  -0.4616
  O  O51  1  0.602100  0.888600  0.732640  1.0  -0.4235
  O  O52  1  0.779700  0.876500  0.827370  1.0  -0.4616
