# generated using pymatgen
data_EuH12(C5O2)3
_symmetry_space_group_name_H-M   'P 1'
_cell_length_a   10.16500000
_cell_length_b   22.00500000
_cell_length_c   14.14400000
_cell_angle_alpha   91.55000000
_cell_angle_beta   90.00000000
_cell_angle_gamma   90.00000000
_symmetry_Int_Tables_number   1
_chemical_formula_structural   EuH12(C5O2)3
_chemical_formula_sum   'Eu8 H96 C120 O48'
_cell_volume   3162.58397778
_cell_formula_units_Z   8
loop_
 _symmetry_equiv_pos_site_id
 _symmetry_equiv_pos_as_xyz
  1  'x, y, z'
loop_
 _atom_site_type_symbol
 _atom_site_label
 _atom_site_symmetry_multiplicity
 _atom_site_fract_x
 _atom_site_fract_y
 _atom_site_fract_z
 _atom_site_occupancy
 _atom_site_charge
  Eu  Eu1  1  0.749400  0.249400  0.025110  1.0  2.1621
  Eu  Eu2  1  0.557800  0.259400  0.767370  1.0  2.1619
  Eu  Eu3  1  0.249400  0.750600  0.474890  1.0  2.1615
  Eu  Eu4  1  0.057800  0.740600  0.732630  1.0  2.1619
  Eu  Eu5  1  0.250600  0.750600  0.974890  1.0  2.1616
  Eu  Eu6  1  0.442200  0.740600  0.232630  1.0  2.1608
  Eu  Eu7  1  0.750600  0.249400  0.525110  1.0  2.1622
  Eu  Eu8  1  0.942200  0.259400  0.267370  1.0  2.1609
  H  H9  1  0.684700  0.084300  0.945000  1.0  0.1559
  H  H10  1  0.543600  0.094400  0.986500  1.0  0.1494
  H  H11  1  0.726800  0.992900  0.863400  1.0  0.0979
  H  H12  1  0.659600  0.903100  0.790100  1.0  0.1075
  H  H13  1  0.286600  0.956400  0.812800  1.0  0.104
  H  H14  1  0.353200  0.046800  0.883700  1.0  0.106
  H  H15  1  0.492900  0.842400  0.712000  1.0  0.1429
  H  H16  1  0.352300  0.870400  0.699400  1.0  0.1307
  H  H17  1  0.876400  0.341200  0.722200  1.0  0.1292
  H  H18  1  0.011200  0.314800  0.756900  1.0  0.1421
  H  H19  1  0.172400  0.385700  0.813900  1.0  0.1184
  H  H20  1  0.231300  0.481200  0.870700  1.0  0.0963
  H  H21  1  0.857700  0.533500  0.869300  1.0  0.1058
  H  H22  1  0.796200  0.438400  0.812600  1.0  0.1119
  H  H23  1  0.039500  0.588000  0.970800  1.0  0.152
  H  H24  1  0.183700  0.575200  0.937300  1.0  0.1421
  H  H25  1  0.362900  0.373900  0.087200  1.0  0.1313
  H  H26  1  0.299200  0.378700  0.986500  1.0  0.1353
  H  H27  1  0.420300  0.472000  0.145300  1.0  0.0913
  H  H28  1  0.490400  0.433000  0.871800  1.0  0.1164
  H  H29  1  0.151600  0.132200  0.049900  1.0  0.1541
  H  H30  1  0.087100  0.115200  0.146200  1.0  0.1347
  H  H31  1  0.966400  0.022500  0.159200  1.0  0.0968
  H  H32  1  0.094900  0.071200  0.904200  1.0  0.1053
  H  H33  1  0.184700  0.915700  0.555000  1.0  0.1554
  H  H34  1  0.043600  0.905600  0.513500  1.0  0.1479
  H  H35  1  0.226800  0.007100  0.636600  1.0  0.0979
  H  H36  1  0.159600  0.096900  0.709900  1.0  0.1076
  H  H37  1  0.786600  0.043600  0.687200  1.0  0.1039
  H  H38  1  0.853200  0.953200  0.616300  1.0  0.1059
  H  H39  1  0.992900  0.157600  0.788000  1.0  0.1427
  H  H40  1  0.852300  0.129600  0.800600  1.0  0.1324
  H  H41  1  0.376400  0.658800  0.777800  1.0  0.1304
  H  H42  1  0.511200  0.685200  0.743100  1.0  0.1427
  H  H43  1  0.672400  0.614300  0.686100  1.0  0.1184
  H  H44  1  0.731300  0.518800  0.629300  1.0  0.0963
  H  H45  1  0.357700  0.466500  0.630700  1.0  0.1056
  H  H46  1  0.296200  0.561600  0.687400  1.0  0.112
  H  H47  1  0.539500  0.412000  0.529200  1.0  0.1501
  H  H48  1  0.683700  0.424800  0.562700  1.0  0.1421
  H  H49  1  0.862900  0.626100  0.412800  1.0  0.1314
  H  H50  1  0.799200  0.621300  0.513500  1.0  0.1346
  H  H51  1  0.920300  0.528000  0.354700  1.0  0.0921
  H  H52  1  0.990400  0.567000  0.628200  1.0  0.1162
  H  H53  1  0.651600  0.867800  0.450100  1.0  0.1533
  H  H54  1  0.587100  0.884800  0.353800  1.0  0.1348
  H  H55  1  0.466400  0.977500  0.340800  1.0  0.0975
  H  H56  1  0.594900  0.928800  0.595800  1.0  0.1055
  H  H57  1  0.315300  0.915700  0.055000  1.0  0.1543
  H  H58  1  0.456400  0.905600  0.013500  1.0  0.1473
  H  H59  1  0.273200  0.007100  0.136600  1.0  0.097
  H  H60  1  0.340400  0.096900  0.209900  1.0  0.1076
  H  H61  1  0.713400  0.043600  0.187200  1.0  0.104
  H  H62  1  0.646800  0.953200  0.116300  1.0  0.1063
  H  H63  1  0.507100  0.157600  0.288000  1.0  0.1436
  H  H64  1  0.647700  0.129600  0.300600  1.0  0.131
  H  H65  1  0.123600  0.658800  0.277800  1.0  0.1304
  H  H66  1  0.988800  0.685200  0.243100  1.0  0.1432
  H  H67  1  0.827600  0.614300  0.186100  1.0  0.118
  H  H68  1  0.768700  0.518800  0.129300  1.0  0.0959
  H  H69  1  0.142300  0.466500  0.130700  1.0  0.1063
  H  H70  1  0.203800  0.561600  0.187400  1.0  0.1116
  H  H71  1  0.960500  0.412000  0.029200  1.0  0.1492
  H  H72  1  0.816300  0.424800  0.062700  1.0  0.1432
  H  H73  1  0.637100  0.626100  0.912800  1.0  0.1311
  H  H74  1  0.700800  0.621300  0.013500  1.0  0.1332
  H  H75  1  0.579700  0.528000  0.854700  1.0  0.0921
  H  H76  1  0.509600  0.567000  0.128200  1.0  0.1159
  H  H77  1  0.848400  0.867800  0.950100  1.0  0.1547
  H  H78  1  0.912900  0.884800  0.853800  1.0  0.1347
  H  H79  1  0.033600  0.977500  0.840800  1.0  0.0972
  H  H80  1  0.905100  0.928800  0.095800  1.0  0.1052
  H  H81  1  0.815300  0.084300  0.445000  1.0  0.1548
  H  H82  1  0.956400  0.094400  0.486500  1.0  0.1487
  H  H83  1  0.773200  0.992900  0.363400  1.0  0.0974
  H  H84  1  0.840400  0.903100  0.290100  1.0  0.1067
  H  H85  1  0.213400  0.956400  0.312800  1.0  0.1042
  H  H86  1  0.146800  0.046800  0.383700  1.0  0.106
  H  H87  1  0.007100  0.842400  0.212000  1.0  0.1434
  H  H88  1  0.147700  0.870400  0.199400  1.0  0.1324
  H  H89  1  0.623600  0.341200  0.222200  1.0  0.1291
  H  H90  1  0.488800  0.314800  0.256900  1.0  0.1428
  H  H91  1  0.327600  0.385700  0.313900  1.0  0.117
  H  H92  1  0.268700  0.481200  0.370700  1.0  0.096
  H  H93  1  0.642300  0.533500  0.369300  1.0  0.1061
  H  H94  1  0.703800  0.438400  0.312600  1.0  0.1117
  H  H95  1  0.460500  0.588000  0.470800  1.0  0.1514
  H  H96  1  0.316300  0.575200  0.437300  1.0  0.1432
  H  H97  1  0.137100  0.373900  0.587200  1.0  0.1308
  H  H98  1  0.200800  0.378700  0.486500  1.0  0.1337
  H  H99  1  0.079700  0.472000  0.645300  1.0  0.0914
  H  H100  1  0.009600  0.433000  0.371800  1.0  0.1161
  H  H101  1  0.348400  0.132200  0.549900  1.0  0.1545
  H  H102  1  0.412900  0.115200  0.646200  1.0  0.1348
  H  H103  1  0.533600  0.022500  0.659200  1.0  0.0966
  H  H104  1  0.405100  0.071200  0.404200  1.0  0.1053
  C  C105  1  0.578200  0.145060  0.871000  1.0  0.8001
  C  C106  1  0.592700  0.088600  0.928100  1.0  -0.4004
  C  C107  1  0.547600  0.029950  0.880600  1.0  0.1205
  C  C108  1  0.637600  0.986100  0.852700  1.0  -0.1291
  C  C109  1  0.597100  0.931860  0.808800  1.0  -0.1292
  C  C110  1  0.466400  0.920310  0.792700  1.0  0.0918
  C  C111  1  0.375800  0.963700  0.822000  1.0  -0.1304
  C  C112  1  0.415800  0.018000  0.865100  1.0  -0.1073
  C  C113  1  0.419900  0.861400  0.745400  1.0  -0.3659
  C  C114  1  0.365600  0.817920  0.815700  1.0  0.7912
  C  C115  1  0.864600  0.307570  0.855900  1.0  0.7855
  C  C116  1  0.934800  0.338450  0.776200  1.0  -0.378
  C  C117  1  0.977200  0.401590  0.809100  1.0  0.0833
  C  C118  1  0.108100  0.415100  0.825400  1.0  -0.1606
  C  C119  1  0.143100  0.472700  0.859100  1.0  -0.1311
  C  C120  1  0.051400  0.517200  0.875700  1.0  0.0948
  C  C121  1  0.921500  0.503900  0.858400  1.0  -0.1188
  C  C122  1  0.884400  0.446600  0.824700  1.0  -0.1218
  C  C123  1  0.093400  0.578400  0.915800  1.0  -0.4038
  C  C124  1  0.084800  0.630720  0.849700  1.0  0.8153
  C  C125  1  0.472400  0.330120  0.983500  1.0  0.8426
  C  C126  1  0.381700  0.380270  0.020900  1.0  -0.3624
  C  C127  1  0.444200  0.442060  0.010400  1.0  0.106
  C  C128  1  0.452000  0.483100  0.086500  1.0  -0.1218
  C  C129  1  0.493800  0.459800  0.923600  1.0  -0.0946
  C  C130  1  0.964700  0.164770  0.064100  1.0  0.7854
  C  C131  1  0.071000  0.118370  0.078900  1.0  -0.3951
  C  C132  1  0.036800  0.056640  0.038300  1.0  0.1067
  C  C133  1  0.980000  0.013680  0.095200  1.0  -0.0957
  C  C134  1  0.056700  0.042590  0.942800  1.0  -0.0867
  C  C135  1  0.078200  0.854940  0.629000  1.0  0.7994
  C  C136  1  0.092700  0.911400  0.571900  1.0  -0.4008
  C  C137  1  0.047600  0.970050  0.619400  1.0  0.1212
  C  C138  1  0.137600  0.013900  0.647300  1.0  -0.1288
  C  C139  1  0.097100  0.068140  0.691200  1.0  -0.1308
  C  C140  1  0.966400  0.079690  0.707300  1.0  0.0921
  C  C141  1  0.875800  0.036300  0.678000  1.0  -0.1303
  C  C142  1  0.915800  0.982000  0.634900  1.0  -0.107
  C  C143  1  0.919900  0.138600  0.754600  1.0  -0.365
  C  C144  1  0.865600  0.182080  0.684300  1.0  0.7916
  C  C145  1  0.364600  0.692430  0.644100  1.0  0.7861
  C  C146  1  0.434800  0.661550  0.723800  1.0  -0.3784
  C  C147  1  0.477200  0.598410  0.690900  1.0  0.0838
  C  C148  1  0.608100  0.584900  0.674600  1.0  -0.1614
  C  C149  1  0.643100  0.527300  0.640900  1.0  -0.1311
  C  C150  1  0.551400  0.482800  0.624300  1.0  0.0952
  C  C151  1  0.421500  0.496100  0.641600  1.0  -0.1182
  C  C152  1  0.384400  0.553400  0.675300  1.0  -0.1215
  C  C153  1  0.593400  0.421600  0.584200  1.0  -0.4017
  C  C154  1  0.584800  0.369280  0.650300  1.0  0.8135
  C  C155  1  0.972400  0.669880  0.516500  1.0  0.8428
  C  C156  1  0.881700  0.619730  0.479100  1.0  -0.3633
  C  C157  1  0.944200  0.557940  0.489600  1.0  0.1056
  C  C158  1  0.952000  0.516900  0.413500  1.0  -0.1215
  C  C159  1  0.993800  0.540200  0.576400  1.0  -0.0943
  C  C160  1  0.464700  0.835230  0.435900  1.0  0.7865
  C  C161  1  0.571000  0.881630  0.421100  1.0  -0.3959
  C  C162  1  0.536800  0.943360  0.461700  1.0  0.1069
  C  C163  1  0.480000  0.986320  0.404800  1.0  -0.095
  C  C164  1  0.556700  0.957410  0.557200  1.0  -0.0866
  C  C165  1  0.421800  0.854940  0.129000  1.0  0.7978
  C  C166  1  0.407300  0.911400  0.071900  1.0  -0.4008
  C  C167  1  0.452400  0.970050  0.119400  1.0  0.1214
  C  C168  1  0.362400  0.013900  0.147300  1.0  -0.128
  C  C169  1  0.402900  0.068140  0.191200  1.0  -0.1303
  C  C170  1  0.533600  0.079690  0.207300  1.0  0.0917
  C  C171  1  0.624200  0.036300  0.178000  1.0  -0.1302
  C  C172  1  0.584200  0.982000  0.134900  1.0  -0.1088
  C  C173  1  0.580100  0.138600  0.254600  1.0  -0.3655
  C  C174  1  0.634400  0.182080  0.184300  1.0  0.7911
  C  C175  1  0.135400  0.692430  0.144100  1.0  0.7855
  C  C176  1  0.065200  0.661550  0.223800  1.0  -0.379
  C  C177  1  0.022800  0.598410  0.190900  1.0  0.0836
  C  C178  1  0.891900  0.584900  0.174600  1.0  -0.1602
  C  C179  1  0.856900  0.527300  0.140900  1.0  -0.1299
  C  C180  1  0.948600  0.482800  0.124300  1.0  0.0951
  C  C181  1  0.078500  0.496100  0.141600  1.0  -0.1196
  C  C182  1  0.115600  0.553400  0.175300  1.0  -0.1216
  C  C183  1  0.906600  0.421600  0.084200  1.0  -0.4016
  C  C184  1  0.915200  0.369280  0.150300  1.0  0.8139
  C  C185  1  0.527600  0.669880  0.016500  1.0  0.8424
  C  C186  1  0.618300  0.619730  0.979100  1.0  -0.3629
  C  C187  1  0.555800  0.557940  0.989600  1.0  0.1057
  C  C188  1  0.548000  0.516900  0.913500  1.0  -0.1124
  C  C189  1  0.506200  0.540200  0.076400  1.0  -0.0942
  C  C190  1  0.035300  0.835230  0.935900  1.0  0.7875
  C  C191  1  0.929000  0.881630  0.921100  1.0  -0.3954
  C  C192  1  0.963200  0.943360  0.961700  1.0  0.1059
  C  C193  1  0.020000  0.986320  0.904800  1.0  -0.0955
  C  C194  1  0.943300  0.957410  0.057200  1.0  -0.0842
  C  C195  1  0.921800  0.145060  0.371000  1.0  0.7991
  C  C196  1  0.907300  0.088600  0.428100  1.0  -0.4012
  C  C197  1  0.952400  0.029950  0.380600  1.0  0.121
  C  C198  1  0.862400  0.986100  0.352700  1.0  -0.1286
  C  C199  1  0.902900  0.931860  0.308800  1.0  -0.1291
  C  C200  1  0.033600  0.920310  0.292700  1.0  0.0918
  C  C201  1  0.124200  0.963700  0.322000  1.0  -0.1301
  C  C202  1  0.084200  0.018000  0.365100  1.0  -0.1087
  C  C203  1  0.080100  0.861400  0.245400  1.0  -0.3657
  C  C204  1  0.134400  0.817920  0.315700  1.0  0.7911
  C  C205  1  0.635400  0.307570  0.355900  1.0  0.7861
  C  C206  1  0.565200  0.338450  0.276200  1.0  -0.3781
  C  C207  1  0.522800  0.401590  0.309100  1.0  0.0833
  C  C208  1  0.391900  0.415100  0.325400  1.0  -0.1591
  C  C209  1  0.356900  0.472700  0.359100  1.0  -0.13
  C  C210  1  0.448600  0.517200  0.375700  1.0  0.0947
  C  C211  1  0.578500  0.503900  0.358400  1.0  -0.1197
  C  C212  1  0.615600  0.446600  0.324700  1.0  -0.1212
  C  C213  1  0.406600  0.578400  0.415800  1.0  -0.4046
  C  C214  1  0.415200  0.630720  0.349700  1.0  0.8154
  C  C215  1  0.027600  0.330120  0.483500  1.0  0.8434
  C  C216  1  0.118300  0.380270  0.520900  1.0  -0.3626
  C  C217  1  0.055800  0.442060  0.510400  1.0  0.1059
  C  C218  1  0.048000  0.483100  0.586500  1.0  -0.1124
  C  C219  1  0.006200  0.459800  0.423600  1.0  -0.0944
  C  C220  1  0.535300  0.164770  0.564100  1.0  0.7872
  C  C221  1  0.429000  0.118370  0.578900  1.0  -0.3949
  C  C222  1  0.463200  0.056640  0.538300  1.0  0.1056
  C  C223  1  0.520000  0.013680  0.595200  1.0  -0.0961
  C  C224  1  0.443300  0.042590  0.442800  1.0  -0.0843
  O  O225  1  0.631800  0.194010  0.902350  1.0  -0.864
  O  O226  1  0.518200  0.145880  0.795100  1.0  -0.6934
  O  O227  1  0.265500  0.785780  0.795500  1.0  -0.8299
  O  O228  1  0.420600  0.812800  0.893500  1.0  -0.6527
  O  O229  1  0.741000  0.308050  0.861000  1.0  -0.8007
  O  O230  1  0.931300  0.283580  0.919100  1.0  -0.6542
  O  O231  1  0.162000  0.675090  0.865190  1.0  -0.8222
  O  O232  1  0.006600  0.632230  0.782800  1.0  -0.6683
  O  O233  1  0.448400  0.306300  0.904400  1.0  -0.7417
  O  O234  1  0.566400  0.316280  0.034500  1.0  -0.7356
  O  O235  1  0.974800  0.216720  0.105930  1.0  -0.8644
  O  O236  1  0.869400  0.152930  0.011900  1.0  -0.6497
  O  O237  1  0.131800  0.805990  0.597650  1.0  -0.863
  O  O238  1  0.018200  0.854120  0.704900  1.0  -0.6942
  O  O239  1  0.765500  0.214220  0.704500  1.0  -0.8297
  O  O240  1  0.920600  0.187200  0.606500  1.0  -0.652
  O  O241  1  0.241000  0.691950  0.639000  1.0  -0.8008
  O  O242  1  0.431300  0.716420  0.580900  1.0  -0.6518
  O  O243  1  0.662000  0.324910  0.634810  1.0  -0.8226
  O  O244  1  0.506600  0.367770  0.717200  1.0  -0.6674
  O  O245  1  0.948400  0.693700  0.595600  1.0  -0.7439
  O  O246  1  0.066400  0.683720  0.465500  1.0  -0.735
  O  O247  1  0.474800  0.783280  0.394070  1.0  -0.8654
  O  O248  1  0.369400  0.847070  0.488100  1.0  -0.6497
  O  O249  1  0.368200  0.805990  0.097650  1.0  -0.8633
  O  O250  1  0.481800  0.854120  0.204900  1.0  -0.6952
  O  O251  1  0.734500  0.214220  0.204500  1.0  -0.8288
  O  O252  1  0.579400  0.187200  0.106500  1.0  -0.6519
  O  O253  1  0.259000  0.691950  0.139000  1.0  -0.8006
  O  O254  1  0.068700  0.716420  0.080900  1.0  -0.6519
  O  O255  1  0.838000  0.324910  0.134810  1.0  -0.8237
  O  O256  1  0.993400  0.367770  0.217200  1.0  -0.6673
  O  O257  1  0.551600  0.693700  0.095600  1.0  -0.7449
  O  O258  1  0.433600  0.683720  0.965500  1.0  -0.7337
  O  O259  1  0.025200  0.783280  0.894070  1.0  -0.8633
  O  O260  1  0.130600  0.847070  0.988100  1.0  -0.6511
  O  O261  1  0.868200  0.194010  0.402350  1.0  -0.8634
  O  O262  1  0.981800  0.145880  0.295100  1.0  -0.6926
  O  O263  1  0.234500  0.785780  0.295500  1.0  -0.829
  O  O264  1  0.079400  0.812800  0.393500  1.0  -0.6517
  O  O265  1  0.759000  0.308050  0.361000  1.0  -0.8005
  O  O266  1  0.568700  0.283580  0.419100  1.0  -0.6528
  O  O267  1  0.338000  0.675090  0.365190  1.0  -0.823
  O  O268  1  0.493400  0.632230  0.282800  1.0  -0.6676
  O  O269  1  0.051600  0.306300  0.404400  1.0  -0.7423
  O  O270  1  0.933600  0.316280  0.534500  1.0  -0.7347
  O  O271  1  0.525200  0.216720  0.605930  1.0  -0.8655
  O  O272  1  0.630600  0.152930  0.511900  1.0  -0.6511
