# generated using pymatgen
data_CoH11C18NO4
_symmetry_space_group_name_H-M   'P 1'
_cell_length_a   12.12770000
_cell_length_b   13.16440000
_cell_length_c   13.16440000
_cell_angle_alpha   100.13500000
_cell_angle_beta   106.87500000
_cell_angle_gamma   106.87500000
_symmetry_Int_Tables_number   1
_chemical_formula_structural   CoH11C18NO4
_chemical_formula_sum   'Co4 H44 C72 N4 O16'
_cell_volume   1845.29245377
_cell_formula_units_Z   4
loop_
 _symmetry_equiv_pos_site_id
 _symmetry_equiv_pos_as_xyz
  1  'x, y, z'
loop_
 _atom_site_type_symbol
 _atom_site_label
 _atom_site_symmetry_multiplicity
 _atom_site_fract_x
 _atom_site_fract_y
 _atom_site_fract_z
 _atom_site_occupancy
 _atom_site_charge
  Co  Co1  1  0.622340  0.165310  0.726170  1.0  0.9044
  Co  Co2  1  0.877660  0.273830  0.834690  1.0  0.9061
  Co  Co3  1  0.377660  0.834690  0.273830  1.0  0.9049
  Co  Co4  1  0.122340  0.726170  0.165310  1.0  0.9057
  H  H5  1  0.895900  0.283600  0.177400  1.0  0.1048
  H  H6  1  0.986500  0.300900  0.379300  1.0  0.1186
  H  H7  1  0.959500  0.280600  0.539400  1.0  0.1128
  H  H8  1  0.592600  0.136000  0.379400  1.0  0.102
  H  H9  1  0.504000  0.101000  0.174000  1.0  0.1051
  H  H10  1  0.531000  0.123400  0.014000  1.0  0.1042
  H  H11  1  0.410000  0.116100  0.807700  1.0  0.0768
  H  H12  1  0.200300  0.059700  0.746300  1.0  0.1334
  H  H13  1  0.196400  0.033200  0.438600  1.0  0.121
  H  H14  1  0.408700  0.088900  0.508300  1.0  0.0839
  H  H15  1  0.003200  0.999100  0.602700  1.0  0.0968
  H  H16  1  0.604100  0.822600  0.716400  1.0  0.1057
  H  H17  1  0.513500  0.620700  0.699100  1.0  0.1203
  H  H18  1  0.540500  0.460600  0.719400  1.0  0.1124
  H  H19  1  0.907400  0.620600  0.864000  1.0  0.1035
  H  H20  1  0.996000  0.826000  0.899000  1.0  0.106
  H  H21  1  0.969000  0.986000  0.876600  1.0  0.1042
  H  H22  1  0.090000  0.192300  0.883900  1.0  0.0772
  H  H23  1  0.299700  0.253700  0.940300  1.0  0.132
  H  H24  1  0.303600  0.561400  0.966800  1.0  0.1204
  H  H25  1  0.091300  0.491700  0.911100  1.0  0.0822
  H  H26  1  0.496800  0.397300  0.000900  1.0  0.0952
  H  H27  1  0.104100  0.716400  0.822600  1.0  0.1045
  H  H28  1  0.013500  0.699100  0.620700  1.0  0.1185
  H  H29  1  0.040500  0.719400  0.460600  1.0  0.1128
  H  H30  1  0.407400  0.864000  0.620600  1.0  0.1006
  H  H31  1  0.496000  0.899000  0.826000  1.0  0.1051
  H  H32  1  0.469000  0.876600  0.986000  1.0  0.1038
  H  H33  1  0.590000  0.883900  0.192300  1.0  0.0772
  H  H34  1  0.799700  0.940300  0.253700  1.0  0.1335
  H  H35  1  0.803600  0.966800  0.561400  1.0  0.1198
  H  H36  1  0.591300  0.911100  0.491700  1.0  0.0837
  H  H37  1  0.996800  0.000900  0.397300  1.0  0.0978
  H  H38  1  0.395900  0.177400  0.283600  1.0  0.1055
  H  H39  1  0.486500  0.379300  0.300900  1.0  0.1192
  H  H40  1  0.459500  0.539400  0.280600  1.0  0.1132
  H  H41  1  0.092600  0.379400  0.136000  1.0  0.1033
  H  H42  1  0.004000  0.174000  0.101000  1.0  0.1057
  H  H43  1  0.031000  0.014000  0.123400  1.0  0.1043
  H  H44  1  0.910000  0.807700  0.116100  1.0  0.0773
  H  H45  1  0.700300  0.746300  0.059700  1.0  0.1323
  H  H46  1  0.696400  0.438600  0.033200  1.0  0.122
  H  H47  1  0.908700  0.508300  0.088900  1.0  0.0818
  H  H48  1  0.503200  0.602700  0.999100  1.0  0.0959
  C  C49  1  0.717900  0.208610  0.080350  1.0  -0.1335
  C  C50  1  0.817800  0.247120  0.177480  1.0  -0.074
  C  C51  1  0.804700  0.232370  0.277630  1.0  0.0381
  C  C52  1  0.907000  0.268710  0.378690  1.0  -0.1314
  C  C53  1  0.891000  0.257170  0.474230  1.0  -0.0491
  C  C54  1  0.770600  0.209940  0.475940  1.0  -0.1366
  C  C55  1  0.671000  0.170210  0.378790  1.0  -0.0756
  C  C56  1  0.684400  0.179840  0.277740  1.0  0.0317
  C  C57  1  0.582800  0.138140  0.175660  1.0  -0.1264
  C  C58  1  0.598800  0.151690  0.080110  1.0  -0.0537
  C  C59  1  0.733300  0.221600  0.973900  1.0  0.6628
  C  C60  1  0.754700  0.205110  0.583550  1.0  0.6602
  C  C61  1  0.366600  0.099580  0.732220  1.0  0.173
  C  C62  1  0.240500  0.066200  0.696200  1.0  -0.2204
  C  C63  1  0.173400  0.042120  0.585080  1.0  0.1336
  C  C64  1  0.238300  0.050270  0.514330  1.0  -0.1993
  C  C65  1  0.366400  0.084150  0.557050  1.0  0.1738
  C  C66  1  0.037600  0.008600  0.548800  1.0  -0.103
  C  C67  1  0.782100  0.919650  0.791390  1.0  -0.134
  C  C68  1  0.682200  0.822520  0.752880  1.0  -0.078
  C  C69  1  0.695300  0.722370  0.767630  1.0  0.0353
  C  C70  1  0.593000  0.621310  0.731290  1.0  -0.1329
  C  C71  1  0.609000  0.525770  0.742830  1.0  -0.0517
  C  C72  1  0.729400  0.524060  0.790060  1.0  -0.1386
  C  C73  1  0.829000  0.621210  0.829790  1.0  -0.0777
  C  C74  1  0.815600  0.722260  0.820160  1.0  0.0281
  C  C75  1  0.917200  0.824340  0.861860  1.0  -0.1264
  C  C76  1  0.901200  0.919890  0.848310  1.0  -0.0535
  C  C77  1  0.766700  0.026100  0.778400  1.0  0.6627
  C  C78  1  0.745300  0.416450  0.794890  1.0  0.6562
  C  C79  1  0.133400  0.267780  0.900420  1.0  0.1713
  C  C80  1  0.259500  0.303800  0.933800  1.0  -0.2205
  C  C81  1  0.326600  0.414920  0.957880  1.0  0.1336
  C  C82  1  0.261700  0.485670  0.949730  1.0  -0.2001
  C  C83  1  0.133600  0.442950  0.915850  1.0  0.1763
  C  C84  1  0.462400  0.451200  0.991400  1.0  -0.1046
  C  C85  1  0.282100  0.791390  0.919650  1.0  -0.1338
  C  C86  1  0.182200  0.752880  0.822520  1.0  -0.0752
  C  C87  1  0.195300  0.767630  0.722370  1.0  0.0374
  C  C88  1  0.093000  0.731290  0.621310  1.0  -0.1308
  C  C89  1  0.109000  0.742830  0.525770  1.0  -0.0496
  C  C90  1  0.229400  0.790060  0.524060  1.0  -0.1363
  C  C91  1  0.329000  0.829790  0.621210  1.0  -0.0755
  C  C92  1  0.315600  0.820160  0.722260  1.0  0.0311
  C  C93  1  0.417200  0.861860  0.824340  1.0  -0.1263
  C  C94  1  0.401200  0.848310  0.919890  1.0  -0.0531
  C  C95  1  0.266700  0.778400  0.026100  1.0  0.6634
  C  C96  1  0.245300  0.794890  0.416450  1.0  0.6595
  C  C97  1  0.633400  0.900420  0.267780  1.0  0.1723
  C  C98  1  0.759500  0.933800  0.303800  1.0  -0.2203
  C  C99  1  0.826600  0.957880  0.414920  1.0  0.1346
  C  C100  1  0.761700  0.949730  0.485670  1.0  -0.201
  C  C101  1  0.633600  0.915850  0.442950  1.0  0.1736
  C  C102  1  0.962400  0.991400  0.451200  1.0  -0.1035
  C  C103  1  0.217900  0.080350  0.208610  1.0  -0.1343
  C  C104  1  0.317800  0.177480  0.247120  1.0  -0.0768
  C  C105  1  0.304700  0.277630  0.232370  1.0  0.0345
  C  C106  1  0.407000  0.378690  0.268710  1.0  -0.133
  C  C107  1  0.391000  0.474230  0.257170  1.0  -0.0508
  C  C108  1  0.270600  0.475940  0.209940  1.0  -0.1372
  C  C109  1  0.171000  0.378790  0.170210  1.0  -0.0795
  C  C110  1  0.184400  0.277740  0.179840  1.0  0.0279
  C  C111  1  0.082800  0.175660  0.138140  1.0  -0.1254
  C  C112  1  0.098800  0.080110  0.151690  1.0  -0.0521
  C  C113  1  0.233300  0.973900  0.221600  1.0  0.6632
  C  C114  1  0.254700  0.583550  0.205110  1.0  0.6576
  C  C115  1  0.866600  0.732220  0.099580  1.0  0.1726
  C  C116  1  0.740500  0.696200  0.066200  1.0  -0.2224
  C  C117  1  0.673400  0.585080  0.042120  1.0  0.1348
  C  C118  1  0.738300  0.514330  0.050270  1.0  -0.1984
  C  C119  1  0.866400  0.557050  0.084150  1.0  0.1775
  C  C120  1  0.537600  0.548800  0.008600  1.0  -0.1029
  N  N121  1  0.431100  0.110070  0.665110  1.0  -0.319
  N  N122  1  0.068900  0.334890  0.889930  1.0  -0.3222
  N  N123  1  0.568900  0.889930  0.334890  1.0  -0.3205
  N  N124  1  0.931100  0.665110  0.110070  1.0  -0.32
  O  O125  1  0.637030  0.181600  0.888240  1.0  -0.5822
  O  O126  1  0.840700  0.269570  0.976070  1.0  -0.5689
  O  O127  1  0.646350  0.163440  0.581600  1.0  -0.5614
  O  O128  1  0.850900  0.243500  0.669560  1.0  -0.5928
  O  O129  1  0.862970  0.111760  0.818400  1.0  -0.582
  O  O130  1  0.659300  0.023930  0.730430  1.0  -0.5684
  O  O131  1  0.853650  0.418400  0.836560  1.0  -0.5601
  O  O132  1  0.649100  0.330440  0.756500  1.0  -0.591
  O  O133  1  0.362970  0.818400  0.111760  1.0  -0.5817
  O  O134  1  0.159300  0.730430  0.023930  1.0  -0.5689
  O  O135  1  0.353650  0.836560  0.418400  1.0  -0.5612
  O  O136  1  0.149100  0.756500  0.330440  1.0  -0.5922
  O  O137  1  0.137030  0.888240  0.181600  1.0  -0.5818
  O  O138  1  0.340700  0.976070  0.269570  1.0  -0.569
  O  O139  1  0.146350  0.581600  0.163440  1.0  -0.5607
  O  O140  1  0.350900  0.669560  0.243500  1.0  -0.5915
