# generated using pymatgen
data_CoH11C18NO4
_symmetry_space_group_name_H-M   'P 1'
_cell_length_a   13.17170000
_cell_length_b   13.19010000
_cell_length_c   16.23470000
_cell_angle_alpha   97.29300000
_cell_angle_beta   94.43700000
_cell_angle_gamma   90.52300000
_symmetry_Int_Tables_number   1
_chemical_formula_structural   CoH11C18NO4
_chemical_formula_sum   'Co6 H66 C108 N6 O24'
_cell_volume   2788.83722762
_cell_formula_units_Z   6
loop_
 _symmetry_equiv_pos_site_id
 _symmetry_equiv_pos_as_xyz
  1  'x, y, z'
loop_
 _atom_site_type_symbol
 _atom_site_label
 _atom_site_symmetry_multiplicity
 _atom_site_fract_x
 _atom_site_fract_y
 _atom_site_fract_z
 _atom_site_occupancy
 _atom_site_charge
  Co  Co1  1  0.997730  0.005080  0.585910  1.0  0.8993
  Co  Co2  1  0.002270  0.994920  0.414090  1.0  0.8988
  Co  Co3  1  0.674950  0.771250  0.888170  1.0  0.9007
  Co  Co4  1  0.679400  0.761540  0.717730  1.0  0.9117
  Co  Co5  1  0.325050  0.228750  0.111830  1.0  0.8988
  Co  Co6  1  0.320600  0.238460  0.282270  1.0  0.9131
  H  H7  1  0.173900  0.019380  0.721770  1.0  0.0911
  H  H8  1  0.192610  0.025940  0.878560  1.0  0.1174
  H  H9  1  0.860020  0.014290  0.874210  1.0  0.1204
  H  H10  1  0.851710  0.009860  0.718870  1.0  0.0938
  H  H11  1  0.113730  0.032310  0.014740  1.0  0.1172
  H  H12  1  0.327840  0.018070  0.389270  1.0  0.1069
  H  H13  1  0.497480  0.033400  0.330740  1.0  0.1137
  H  H14  1  0.315430  0.967100  0.650290  1.0  0.1015
  H  H15  1  0.949390  0.678280  0.600450  1.0  0.1121
  H  H16  1  0.915050  0.514690  0.656300  1.0  0.1096
  H  H17  1  0.070330  0.672630  0.355730  1.0  0.1086
  H  H18  1  0.826100  0.980620  0.278230  1.0  0.0908
  H  H19  1  0.807390  0.974060  0.121440  1.0  0.1187
  H  H20  1  0.139980  0.985710  0.125790  1.0  0.1195
  H  H21  1  0.148290  0.990140  0.281130  1.0  0.094
  H  H22  1  0.886270  0.967690  0.985260  1.0  0.1172
  H  H23  1  0.672160  0.981930  0.610730  1.0  0.1069
  H  H24  1  0.502520  0.966600  0.669260  1.0  0.1126
  H  H25  1  0.685400  0.032830  0.350180  1.0  0.1014
  H  H26  1  0.050610  0.321720  0.399550  1.0  0.1124
  H  H27  1  0.084950  0.485310  0.343700  1.0  0.1095
  H  H28  1  0.929670  0.327370  0.644270  1.0  0.1081
  H  H29  1  0.348810  0.764720  0.918030  1.0  0.0924
  H  H30  1  0.179840  0.750540  0.976200  1.0  0.1057
  H  H31  1  0.989650  0.750380  0.954720  1.0  0.1017
  H  H32  1  0.004740  0.774710  0.690360  1.0  0.1091
  H  H33  1  0.174160  0.778660  0.630940  1.0  0.1091
  H  H34  1  0.362140  0.773960  0.649610  1.0  0.1016
  H  H35  1  0.700880  0.085440  0.697420  1.0  0.1067
  H  H36  1  0.720520  0.247410  0.635160  1.0  0.1129
  H  H37  1  0.716930  0.438150  0.651330  1.0  0.1055
  H  H38  1  0.644650  0.447290  0.910770  1.0  0.1132
  H  H39  1  0.629760  0.285890  0.972820  1.0  0.1168
  H  H40  1  0.637850  0.098680  0.960200  1.0  0.107
  H  H41  1  0.839030  0.719360  0.016010  1.0  0.0979
  H  H42  1  0.857640  0.714640  0.171150  1.0  0.1237
  H  H43  1  0.792390  0.762500  0.312890  1.0  0.1327
  H  H44  1  0.556120  0.758850  0.297640  1.0  0.0996
  H  H45  1  0.814690  0.767520  0.429180  1.0  0.1224
  H  H46  1  0.823310  0.772530  0.585970  1.0  0.093
  H  H47  1  0.502060  0.736170  0.580010  1.0  0.0928
  H  H48  1  0.651190  0.235280  0.081970  1.0  0.0934
  H  H49  1  0.820160  0.249460  0.023800  1.0  0.1024
  H  H50  1  0.010350  0.249620  0.045280  1.0  0.099
  H  H51  1  0.995260  0.225290  0.309640  1.0  0.1081
  H  H52  1  0.825840  0.221340  0.369060  1.0  0.1088
  H  H53  1  0.636760  0.226080  0.349760  1.0  0.1004
  H  H54  1  0.299120  0.914560  0.302580  1.0  0.1059
  H  H55  1  0.279480  0.752590  0.364840  1.0  0.1139
  H  H56  1  0.283070  0.561850  0.348670  1.0  0.1063
  H  H57  1  0.355350  0.552710  0.089230  1.0  0.1139
  H  H58  1  0.370240  0.714110  0.027180  1.0  0.1165
  H  H59  1  0.361990  0.902500  0.040390  1.0  0.1072
  H  H60  1  0.160970  0.280640  0.983990  1.0  0.0982
  H  H61  1  0.142360  0.285360  0.828850  1.0  0.1236
  H  H62  1  0.207610  0.237500  0.687110  1.0  0.1227
  H  H63  1  0.443880  0.241150  0.702360  1.0  0.0999
  H  H64  1  0.185310  0.232480  0.570820  1.0  0.1215
  H  H65  1  0.176690  0.227470  0.414030  1.0  0.0937
  H  H66  1  0.497940  0.263830  0.419990  1.0  0.0935
  H  H67  1  0.551570  0.831320  0.185350  1.0  0.1125
  H  H68  1  0.542840  0.836130  0.029040  1.0  0.0981
  H  H69  1  0.482920  0.734010  0.424460  1.0  0.1098
  H  H70  1  0.448430  0.168680  0.814650  1.0  0.1119
  H  H71  1  0.457160  0.163870  0.970960  1.0  0.0972
  H  H72  1  0.517080  0.265990  0.575540  1.0  0.1097
  C  C73  1  0.103300  0.018300  0.758100  1.0  0.129
  C  C74  1  0.113600  0.020800  0.844100  1.0  -0.1863
  C  C75  1  0.027100  0.017000  0.887800  1.0  0.1069
  C  C76  1  0.933600  0.014700  0.841600  1.0  -0.1939
  C  C77  1  0.928800  0.012900  0.756300  1.0  0.1224
  C  C78  1  0.037400  0.012800  0.977800  1.0  -0.0944
  C  C79  1  0.197600  0.996800  0.507700  1.0  0.6579
  C  C80  1  0.311100  0.992500  0.517500  1.0  -0.0981
  C  C81  1  0.367600  0.006500  0.452200  1.0  -0.1219
  C  C82  1  0.474800  0.007000  0.460800  1.0  0.061
  C  C83  1  0.535500  0.021500  0.394200  1.0  -0.145
  C  C84  1  0.361600  0.978500  0.595500  1.0  -0.0745
  C  C85  1  0.003000  0.800600  0.487000  1.0  0.646
  C  C86  1  0.009500  0.687100  0.479600  1.0  -0.0787
  C  C87  1  0.978400  0.634600  0.542000  1.0  -0.1138
  C  C88  1  0.981500  0.527700  0.535500  1.0  0.0681
  C  C89  1  0.947700  0.472100  0.599000  1.0  -0.136
  C  C90  1  0.045700  0.631200  0.408600  1.0  -0.0912
  C  C91  1  0.896700  0.981700  0.241900  1.0  0.1299
  C  C92  1  0.886400  0.979200  0.155900  1.0  -0.1916
  C  C93  1  0.972900  0.983000  0.112200  1.0  0.1148
  C  C94  1  0.066400  0.985300  0.158400  1.0  -0.1909
  C  C95  1  0.071200  0.987100  0.243700  1.0  0.1244
  C  C96  1  0.962600  0.987200  0.022200  1.0  -0.098
  C  C97  1  0.802400  0.003200  0.492300  1.0  0.6582
  C  C98  1  0.688900  0.007500  0.482500  1.0  -0.094
  C  C99  1  0.632400  0.993500  0.547800  1.0  -0.1224
  C  C100  1  0.525200  0.993000  0.539200  1.0  0.0604
  C  C101  1  0.464500  0.978500  0.605800  1.0  -0.1446
  C  C102  1  0.638400  0.021500  0.404500  1.0  -0.078
  C  C103  1  0.997000  0.199400  0.513000  1.0  0.6458
  C  C104  1  0.990500  0.312900  0.520400  1.0  -0.0836
  C  C105  1  0.021600  0.365400  0.458000  1.0  -0.1136
  C  C106  1  0.018500  0.472300  0.464500  1.0  0.0683
  C  C107  1  0.052300  0.527900  0.401000  1.0  -0.1368
  C  C108  1  0.954300  0.368800  0.591400  1.0  -0.09
  C  C109  1  0.366400  0.767400  0.785300  1.0  -0.0849
  C  C110  1  0.309200  0.765100  0.853100  1.0  -0.1084
  C  C111  1  0.202400  0.763200  0.844100  1.0  0.0516
  C  C112  1  0.142000  0.756100  0.911400  1.0  -0.1293
  C  C113  1  0.037500  0.755800  0.899800  1.0  -0.0831
  C  C114  1  0.988700  0.762100  0.820900  1.0  -0.0969
  C  C115  1  0.044700  0.768400  0.754300  1.0  -0.1168
  C  C116  1  0.152800  0.767200  0.763600  1.0  0.0555
  C  C117  1  0.212600  0.772900  0.695500  1.0  -0.133
  C  C118  1  0.316100  0.771600  0.706000  1.0  -0.0861
  C  C119  1  0.479900  0.765600  0.796300  1.0  0.6775
  C  C120  1  0.873500  0.765400  0.809600  1.0  0.6598
  C  C121  1  0.668300  0.080300  0.826500  1.0  -0.1015
  C  C122  1  0.685600  0.130700  0.759700  1.0  -0.1063
  C  C123  1  0.685000  0.238400  0.766000  1.0  0.0653
  C  C124  1  0.703700  0.291800  0.697400  1.0  -0.1501
  C  C125  1  0.701500  0.395600  0.706100  1.0  -0.0936
  C  C126  1  0.680300  0.453600  0.782300  1.0  -0.0794
  C  C127  1  0.661900  0.402500  0.848800  1.0  -0.0967
  C  C128  1  0.663800  0.295000  0.842400  1.0  0.0638
  C  C129  1  0.646700  0.241800  0.910500  1.0  -0.1416
  C  C130  1  0.650000  0.138700  0.903400  1.0  -0.0941
  C  C131  1  0.674000  0.965700  0.819000  1.0  0.642
  C  C132  1  0.679000  0.566900  0.790100  1.0  0.6857
  C  C133  1  0.773300  0.743600  0.055400  1.0  0.1446
  C  C134  1  0.783300  0.740500  0.140300  1.0  -0.1958
  C  C135  1  0.703900  0.768500  0.187900  1.0  0.1568
  C  C136  1  0.618300  0.803900  0.148200  1.0  -0.1818
  C  C137  1  0.613500  0.806100  0.062400  1.0  0.136
  C  C138  1  0.713700  0.763200  0.278400  1.0  -0.0992
  C  C139  1  0.638100  0.759000  0.325900  1.0  -0.0806
  C  C140  1  0.648500  0.754200  0.416800  1.0  0.137
  C  C141  1  0.741900  0.762100  0.462200  1.0  -0.1932
  C  C142  1  0.746600  0.763400  0.547900  1.0  0.1183
  C  C143  1  0.572200  0.744200  0.544200  1.0  0.1241
  C  C144  1  0.561700  0.743400  0.459200  1.0  -0.1909
  C  C145  1  0.633600  0.232600  0.214700  1.0  -0.079
  C  C146  1  0.690800  0.234900  0.146900  1.0  -0.1105
  C  C147  1  0.797600  0.236800  0.155900  1.0  0.0571
  C  C148  1  0.858000  0.243900  0.088600  1.0  -0.1332
  C  C149  1  0.962500  0.244200  0.100200  1.0  -0.0925
  C  C150  1  0.011300  0.237900  0.179100  1.0  -0.0969
  C  C151  1  0.955300  0.231600  0.245700  1.0  -0.1145
  C  C152  1  0.847200  0.232800  0.236400  1.0  0.059
  C  C153  1  0.787400  0.227100  0.304500  1.0  -0.1336
  C  C154  1  0.683900  0.228400  0.294000  1.0  -0.0856
  C  C155  1  0.520100  0.234400  0.203700  1.0  0.6731
  C  C156  1  0.126500  0.234600  0.190400  1.0  0.6607
  C  C157  1  0.331700  0.919700  0.173500  1.0  -0.1018
  C  C158  1  0.314400  0.869300  0.240300  1.0  -0.1058
  C  C159  1  0.315000  0.761600  0.234000  1.0  0.0659
  C  C160  1  0.296300  0.708200  0.302600  1.0  -0.1488
  C  C161  1  0.298500  0.604400  0.293900  1.0  -0.088
  C  C162  1  0.319700  0.546400  0.217700  1.0  -0.0793
  C  C163  1  0.338100  0.597500  0.151200  1.0  -0.0957
  C  C164  1  0.336200  0.705000  0.157600  1.0  0.0643
  C  C165  1  0.353300  0.758200  0.089500  1.0  -0.1408
  C  C166  1  0.350000  0.861300  0.096600  1.0  -0.0945
  C  C167  1  0.326000  0.034300  0.181000  1.0  0.6414
  C  C168  1  0.321000  0.433100  0.209900  1.0  0.6858
  C  C169  1  0.226700  0.256400  0.944600  1.0  0.1445
  C  C170  1  0.216700  0.259500  0.859700  1.0  -0.2012
  C  C171  1  0.296100  0.231500  0.812100  1.0  0.1572
  C  C172  1  0.381700  0.196100  0.851800  1.0  -0.1795
  C  C173  1  0.386500  0.193900  0.937600  1.0  0.1361
  C  C174  1  0.286300  0.236800  0.721600  1.0  -0.1035
  C  C175  1  0.361900  0.241000  0.674100  1.0  -0.0945
  C  C176  1  0.351500  0.245800  0.583200  1.0  0.137
  C  C177  1  0.258100  0.237900  0.537800  1.0  -0.1946
  C  C178  1  0.253400  0.236600  0.452100  1.0  0.1152
  C  C179  1  0.427800  0.255800  0.455800  1.0  0.1236
  C  C180  1  0.438300  0.256600  0.540800  1.0  -0.191
  N  N181  1  0.012800  0.014600  0.714200  1.0  -0.2939
  N  N182  1  0.987200  0.985400  0.285800  1.0  -0.2927
  N  N183  1  0.690100  0.773700  0.016000  1.0  -0.2851
  N  N184  1  0.663100  0.754200  0.589400  1.0  -0.288
  N  N185  1  0.309900  0.226300  0.984000  1.0  -0.2876
  N  N186  1  0.336900  0.245800  0.410600  1.0  -0.2896
  O  O187  1  0.150700  0.002700  0.572300  1.0  -0.5822
  O  O188  1  0.844200  0.005300  0.565200  1.0  -0.5654
  O  O189  1  0.995700  0.848800  0.558200  1.0  -0.5708
  O  O190  1  0.997400  0.158700  0.579000  1.0  -0.5796
  O  O191  1  0.849300  0.997300  0.427700  1.0  -0.5825
  O  O192  1  0.155800  0.994700  0.434800  1.0  -0.5661
  O  O193  1  0.004300  0.151200  0.441800  1.0  -0.572
  O  O194  1  0.002600  0.841300  0.421000  1.0  -0.581
  O  O195  1  0.521400  0.767500  0.868500  1.0  -0.5734
  O  O196  1  0.527300  0.762300  0.731300  1.0  -0.5962
  O  O197  1  0.832900  0.764000  0.737800  1.0  -0.5564
  O  O198  1  0.827000  0.771200  0.875100  1.0  -0.5886
  O  O199  1  0.678300  0.917900  0.747100  1.0  -0.5735
  O  O200  1  0.673200  0.925700  0.885100  1.0  -0.578
  O  O201  1  0.674300  0.615400  0.861800  1.0  -0.5716
  O  O202  1  0.681100  0.608300  0.724200  1.0  -0.5781
  O  O203  1  0.478600  0.232500  0.131500  1.0  -0.5745
  O  O204  1  0.472700  0.237700  0.268700  1.0  -0.593
  O  O205  1  0.167100  0.236000  0.262200  1.0  -0.5571
  O  O206  1  0.173000  0.228800  0.124900  1.0  -0.5888
  O  O207  1  0.321700  0.082100  0.252900  1.0  -0.572
  O  O208  1  0.326800  0.074300  0.114900  1.0  -0.578
  O  O209  1  0.325700  0.384600  0.138200  1.0  -0.5717
  O  O210  1  0.318900  0.391700  0.275800  1.0  -0.5773
