# generated using pymatgen
data_Cu4H20C37O20
_symmetry_space_group_name_H-M   'P 1'
_cell_length_a   12.29700000
_cell_length_b   26.05700000
_cell_length_c   26.08400000
_cell_angle_alpha   90.00000000
_cell_angle_beta   90.00000000
_cell_angle_gamma   90.00000000
_symmetry_Int_Tables_number   1
_chemical_formula_structural   Cu4H20C37O20
_chemical_formula_sum   'Cu16 H80 C148 O80'
_cell_volume   8357.91168004
_cell_formula_units_Z   4
loop_
 _symmetry_equiv_pos_site_id
 _symmetry_equiv_pos_as_xyz
  1  'x, y, z'
loop_
 _atom_site_type_symbol
 _atom_site_label
 _atom_site_symmetry_multiplicity
 _atom_site_fract_x
 _atom_site_fract_y
 _atom_site_fract_z
 _atom_site_occupancy
 _atom_site_charge
  Cu  Cu1  1  0.074130  0.506400  0.963630  1.0  0.8949
  Cu  Cu2  1  0.925870  0.493600  0.463630  1.0  0.8959
  Cu  Cu3  1  0.925870  0.006400  0.536370  1.0  0.895
  Cu  Cu4  1  0.074130  0.993600  0.036370  1.0  0.8966
  Cu  Cu5  1  0.925870  0.493600  0.036370  1.0  0.8955
  Cu  Cu6  1  0.074130  0.506400  0.536370  1.0  0.896
  Cu  Cu7  1  0.074130  0.993600  0.463630  1.0  0.8946
  Cu  Cu8  1  0.925870  0.006400  0.963630  1.0  0.8964
  Cu  Cu9  1  0.853470  0.775720  0.750000  1.0  0.8488
  Cu  Cu10  1  0.004000  0.703020  0.750000  1.0  0.9019
  Cu  Cu11  1  0.146530  0.224280  0.250000  1.0  0.8483
  Cu  Cu12  1  0.996000  0.296980  0.250000  1.0  0.9033
  Cu  Cu13  1  0.146530  0.275720  0.750000  1.0  0.8492
  Cu  Cu14  1  0.996000  0.203020  0.750000  1.0  0.9026
  Cu  Cu15  1  0.853470  0.724280  0.250000  1.0  0.8488
  Cu  Cu16  1  0.004000  0.796980  0.250000  1.0  0.9033
  H  H17  1  0.208600  0.755600  0.867000  1.0  0.121
  H  H18  1  0.245700  0.867300  0.971300  1.0  0.1029
  H  H19  1  0.999800  0.875100  0.868900  1.0  0.1128
  H  H20  1  0.429300  0.824500  0.974600  1.0  0.0668
  H  H21  1  0.335100  0.804500  0.010300  1.0  0.0576
  H  H22  1  0.577000  0.740200  0.054800  1.0  0.0668
  H  H23  1  0.481500  0.775300  0.074500  1.0  0.0665
  H  H24  1  0.660300  0.781600  0.119000  1.0  0.1151
  H  H25  1  0.902600  0.885400  0.128000  1.0  0.1162
  H  H26  1  0.698700  0.886500  0.007200  1.0  0.1297
  H  H27  1  0.791400  0.244400  0.367000  1.0  0.121
  H  H28  1  0.754300  0.132700  0.471300  1.0  0.1042
  H  H29  1  0.000200  0.124900  0.368900  1.0  0.1126
  H  H30  1  0.570700  0.175500  0.474600  1.0  0.065
  H  H31  1  0.664900  0.195500  0.510300  1.0  0.0574
  H  H32  1  0.423000  0.259800  0.554800  1.0  0.0675
  H  H33  1  0.518500  0.224700  0.574500  1.0  0.0674
  H  H34  1  0.339700  0.218400  0.619000  1.0  0.1151
  H  H35  1  0.097400  0.114600  0.628000  1.0  0.116
  H  H36  1  0.301300  0.113500  0.507200  1.0  0.1299
  H  H37  1  0.791400  0.255600  0.633000  1.0  0.1212
  H  H38  1  0.754300  0.367300  0.528700  1.0  0.1046
  H  H39  1  0.000200  0.375100  0.631100  1.0  0.1128
  H  H40  1  0.570700  0.324500  0.525400  1.0  0.0657
  H  H41  1  0.664900  0.304500  0.489700  1.0  0.0581
  H  H42  1  0.423000  0.240200  0.445200  1.0  0.067
  H  H43  1  0.518500  0.275300  0.425500  1.0  0.066
  H  H44  1  0.339700  0.281600  0.381000  1.0  0.115
  H  H45  1  0.097400  0.385400  0.372000  1.0  0.1156
  H  H46  1  0.301300  0.386500  0.492800  1.0  0.1289
  H  H47  1  0.208600  0.744400  0.133000  1.0  0.1208
  H  H48  1  0.245700  0.632700  0.028700  1.0  0.1046
  H  H49  1  0.999800  0.624900  0.131100  1.0  0.1128
  H  H50  1  0.429300  0.675500  0.025400  1.0  0.0663
  H  H51  1  0.335100  0.695500  0.989700  1.0  0.0589
  H  H52  1  0.577000  0.759800  0.945200  1.0  0.0672
  H  H53  1  0.481500  0.724700  0.925500  1.0  0.0653
  H  H54  1  0.660300  0.718400  0.881000  1.0  0.1152
  H  H55  1  0.902600  0.614600  0.872000  1.0  0.1159
  H  H56  1  0.698700  0.613500  0.992800  1.0  0.1291
  H  H57  1  0.791400  0.244400  0.133000  1.0  0.121
  H  H58  1  0.754300  0.132700  0.028700  1.0  0.105
  H  H59  1  0.000200  0.124900  0.131100  1.0  0.1129
  H  H60  1  0.570700  0.175500  0.025400  1.0  0.0655
  H  H61  1  0.664900  0.195500  0.989700  1.0  0.0581
  H  H62  1  0.423000  0.259800  0.945200  1.0  0.0679
  H  H63  1  0.518500  0.224700  0.925500  1.0  0.0657
  H  H64  1  0.339700  0.218400  0.881000  1.0  0.1153
  H  H65  1  0.097400  0.114600  0.872000  1.0  0.1159
  H  H66  1  0.301300  0.113500  0.992800  1.0  0.1292
  H  H67  1  0.208600  0.755600  0.633000  1.0  0.121
  H  H68  1  0.245700  0.867300  0.528700  1.0  0.1043
  H  H69  1  0.999800  0.875100  0.631100  1.0  0.1127
  H  H70  1  0.429300  0.824500  0.525400  1.0  0.0665
  H  H71  1  0.335100  0.804500  0.489700  1.0  0.0586
  H  H72  1  0.577000  0.740200  0.445200  1.0  0.0663
  H  H73  1  0.481500  0.775300  0.425500  1.0  0.066
  H  H74  1  0.660300  0.781600  0.381000  1.0  0.1146
  H  H75  1  0.902600  0.885400  0.372000  1.0  0.1159
  H  H76  1  0.698700  0.886500  0.492800  1.0  0.1287
  H  H77  1  0.208600  0.744400  0.367000  1.0  0.1207
  H  H78  1  0.245700  0.632700  0.471300  1.0  0.1037
  H  H79  1  0.999800  0.624900  0.368900  1.0  0.1126
  H  H80  1  0.429300  0.675500  0.474600  1.0  0.0658
  H  H81  1  0.335100  0.695500  0.510300  1.0  0.0583
  H  H82  1  0.577000  0.759800  0.554800  1.0  0.0665
  H  H83  1  0.481500  0.724700  0.574500  1.0  0.0667
  H  H84  1  0.660300  0.718400  0.619000  1.0  0.1152
  H  H85  1  0.902600  0.614600  0.628000  1.0  0.1162
  H  H86  1  0.698700  0.613500  0.507200  1.0  0.1298
  H  H87  1  0.791400  0.255600  0.867000  1.0  0.1211
  H  H88  1  0.754300  0.367300  0.971300  1.0  0.1033
  H  H89  1  0.000200  0.375100  0.868900  1.0  0.1127
  H  H90  1  0.570700  0.324500  0.974600  1.0  0.0659
  H  H91  1  0.664900  0.304500  0.010300  1.0  0.0573
  H  H92  1  0.423000  0.240200  0.054800  1.0  0.0678
  H  H93  1  0.518500  0.275300  0.074500  1.0  0.067
  H  H94  1  0.339700  0.281600  0.119000  1.0  0.1151
  H  H95  1  0.097400  0.385400  0.128000  1.0  0.1157
  H  H96  1  0.301300  0.386500  0.007200  1.0  0.1297
  C  C97  1  0.033200  0.786500  0.818200  1.0  0.6879
  C  C98  1  0.094600  0.811700  0.861100  1.0  -0.1621
  C  C99  1  0.185800  0.786500  0.881200  1.0  -0.0857
  C  C100  1  0.242100  0.807500  0.922100  1.0  0.297
  C  C101  1  0.208400  0.853500  0.943500  1.0  -0.1366
  C  C102  1  0.118100  0.879100  0.923300  1.0  -0.1643
  C  C103  1  0.060200  0.858200  0.882100  1.0  0.0285
  C  C104  1  0.077700  0.927000  0.948800  1.0  0.6797
  C  C105  1  0.384800  0.795000  0.983100  1.0  0.0801
  C  C106  1  0.526700  0.767100  0.045200  1.0  0.0813
  C  C107  1  0.666500  0.830200  0.058200  1.0  0.2992
  C  C108  1  0.698000  0.809200  0.105000  1.0  -0.174
  C  C109  1  0.786800  0.830200  0.130500  1.0  -0.1177
  C  C110  1  0.843000  0.871900  0.110600  1.0  0.0288
  C  C111  1  0.808800  0.893200  0.064300  1.0  -0.1546
  C  C112  1  0.721000  0.872300  0.038200  1.0  -0.0885
  C  C113  1  0.830000  0.806100  0.179100  1.0  0.6861
  C  C114  1  0.874400  0.935800  0.040500  1.0  0.6864
  C  C115  1  0.966800  0.213500  0.318200  1.0  0.6882
  C  C116  1  0.905400  0.188300  0.361100  1.0  -0.1618
  C  C117  1  0.814200  0.213500  0.381200  1.0  -0.0876
  C  C118  1  0.757900  0.192500  0.422100  1.0  0.297
  C  C119  1  0.791600  0.146500  0.443500  1.0  -0.1381
  C  C120  1  0.881900  0.120900  0.423300  1.0  -0.1646
  C  C121  1  0.939800  0.141800  0.382100  1.0  0.0287
  C  C122  1  0.922300  0.073000  0.448800  1.0  0.6795
  C  C123  1  0.615200  0.205000  0.483100  1.0  0.0803
  C  C124  1  0.473300  0.232900  0.545200  1.0  0.0812
  C  C125  1  0.333500  0.169800  0.558200  1.0  0.2989
  C  C126  1  0.302000  0.190800  0.605000  1.0  -0.1726
  C  C127  1  0.213200  0.169800  0.630500  1.0  -0.1176
  C  C128  1  0.157000  0.128100  0.610600  1.0  0.0292
  C  C129  1  0.191200  0.106800  0.564300  1.0  -0.1547
  C  C130  1  0.279000  0.127700  0.538200  1.0  -0.0886
  C  C131  1  0.170000  0.193900  0.679100  1.0  0.6868
  C  C132  1  0.125600  0.064200  0.540500  1.0  0.6865
  C  C133  1  0.966800  0.286500  0.681800  1.0  0.6883
  C  C134  1  0.905400  0.311700  0.638900  1.0  -0.1635
  C  C135  1  0.814200  0.286500  0.618800  1.0  -0.0847
  C  C136  1  0.757900  0.307500  0.577900  1.0  0.2968
  C  C137  1  0.791600  0.353500  0.556500  1.0  -0.138
  C  C138  1  0.881900  0.379100  0.576700  1.0  -0.1639
  C  C139  1  0.939800  0.358200  0.617900  1.0  0.0296
  C  C140  1  0.922300  0.427000  0.551200  1.0  0.68
  C  C141  1  0.615200  0.295000  0.516900  1.0  0.0795
  C  C142  1  0.473300  0.267100  0.454800  1.0  0.0815
  C  C143  1  0.333500  0.330200  0.441800  1.0  0.2995
  C  C144  1  0.302000  0.309200  0.395000  1.0  -0.1727
  C  C145  1  0.213200  0.330200  0.369500  1.0  -0.1174
  C  C146  1  0.157000  0.371900  0.389400  1.0  0.0289
  C  C147  1  0.191200  0.393200  0.435700  1.0  -0.1549
  C  C148  1  0.279000  0.372300  0.461800  1.0  -0.089
  C  C149  1  0.170000  0.306100  0.320900  1.0  0.6869
  C  C150  1  0.125600  0.435800  0.459500  1.0  0.6867
  C  C151  1  0.033200  0.713500  0.181800  1.0  0.6878
  C  C152  1  0.094600  0.688300  0.138900  1.0  -0.163
  C  C153  1  0.185800  0.713500  0.118800  1.0  -0.0857
  C  C154  1  0.242100  0.692500  0.077900  1.0  0.2973
  C  C155  1  0.208400  0.646500  0.056500  1.0  -0.1379
  C  C156  1  0.118100  0.620900  0.076700  1.0  -0.1642
  C  C157  1  0.060200  0.641800  0.117900  1.0  0.0292
  C  C158  1  0.077700  0.573000  0.051200  1.0  0.6798
  C  C159  1  0.384800  0.705000  0.016900  1.0  0.0802
  C  C160  1  0.526700  0.732900  0.954800  1.0  0.0806
  C  C161  1  0.666500  0.669800  0.941800  1.0  0.2985
  C  C162  1  0.698000  0.690800  0.895000  1.0  -0.1739
  C  C163  1  0.786800  0.669800  0.869500  1.0  -0.1179
  C  C164  1  0.843000  0.628100  0.889400  1.0  0.0287
  C  C165  1  0.808800  0.606800  0.935700  1.0  -0.1545
  C  C166  1  0.721000  0.627700  0.961800  1.0  -0.0904
  C  C167  1  0.830000  0.693900  0.820900  1.0  0.6863
  C  C168  1  0.874400  0.564200  0.959500  1.0  0.6863
  C  C169  1  0.966800  0.213500  0.181800  1.0  0.6883
  C  C170  1  0.905400  0.188300  0.138900  1.0  -0.1631
  C  C171  1  0.814200  0.213500  0.118800  1.0  -0.0861
  C  C172  1  0.757900  0.192500  0.077900  1.0  0.2971
  C  C173  1  0.791600  0.146500  0.056500  1.0  -0.1387
  C  C174  1  0.881900  0.120900  0.076700  1.0  -0.1641
  C  C175  1  0.939800  0.141800  0.117900  1.0  0.0297
  C  C176  1  0.922300  0.073000  0.051200  1.0  0.6797
  C  C177  1  0.615200  0.205000  0.016900  1.0  0.0798
  C  C178  1  0.473300  0.232900  0.954800  1.0  0.0811
  C  C179  1  0.333500  0.169800  0.941800  1.0  0.2988
  C  C180  1  0.302000  0.190800  0.895000  1.0  -0.1726
  C  C181  1  0.213200  0.169800  0.869500  1.0  -0.1177
  C  C182  1  0.157000  0.128100  0.889400  1.0  0.0291
  C  C183  1  0.191200  0.106800  0.935700  1.0  -0.1549
  C  C184  1  0.279000  0.127700  0.961800  1.0  -0.0892
  C  C185  1  0.170000  0.193900  0.820900  1.0  0.687
  C  C186  1  0.125600  0.064200  0.959500  1.0  0.6866
  C  C187  1  0.033200  0.786500  0.681800  1.0  0.6878
  C  C188  1  0.094600  0.811700  0.638900  1.0  -0.1634
  C  C189  1  0.185800  0.786500  0.618800  1.0  -0.0846
  C  C190  1  0.242100  0.807500  0.577900  1.0  0.2972
  C  C191  1  0.208400  0.853500  0.556500  1.0  -0.1369
  C  C192  1  0.118100  0.879100  0.576700  1.0  -0.1639
  C  C193  1  0.060200  0.858200  0.617900  1.0  0.0289
  C  C194  1  0.077700  0.927000  0.551200  1.0  0.6799
  C  C195  1  0.384800  0.795000  0.516900  1.0  0.0798
  C  C196  1  0.526700  0.767100  0.454800  1.0  0.0809
  C  C197  1  0.666500  0.830200  0.441800  1.0  0.299
  C  C198  1  0.698000  0.809200  0.395000  1.0  -0.1739
  C  C199  1  0.786800  0.830200  0.369500  1.0  -0.1177
  C  C200  1  0.843000  0.871900  0.389400  1.0  0.0289
  C  C201  1  0.808800  0.893200  0.435700  1.0  -0.1548
  C  C202  1  0.721000  0.872300  0.461800  1.0  -0.0906
  C  C203  1  0.830000  0.806100  0.320900  1.0  0.6862
  C  C204  1  0.874400  0.935800  0.459500  1.0  0.6865
  C  C205  1  0.033200  0.713500  0.318200  1.0  0.6879
  C  C206  1  0.094600  0.688300  0.361100  1.0  -0.1619
  C  C207  1  0.185800  0.713500  0.381200  1.0  -0.0875
  C  C208  1  0.242100  0.692500  0.422100  1.0  0.2973
  C  C209  1  0.208400  0.646500  0.443500  1.0  -0.1375
  C  C210  1  0.118100  0.620900  0.423300  1.0  -0.1646
  C  C211  1  0.060200  0.641800  0.382100  1.0  0.0282
  C  C212  1  0.077700  0.573000  0.448800  1.0  0.6797
  C  C213  1  0.384800  0.705000  0.483100  1.0  0.0808
  C  C214  1  0.526700  0.732900  0.545200  1.0  0.0818
  C  C215  1  0.666500  0.669800  0.558200  1.0  0.2986
  C  C216  1  0.698000  0.690800  0.605000  1.0  -0.174
  C  C217  1  0.786800  0.669800  0.630500  1.0  -0.118
  C  C218  1  0.843000  0.628100  0.610600  1.0  0.0288
  C  C219  1  0.808800  0.606800  0.564300  1.0  -0.1544
  C  C220  1  0.721000  0.627700  0.538200  1.0  -0.0889
  C  C221  1  0.830000  0.693900  0.679100  1.0  0.6864
  C  C222  1  0.874400  0.564200  0.540500  1.0  0.6862
  C  C223  1  0.966800  0.286500  0.818200  1.0  0.6882
  C  C224  1  0.905400  0.311700  0.861100  1.0  -0.162
  C  C225  1  0.814200  0.286500  0.881200  1.0  -0.0856
  C  C226  1  0.757900  0.307500  0.922100  1.0  0.2965
  C  C227  1  0.791600  0.353500  0.943500  1.0  -0.1373
  C  C228  1  0.881900  0.379100  0.923300  1.0  -0.1642
  C  C229  1  0.939800  0.358200  0.882100  1.0  0.0291
  C  C230  1  0.922300  0.427000  0.948800  1.0  0.6798
  C  C231  1  0.615200  0.295000  0.983100  1.0  0.0797
  C  C232  1  0.473300  0.267100  0.045200  1.0  0.0806
  C  C233  1  0.333500  0.330200  0.058200  1.0  0.2997
  C  C234  1  0.302000  0.309200  0.105000  1.0  -0.1725
  C  C235  1  0.213200  0.330200  0.130500  1.0  -0.1172
  C  C236  1  0.157000  0.371900  0.110600  1.0  0.0287
  C  C237  1  0.191200  0.393200  0.064300  1.0  -0.1546
  C  C238  1  0.279000  0.372300  0.038200  1.0  -0.0879
  C  C239  1  0.170000  0.306100  0.179100  1.0  0.6866
  C  C240  1  0.125600  0.435800  0.040500  1.0  0.6866
  C  C241  1  0.456600  0.750000  0.000000  1.0  -0.04
  C  C242  1  0.543400  0.250000  0.500000  1.0  -0.0399
  C  C243  1  0.543400  0.250000  0.000000  1.0  -0.0399
  C  C244  1  0.456600  0.750000  0.500000  1.0  -0.04
  O  O245  1  0.947600  0.807760  0.803110  1.0  -0.5745
  O  O246  1  0.071300  0.744700  0.802400  1.0  -0.5782
  O  O247  1  0.997800  0.949030  0.928760  1.0  -0.5717
  O  O248  1  0.124700  0.939550  0.989670  1.0  -0.5843
  O  O249  1  0.325500  0.778100  0.938900  1.0  -0.2808
  O  O250  1  0.584900  0.811840  0.028220  1.0  -0.2761
  O  O251  1  0.785300  0.766410  0.195450  1.0  -0.5799
  O  O252  1  0.913600  0.827300  0.197500  1.0  -0.5868
  O  O253  1  0.962000  0.946710  0.062110  1.0  -0.5835
  O  O254  1  0.836900  0.955670  0.000020  1.0  -0.5602
  O  O255  1  0.052400  0.192240  0.303110  1.0  -0.5751
  O  O256  1  0.928700  0.255300  0.302400  1.0  -0.5783
  O  O257  1  0.002200  0.050970  0.428760  1.0  -0.5726
  O  O258  1  0.875300  0.060450  0.489670  1.0  -0.5831
  O  O259  1  0.674500  0.221900  0.438900  1.0  -0.2812
  O  O260  1  0.415100  0.188160  0.528220  1.0  -0.2776
  O  O261  1  0.214700  0.233590  0.695450  1.0  -0.5807
  O  O262  1  0.086400  0.172700  0.697500  1.0  -0.5856
  O  O263  1  0.038000  0.053290  0.562110  1.0  -0.5834
  O  O264  1  0.163100  0.044330  0.500020  1.0  -0.5603
  O  O265  1  0.052400  0.307760  0.696890  1.0  -0.575
  O  O266  1  0.928700  0.244700  0.697600  1.0  -0.578
  O  O267  1  0.002200  0.449030  0.571240  1.0  -0.5717
  O  O268  1  0.875300  0.439550  0.510330  1.0  -0.5832
  O  O269  1  0.674500  0.278100  0.561100  1.0  -0.281
  O  O270  1  0.415100  0.311840  0.471780  1.0  -0.2747
  O  O271  1  0.214700  0.266410  0.304550  1.0  -0.581
  O  O272  1  0.086400  0.327300  0.302500  1.0  -0.5856
  O  O273  1  0.038000  0.446710  0.437890  1.0  -0.5836
  O  O274  1  0.163100  0.455670  0.499980  1.0  -0.5618
  O  O275  1  0.947600  0.692240  0.196890  1.0  -0.5755
  O  O276  1  0.071300  0.755300  0.197600  1.0  -0.5776
  O  O277  1  0.997800  0.550970  0.071240  1.0  -0.5719
  O  O278  1  0.124700  0.560450  0.010330  1.0  -0.5838
  O  O279  1  0.325500  0.721900  0.061100  1.0  -0.2828
  O  O280  1  0.584900  0.688160  0.971780  1.0  -0.2774
  O  O281  1  0.785300  0.733590  0.804550  1.0  -0.5804
  O  O282  1  0.913600  0.672700  0.802500  1.0  -0.5857
  O  O283  1  0.962000  0.553290  0.937890  1.0  -0.5844
  O  O284  1  0.836900  0.544330  0.999980  1.0  -0.5614
  O  O285  1  0.052400  0.192240  0.196890  1.0  -0.5751
  O  O286  1  0.928700  0.255300  0.197600  1.0  -0.5783
  O  O287  1  0.002200  0.050970  0.071240  1.0  -0.5717
  O  O288  1  0.875300  0.060450  0.010330  1.0  -0.5831
  O  O289  1  0.674500  0.221900  0.061100  1.0  -0.2818
  O  O290  1  0.415100  0.188160  0.971780  1.0  -0.2779
  O  O291  1  0.214700  0.233590  0.804550  1.0  -0.5806
  O  O292  1  0.086400  0.172700  0.802500  1.0  -0.5851
  O  O293  1  0.038000  0.053290  0.937890  1.0  -0.5833
  O  O294  1  0.163100  0.044330  0.999980  1.0  -0.5616
  O  O295  1  0.947600  0.807760  0.696890  1.0  -0.5747
  O  O296  1  0.071300  0.744700  0.697600  1.0  -0.5785
  O  O297  1  0.997800  0.949030  0.571240  1.0  -0.5721
  O  O298  1  0.124700  0.939550  0.510330  1.0  -0.584
  O  O299  1  0.325500  0.778100  0.561100  1.0  -0.2815
  O  O300  1  0.584900  0.811840  0.471780  1.0  -0.2749
  O  O301  1  0.785300  0.766410  0.304550  1.0  -0.5803
  O  O302  1  0.913600  0.827300  0.302500  1.0  -0.5865
  O  O303  1  0.962000  0.946710  0.437890  1.0  -0.5844
  O  O304  1  0.836900  0.955670  0.499980  1.0  -0.5619
  O  O305  1  0.947600  0.692240  0.303110  1.0  -0.5755
  O  O306  1  0.071300  0.755300  0.302400  1.0  -0.5775
  O  O307  1  0.997800  0.550970  0.428760  1.0  -0.5716
  O  O308  1  0.124700  0.560450  0.489670  1.0  -0.5839
  O  O309  1  0.325500  0.721900  0.438900  1.0  -0.2807
  O  O310  1  0.584900  0.688160  0.528220  1.0  -0.2768
  O  O311  1  0.785300  0.733590  0.695450  1.0  -0.5801
  O  O312  1  0.913600  0.672700  0.697500  1.0  -0.5862
  O  O313  1  0.962000  0.553290  0.562110  1.0  -0.5833
  O  O314  1  0.836900  0.544330  0.500020  1.0  -0.5608
  O  O315  1  0.052400  0.307760  0.803110  1.0  -0.5748
  O  O316  1  0.928700  0.244700  0.802400  1.0  -0.5783
  O  O317  1  0.002200  0.449030  0.928760  1.0  -0.5728
  O  O318  1  0.875300  0.439550  0.989670  1.0  -0.5834
  O  O319  1  0.674500  0.278100  0.938900  1.0  -0.2814
  O  O320  1  0.415100  0.311840  0.028220  1.0  -0.2767
  O  O321  1  0.214700  0.266410  0.195450  1.0  -0.5812
  O  O322  1  0.086400  0.327300  0.197500  1.0  -0.5859
  O  O323  1  0.038000  0.446710  0.062110  1.0  -0.5835
  O  O324  1  0.163100  0.455670  0.000020  1.0  -0.5605
