# generated using pymatgen
data_Zn4H20C37O20
_symmetry_space_group_name_H-M   'P 1'
_cell_length_a   12.41050000
_cell_length_b   26.21720000
_cell_length_c   26.22150000
_cell_angle_alpha   90.00000000
_cell_angle_beta   90.00000000
_cell_angle_gamma   90.00000000
_symmetry_Int_Tables_number   1
_chemical_formula_structural   Zn4H20C37O20
_chemical_formula_sum   'Zn16 H80 C148 O80'
_cell_volume   8531.65171177
_cell_formula_units_Z   4
loop_
 _symmetry_equiv_pos_site_id
 _symmetry_equiv_pos_as_xyz
  1  'x, y, z'
loop_
 _atom_site_type_symbol
 _atom_site_label
 _atom_site_symmetry_multiplicity
 _atom_site_fract_x
 _atom_site_fract_y
 _atom_site_fract_z
 _atom_site_occupancy
 _atom_site_charge
  Zn  Zn1  1  0.918060  0.006880  0.959200  1.0  1.1644
  Zn  Zn2  1  0.081940  0.993120  0.459200  1.0  1.165
  Zn  Zn3  1  0.081940  0.506880  0.540800  1.0  1.164
  Zn  Zn4  1  0.918060  0.493120  0.040800  1.0  1.1636
  Zn  Zn5  1  0.081940  0.993120  0.040800  1.0  1.1649
  Zn  Zn6  1  0.918060  0.006880  0.540800  1.0  1.1627
  Zn  Zn7  1  0.918060  0.493120  0.459200  1.0  1.1653
  Zn  Zn8  1  0.081940  0.506880  0.959200  1.0  1.1642
  Zn  Zn9  1  0.845920  0.778820  0.750000  1.0  1.119
  Zn  Zn10  1  0.012870  0.697030  0.750000  1.0  1.1333
  Zn  Zn11  1  0.154080  0.221180  0.250000  1.0  1.1224
  Zn  Zn12  1  0.987130  0.302970  0.250000  1.0  1.1326
  Zn  Zn13  1  0.154080  0.278820  0.750000  1.0  1.1206
  Zn  Zn14  1  0.987130  0.197030  0.750000  1.0  1.1319
  Zn  Zn15  1  0.845920  0.721180  0.250000  1.0  1.1217
  Zn  Zn16  1  0.012870  0.802970  0.250000  1.0  1.1338
  H  H17  1  0.210700  0.755200  0.866300  1.0  0.1221
  H  H18  1  0.247100  0.868300  0.969900  1.0  0.1065
  H  H19  1  0.003500  0.873200  0.869600  1.0  0.1024
  H  H20  1  0.428600  0.824100  0.975300  1.0  0.0611
  H  H21  1  0.335100  0.804100  0.010700  1.0  0.054
  H  H22  1  0.575300  0.740400  0.054600  1.0  0.0526
  H  H23  1  0.482000  0.776300  0.073900  1.0  0.0559
  H  H24  1  0.659300  0.781200  0.118100  1.0  0.1112
  H  H25  1  0.900600  0.884300  0.125900  1.0  0.1045
  H  H26  1  0.697900  0.885100  0.006100  1.0  0.1193
  H  H27  1  0.789300  0.244800  0.366300  1.0  0.122
  H  H28  1  0.752900  0.131700  0.469900  1.0  0.1072
  H  H29  1  0.996500  0.126800  0.369600  1.0  0.1021
  H  H30  1  0.571400  0.175900  0.475300  1.0  0.0606
  H  H31  1  0.664900  0.195900  0.510700  1.0  0.0538
  H  H32  1  0.424700  0.259600  0.554600  1.0  0.0526
  H  H33  1  0.518000  0.223700  0.573900  1.0  0.0575
  H  H34  1  0.340700  0.218800  0.618100  1.0  0.1111
  H  H35  1  0.099400  0.115700  0.625900  1.0  0.1042
  H  H36  1  0.302100  0.114900  0.506100  1.0  0.1194
  H  H37  1  0.789300  0.255200  0.633700  1.0  0.1219
  H  H38  1  0.752900  0.368300  0.530100  1.0  0.1071
  H  H39  1  0.996500  0.373200  0.630400  1.0  0.1023
  H  H40  1  0.571400  0.324100  0.524700  1.0  0.0602
  H  H41  1  0.664900  0.304100  0.489300  1.0  0.0544
  H  H42  1  0.424700  0.240400  0.445400  1.0  0.0522
  H  H43  1  0.518000  0.276300  0.426100  1.0  0.0561
  H  H44  1  0.340700  0.281200  0.381900  1.0  0.1111
  H  H45  1  0.099400  0.384300  0.374100  1.0  0.1041
  H  H46  1  0.302100  0.385100  0.493900  1.0  0.1184
  H  H47  1  0.210700  0.744800  0.133700  1.0  0.122
  H  H48  1  0.247100  0.631700  0.030100  1.0  0.1071
  H  H49  1  0.003500  0.626800  0.130400  1.0  0.1025
  H  H50  1  0.428600  0.675900  0.024700  1.0  0.0614
  H  H51  1  0.335100  0.695900  0.989300  1.0  0.0556
  H  H52  1  0.575300  0.759600  0.945400  1.0  0.0527
  H  H53  1  0.482000  0.723700  0.926100  1.0  0.0559
  H  H54  1  0.659300  0.718800  0.881900  1.0  0.1111
  H  H55  1  0.900600  0.615700  0.874100  1.0  0.1044
  H  H56  1  0.697900  0.614900  0.993900  1.0  0.1186
  H  H57  1  0.789300  0.244800  0.133700  1.0  0.1221
  H  H58  1  0.752900  0.131700  0.030100  1.0  0.1071
  H  H59  1  0.996500  0.126800  0.130400  1.0  0.1023
  H  H60  1  0.571400  0.175900  0.024700  1.0  0.0609
  H  H61  1  0.664900  0.195900  0.989300  1.0  0.0548
  H  H62  1  0.424700  0.259600  0.945400  1.0  0.0527
  H  H63  1  0.518000  0.223700  0.926100  1.0  0.0562
  H  H64  1  0.340700  0.218800  0.881900  1.0  0.1113
  H  H65  1  0.099400  0.115700  0.874100  1.0  0.1042
  H  H66  1  0.302100  0.114900  0.993900  1.0  0.1185
  H  H67  1  0.210700  0.755200  0.633700  1.0  0.1219
  H  H68  1  0.247100  0.868300  0.530100  1.0  0.1071
  H  H69  1  0.003500  0.873200  0.630400  1.0  0.1022
  H  H70  1  0.428600  0.824100  0.524700  1.0  0.0605
  H  H71  1  0.335100  0.804100  0.489300  1.0  0.0551
  H  H72  1  0.575300  0.740400  0.445400  1.0  0.0521
  H  H73  1  0.482000  0.776300  0.426100  1.0  0.056
  H  H74  1  0.659300  0.781200  0.381900  1.0  0.1109
  H  H75  1  0.900600  0.884300  0.374100  1.0  0.1045
  H  H76  1  0.697900  0.885100  0.493900  1.0  0.1184
  H  H77  1  0.210700  0.744800  0.366300  1.0  0.1218
  H  H78  1  0.247100  0.631700  0.469900  1.0  0.107
  H  H79  1  0.003500  0.626800  0.369600  1.0  0.1024
  H  H80  1  0.428600  0.675900  0.475300  1.0  0.061
  H  H81  1  0.335100  0.695900  0.510700  1.0  0.0548
  H  H82  1  0.575300  0.759600  0.554600  1.0  0.0518
  H  H83  1  0.482000  0.723700  0.573900  1.0  0.0566
  H  H84  1  0.659300  0.718800  0.618100  1.0  0.1111
  H  H85  1  0.900600  0.615700  0.625900  1.0  0.1044
  H  H86  1  0.697900  0.614900  0.506100  1.0  0.1194
  H  H87  1  0.789300  0.255200  0.866300  1.0  0.122
  H  H88  1  0.752900  0.368300  0.969900  1.0  0.1068
  H  H89  1  0.996500  0.373200  0.869600  1.0  0.1023
  H  H90  1  0.571400  0.324100  0.975300  1.0  0.0607
  H  H91  1  0.664900  0.304100  0.010700  1.0  0.0533
  H  H92  1  0.424700  0.240400  0.054600  1.0  0.0532
  H  H93  1  0.518000  0.276300  0.073900  1.0  0.0567
  H  H94  1  0.340700  0.281200  0.118100  1.0  0.1112
  H  H95  1  0.099400  0.384300  0.125900  1.0  0.104
  H  H96  1  0.302100  0.385100  0.006100  1.0  0.1193
  C  C97  1  0.034800  0.786000  0.819900  1.0  0.689
  C  C98  1  0.096600  0.810700  0.862100  1.0  -0.1758
  C  C99  1  0.187300  0.785500  0.881000  1.0  -0.1208
  C  C100  1  0.243200  0.807200  0.923000  1.0  0.2354
  C  C101  1  0.209600  0.853400  0.943000  1.0  -0.1414
  C  C102  1  0.119100  0.877600  0.922600  1.0  -0.1399
  C  C103  1  0.063600  0.856600  0.882800  1.0  0.0184
  C  C104  1  0.078900  0.926300  0.948200  1.0  0.6872
  C  C105  1  0.384400  0.794700  0.983600  1.0  0.085
  C  C106  1  0.526200  0.767500  0.044700  1.0  0.0593
  C  C107  1  0.666400  0.829100  0.057500  1.0  0.2653
  C  C108  1  0.697000  0.808400  0.104000  1.0  -0.1625
  C  C109  1  0.786300  0.829500  0.129400  1.0  -0.1552
  C  C110  1  0.841600  0.870600  0.108800  1.0  0.0248
  C  C111  1  0.808700  0.891500  0.062200  1.0  -0.162
  C  C112  1  0.720700  0.871100  0.036800  1.0  -0.0776
  C  C113  1  0.828100  0.805500  0.177700  1.0  0.7276
  C  C114  1  0.871100  0.934400  0.038400  1.0  0.6912
  C  C115  1  0.965200  0.214000  0.319900  1.0  0.6894
  C  C116  1  0.903400  0.189300  0.362100  1.0  -0.1757
  C  C117  1  0.812700  0.214500  0.381000  1.0  -0.1238
  C  C118  1  0.756800  0.192800  0.423000  1.0  0.235
  C  C119  1  0.790400  0.146600  0.443000  1.0  -0.1421
  C  C120  1  0.880900  0.122400  0.422600  1.0  -0.1401
  C  C121  1  0.936400  0.143400  0.382800  1.0  0.0178
  C  C122  1  0.921100  0.073700  0.448200  1.0  0.6864
  C  C123  1  0.615600  0.205300  0.483600  1.0  0.0854
  C  C124  1  0.473800  0.232500  0.544700  1.0  0.0595
  C  C125  1  0.333600  0.170900  0.557500  1.0  0.2652
  C  C126  1  0.303000  0.191600  0.604000  1.0  -0.1611
  C  C127  1  0.213700  0.170500  0.629400  1.0  -0.1552
  C  C128  1  0.158400  0.129400  0.608800  1.0  0.0251
  C  C129  1  0.191300  0.108500  0.562200  1.0  -0.1623
  C  C130  1  0.279300  0.128900  0.536800  1.0  -0.0776
  C  C131  1  0.171900  0.194500  0.677700  1.0  0.7291
  C  C132  1  0.128900  0.065600  0.538400  1.0  0.6902
  C  C133  1  0.965200  0.286000  0.680100  1.0  0.6891
  C  C134  1  0.903400  0.310700  0.637900  1.0  -0.1775
  C  C135  1  0.812700  0.285500  0.619000  1.0  -0.1209
  C  C136  1  0.756800  0.307200  0.577000  1.0  0.2349
  C  C137  1  0.790400  0.353400  0.557000  1.0  -0.1411
  C  C138  1  0.880900  0.377600  0.577400  1.0  -0.14
  C  C139  1  0.936400  0.356600  0.617200  1.0  0.018
  C  C140  1  0.921100  0.426300  0.551800  1.0  0.6865
  C  C141  1  0.615600  0.294700  0.516400  1.0  0.0845
  C  C142  1  0.473800  0.267500  0.455300  1.0  0.0612
  C  C143  1  0.333600  0.329100  0.442500  1.0  0.2658
  C  C144  1  0.303000  0.308400  0.396000  1.0  -0.1611
  C  C145  1  0.213700  0.329500  0.370600  1.0  -0.1552
  C  C146  1  0.158400  0.370600  0.391200  1.0  0.025
  C  C147  1  0.191300  0.391500  0.437800  1.0  -0.1617
  C  C148  1  0.279300  0.371100  0.463200  1.0  -0.0761
  C  C149  1  0.171900  0.305500  0.322300  1.0  0.727
  C  C150  1  0.128900  0.434400  0.461600  1.0  0.6904
  C  C151  1  0.034800  0.714000  0.180100  1.0  0.6894
  C  C152  1  0.096600  0.689300  0.137900  1.0  -0.1775
  C  C153  1  0.187300  0.714500  0.119000  1.0  -0.1222
  C  C154  1  0.243200  0.692800  0.077000  1.0  0.2355
  C  C155  1  0.209600  0.646600  0.057000  1.0  -0.1418
  C  C156  1  0.119100  0.622400  0.077400  1.0  -0.1403
  C  C157  1  0.063600  0.643400  0.117200  1.0  0.0183
  C  C158  1  0.078900  0.573700  0.051800  1.0  0.6859
  C  C159  1  0.384400  0.705300  0.016400  1.0  0.0858
  C  C160  1  0.526200  0.732500  0.955300  1.0  0.06
  C  C161  1  0.666400  0.670900  0.942500  1.0  0.2645
  C  C162  1  0.697000  0.691600  0.896000  1.0  -0.162
  C  C163  1  0.786300  0.670500  0.870600  1.0  -0.1548
  C  C164  1  0.841600  0.629400  0.891200  1.0  0.0252
  C  C165  1  0.808700  0.608500  0.937800  1.0  -0.1623
  C  C166  1  0.720700  0.628900  0.963200  1.0  -0.0773
  C  C167  1  0.828100  0.694500  0.822300  1.0  0.7274
  C  C168  1  0.871100  0.565600  0.961600  1.0  0.6908
  C  C169  1  0.965200  0.214000  0.180100  1.0  0.6895
  C  C170  1  0.903400  0.189300  0.137900  1.0  -0.1776
  C  C171  1  0.812700  0.214500  0.119000  1.0  -0.1228
  C  C172  1  0.756800  0.192800  0.077000  1.0  0.2348
  C  C173  1  0.790400  0.146600  0.057000  1.0  -0.1419
  C  C174  1  0.880900  0.122400  0.077400  1.0  -0.1404
  C  C175  1  0.936400  0.143400  0.117200  1.0  0.0183
  C  C176  1  0.921100  0.073700  0.051800  1.0  0.6858
  C  C177  1  0.615600  0.205300  0.016400  1.0  0.0851
  C  C178  1  0.473800  0.232500  0.955300  1.0  0.0614
  C  C179  1  0.333600  0.170900  0.942500  1.0  0.2651
  C  C180  1  0.303000  0.191600  0.896000  1.0  -0.1609
  C  C181  1  0.213700  0.170500  0.870600  1.0  -0.1548
  C  C182  1  0.158400  0.129400  0.891200  1.0  0.0251
  C  C183  1  0.191300  0.108500  0.937800  1.0  -0.1622
  C  C184  1  0.279300  0.128900  0.963200  1.0  -0.0766
  C  C185  1  0.171900  0.194500  0.822300  1.0  0.7277
  C  C186  1  0.128900  0.065600  0.961600  1.0  0.6904
  C  C187  1  0.034800  0.786000  0.680100  1.0  0.689
  C  C188  1  0.096600  0.810700  0.637900  1.0  -0.1775
  C  C189  1  0.187300  0.785500  0.619000  1.0  -0.1203
  C  C190  1  0.243200  0.807200  0.577000  1.0  0.2355
  C  C191  1  0.209600  0.853400  0.557000  1.0  -0.1407
  C  C192  1  0.119100  0.877600  0.577400  1.0  -0.14
  C  C193  1  0.063600  0.856600  0.617200  1.0  0.0182
  C  C194  1  0.078900  0.926300  0.551800  1.0  0.6865
  C  C195  1  0.384400  0.794700  0.516400  1.0  0.085
  C  C196  1  0.526200  0.767500  0.455300  1.0  0.0595
  C  C197  1  0.666400  0.829100  0.442500  1.0  0.2653
  C  C198  1  0.697000  0.808400  0.396000  1.0  -0.1621
  C  C199  1  0.786300  0.829500  0.370600  1.0  -0.1554
  C  C200  1  0.841600  0.870600  0.391200  1.0  0.0251
  C  C201  1  0.808700  0.891500  0.437800  1.0  -0.162
  C  C202  1  0.720700  0.871100  0.463200  1.0  -0.0773
  C  C203  1  0.828100  0.805500  0.322300  1.0  0.7268
  C  C204  1  0.871100  0.934400  0.461600  1.0  0.6913
  C  C205  1  0.034800  0.714000  0.319900  1.0  0.6893
  C  C206  1  0.096600  0.689300  0.362100  1.0  -0.1757
  C  C207  1  0.187300  0.714500  0.381000  1.0  -0.1237
  C  C208  1  0.243200  0.692800  0.423000  1.0  0.2357
  C  C209  1  0.209600  0.646600  0.443000  1.0  -0.1421
  C  C210  1  0.119100  0.622400  0.422600  1.0  -0.1399
  C  C211  1  0.063600  0.643400  0.382800  1.0  0.0177
  C  C212  1  0.078900  0.573700  0.448200  1.0  0.6865
  C  C213  1  0.384400  0.705300  0.483600  1.0  0.0861
  C  C214  1  0.526200  0.732500  0.544700  1.0  0.0603
  C  C215  1  0.666400  0.670900  0.557500  1.0  0.2646
  C  C216  1  0.697000  0.691600  0.604000  1.0  -0.1622
  C  C217  1  0.786300  0.670500  0.629400  1.0  -0.1552
  C  C218  1  0.841600  0.629400  0.608800  1.0  0.0252
  C  C219  1  0.808700  0.608500  0.562200  1.0  -0.1624
  C  C220  1  0.720700  0.628900  0.536800  1.0  -0.0777
  C  C221  1  0.828100  0.694500  0.677700  1.0  0.7285
  C  C222  1  0.871100  0.565600  0.538400  1.0  0.6906
  C  C223  1  0.965200  0.286000  0.819900  1.0  0.689
  C  C224  1  0.903400  0.310700  0.862100  1.0  -0.1757
  C  C225  1  0.812700  0.285500  0.881000  1.0  -0.121
  C  C226  1  0.756800  0.307200  0.923000  1.0  0.2348
  C  C227  1  0.790400  0.353400  0.943000  1.0  -0.1417
  C  C228  1  0.880900  0.377600  0.922600  1.0  -0.1401
  C  C229  1  0.936400  0.356600  0.882800  1.0  0.0184
  C  C230  1  0.921100  0.426300  0.948200  1.0  0.687
  C  C231  1  0.615600  0.294700  0.983600  1.0  0.0847
  C  C232  1  0.473800  0.267500  0.044700  1.0  0.0584
  C  C233  1  0.333600  0.329100  0.057500  1.0  0.2659
  C  C234  1  0.303000  0.308400  0.104000  1.0  -0.1612
  C  C235  1  0.213700  0.329500  0.129400  1.0  -0.1551
  C  C236  1  0.158400  0.370600  0.108800  1.0  0.0245
  C  C237  1  0.191300  0.391500  0.062200  1.0  -0.1616
  C  C238  1  0.279300  0.371100  0.036800  1.0  -0.0772
  C  C239  1  0.171900  0.305500  0.177700  1.0  0.728
  C  C240  1  0.128900  0.434400  0.038400  1.0  0.6903
  C  C241  1  0.454900  0.750000  0.000000  1.0  -0.0372
  C  C242  1  0.545100  0.250000  0.500000  1.0  -0.0371
  C  C243  1  0.545100  0.250000  0.000000  1.0  -0.0371
  C  C244  1  0.454900  0.750000  0.500000  1.0  -0.0372
  O  O245  1  0.951500  0.805600  0.803880  1.0  -0.6123
  O  O246  1  0.074400  0.743700  0.803400  1.0  -0.6284
  O  O247  1  0.999900  0.948100  0.927100  1.0  -0.6073
  O  O248  1  0.125000  0.939430  0.988100  1.0  -0.6281
  O  O249  1  0.325600  0.777950  0.939400  1.0  -0.2868
  O  O250  1  0.584600  0.810500  0.027770  1.0  -0.2797
  O  O251  1  0.783600  0.766970  0.194260  1.0  -0.5939
  O  O252  1  0.909400  0.827500  0.197300  1.0  -0.6256
  O  O253  1  0.957400  0.946700  0.060200  1.0  -0.6443
  O  O254  1  0.833100  0.955000  0.998400  1.0  -0.6028
  O  O255  1  0.048500  0.194400  0.303880  1.0  -0.6125
  O  O256  1  0.925600  0.256300  0.303400  1.0  -0.6291
  O  O257  1  0.000100  0.051900  0.427100  1.0  -0.6072
  O  O258  1  0.875000  0.060570  0.488100  1.0  -0.6256
  O  O259  1  0.674400  0.222050  0.439400  1.0  -0.2863
  O  O260  1  0.415400  0.189500  0.527770  1.0  -0.2808
  O  O261  1  0.216400  0.233030  0.694260  1.0  -0.5951
  O  O262  1  0.090600  0.172500  0.697300  1.0  -0.6247
  O  O263  1  0.042600  0.053300  0.560200  1.0  -0.6445
  O  O264  1  0.166900  0.045000  0.498400  1.0  -0.6006
  O  O265  1  0.048500  0.305600  0.696120  1.0  -0.6141
  O  O266  1  0.925600  0.243700  0.696600  1.0  -0.6283
  O  O267  1  0.000100  0.448100  0.572900  1.0  -0.6076
  O  O268  1  0.875000  0.439430  0.511900  1.0  -0.6263
  O  O269  1  0.674400  0.277950  0.560600  1.0  -0.2873
  O  O270  1  0.415400  0.310500  0.472230  1.0  -0.2773
  O  O271  1  0.216400  0.266970  0.305740  1.0  -0.5949
  O  O272  1  0.090600  0.327500  0.302700  1.0  -0.6251
  O  O273  1  0.042600  0.446700  0.439800  1.0  -0.6445
  O  O274  1  0.166900  0.455000  0.501600  1.0  -0.6026
  O  O275  1  0.951500  0.694400  0.196120  1.0  -0.6121
  O  O276  1  0.074400  0.756300  0.196600  1.0  -0.6286
  O  O277  1  0.999900  0.551900  0.072900  1.0  -0.6072
  O  O278  1  0.125000  0.560570  0.011900  1.0  -0.6271
  O  O279  1  0.325600  0.722050  0.060600  1.0  -0.2885
  O  O280  1  0.584600  0.689500  0.972230  1.0  -0.2801
  O  O281  1  0.783600  0.733030  0.805740  1.0  -0.596
  O  O282  1  0.909400  0.672500  0.802700  1.0  -0.6239
  O  O283  1  0.957400  0.553300  0.939800  1.0  -0.6446
  O  O284  1  0.833100  0.545000  0.001600  1.0  -0.6033
  O  O285  1  0.048500  0.194400  0.196120  1.0  -0.6127
  O  O286  1  0.925600  0.256300  0.196600  1.0  -0.6293
  O  O287  1  0.000100  0.051900  0.072900  1.0  -0.6075
  O  O288  1  0.875000  0.060570  0.011900  1.0  -0.6264
  O  O289  1  0.674400  0.222050  0.060600  1.0  -0.287
  O  O290  1  0.415400  0.189500  0.972230  1.0  -0.2799
  O  O291  1  0.216400  0.233030  0.805740  1.0  -0.5958
  O  O292  1  0.090600  0.172500  0.802700  1.0  -0.6242
  O  O293  1  0.042600  0.053300  0.939800  1.0  -0.6443
  O  O294  1  0.166900  0.045000  0.001600  1.0  -0.6021
  O  O295  1  0.951500  0.805600  0.696120  1.0  -0.6126
  O  O296  1  0.074400  0.743700  0.696600  1.0  -0.6289
  O  O297  1  0.999900  0.948100  0.572900  1.0  -0.6075
  O  O298  1  0.125000  0.939430  0.511900  1.0  -0.6271
  O  O299  1  0.325600  0.777950  0.560600  1.0  -0.2882
  O  O300  1  0.584600  0.810500  0.472230  1.0  -0.2782
  O  O301  1  0.783600  0.766970  0.305740  1.0  -0.5948
  O  O302  1  0.909400  0.827500  0.302700  1.0  -0.6261
  O  O303  1  0.957400  0.946700  0.439800  1.0  -0.6446
  O  O304  1  0.833100  0.955000  0.501600  1.0  -0.604
  O  O305  1  0.951500  0.694400  0.303880  1.0  -0.6118
  O  O306  1  0.074400  0.756300  0.303400  1.0  -0.6279
  O  O307  1  0.999900  0.551900  0.427100  1.0  -0.6072
  O  O308  1  0.125000  0.560570  0.488100  1.0  -0.628
  O  O309  1  0.325600  0.722050  0.439400  1.0  -0.2867
  O  O310  1  0.584600  0.689500  0.527770  1.0  -0.2806
  O  O311  1  0.783600  0.733030  0.694260  1.0  -0.5954
  O  O312  1  0.909400  0.672500  0.697300  1.0  -0.6241
  O  O313  1  0.957400  0.553300  0.560200  1.0  -0.6441
  O  O314  1  0.833100  0.545000  0.498400  1.0  -0.6031
  O  O315  1  0.048500  0.305600  0.803880  1.0  -0.614
  O  O316  1  0.925600  0.243700  0.803400  1.0  -0.6282
  O  O317  1  0.000100  0.448100  0.927100  1.0  -0.6076
  O  O318  1  0.875000  0.439430  0.988100  1.0  -0.6258
  O  O319  1  0.674400  0.277950  0.939400  1.0  -0.2867
  O  O320  1  0.415400  0.310500  0.027770  1.0  -0.2794
  O  O321  1  0.216400  0.266970  0.194260  1.0  -0.5946
  O  O322  1  0.090600  0.327500  0.197300  1.0  -0.6245
  O  O323  1  0.042600  0.446700  0.060200  1.0  -0.6446
  O  O324  1  0.166900  0.455000  0.998400  1.0  -0.6009
