# generated using pymatgen
data_Cd4H20C37O20
_symmetry_space_group_name_H-M   'P 1'
_cell_length_a   18.32600000
_cell_length_b   19.03300000
_cell_length_c   12.52900000
_cell_angle_alpha   90.00000000
_cell_angle_beta   90.00000000
_cell_angle_gamma   90.00000000
_symmetry_Int_Tables_number   1
_chemical_formula_structural   Cd4H20C37O20
_chemical_formula_sum   'Cd8 H40 C74 O40'
_cell_volume   4370.09963898
_cell_formula_units_Z   2
loop_
 _symmetry_equiv_pos_site_id
 _symmetry_equiv_pos_as_xyz
  1  'x, y, z'
loop_
 _atom_site_type_symbol
 _atom_site_label
 _atom_site_symmetry_multiplicity
 _atom_site_fract_x
 _atom_site_fract_y
 _atom_site_fract_z
 _atom_site_occupancy
 _atom_site_charge
  Cd  Cd1  1  0.728800  0.748420  0.380380  1.0  1.0981
  Cd  Cd2  1  0.825960  0.663270  0.558000  1.0  0.9387
  Cd  Cd3  1  0.271200  0.251580  0.380380  1.0  1.0986
  Cd  Cd4  1  0.174040  0.336730  0.558000  1.0  0.9402
  Cd  Cd5  1  0.771200  0.248420  0.619620  1.0  1.0972
  Cd  Cd6  1  0.674040  0.163270  0.442000  1.0  0.9439
  Cd  Cd7  1  0.228800  0.751580  0.619620  1.0  1.096
  Cd  Cd8  1  0.325960  0.836730  0.442000  1.0  0.9453
  H  H9  1  0.631900  0.620600  0.732000  1.0  0.1313
  H  H10  1  0.422100  0.652900  0.819100  1.0  0.11
  H  H11  1  0.505000  0.751400  0.557000  1.0  0.1239
  H  H12  1  0.438500  0.553200  0.890000  1.0  0.0893
  H  H13  1  0.469000  0.602700  0.978200  1.0  0.0839
  H  H14  1  0.753300  0.449900  0.447400  1.0  0.1225
  H  H15  1  0.619900  0.352500  0.236400  1.0  0.1356
  H  H16  1  0.657800  0.561700  0.208200  1.0  0.128
  H  H17  1  0.607600  0.534100  0.026200  1.0  0.083
  H  H18  1  0.554400  0.555400  0.123300  1.0  0.0703
  H  H19  1  0.368100  0.379400  0.732000  1.0  0.1315
  H  H20  1  0.577900  0.347100  0.819100  1.0  0.1102
  H  H21  1  0.495000  0.248600  0.557000  1.0  0.1236
  H  H22  1  0.561500  0.446800  0.890000  1.0  0.0889
  H  H23  1  0.531000  0.397300  0.978200  1.0  0.0826
  H  H24  1  0.246700  0.550100  0.447400  1.0  0.1229
  H  H25  1  0.380100  0.647500  0.236400  1.0  0.1359
  H  H26  1  0.342200  0.438300  0.208200  1.0  0.1269
  H  H27  1  0.392400  0.465900  0.026200  1.0  0.0822
  H  H28  1  0.445600  0.444600  0.123300  1.0  0.0715
  H  H29  1  0.868100  0.120600  0.268000  1.0  0.1318
  H  H30  1  0.077900  0.152900  0.180900  1.0  0.1106
  H  H31  1  0.995000  0.251400  0.443000  1.0  0.1241
  H  H32  1  0.061500  0.053200  0.110000  1.0  0.0886
  H  H33  1  0.031000  0.102700  0.021800  1.0  0.0838
  H  H34  1  0.746700  0.949900  0.552600  1.0  0.1227
  H  H35  1  0.880100  0.852500  0.763600  1.0  0.1353
  H  H36  1  0.842200  0.061700  0.791800  1.0  0.127
  H  H37  1  0.892400  0.034100  0.973800  1.0  0.0828
  H  H38  1  0.945600  0.055400  0.876700  1.0  0.0704
  H  H39  1  0.131900  0.879400  0.268000  1.0  0.132
  H  H40  1  0.922100  0.847100  0.180900  1.0  0.1106
  H  H41  1  0.005000  0.748600  0.443000  1.0  0.1241
  H  H42  1  0.938500  0.946800  0.110000  1.0  0.0882
  H  H43  1  0.969000  0.897300  0.021800  1.0  0.0812
  H  H44  1  0.253300  0.050100  0.552600  1.0  0.1227
  H  H45  1  0.119900  0.147500  0.763600  1.0  0.136
  H  H46  1  0.157800  0.938300  0.791800  1.0  0.1275
  H  H47  1  0.107600  0.965900  0.973800  1.0  0.0833
  H  H48  1  0.054400  0.944600  0.876700  1.0  0.0715
  C  C49  1  0.639600  0.701900  0.559600  1.0  0.7327
  C  C50  1  0.577700  0.687800  0.633700  1.0  -0.1479
  C  C51  1  0.585900  0.642000  0.719300  1.0  -0.0873
  C  C52  1  0.528600  0.627400  0.785400  1.0  0.3
  C  C53  1  0.461200  0.661200  0.771100  1.0  -0.1493
  C  C54  1  0.452400  0.707600  0.684700  1.0  -0.1329
  C  C55  1  0.510900  0.720400  0.615800  1.0  0.0144
  C  C56  1  0.480500  0.563500  0.933000  1.0  0.074
  C  C57  1  0.378500  0.739100  0.663600  1.0  0.7435
  C  C58  1  0.746400  0.581100  0.374100  1.0  0.7438
  C  C59  1  0.711500  0.514700  0.333900  1.0  -0.1425
  C  C60  1  0.722200  0.451700  0.386800  1.0  0.0247
  C  C61  1  0.687600  0.391100  0.350900  1.0  -0.161
  C  C62  1  0.643300  0.393800  0.261600  1.0  -0.0896
  C  C63  1  0.633300  0.457000  0.209600  1.0  0.2776
  C  C64  1  0.665900  0.518400  0.244100  1.0  -0.1522
  C  C65  1  0.696600  0.322700  0.412200  1.0  0.7203
  C  C66  1  0.566400  0.518000  0.071200  1.0  0.0731
  C  C67  1  0.360400  0.298100  0.559600  1.0  0.7337
  C  C68  1  0.422300  0.312200  0.633700  1.0  -0.1488
  C  C69  1  0.414100  0.358000  0.719300  1.0  -0.0878
  C  C70  1  0.471400  0.372600  0.785400  1.0  0.2994
  C  C71  1  0.538800  0.338800  0.771100  1.0  -0.1484
  C  C72  1  0.547600  0.292400  0.684700  1.0  -0.1319
  C  C73  1  0.489100  0.279600  0.615800  1.0  0.0143
  C  C74  1  0.519500  0.436500  0.933000  1.0  0.074
  C  C75  1  0.621500  0.260900  0.663600  1.0  0.7432
  C  C76  1  0.253600  0.418900  0.374100  1.0  0.7434
  C  C77  1  0.288500  0.485300  0.333900  1.0  -0.143
  C  C78  1  0.277800  0.548300  0.386800  1.0  0.0243
  C  C79  1  0.312400  0.608900  0.350900  1.0  -0.1612
  C  C80  1  0.356700  0.606200  0.261600  1.0  -0.0903
  C  C81  1  0.366700  0.543000  0.209600  1.0  0.277
  C  C82  1  0.334100  0.481600  0.244100  1.0  -0.152
  C  C83  1  0.303400  0.677300  0.412200  1.0  0.7204
  C  C84  1  0.433600  0.482000  0.071200  1.0  0.0724
  C  C85  1  0.860400  0.201900  0.440400  1.0  0.7344
  C  C86  1  0.922300  0.187800  0.366300  1.0  -0.1482
  C  C87  1  0.914100  0.142000  0.280700  1.0  -0.088
  C  C88  1  0.971400  0.127400  0.214600  1.0  0.2993
  C  C89  1  0.038800  0.161200  0.228900  1.0  -0.1475
  C  C90  1  0.047600  0.207600  0.315300  1.0  -0.1325
  C  C91  1  0.989100  0.220400  0.384200  1.0  0.0148
  C  C92  1  0.019500  0.063500  0.067000  1.0  0.0739
  C  C93  1  0.121500  0.239100  0.336400  1.0  0.7438
  C  C94  1  0.753600  0.081100  0.625900  1.0  0.7431
  C  C95  1  0.788500  0.014700  0.666100  1.0  -0.1425
  C  C96  1  0.777800  0.951700  0.613200  1.0  0.0248
  C  C97  1  0.812400  0.891100  0.649100  1.0  -0.1612
  C  C98  1  0.856700  0.893800  0.738400  1.0  -0.0892
  C  C99  1  0.866700  0.957000  0.790400  1.0  0.2769
  C  C100  1  0.834100  0.018400  0.755900  1.0  -0.1532
  C  C101  1  0.803400  0.822700  0.587800  1.0  0.72
  C  C102  1  0.933600  0.018000  0.928800  1.0  0.0737
  C  C103  1  0.139600  0.798100  0.440400  1.0  0.7332
  C  C104  1  0.077700  0.812200  0.366300  1.0  -0.1484
  C  C105  1  0.085900  0.858000  0.280700  1.0  -0.0877
  C  C106  1  0.028600  0.872600  0.214600  1.0  0.2995
  C  C107  1  0.961200  0.838800  0.228900  1.0  -0.1494
  C  C108  1  0.952400  0.792400  0.315300  1.0  -0.1327
  C  C109  1  0.010900  0.779600  0.384200  1.0  0.0153
  C  C110  1  0.980500  0.936500  0.067000  1.0  0.0743
  C  C111  1  0.878500  0.760900  0.336400  1.0  0.7429
  C  C112  1  0.246400  0.918900  0.625900  1.0  0.7434
  C  C113  1  0.211500  0.985300  0.666100  1.0  -0.1424
  C  C114  1  0.222200  0.048300  0.613200  1.0  0.0246
  C  C115  1  0.187600  0.108900  0.649100  1.0  -0.1611
  C  C116  1  0.143300  0.106200  0.738400  1.0  -0.0903
  C  C117  1  0.133300  0.043000  0.790400  1.0  0.2782
  C  C118  1  0.165900  0.981600  0.755900  1.0  -0.152
  C  C119  1  0.196600  0.177300  0.587800  1.0  0.7203
  C  C120  1  0.066400  0.982000  0.928800  1.0  0.0739
  C  C121  1  0.500000  0.500000  0.002500  1.0  -0.0484
  C  C122  1  0.000000  0.000000  0.997500  1.0  -0.0485
  O  O123  1  0.726100  0.637320  0.330300  1.0  -0.6596
  O  O124  1  0.791570  0.575850  0.449500  1.0  -0.5811
  O  O125  1  0.627500  0.739000  0.478600  1.0  -0.5868
  O  O126  1  0.700400  0.673600  0.580500  1.0  -0.7408
  O  O127  1  0.666000  0.269090  0.370900  1.0  -0.5998
  O  O128  1  0.733500  0.325430  0.495200  1.0  -0.6619
  O  O129  1  0.373900  0.784000  0.593100  1.0  -0.7365
  O  O130  1  0.324900  0.716200  0.716100  1.0  -0.6078
  O  O131  1  0.584400  0.453700  0.124900  1.0  -0.2835
  O  O132  1  0.540400  0.580000  0.866000  1.0  -0.2741
  O  O133  1  0.273900  0.362680  0.330300  1.0  -0.6611
  O  O134  1  0.208430  0.424150  0.449500  1.0  -0.5801
  O  O135  1  0.372500  0.261000  0.478600  1.0  -0.5859
  O  O136  1  0.299600  0.326400  0.580500  1.0  -0.7424
  O  O137  1  0.334000  0.730910  0.370900  1.0  -0.6006
  O  O138  1  0.266500  0.674570  0.495200  1.0  -0.6618
  O  O139  1  0.626100  0.216000  0.593100  1.0  -0.7373
  O  O140  1  0.675100  0.283800  0.716100  1.0  -0.6077
  O  O141  1  0.415600  0.546300  0.124900  1.0  -0.282
  O  O142  1  0.459600  0.420000  0.866000  1.0  -0.275
  O  O143  1  0.773900  0.137320  0.669700  1.0  -0.6593
  O  O144  1  0.708430  0.075850  0.550500  1.0  -0.5817
  O  O145  1  0.872500  0.239000  0.521400  1.0  -0.5878
  O  O146  1  0.799600  0.173600  0.419500  1.0  -0.7423
  O  O147  1  0.834000  0.769090  0.629100  1.0  -0.5989
  O  O148  1  0.766500  0.825430  0.504800  1.0  -0.6622
  O  O149  1  0.126100  0.284000  0.406900  1.0  -0.7373
  O  O150  1  0.175100  0.216200  0.283900  1.0  -0.607
  O  O151  1  0.915600  0.953700  0.875100  1.0  -0.2833
  O  O152  1  0.959600  0.080000  0.134000  1.0  -0.2745
  O  O153  1  0.226100  0.862680  0.669700  1.0  -0.6589
  O  O154  1  0.291570  0.924150  0.550500  1.0  -0.5823
  O  O155  1  0.127500  0.761000  0.521400  1.0  -0.5879
  O  O156  1  0.200400  0.826400  0.419500  1.0  -0.7413
  O  O157  1  0.166000  0.230910  0.629100  1.0  -0.5998
  O  O158  1  0.233500  0.174570  0.504800  1.0  -0.6628
  O  O159  1  0.873900  0.716000  0.406900  1.0  -0.7355
  O  O160  1  0.824900  0.783800  0.283900  1.0  -0.6076
  O  O161  1  0.084400  0.046300  0.875100  1.0  -0.2832
  O  O162  1  0.040400  0.920000  0.134000  1.0  -0.2744
