# generated using pymatgen
data_TbH12(C9O2)3
_symmetry_space_group_name_H-M   'P 1'
_cell_length_a   7.25620000
_cell_length_b   19.35860000
_cell_length_c   25.93950000
_cell_angle_alpha   90.00000000
_cell_angle_beta   90.00000000
_cell_angle_gamma   90.00000000
_symmetry_Int_Tables_number   1
_chemical_formula_structural   TbH12(C9O2)3
_chemical_formula_sum   'Tb4 H48 C108 O24'
_cell_volume   3643.71827898
_cell_formula_units_Z   4
loop_
 _symmetry_equiv_pos_site_id
 _symmetry_equiv_pos_as_xyz
  1  'x, y, z'
loop_
 _atom_site_type_symbol
 _atom_site_label
 _atom_site_symmetry_multiplicity
 _atom_site_fract_x
 _atom_site_fract_y
 _atom_site_fract_z
 _atom_site_occupancy
 _atom_site_charge
  Tb  Tb1  1  0.629770  0.692570  0.738510  1.0  2.1743
  Tb  Tb2  1  0.370230  0.307430  0.238510  1.0  2.1737
  Tb  Tb3  1  0.129770  0.807430  0.738510  1.0  2.1752
  Tb  Tb4  1  0.870230  0.192570  0.238510  1.0  2.1755
  H  H5  1  0.527800  0.041200  0.230600  1.0  0.1028
  H  H6  1  0.561900  0.928200  0.261100  1.0  0.1188
  H  H7  1  0.292500  0.982400  0.391500  1.0  0.1135
  H  H8  1  0.226700  0.090800  0.356000  1.0  0.1127
  H  H9  1  0.884900  0.914200  0.563100  1.0  0.1074
  H  H10  1  0.775500  0.910900  0.480000  1.0  0.0998
  H  H11  1  0.584100  0.716600  0.503300  1.0  0.0897
  H  H12  1  0.686400  0.720100  0.587400  1.0  0.1059
  H  H13  1  0.610600  0.729700  0.247800  1.0  0.0979
  H  H14  1  0.595500  0.627300  0.199700  1.0  0.1127
  H  H15  1  0.408200  0.527700  0.327300  1.0  0.1
  H  H16  1  0.439300  0.628500  0.375000  1.0  0.0999
  H  H17  1  0.472200  0.958800  0.730600  1.0  0.1031
  H  H18  1  0.438100  0.071800  0.761100  1.0  0.1184
  H  H19  1  0.707500  0.017600  0.891500  1.0  0.1142
  H  H20  1  0.773300  0.909200  0.856000  1.0  0.112
  H  H21  1  0.115100  0.085800  0.063100  1.0  0.1075
  H  H22  1  0.224500  0.089100  0.980000  1.0  0.099
  H  H23  1  0.415900  0.283400  0.003300  1.0  0.0894
  H  H24  1  0.313600  0.279900  0.087400  1.0  0.1059
  H  H25  1  0.389400  0.270300  0.747800  1.0  0.0978
  H  H26  1  0.404500  0.372700  0.699700  1.0  0.1124
  H  H27  1  0.591800  0.472300  0.827300  1.0  0.1004
  H  H28  1  0.560700  0.371500  0.875000  1.0  0.0998
  H  H29  1  0.027800  0.458800  0.230600  1.0  0.103
  H  H30  1  0.061900  0.571800  0.261100  1.0  0.1185
  H  H31  1  0.792500  0.517600  0.391500  1.0  0.1139
  H  H32  1  0.726700  0.409200  0.356000  1.0  0.1128
  H  H33  1  0.384900  0.585800  0.563100  1.0  0.1075
  H  H34  1  0.275500  0.589100  0.480000  1.0  0.0989
  H  H35  1  0.084100  0.783400  0.503300  1.0  0.0896
  H  H36  1  0.186400  0.779900  0.587400  1.0  0.1059
  H  H37  1  0.110600  0.770300  0.247800  1.0  0.098
  H  H38  1  0.095500  0.872700  0.199700  1.0  0.1125
  H  H39  1  0.908200  0.972300  0.327300  1.0  0.0999
  H  H40  1  0.939300  0.871500  0.375000  1.0  0.0998
  H  H41  1  0.972200  0.541200  0.730600  1.0  0.103
  H  H42  1  0.938100  0.428200  0.761100  1.0  0.1185
  H  H43  1  0.207500  0.482400  0.891500  1.0  0.1138
  H  H44  1  0.273300  0.590800  0.856000  1.0  0.1113
  H  H45  1  0.615100  0.414200  0.063100  1.0  0.1076
  H  H46  1  0.724500  0.410900  0.980000  1.0  0.1001
  H  H47  1  0.915900  0.216600  0.003300  1.0  0.0895
  H  H48  1  0.813600  0.220100  0.087400  1.0  0.1058
  H  H49  1  0.889400  0.229700  0.747800  1.0  0.0979
  H  H50  1  0.904500  0.127300  0.699700  1.0  0.1127
  H  H51  1  0.091800  0.027700  0.827300  1.0  0.1004
  H  H52  1  0.060700  0.128500  0.875000  1.0  0.1
  C  C53  1  0.362800  0.149600  0.272000  1.0  0.7182
  C  C54  1  0.378700  0.077300  0.290400  1.0  -0.0902
  C  C55  1  0.476500  0.028900  0.263000  1.0  -0.0614
  C  C56  1  0.502100  0.962100  0.281700  1.0  -0.1104
  C  C57  1  0.440000  0.945700  0.330300  1.0  -0.0207
  C  C58  1  0.338000  0.994000  0.358200  1.0  -0.1023
  C  C59  1  0.302400  0.059100  0.337800  1.0  -0.0935
  C  C60  1  0.487100  0.876800  0.353600  1.0  -0.0643
  C  C61  1  0.491500  0.817100  0.323900  1.0  -0.0278
  C  C62  1  0.857800  0.818900  0.639400  1.0  0.6892
  C  C63  1  0.788100  0.817800  0.585100  1.0  -0.1255
  C  C64  1  0.820000  0.874700  0.551200  1.0  -0.089
  C  C65  1  0.757300  0.872200  0.501800  1.0  -0.0708
  C  C66  1  0.665500  0.813200  0.482200  1.0  -0.0412
  C  C67  1  0.642900  0.757300  0.515600  1.0  -0.0778
  C  C68  1  0.703100  0.759200  0.565800  1.0  -0.0885
  C  C69  1  0.596700  0.812400  0.428600  1.0  -0.0845
  C  C70  1  0.538000  0.875400  0.406200  1.0  0.0158
  C  C71  1  0.595100  0.753000  0.398900  1.0  0.0055
  C  C72  1  0.541600  0.754300  0.346800  1.0  -0.0575
  C  C73  1  0.527900  0.689800  0.316300  1.0  -0.0779
  C  C74  1  0.572700  0.688200  0.264200  1.0  -0.0673
  C  C75  1  0.563800  0.627400  0.235300  1.0  -0.1108
  C  C76  1  0.507400  0.566900  0.259700  1.0  -0.1353
  C  C77  1  0.454500  0.568300  0.311400  1.0  -0.0818
  C  C78  1  0.469400  0.628700  0.339400  1.0  -0.0492
  C  C79  1  0.495000  0.500000  0.232100  1.0  0.6504
  C  C80  1  0.637200  0.850400  0.772000  1.0  0.7222
  C  C81  1  0.621300  0.922700  0.790400  1.0  -0.0912
  C  C82  1  0.523500  0.971100  0.763000  1.0  -0.0607
  C  C83  1  0.497900  0.037900  0.781700  1.0  -0.1096
  C  C84  1  0.560000  0.054300  0.830300  1.0  -0.021
  C  C85  1  0.662000  0.006000  0.858200  1.0  -0.0985
  C  C86  1  0.697600  0.940900  0.837800  1.0  -0.095
  C  C87  1  0.512900  0.123200  0.853600  1.0  -0.064
  C  C88  1  0.508500  0.182900  0.823900  1.0  -0.0277
  C  C89  1  0.142200  0.181100  0.139400  1.0  0.6904
  C  C90  1  0.211900  0.182200  0.085100  1.0  -0.1261
  C  C91  1  0.180000  0.125300  0.051200  1.0  -0.0911
  C  C92  1  0.242700  0.127800  0.001800  1.0  -0.0724
  C  C93  1  0.334500  0.186800  0.982200  1.0  -0.0422
  C  C94  1  0.357100  0.242700  0.015600  1.0  -0.0783
  C  C95  1  0.296900  0.240800  0.065800  1.0  -0.0865
  C  C96  1  0.403300  0.187600  0.928600  1.0  -0.0842
  C  C97  1  0.462000  0.124600  0.906200  1.0  0.0146
  C  C98  1  0.404900  0.247000  0.898900  1.0  0.0051
  C  C99  1  0.458400  0.245700  0.846800  1.0  -0.0573
  C  C100  1  0.472100  0.310200  0.816300  1.0  -0.0777
  C  C101  1  0.427300  0.311800  0.764200  1.0  -0.0699
  C  C102  1  0.436200  0.372600  0.735300  1.0  -0.1101
  C  C103  1  0.492600  0.433100  0.759700  1.0  -0.1332
  C  C104  1  0.545500  0.431700  0.811400  1.0  -0.0807
  C  C105  1  0.530600  0.371300  0.839400  1.0  -0.0452
  C  C106  1  0.505000  0.500000  0.732100  1.0  0.6514
  C  C107  1  0.862800  0.350400  0.272000  1.0  0.7183
  C  C108  1  0.878700  0.422700  0.290400  1.0  -0.0913
  C  C109  1  0.976500  0.471100  0.263000  1.0  -0.0596
  C  C110  1  0.002100  0.537900  0.281700  1.0  -0.1106
  C  C111  1  0.940000  0.554300  0.330300  1.0  -0.0204
  C  C112  1  0.838000  0.506000  0.358200  1.0  -0.0975
  C  C113  1  0.802400  0.440900  0.337800  1.0  -0.0941
  C  C114  1  0.987100  0.623200  0.353600  1.0  -0.0643
  C  C115  1  0.991500  0.682900  0.323900  1.0  -0.0277
  C  C116  1  0.357800  0.681100  0.639400  1.0  0.6913
  C  C117  1  0.288100  0.682200  0.585100  1.0  -0.1255
  C  C118  1  0.320000  0.625300  0.551200  1.0  -0.0929
  C  C119  1  0.257300  0.627800  0.501800  1.0  -0.071
  C  C120  1  0.165500  0.686800  0.482200  1.0  -0.042
  C  C121  1  0.142900  0.742700  0.515600  1.0  -0.0774
  C  C122  1  0.203100  0.740800  0.565800  1.0  -0.0874
  C  C123  1  0.096700  0.687600  0.428600  1.0  -0.0809
  C  C124  1  0.038000  0.624600  0.406200  1.0  0.0146
  C  C125  1  0.095100  0.747000  0.398900  1.0  0.0045
  C  C126  1  0.041600  0.745700  0.346800  1.0  -0.0573
  C  C127  1  0.027900  0.810200  0.316300  1.0  -0.0777
  C  C128  1  0.072700  0.811800  0.264200  1.0  -0.0702
  C  C129  1  0.063800  0.872600  0.235300  1.0  -0.1104
  C  C130  1  0.007400  0.933100  0.259700  1.0  -0.1333
  C  C131  1  0.954500  0.931700  0.311400  1.0  -0.081
  C  C132  1  0.969400  0.871300  0.339400  1.0  -0.0506
  C  C133  1  0.995000  0.000000  0.232100  1.0  0.649
  C  C134  1  0.137200  0.649600  0.772000  1.0  0.7222
  C  C135  1  0.121300  0.577300  0.790400  1.0  -0.0901
  C  C136  1  0.023500  0.528900  0.763000  1.0  -0.0579
  C  C137  1  0.997900  0.462100  0.781700  1.0  -0.1082
  C  C138  1  0.060000  0.445700  0.830300  1.0  -0.0213
  C  C139  1  0.162000  0.494000  0.858200  1.0  -0.0992
  C  C140  1  0.197600  0.559100  0.837800  1.0  -0.0908
  C  C141  1  0.012900  0.376800  0.853600  1.0  -0.0642
  C  C142  1  0.008500  0.317100  0.823900  1.0  -0.0277
  C  C143  1  0.642200  0.318900  0.139400  1.0  0.6862
  C  C144  1  0.711900  0.317800  0.085100  1.0  -0.1263
  C  C145  1  0.680000  0.374700  0.051200  1.0  -0.0891
  C  C146  1  0.742700  0.372200  0.001800  1.0  -0.0721
  C  C147  1  0.834500  0.313200  0.982200  1.0  -0.0415
  C  C148  1  0.857100  0.257300  0.015600  1.0  -0.0785
  C  C149  1  0.796900  0.259200  0.065800  1.0  -0.0875
  C  C150  1  0.903300  0.312400  0.928600  1.0  -0.089
  C  C151  1  0.962000  0.375400  0.906200  1.0  0.016
  C  C152  1  0.904900  0.253000  0.898900  1.0  0.0057
  C  C153  1  0.958400  0.254300  0.846800  1.0  -0.0576
  C  C154  1  0.972100  0.189800  0.816300  1.0  -0.078
  C  C155  1  0.927300  0.188200  0.764200  1.0  -0.0704
  C  C156  1  0.936200  0.127400  0.735300  1.0  -0.1108
  C  C157  1  0.992600  0.066900  0.759700  1.0  -0.135
  C  C158  1  0.045500  0.068300  0.811400  1.0  -0.0821
  C  C159  1  0.030600  0.128700  0.839400  1.0  -0.0454
  C  C160  1  0.005000  0.000000  0.732100  1.0  0.6505
  O  O161  1  0.219500  0.183500  0.281600  1.0  -0.7118
  O  O162  1  0.496000  0.172100  0.244600  1.0  -0.7271
  O  O163  1  0.831600  0.766800  0.666667  1.0  -0.6623
  O  O164  1  0.953100  0.870800  0.653800  1.0  -0.6469
  O  O165  1  0.418900  0.450200  0.249800  1.0  -0.5765
  O  O166  1  0.571600  0.498600  0.185400  1.0  -0.4674
  O  O167  1  0.780500  0.816500  0.781600  1.0  -0.7109
  O  O168  1  0.504000  0.827900  0.744600  1.0  -0.7249
  O  O169  1  0.168400  0.233200  0.166700  1.0  -0.6637
  O  O170  1  0.046900  0.129200  0.153800  1.0  -0.6486
  O  O171  1  0.581100  0.549800  0.749800  1.0  -0.5759
  O  O172  1  0.428400  0.501400  0.685400  1.0  -0.4666
  O  O173  1  0.719500  0.316500  0.281600  1.0  -0.7114
  O  O174  1  0.996000  0.327900  0.244600  1.0  -0.7256
  O  O175  1  0.331600  0.733200  0.666667  1.0  -0.664
  O  O176  1  0.453100  0.629200  0.653800  1.0  -0.6482
  O  O177  1  0.918900  0.049800  0.249800  1.0  -0.5767
  O  O178  1  0.071600  0.001400  0.185400  1.0  -0.4672
  O  O179  1  0.280500  0.683500  0.781600  1.0  -0.7118
  O  O180  1  0.004000  0.672100  0.744600  1.0  -0.7256
  O  O181  1  0.668400  0.266800  0.166700  1.0  -0.6632
  O  O182  1  0.546900  0.370800  0.153800  1.0  -0.6473
  O  O183  1  0.081100  0.950200  0.749800  1.0  -0.5758
  O  O184  1  0.928400  0.998600  0.685400  1.0  -0.4666
