# generated using pymatgen
data_Fe2HC4Cl2O9
_symmetry_space_group_name_H-M   'P 1'
_cell_length_a   8.94500000
_cell_length_b   14.93600000
_cell_length_c   12.40800000
_cell_angle_alpha   90.00000000
_cell_angle_beta   108.53100000
_cell_angle_gamma   90.00000000
_symmetry_Int_Tables_number   1
_chemical_formula_structural   Fe2HC4Cl2O9
_chemical_formula_sum   'Fe8 H4 C16 Cl8 O36'
_cell_volume   1571.78929267
_cell_formula_units_Z   4
loop_
 _symmetry_equiv_pos_site_id
 _symmetry_equiv_pos_as_xyz
  1  'x, y, z'
loop_
 _atom_site_type_symbol
 _atom_site_label
 _atom_site_symmetry_multiplicity
 _atom_site_fract_x
 _atom_site_fract_y
 _atom_site_fract_z
 _atom_site_occupancy
 _atom_site_charge
  Fe  Fe1  1  0.121320  0.049530  0.679240  1.0  1.1711
  Fe  Fe2  1  0.235000  0.205540  0.904270  1.0  1.1921
  Fe  Fe3  1  0.621320  0.549530  0.679240  1.0  1.1711
  Fe  Fe4  1  0.735000  0.705540  0.904270  1.0  1.1921
  Fe  Fe5  1  0.121320  0.950470  0.179240  1.0  1.1721
  Fe  Fe6  1  0.235000  0.794460  0.404270  1.0  1.1928
  Fe  Fe7  1  0.621320  0.450470  0.179240  1.0  1.1721
  Fe  Fe8  1  0.735000  0.294460  0.404270  1.0  1.1928
  H  H9  1  0.314300  0.163700  0.749400  1.0  0.5622
  H  H10  1  0.814300  0.663700  0.749400  1.0  0.5622
  H  H11  1  0.314300  0.836300  0.249400  1.0  0.5622
  H  H12  1  0.814300  0.336300  0.249400  1.0  0.5622
  C  C13  1  0.489000  0.317100  0.012900  1.0  0.6668
  C  C14  1  0.266300  0.934800  0.562400  1.0  0.6193
  C  C15  1  0.087600  0.918600  0.507900  1.0  0.6153
  C  C16  1  0.370200  0.330300  0.078500  1.0  0.6047
  C  C17  1  0.989000  0.817100  0.012900  1.0  0.6668
  C  C18  1  0.766300  0.434800  0.562400  1.0  0.6193
  C  C19  1  0.587600  0.418600  0.507900  1.0  0.6153
  C  C20  1  0.870200  0.830300  0.078500  1.0  0.6047
  C  C21  1  0.489000  0.682900  0.512900  1.0  0.667
  C  C22  1  0.266300  0.065200  0.062400  1.0  0.6196
  C  C23  1  0.087600  0.081400  0.007900  1.0  0.6151
  C  C24  1  0.370200  0.669700  0.578500  1.0  0.6052
  C  C25  1  0.989000  0.182900  0.512900  1.0  0.667
  C  C26  1  0.766300  0.565200  0.062400  1.0  0.6196
  C  C27  1  0.587600  0.581400  0.007900  1.0  0.6151
  C  C28  1  0.870200  0.169700  0.578500  1.0  0.6052
  Cl  Cl29  1  0.085200  0.949450  0.804240  1.0  -0.4191
  Cl  Cl30  1  0.080900  0.312500  0.790430  1.0  -0.4139
  Cl  Cl31  1  0.585200  0.449450  0.804240  1.0  -0.4191
  Cl  Cl32  1  0.580900  0.812500  0.790430  1.0  -0.4139
  Cl  Cl33  1  0.085200  0.050550  0.304240  1.0  -0.4197
  Cl  Cl34  1  0.080900  0.687500  0.290430  1.0  -0.414
  Cl  Cl35  1  0.585200  0.550550  0.304240  1.0  -0.4197
  Cl  Cl36  1  0.580900  0.187500  0.290430  1.0  -0.414
  O  O37  1  0.248200  0.284900  0.048700  1.0  -0.447
  O  O38  1  0.258800  0.133900  0.781100  1.0  -0.9198
  O  O39  1  0.305600  0.992300  0.641500  1.0  -0.4819
  O  O40  1  0.613900  0.360900  0.045200  1.0  -0.4475
  O  O41  1  0.357900  0.889700  0.524900  1.0  -0.4535
  O  O42  1  0.051500  0.858200  0.432500  1.0  -0.4713
  O  O43  1  0.996900  0.964200  0.543300  1.0  -0.4354
  O  O44  1  0.450700  0.262600  0.930700  1.0  -0.4803
  O  O45  1  0.409100  0.388200  0.157700  1.0  -0.4629
  O  O46  1  0.748200  0.784900  0.048700  1.0  -0.447
  O  O47  1  0.758800  0.633900  0.781100  1.0  -0.9198
  O  O48  1  0.805600  0.492300  0.641500  1.0  -0.4819
  O  O49  1  0.113900  0.860900  0.045200  1.0  -0.4475
  O  O50  1  0.857900  0.389700  0.524900  1.0  -0.4535
  O  O51  1  0.551500  0.358200  0.432500  1.0  -0.4713
  O  O52  1  0.496900  0.464200  0.543300  1.0  -0.4354
  O  O53  1  0.950700  0.762600  0.930700  1.0  -0.4803
  O  O54  1  0.909100  0.888200  0.157700  1.0  -0.4629
  O  O55  1  0.248200  0.715100  0.548700  1.0  -0.4461
  O  O56  1  0.258800  0.866100  0.281100  1.0  -0.9207
  O  O57  1  0.305600  0.007700  0.141500  1.0  -0.482
  O  O58  1  0.613900  0.639100  0.545200  1.0  -0.4475
  O  O59  1  0.357900  0.110300  0.024900  1.0  -0.4523
  O  O60  1  0.051500  0.141800  0.932500  1.0  -0.4726
  O  O61  1  0.996900  0.035800  0.043300  1.0  -0.4365
  O  O62  1  0.450700  0.737400  0.430700  1.0  -0.4799
  O  O63  1  0.409100  0.611800  0.657700  1.0  -0.4614
  O  O64  1  0.748200  0.215100  0.548700  1.0  -0.4461
  O  O65  1  0.758800  0.366100  0.281100  1.0  -0.9207
  O  O66  1  0.805600  0.507700  0.141500  1.0  -0.482
  O  O67  1  0.113900  0.139100  0.545200  1.0  -0.4475
  O  O68  1  0.857900  0.610300  0.024900  1.0  -0.4523
  O  O69  1  0.551500  0.641800  0.932500  1.0  -0.4726
  O  O70  1  0.496900  0.535800  0.043300  1.0  -0.4365
  O  O71  1  0.950700  0.237400  0.430700  1.0  -0.4799
  O  O72  1  0.909100  0.111800  0.657700  1.0  -0.4614
