# generated using pymatgen
data_Fe2C4Cl2O9
_symmetry_space_group_name_H-M   'P 1'
_cell_length_a   14.91400000
_cell_length_b   23.50700000
_cell_length_c   9.26100000
_cell_angle_alpha   90.00000000
_cell_angle_beta   90.00000000
_cell_angle_gamma   90.00000000
_symmetry_Int_Tables_number   1
_chemical_formula_structural   Fe2C4Cl2O9
_chemical_formula_sum   'Fe16 C32 Cl16 O72'
_cell_volume   3246.75284888
_cell_formula_units_Z   8
loop_
 _symmetry_equiv_pos_site_id
 _symmetry_equiv_pos_as_xyz
  1  'x, y, z'
loop_
 _atom_site_type_symbol
 _atom_site_label
 _atom_site_symmetry_multiplicity
 _atom_site_fract_x
 _atom_site_fract_y
 _atom_site_fract_z
 _atom_site_occupancy
 _atom_site_charge
  Fe  Fe1  1  0.076940  0.443850  0.550710  1.0  1.249
  Fe  Fe2  1  0.076940  0.943850  0.050710  1.0  1.249
  Fe  Fe3  1  0.576940  0.443850  0.050710  1.0  1.249
  Fe  Fe4  1  0.576940  0.943850  0.550710  1.0  1.249
  Fe  Fe5  1  0.923060  0.556150  0.550710  1.0  1.2478
  Fe  Fe6  1  0.923060  0.056150  0.050710  1.0  1.2478
  Fe  Fe7  1  0.423060  0.556150  0.050710  1.0  1.2478
  Fe  Fe8  1  0.423060  0.056150  0.550710  1.0  1.2478
  Fe  Fe9  1  0.326940  0.806150  0.800710  1.0  1.247
  Fe  Fe10  1  0.326940  0.306150  0.300710  1.0  1.247
  Fe  Fe11  1  0.826940  0.806150  0.300710  1.0  1.247
  Fe  Fe12  1  0.826940  0.306150  0.800710  1.0  1.247
  Fe  Fe13  1  0.173060  0.693850  0.800710  1.0  1.2493
  Fe  Fe14  1  0.173060  0.193850  0.300710  1.0  1.2493
  Fe  Fe15  1  0.673060  0.693850  0.300710  1.0  1.2493
  Fe  Fe16  1  0.673060  0.193850  0.800710  1.0  1.2493
  C  C17  1  0.939900  0.362180  0.602800  1.0  0.6126
  C  C18  1  0.957300  0.392250  0.747100  1.0  0.6117
  C  C19  1  0.939900  0.862180  0.102800  1.0  0.6126
  C  C20  1  0.957300  0.892250  0.247100  1.0  0.6117
  C  C21  1  0.439900  0.362180  0.102800  1.0  0.6126
  C  C22  1  0.457300  0.392250  0.247100  1.0  0.6117
  C  C23  1  0.439900  0.862180  0.602800  1.0  0.6126
  C  C24  1  0.457300  0.892250  0.747100  1.0  0.6117
  C  C25  1  0.060100  0.637820  0.602800  1.0  0.6136
  C  C26  1  0.042700  0.607750  0.747100  1.0  0.6102
  C  C27  1  0.060100  0.137820  0.102800  1.0  0.6136
  C  C28  1  0.042700  0.107750  0.247100  1.0  0.6102
  C  C29  1  0.560100  0.637820  0.102800  1.0  0.6136
  C  C30  1  0.542700  0.607750  0.247100  1.0  0.6102
  C  C31  1  0.560100  0.137820  0.602800  1.0  0.6136
  C  C32  1  0.542700  0.107750  0.747100  1.0  0.6102
  C  C33  1  0.189900  0.887820  0.852800  1.0  0.6138
  C  C34  1  0.207300  0.857750  0.997100  1.0  0.6114
  C  C35  1  0.189900  0.387820  0.352800  1.0  0.6138
  C  C36  1  0.207300  0.357750  0.497100  1.0  0.6114
  C  C37  1  0.689900  0.887820  0.352800  1.0  0.6138
  C  C38  1  0.707300  0.857750  0.497100  1.0  0.6114
  C  C39  1  0.689900  0.387820  0.852800  1.0  0.6138
  C  C40  1  0.707300  0.357750  0.997100  1.0  0.6114
  C  C41  1  0.310100  0.612180  0.852800  1.0  0.6122
  C  C42  1  0.292700  0.642250  0.997100  1.0  0.6104
  C  C43  1  0.310100  0.112180  0.352800  1.0  0.6122
  C  C44  1  0.292700  0.142250  0.497100  1.0  0.6104
  C  C45  1  0.810100  0.612180  0.352800  1.0  0.6122
  C  C46  1  0.792700  0.642250  0.497100  1.0  0.6104
  C  C47  1  0.810100  0.112180  0.852800  1.0  0.6122
  C  C48  1  0.792700  0.142250  0.997100  1.0  0.6104
  Cl  Cl49  1  0.181370  0.504200  0.644600  1.0  -0.4139
  Cl  Cl50  1  0.181370  0.004200  0.144600  1.0  -0.4139
  Cl  Cl51  1  0.681370  0.504200  0.144600  1.0  -0.4139
  Cl  Cl52  1  0.681370  0.004200  0.644600  1.0  -0.4139
  Cl  Cl53  1  0.818630  0.495800  0.644600  1.0  -0.4137
  Cl  Cl54  1  0.818630  0.995800  0.144600  1.0  -0.4137
  Cl  Cl55  1  0.318630  0.495800  0.144600  1.0  -0.4137
  Cl  Cl56  1  0.318630  0.995800  0.644600  1.0  -0.4137
  Cl  Cl57  1  0.431370  0.745800  0.894600  1.0  -0.4141
  Cl  Cl58  1  0.431370  0.245800  0.394600  1.0  -0.4141
  Cl  Cl59  1  0.931370  0.745800  0.394600  1.0  -0.4141
  Cl  Cl60  1  0.931370  0.245800  0.894600  1.0  -0.4141
  Cl  Cl61  1  0.068630  0.754200  0.894600  1.0  -0.4135
  Cl  Cl62  1  0.068630  0.254200  0.394600  1.0  -0.4135
  Cl  Cl63  1  0.568630  0.754200  0.394600  1.0  -0.4135
  Cl  Cl64  1  0.568630  0.254200  0.894600  1.0  -0.4135
  O  O65  1  0.983100  0.379760  0.495600  1.0  -0.4273
  O  O66  1  0.017000  0.430180  0.745900  1.0  -0.4605
  O  O67  1  0.912600  0.375960  0.852900  1.0  -0.4137
  O  O68  1  0.883200  0.322800  0.603300  1.0  -0.4434
  O  O69  1  0.983100  0.879760  0.995600  1.0  -0.4273
  O  O70  1  0.017000  0.930180  0.245900  1.0  -0.4605
  O  O71  1  0.912600  0.875960  0.352900  1.0  -0.4137
  O  O72  1  0.883200  0.822800  0.103300  1.0  -0.4434
  O  O73  1  0.483100  0.379760  0.995600  1.0  -0.4273
  O  O74  1  0.517000  0.430180  0.245900  1.0  -0.4605
  O  O75  1  0.412600  0.375960  0.352900  1.0  -0.4137
  O  O76  1  0.383200  0.322800  0.103300  1.0  -0.4434
  O  O77  1  0.483100  0.879760  0.495600  1.0  -0.4273
  O  O78  1  0.517000  0.930180  0.745900  1.0  -0.4605
  O  O79  1  0.412600  0.875960  0.852900  1.0  -0.4137
  O  O80  1  0.383200  0.822800  0.603300  1.0  -0.4434
  O  O81  1  0.016900  0.620240  0.495600  1.0  -0.4269
  O  O82  1  0.983000  0.569820  0.745900  1.0  -0.4605
  O  O83  1  0.087400  0.624040  0.852900  1.0  -0.4148
  O  O84  1  0.116800  0.677200  0.603300  1.0  -0.4458
  O  O85  1  0.016900  0.120240  0.995600  1.0  -0.4269
  O  O86  1  0.983000  0.069820  0.245900  1.0  -0.4605
  O  O87  1  0.087400  0.124040  0.352900  1.0  -0.4148
  O  O88  1  0.116800  0.177200  0.103300  1.0  -0.4458
  O  O89  1  0.516900  0.620240  0.995600  1.0  -0.4269
  O  O90  1  0.483000  0.569820  0.245900  1.0  -0.4605
  O  O91  1  0.587400  0.624040  0.352900  1.0  -0.4148
  O  O92  1  0.616800  0.677200  0.103300  1.0  -0.4458
  O  O93  1  0.516900  0.120240  0.495600  1.0  -0.4269
  O  O94  1  0.483000  0.069820  0.745900  1.0  -0.4605
  O  O95  1  0.587400  0.124040  0.852900  1.0  -0.4148
  O  O96  1  0.616800  0.177200  0.603300  1.0  -0.4458
  O  O97  1  0.233100  0.870240  0.745600  1.0  -0.4266
  O  O98  1  0.267000  0.819820  0.995900  1.0  -0.4607
  O  O99  1  0.162600  0.874040  0.102900  1.0  -0.4144
  O  O100  1  0.133200  0.927200  0.853300  1.0  -0.444
  O  O101  1  0.233100  0.370240  0.245600  1.0  -0.4266
  O  O102  1  0.267000  0.319820  0.495900  1.0  -0.4607
  O  O103  1  0.162600  0.374040  0.602900  1.0  -0.4144
  O  O104  1  0.133200  0.427200  0.353300  1.0  -0.444
  O  O105  1  0.733100  0.870240  0.245600  1.0  -0.4266
  O  O106  1  0.767000  0.819820  0.495900  1.0  -0.4607
  O  O107  1  0.662600  0.874040  0.602900  1.0  -0.4144
  O  O108  1  0.633200  0.927200  0.353300  1.0  -0.444
  O  O109  1  0.733100  0.370240  0.745600  1.0  -0.4266
  O  O110  1  0.767000  0.319820  0.995900  1.0  -0.4607
  O  O111  1  0.662600  0.374040  0.102900  1.0  -0.4144
  O  O112  1  0.633200  0.427200  0.853300  1.0  -0.444
  O  O113  1  0.266900  0.629760  0.745600  1.0  -0.4266
  O  O114  1  0.233000  0.680180  0.995900  1.0  -0.4598
  O  O115  1  0.337400  0.625960  0.102900  1.0  -0.4145
  O  O116  1  0.366800  0.572800  0.853300  1.0  -0.4437
  O  O117  1  0.266900  0.129760  0.245600  1.0  -0.4266
  O  O118  1  0.233000  0.180180  0.495900  1.0  -0.4598
  O  O119  1  0.337400  0.125960  0.602900  1.0  -0.4145
  O  O120  1  0.366800  0.072800  0.353300  1.0  -0.4437
  O  O121  1  0.766900  0.629760  0.245600  1.0  -0.4266
  O  O122  1  0.733000  0.680180  0.495900  1.0  -0.4598
  O  O123  1  0.837400  0.625960  0.602900  1.0  -0.4145
  O  O124  1  0.866800  0.572800  0.353300  1.0  -0.4437
  O  O125  1  0.766900  0.129760  0.745600  1.0  -0.4266
  O  O126  1  0.733000  0.180180  0.995900  1.0  -0.4598
  O  O127  1  0.837400  0.125960  0.102900  1.0  -0.4145
  O  O128  1  0.866800  0.072800  0.853300  1.0  -0.4437
  O  O129  1  0.000000  0.500000  0.470300  1.0  -0.6254
  O  O130  1  0.000000  0.000000  0.970300  1.0  -0.6254
  O  O131  1  0.500000  0.500000  0.970300  1.0  -0.6254
  O  O132  1  0.500000  0.000000  0.470300  1.0  -0.6254
  O  O133  1  0.250000  0.750000  0.720300  1.0  -0.6254
  O  O134  1  0.250000  0.250000  0.220300  1.0  -0.6254
  O  O135  1  0.750000  0.750000  0.220300  1.0  -0.6254
  O  O136  1  0.750000  0.250000  0.720300  1.0  -0.6254
