# generated using pymatgen
data_DyH6C15NO8
_symmetry_space_group_name_H-M   'P 1'
_cell_length_a   12.72430000
_cell_length_b   13.29400000
_cell_length_c   28.59800000
_cell_angle_alpha   90.00000000
_cell_angle_beta   90.00000000
_cell_angle_gamma   90.00000000
_symmetry_Int_Tables_number   1
_chemical_formula_structural   DyH6C15NO8
_chemical_formula_sum   'Dy8 H48 C120 N8 O64'
_cell_volume   4837.54743043
_cell_formula_units_Z   8
loop_
 _symmetry_equiv_pos_site_id
 _symmetry_equiv_pos_as_xyz
  1  'x, y, z'
loop_
 _atom_site_type_symbol
 _atom_site_label
 _atom_site_symmetry_multiplicity
 _atom_site_fract_x
 _atom_site_fract_y
 _atom_site_fract_z
 _atom_site_occupancy
 _atom_site_charge
  Dy  Dy1  1  0.089390  0.542990  0.929960  1.0  2.2531
  Dy  Dy2  1  0.410610  0.957010  0.429960  1.0  2.2536
  Dy  Dy3  1  0.910610  0.542990  0.570040  1.0  2.2536
  Dy  Dy4  1  0.589390  0.957010  0.070040  1.0  2.2523
  Dy  Dy5  1  0.910610  0.457010  0.070040  1.0  2.2536
  Dy  Dy6  1  0.589390  0.042990  0.570040  1.0  2.253
  Dy  Dy7  1  0.089390  0.457010  0.429960  1.0  2.2525
  Dy  Dy8  1  0.410610  0.042990  0.929960  1.0  2.2535
  H  H9  1  0.173500  0.166600  0.722800  1.0  0.0999
  H  H10  1  0.164900  0.465900  0.706300  1.0  0.0926
  H  H11  1  0.137500  0.484800  0.784700  1.0  0.0893
  H  H12  1  0.319800  0.197500  0.667800  1.0  0.1022
  H  H13  1  0.289500  0.272500  0.532200  1.0  0.1073
  H  H14  1  0.102200  0.398900  0.628700  1.0  0.0929
  H  H15  1  0.326500  0.333400  0.222800  1.0  0.0998
  H  H16  1  0.335100  0.034100  0.206300  1.0  0.0926
  H  H17  1  0.362500  0.015200  0.284700  1.0  0.0896
  H  H18  1  0.180200  0.302500  0.167800  1.0  0.1024
  H  H19  1  0.210500  0.227500  0.032200  1.0  0.1074
  H  H20  1  0.397800  0.101100  0.128700  1.0  0.0931
  H  H21  1  0.826500  0.166600  0.777200  1.0  0.0998
  H  H22  1  0.835100  0.465900  0.793700  1.0  0.0926
  H  H23  1  0.862500  0.484800  0.715300  1.0  0.0892
  H  H24  1  0.680200  0.197500  0.832200  1.0  0.1021
  H  H25  1  0.710500  0.272500  0.967800  1.0  0.1074
  H  H26  1  0.897800  0.398900  0.871300  1.0  0.0929
  H  H27  1  0.673500  0.333400  0.277200  1.0  0.0998
  H  H28  1  0.664900  0.034100  0.293700  1.0  0.0923
  H  H29  1  0.637500  0.015200  0.215300  1.0  0.0896
  H  H30  1  0.819800  0.302500  0.332200  1.0  0.1023
  H  H31  1  0.789500  0.227500  0.467800  1.0  0.107
  H  H32  1  0.602200  0.101100  0.371300  1.0  0.0934
  H  H33  1  0.826500  0.833400  0.277200  1.0  0.0999
  H  H34  1  0.835100  0.534100  0.293700  1.0  0.0925
  H  H35  1  0.862500  0.515200  0.215300  1.0  0.0892
  H  H36  1  0.680200  0.802500  0.332200  1.0  0.1023
  H  H37  1  0.710500  0.727500  0.467800  1.0  0.1074
  H  H38  1  0.897800  0.601100  0.371300  1.0  0.0934
  H  H39  1  0.673500  0.666667  0.777200  1.0  0.0997
  H  H40  1  0.664900  0.965900  0.793700  1.0  0.0923
  H  H41  1  0.637500  0.984800  0.715300  1.0  0.089
  H  H42  1  0.819800  0.697500  0.832200  1.0  0.1022
  H  H43  1  0.789500  0.772500  0.967800  1.0  0.1069
  H  H44  1  0.602200  0.898900  0.871300  1.0  0.0932
  H  H45  1  0.173500  0.833400  0.222800  1.0  0.0998
  H  H46  1  0.164900  0.534100  0.206300  1.0  0.0924
  H  H47  1  0.137500  0.515200  0.284700  1.0  0.0898
  H  H48  1  0.319800  0.802500  0.167800  1.0  0.1023
  H  H49  1  0.289500  0.727500  0.032200  1.0  0.1075
  H  H50  1  0.102200  0.601100  0.128700  1.0  0.093
  H  H51  1  0.326500  0.666667  0.722800  1.0  0.0999
  H  H52  1  0.335100  0.965900  0.706300  1.0  0.0928
  H  H53  1  0.362500  0.984800  0.784700  1.0  0.0897
  H  H54  1  0.180200  0.697500  0.667800  1.0  0.1024
  H  H55  1  0.210500  0.772500  0.532200  1.0  0.1074
  H  H56  1  0.397800  0.898900  0.628700  1.0  0.0927
  C  C57  1  0.129800  0.356300  0.854100  1.0  0.7327
  C  C58  1  0.134100  0.338100  0.802600  1.0  -0.0712
  C  C59  1  0.143500  0.245500  0.781300  1.0  0.0592
  C  C60  1  0.165900  0.231300  0.734600  1.0  -0.1515
  C  C61  1  0.177100  0.313500  0.705300  1.0  0.0457
  C  C62  1  0.162200  0.409200  0.725200  1.0  -0.1715
  C  C63  1  0.143700  0.420200  0.772500  1.0  -0.0532
  C  C64  1  0.205700  0.299900  0.655700  1.0  0.0246
  C  C65  1  0.286700  0.234500  0.644500  1.0  -0.117
  C  C66  1  0.318500  0.224400  0.597900  1.0  -0.1631
  C  C67  1  0.268200  0.278900  0.563200  1.0  0.0164
  C  C68  1  0.186400  0.342800  0.574600  1.0  -0.1609
  C  C69  1  0.156000  0.354500  0.621000  1.0  -0.0999
  C  C70  1  0.410400  0.159700  0.587100  1.0  0.6591
  C  C71  1  0.130900  0.397000  0.535600  1.0  0.726
  C  C72  1  0.370200  0.143700  0.354100  1.0  0.7318
  C  C73  1  0.365900  0.161900  0.302600  1.0  -0.0711
  C  C74  1  0.356500  0.254500  0.281300  1.0  0.0576
  C  C75  1  0.334100  0.268700  0.234600  1.0  -0.1529
  C  C76  1  0.322900  0.186500  0.205300  1.0  0.046
  C  C77  1  0.337800  0.090800  0.225200  1.0  -0.1718
  C  C78  1  0.356300  0.079800  0.272500  1.0  -0.0537
  C  C79  1  0.294300  0.200100  0.155700  1.0  0.025
  C  C80  1  0.213300  0.265500  0.144500  1.0  -0.1159
  C  C81  1  0.181500  0.275600  0.097900  1.0  -0.1635
  C  C82  1  0.231800  0.221100  0.063200  1.0  0.0186
  C  C83  1  0.313600  0.157200  0.074600  1.0  -0.1612
  C  C84  1  0.344000  0.145500  0.121000  1.0  -0.1002
  C  C85  1  0.089600  0.340300  0.087100  1.0  0.6583
  C  C86  1  0.369100  0.103000  0.035600  1.0  0.7256
  C  C87  1  0.870200  0.356300  0.645900  1.0  0.7355
  C  C88  1  0.865900  0.338100  0.697400  1.0  -0.0716
  C  C89  1  0.856500  0.245500  0.718700  1.0  0.0576
  C  C90  1  0.834100  0.231300  0.765400  1.0  -0.1533
  C  C91  1  0.822900  0.313500  0.794700  1.0  0.0456
  C  C92  1  0.837800  0.409200  0.774800  1.0  -0.1714
  C  C93  1  0.856300  0.420200  0.727500  1.0  -0.0545
  C  C94  1  0.794300  0.299900  0.844300  1.0  0.025
  C  C95  1  0.713300  0.234500  0.855500  1.0  -0.1168
  C  C96  1  0.681500  0.224400  0.902100  1.0  -0.1639
  C  C97  1  0.731800  0.278900  0.936800  1.0  0.0173
  C  C98  1  0.813600  0.342800  0.925400  1.0  -0.1621
  C  C99  1  0.844000  0.354500  0.879000  1.0  -0.0997
  C  C100  1  0.589600  0.159700  0.912900  1.0  0.658
  C  C101  1  0.869100  0.397000  0.964400  1.0  0.7264
  C  C102  1  0.629800  0.143700  0.145900  1.0  0.7355
  C  C103  1  0.634100  0.161900  0.197400  1.0  -0.0719
  C  C104  1  0.643500  0.254500  0.218700  1.0  0.0589
  C  C105  1  0.665900  0.268700  0.265400  1.0  -0.1523
  C  C106  1  0.677100  0.186500  0.294700  1.0  0.0452
  C  C107  1  0.662200  0.090800  0.274800  1.0  -0.1727
  C  C108  1  0.643700  0.079800  0.227500  1.0  -0.0542
  C  C109  1  0.705700  0.200100  0.344300  1.0  0.0247
  C  C110  1  0.786700  0.265500  0.355500  1.0  -0.1172
  C  C111  1  0.818500  0.275600  0.402100  1.0  -0.1631
  C  C112  1  0.768200  0.221100  0.436800  1.0  0.0183
  C  C113  1  0.686400  0.157200  0.425400  1.0  -0.1609
  C  C114  1  0.656000  0.145500  0.379000  1.0  -0.0995
  C  C115  1  0.910400  0.340300  0.412900  1.0  0.6597
  C  C116  1  0.630900  0.103000  0.464400  1.0  0.726
  C  C117  1  0.870200  0.643700  0.145900  1.0  0.7356
  C  C118  1  0.865900  0.661900  0.197400  1.0  -0.0713
  C  C119  1  0.856500  0.754500  0.218700  1.0  0.057
  C  C120  1  0.834100  0.768700  0.265400  1.0  -0.1538
  C  C121  1  0.822900  0.686500  0.294700  1.0  0.0457
  C  C122  1  0.837800  0.590800  0.274800  1.0  -0.1722
  C  C123  1  0.856300  0.579800  0.227500  1.0  -0.0545
  C  C124  1  0.794300  0.700100  0.344300  1.0  0.0247
  C  C125  1  0.713300  0.765500  0.355500  1.0  -0.1163
  C  C126  1  0.681500  0.775600  0.402100  1.0  -0.1635
  C  C127  1  0.731800  0.721100  0.436800  1.0  0.0173
  C  C128  1  0.813600  0.657200  0.425400  1.0  -0.1617
  C  C129  1  0.844000  0.645500  0.379000  1.0  -0.0998
  C  C130  1  0.589600  0.840300  0.412900  1.0  0.6581
  C  C131  1  0.869100  0.603000  0.464400  1.0  0.7263
  C  C132  1  0.629800  0.856300  0.645900  1.0  0.7353
  C  C133  1  0.634100  0.838100  0.697400  1.0  -0.0716
  C  C134  1  0.643500  0.745500  0.718700  1.0  0.0597
  C  C135  1  0.665900  0.731300  0.765400  1.0  -0.1386
  C  C136  1  0.677100  0.813500  0.794700  1.0  0.0451
  C  C137  1  0.662200  0.909200  0.774800  1.0  -0.1718
  C  C138  1  0.643700  0.920200  0.727500  1.0  -0.0544
  C  C139  1  0.705700  0.799900  0.844300  1.0  0.0248
  C  C140  1  0.786700  0.734500  0.855500  1.0  -0.1173
  C  C141  1  0.818500  0.724400  0.902100  1.0  -0.1631
  C  C142  1  0.768200  0.778900  0.936800  1.0  0.0183
  C  C143  1  0.686400  0.842800  0.925400  1.0  -0.1615
  C  C144  1  0.656000  0.854500  0.879000  1.0  -0.0992
  C  C145  1  0.910400  0.659700  0.912900  1.0  0.6593
  C  C146  1  0.630900  0.897000  0.964400  1.0  0.7262
  C  C147  1  0.129800  0.643700  0.354100  1.0  0.7327
  C  C148  1  0.134100  0.661900  0.302600  1.0  -0.0717
  C  C149  1  0.143500  0.754500  0.281300  1.0  0.0586
  C  C150  1  0.165900  0.768700  0.234600  1.0  -0.1514
  C  C151  1  0.177100  0.686500  0.205300  1.0  0.0458
  C  C152  1  0.162200  0.590800  0.225200  1.0  -0.1726
  C  C153  1  0.143700  0.579800  0.272500  1.0  -0.0535
  C  C154  1  0.205700  0.700100  0.155700  1.0  0.0246
  C  C155  1  0.286700  0.765500  0.144500  1.0  -0.117
  C  C156  1  0.318500  0.775600  0.097900  1.0  -0.1627
  C  C157  1  0.268200  0.721100  0.063200  1.0  0.0169
  C  C158  1  0.186400  0.657200  0.074600  1.0  -0.1614
  C  C159  1  0.156000  0.645500  0.121000  1.0  -0.0999
  C  C160  1  0.410400  0.840300  0.087100  1.0  0.6595
  C  C161  1  0.130900  0.603000  0.035600  1.0  0.726
  C  C162  1  0.370200  0.856300  0.854100  1.0  0.7319
  C  C163  1  0.365900  0.838100  0.802600  1.0  -0.0701
  C  C164  1  0.356500  0.745500  0.781300  1.0  0.0583
  C  C165  1  0.334100  0.731300  0.734600  1.0  -0.1398
  C  C166  1  0.322900  0.813500  0.705300  1.0  0.0459
  C  C167  1  0.337800  0.909200  0.725200  1.0  -0.1708
  C  C168  1  0.356300  0.920200  0.772500  1.0  -0.0533
  C  C169  1  0.294300  0.799900  0.655700  1.0  0.0251
  C  C170  1  0.213300  0.734500  0.644500  1.0  -0.1165
  C  C171  1  0.181500  0.724400  0.597900  1.0  -0.1642
  C  C172  1  0.231800  0.778900  0.563200  1.0  0.0183
  C  C173  1  0.313600  0.842800  0.574600  1.0  -0.1605
  C  C174  1  0.344000  0.854500  0.621000  1.0  -0.1003
  C  C175  1  0.089600  0.659700  0.587100  1.0  0.658
  C  C176  1  0.369100  0.897000  0.535600  1.0  0.7255
  N  N177  1  0.123700  0.153400  0.808800  1.0  0.6287
  N  N178  1  0.376300  0.346600  0.308800  1.0  0.6302
  N  N179  1  0.876300  0.153400  0.691200  1.0  0.631
  N  N180  1  0.623700  0.346600  0.191200  1.0  0.6316
  N  N181  1  0.876300  0.846600  0.191200  1.0  0.6316
  N  N182  1  0.623700  0.653400  0.691200  1.0  0.6302
  N  N183  1  0.123700  0.846600  0.308800  1.0  0.6301
  N  N184  1  0.376300  0.653400  0.808800  1.0  0.6295
  O  O185  1  0.092400  0.438900  0.866100  1.0  -0.7087
  O  O186  1  0.165200  0.290200  0.880700  1.0  -0.4942
  O  O187  1  0.040000  0.146800  0.828300  1.0  -0.4137
  O  O188  1  0.186800  0.086600  0.807600  1.0  -0.4321
  O  O189  1  0.447700  0.103400  0.619000  1.0  -0.6103
  O  O190  1  0.452200  0.161400  0.547000  1.0  -0.629
  O  O191  1  0.165600  0.389000  0.495000  1.0  -0.6446
  O  O192  1  0.051200  0.447800  0.545500  1.0  -0.8145
  O  O193  1  0.407600  0.061100  0.366100  1.0  -0.7095
  O  O194  1  0.334800  0.209800  0.380700  1.0  -0.4928
  O  O195  1  0.460000  0.353200  0.328300  1.0  -0.4127
  O  O196  1  0.313200  0.413400  0.307600  1.0  -0.4322
  O  O197  1  0.052300  0.396600  0.119000  1.0  -0.6081
  O  O198  1  0.047800  0.338600  0.047000  1.0  -0.6278
  O  O199  1  0.334400  0.111000  0.995000  1.0  -0.6439
  O  O200  1  0.448800  0.052200  0.045500  1.0  -0.8143
  O  O201  1  0.907600  0.438900  0.633900  1.0  -0.7115
  O  O202  1  0.834800  0.290200  0.619300  1.0  -0.4935
  O  O203  1  0.960000  0.146800  0.671700  1.0  -0.4134
  O  O204  1  0.813200  0.086600  0.692400  1.0  -0.4324
  O  O205  1  0.552300  0.103400  0.881000  1.0  -0.6071
  O  O206  1  0.547800  0.161400  0.953000  1.0  -0.6307
  O  O207  1  0.834400  0.389000  0.005000  1.0  -0.648
  O  O208  1  0.948800  0.447800  0.954500  1.0  -0.814
  O  O209  1  0.592400  0.061100  0.133900  1.0  -0.7079
  O  O210  1  0.665200  0.209800  0.119300  1.0  -0.4893
  O  O211  1  0.540000  0.353200  0.171700  1.0  -0.4156
  O  O212  1  0.686800  0.413400  0.192400  1.0  -0.4339
  O  O213  1  0.947700  0.396600  0.381000  1.0  -0.6079
  O  O214  1  0.952200  0.338600  0.453000  1.0  -0.6295
  O  O215  1  0.665600  0.111000  0.505000  1.0  -0.6483
  O  O216  1  0.551200  0.052200  0.454500  1.0  -0.815
  O  O217  1  0.907600  0.561100  0.133900  1.0  -0.71
  O  O218  1  0.834800  0.709800  0.119300  1.0  -0.4927
  O  O219  1  0.960000  0.853200  0.171700  1.0  -0.4145
  O  O220  1  0.813200  0.913400  0.192400  1.0  -0.4333
  O  O221  1  0.552300  0.896600  0.381000  1.0  -0.6065
  O  O222  1  0.547800  0.838600  0.453000  1.0  -0.6285
  O  O223  1  0.834400  0.611000  0.505000  1.0  -0.6487
  O  O224  1  0.948800  0.552200  0.454500  1.0  -0.8147
  O  O225  1  0.592400  0.938900  0.633900  1.0  -0.7085
  O  O226  1  0.665200  0.790200  0.619300  1.0  -0.49
  O  O227  1  0.540000  0.646800  0.671700  1.0  -0.4145
  O  O228  1  0.686800  0.586600  0.692400  1.0  -0.4326
  O  O229  1  0.947700  0.603400  0.881000  1.0  -0.6084
  O  O230  1  0.952200  0.661400  0.953000  1.0  -0.6293
  O  O231  1  0.665600  0.889000  0.005000  1.0  -0.6482
  O  O232  1  0.551200  0.947800  0.954500  1.0  -0.8143
  O  O233  1  0.092400  0.561100  0.366100  1.0  -0.7076
  O  O234  1  0.165200  0.709800  0.380700  1.0  -0.4953
  O  O235  1  0.040000  0.853200  0.328300  1.0  -0.414
  O  O236  1  0.186800  0.913400  0.307600  1.0  -0.4331
  O  O237  1  0.447700  0.896600  0.119000  1.0  -0.6092
  O  O238  1  0.452200  0.838600  0.047000  1.0  -0.6259
  O  O239  1  0.165600  0.611000  0.995000  1.0  -0.6446
  O  O240  1  0.051200  0.552200  0.045500  1.0  -0.8152
  O  O241  1  0.407600  0.938900  0.866100  1.0  -0.7111
  O  O242  1  0.334800  0.790200  0.880700  1.0  -0.4909
  O  O243  1  0.460000  0.646800  0.828300  1.0  -0.4122
  O  O244  1  0.313200  0.586600  0.807600  1.0  -0.4319
  O  O245  1  0.052300  0.603400  0.619000  1.0  -0.6091
  O  O246  1  0.047800  0.661400  0.547000  1.0  -0.6273
  O  O247  1  0.334400  0.889000  0.495000  1.0  -0.6432
  O  O248  1  0.448800  0.947800  0.545500  1.0  -0.8135
