# generated using pymatgen
data_EuH6C15NO8
_symmetry_space_group_name_H-M   'P 1'
_cell_length_a   12.78000000
_cell_length_b   13.35800000
_cell_length_c   28.66800000
_cell_angle_alpha   90.00000000
_cell_angle_beta   90.00000000
_cell_angle_gamma   90.00000000
_symmetry_Int_Tables_number   1
_chemical_formula_structural   EuH6C15NO8
_chemical_formula_sum   'Eu8 H48 C120 N8 O64'
_cell_volume   4894.06450032
_cell_formula_units_Z   8
loop_
 _symmetry_equiv_pos_site_id
 _symmetry_equiv_pos_as_xyz
  1  'x, y, z'
loop_
 _atom_site_type_symbol
 _atom_site_label
 _atom_site_symmetry_multiplicity
 _atom_site_fract_x
 _atom_site_fract_y
 _atom_site_fract_z
 _atom_site_occupancy
 _atom_site_charge
  Eu  Eu1  1  0.589150  0.458010  0.930040  1.0  2.1182
  Eu  Eu2  1  0.910850  0.041990  0.430040  1.0  2.1174
  Eu  Eu3  1  0.410850  0.458010  0.569960  1.0  2.1171
  Eu  Eu4  1  0.089150  0.041990  0.069960  1.0  2.1181
  Eu  Eu5  1  0.410850  0.541990  0.069960  1.0  2.1173
  Eu  Eu6  1  0.089150  0.958010  0.569960  1.0  2.1178
  Eu  Eu7  1  0.589150  0.541990  0.430040  1.0  2.1185
  Eu  Eu8  1  0.910850  0.958010  0.930040  1.0  2.1173
  H  H9  1  0.674000  0.834500  0.722800  1.0  0.1081
  H  H10  1  0.667600  0.536100  0.706000  1.0  0.0927
  H  H11  1  0.633000  0.516500  0.784600  1.0  0.1008
  H  H12  1  0.817700  0.803100  0.667200  1.0  0.1017
  H  H13  1  0.789600  0.727700  0.532600  1.0  0.1051
  H  H14  1  0.601600  0.602900  0.628500  1.0  0.0942
  H  H15  1  0.826000  0.665500  0.222800  1.0  0.1079
  H  H16  1  0.832400  0.963900  0.206000  1.0  0.0933
  H  H17  1  0.867000  0.983500  0.284600  1.0  0.0999
  H  H18  1  0.682300  0.696900  0.167200  1.0  0.1018
  H  H19  1  0.710400  0.772300  0.032600  1.0  0.1052
  H  H20  1  0.898400  0.897100  0.128500  1.0  0.0944
  H  H21  1  0.326000  0.834500  0.777200  1.0  0.1076
  H  H22  1  0.332400  0.536100  0.794000  1.0  0.0933
  H  H23  1  0.367000  0.516500  0.715400  1.0  0.1004
  H  H24  1  0.182300  0.803100  0.832800  1.0  0.1021
  H  H25  1  0.210400  0.727700  0.967400  1.0  0.105
  H  H26  1  0.398400  0.602900  0.871500  1.0  0.0948
  H  H27  1  0.174000  0.665500  0.277200  1.0  0.1078
  H  H28  1  0.167600  0.963900  0.294000  1.0  0.0931
  H  H29  1  0.133000  0.983500  0.215400  1.0  0.1
  H  H30  1  0.317700  0.696900  0.332800  1.0  0.102
  H  H31  1  0.289600  0.772300  0.467400  1.0  0.1046
  H  H32  1  0.101600  0.897100  0.371500  1.0  0.0947
  H  H33  1  0.326000  0.165500  0.277200  1.0  0.1078
  H  H34  1  0.332400  0.463900  0.294000  1.0  0.0931
  H  H35  1  0.367000  0.483500  0.215400  1.0  0.0999
  H  H36  1  0.182300  0.196900  0.332800  1.0  0.1019
  H  H37  1  0.210400  0.272300  0.467400  1.0  0.1051
  H  H38  1  0.398400  0.397100  0.371500  1.0  0.0947
  H  H39  1  0.174000  0.334500  0.777200  1.0  0.1078
  H  H40  1  0.167600  0.036100  0.794000  1.0  0.093
  H  H41  1  0.133000  0.016500  0.715400  1.0  0.1009
  H  H42  1  0.317700  0.303100  0.832800  1.0  0.102
  H  H43  1  0.289600  0.227700  0.967400  1.0  0.1045
  H  H44  1  0.101600  0.102900  0.871500  1.0  0.0945
  H  H45  1  0.674000  0.165500  0.222800  1.0  0.1078
  H  H46  1  0.667600  0.463900  0.206000  1.0  0.0933
  H  H47  1  0.633000  0.483500  0.284600  1.0  0.0999
  H  H48  1  0.817700  0.196900  0.167200  1.0  0.1016
  H  H49  1  0.789600  0.272300  0.032600  1.0  0.105
  H  H50  1  0.601600  0.397100  0.128500  1.0  0.0945
  H  H51  1  0.826000  0.334500  0.722800  1.0  0.108
  H  H52  1  0.832400  0.036100  0.706000  1.0  0.093
  H  H53  1  0.867000  0.016500  0.784600  1.0  0.1003
  H  H54  1  0.682300  0.303100  0.667200  1.0  0.1018
  H  H55  1  0.710400  0.227700  0.532600  1.0  0.1051
  H  H56  1  0.898400  0.102900  0.628500  1.0  0.0945
  C  C57  1  0.630000  0.644700  0.854400  1.0  0.7096
  C  C58  1  0.634600  0.663400  0.802300  1.0  -0.0549
  C  C59  1  0.643100  0.755900  0.781400  1.0  0.1015
  C  C60  1  0.665800  0.770100  0.734700  1.0  -0.1456
  C  C61  1  0.676300  0.686900  0.705500  1.0  0.0476
  C  C62  1  0.662800  0.592400  0.725000  1.0  -0.1243
  C  C63  1  0.642100  0.580500  0.772500  1.0  -0.0458
  C  C64  1  0.705100  0.700300  0.655800  1.0  -0.0318
  C  C65  1  0.785600  0.765400  0.643900  1.0  -0.0509
  C  C66  1  0.819500  0.775400  0.598000  1.0  -0.1798
  C  C67  1  0.768300  0.721000  0.563400  1.0  0.0303
  C  C68  1  0.687100  0.657800  0.573900  1.0  -0.1698
  C  C69  1  0.655700  0.646600  0.621000  1.0  -0.0797
  C  C70  1  0.910600  0.840700  0.587400  1.0  0.6657
  C  C71  1  0.631400  0.603500  0.535400  1.0  0.7367
  C  C72  1  0.870000  0.855300  0.354400  1.0  0.7087
  C  C73  1  0.865400  0.836600  0.302300  1.0  -0.0533
  C  C74  1  0.856900  0.744100  0.281400  1.0  0.1004
  C  C75  1  0.834200  0.729900  0.234700  1.0  -0.1461
  C  C76  1  0.823700  0.813100  0.205500  1.0  0.0473
  C  C77  1  0.837200  0.907600  0.225000  1.0  -0.1232
  C  C78  1  0.857900  0.919500  0.272500  1.0  -0.0459
  C  C79  1  0.794900  0.799700  0.155800  1.0  -0.0316
  C  C80  1  0.714400  0.734600  0.143900  1.0  -0.0504
  C  C81  1  0.680500  0.724600  0.098000  1.0  -0.1804
  C  C82  1  0.731700  0.779000  0.063400  1.0  0.032
  C  C83  1  0.812900  0.842200  0.073900  1.0  -0.1687
  C  C84  1  0.844300  0.853400  0.121000  1.0  -0.0802
  C  C85  1  0.589400  0.659300  0.087400  1.0  0.666
  C  C86  1  0.868600  0.896500  0.035400  1.0  0.736
  C  C87  1  0.370000  0.644700  0.645600  1.0  0.7105
  C  C88  1  0.365400  0.663400  0.697700  1.0  -0.0534
  C  C89  1  0.356900  0.755900  0.718600  1.0  0.099
  C  C90  1  0.334200  0.770100  0.765300  1.0  -0.1468
  C  C91  1  0.323700  0.686900  0.794500  1.0  0.0472
  C  C92  1  0.337200  0.592400  0.775000  1.0  -0.1244
  C  C93  1  0.357900  0.580500  0.727500  1.0  -0.0469
  C  C94  1  0.294900  0.700300  0.844200  1.0  -0.0314
  C  C95  1  0.214400  0.765400  0.856100  1.0  -0.0503
  C  C96  1  0.180500  0.775400  0.902000  1.0  -0.1798
  C  C97  1  0.231700  0.721000  0.936600  1.0  0.0299
  C  C98  1  0.312900  0.657800  0.926100  1.0  -0.1691
  C  C99  1  0.344300  0.646600  0.879000  1.0  -0.0798
  C  C100  1  0.089400  0.840700  0.912600  1.0  0.6663
  C  C101  1  0.368600  0.603500  0.964600  1.0  0.738
  C  C102  1  0.130000  0.855300  0.145600  1.0  0.7099
  C  C103  1  0.134600  0.836600  0.197700  1.0  -0.0548
  C  C104  1  0.143100  0.744100  0.218600  1.0  0.101
  C  C105  1  0.165800  0.729900  0.265300  1.0  -0.1444
  C  C106  1  0.176300  0.813100  0.294500  1.0  0.0472
  C  C107  1  0.162800  0.907600  0.275000  1.0  -0.1244
  C  C108  1  0.142100  0.919500  0.227500  1.0  -0.0467
  C  C109  1  0.205100  0.799700  0.344200  1.0  -0.0313
  C  C110  1  0.285600  0.734600  0.356100  1.0  -0.0509
  C  C111  1  0.319500  0.724600  0.402000  1.0  -0.1799
  C  C112  1  0.268300  0.779000  0.436600  1.0  0.031
  C  C113  1  0.187100  0.842200  0.426100  1.0  -0.1692
  C  C114  1  0.155700  0.853400  0.379000  1.0  -0.0792
  C  C115  1  0.410600  0.659300  0.412600  1.0  0.666
  C  C116  1  0.131400  0.896500  0.464600  1.0  0.7383
  C  C117  1  0.370000  0.355300  0.145600  1.0  0.7103
  C  C118  1  0.365400  0.336600  0.197700  1.0  -0.0538
  C  C119  1  0.356900  0.244100  0.218600  1.0  0.0991
  C  C120  1  0.334200  0.229900  0.265300  1.0  -0.1461
  C  C121  1  0.323700  0.313100  0.294500  1.0  0.0471
  C  C122  1  0.337200  0.407600  0.275000  1.0  -0.1232
  C  C123  1  0.357900  0.419500  0.227500  1.0  -0.0466
  C  C124  1  0.294900  0.299700  0.344200  1.0  -0.0312
  C  C125  1  0.214400  0.234600  0.356100  1.0  -0.0508
  C  C126  1  0.180500  0.224600  0.402000  1.0  -0.1802
  C  C127  1  0.231700  0.279000  0.436600  1.0  0.03
  C  C128  1  0.312900  0.342200  0.426100  1.0  -0.1699
  C  C129  1  0.344300  0.353400  0.379000  1.0  -0.0797
  C  C130  1  0.089400  0.159300  0.412600  1.0  0.6664
  C  C131  1  0.368600  0.396500  0.464600  1.0  0.7379
  C  C132  1  0.130000  0.144700  0.645600  1.0  0.7103
  C  C133  1  0.134600  0.163400  0.697700  1.0  -0.0545
  C  C134  1  0.143100  0.255900  0.718600  1.0  0.1011
  C  C135  1  0.165800  0.270100  0.765300  1.0  -0.1455
  C  C136  1  0.176300  0.186900  0.794500  1.0  0.0474
  C  C137  1  0.162800  0.092400  0.775000  1.0  -0.1246
  C  C138  1  0.142100  0.080500  0.727500  1.0  -0.0463
  C  C139  1  0.205100  0.200300  0.844200  1.0  -0.0314
  C  C140  1  0.285600  0.265400  0.856100  1.0  -0.0509
  C  C141  1  0.319500  0.275400  0.902000  1.0  -0.18
  C  C142  1  0.268300  0.221000  0.936600  1.0  0.0309
  C  C143  1  0.187100  0.157800  0.926100  1.0  -0.1683
  C  C144  1  0.155700  0.146600  0.879000  1.0  -0.0791
  C  C145  1  0.410600  0.340700  0.912600  1.0  0.666
  C  C146  1  0.131400  0.103500  0.964600  1.0  0.7381
  C  C147  1  0.630000  0.355300  0.354400  1.0  0.7092
  C  C148  1  0.634600  0.336600  0.302300  1.0  -0.0545
  C  C149  1  0.643100  0.244100  0.281400  1.0  0.1015
  C  C150  1  0.665800  0.229900  0.234700  1.0  -0.1445
  C  C151  1  0.676300  0.313100  0.205500  1.0  0.0475
  C  C152  1  0.662800  0.407600  0.225000  1.0  -0.1245
  C  C153  1  0.642100  0.419500  0.272500  1.0  -0.0458
  C  C154  1  0.705100  0.299700  0.155800  1.0  -0.0319
  C  C155  1  0.785600  0.234600  0.143900  1.0  -0.051
  C  C156  1  0.819500  0.224600  0.098000  1.0  -0.1801
  C  C157  1  0.768300  0.279000  0.063400  1.0  0.0304
  C  C158  1  0.687100  0.342200  0.073900  1.0  -0.1691
  C  C159  1  0.655700  0.353400  0.121000  1.0  -0.0799
  C  C160  1  0.910600  0.159300  0.087400  1.0  0.6657
  C  C161  1  0.631400  0.396500  0.035400  1.0  0.7368
  C  C162  1  0.870000  0.144700  0.854400  1.0  0.7088
  C  C163  1  0.865400  0.163400  0.802300  1.0  -0.0536
  C  C164  1  0.856900  0.255900  0.781400  1.0  0.1004
  C  C165  1  0.834200  0.270100  0.734700  1.0  -0.1469
  C  C166  1  0.823700  0.186900  0.705500  1.0  0.0474
  C  C167  1  0.837200  0.092400  0.725000  1.0  -0.124
  C  C168  1  0.857900  0.080500  0.772500  1.0  -0.0463
  C  C169  1  0.794900  0.200300  0.655800  1.0  -0.0317
  C  C170  1  0.714400  0.265400  0.643900  1.0  -0.0499
  C  C171  1  0.680500  0.275400  0.598000  1.0  -0.18
  C  C172  1  0.731700  0.221000  0.563400  1.0  0.0318
  C  C173  1  0.812900  0.157800  0.573900  1.0  -0.1696
  C  C174  1  0.844300  0.146600  0.621000  1.0  -0.0803
  C  C175  1  0.589400  0.340700  0.587400  1.0  0.6661
  C  C176  1  0.868600  0.103500  0.535400  1.0  0.7361
  N  N177  1  0.622600  0.847100  0.808300  1.0  0.6042
  N  N178  1  0.877400  0.652900  0.308300  1.0  0.6036
  N  N179  1  0.377400  0.847100  0.691700  1.0  0.6067
  N  N180  1  0.122600  0.652900  0.191700  1.0  0.6051
  N  N181  1  0.377400  0.152900  0.191700  1.0  0.6055
  N  N182  1  0.122600  0.347100  0.691700  1.0  0.6071
  N  N183  1  0.622600  0.152900  0.308300  1.0  0.6036
  N  N184  1  0.877400  0.347100  0.808300  1.0  0.6035
  O  O185  1  0.590500  0.562900  0.866000  1.0  -0.7296
  O  O186  1  0.664200  0.711500  0.880900  1.0  -0.5048
  O  O187  1  0.539600  0.853600  0.829000  1.0  -0.4519
  O  O188  1  0.686600  0.914100  0.807200  1.0  -0.3677
  O  O189  1  0.946900  0.896500  0.619080  1.0  -0.6046
  O  O190  1  0.951400  0.838500  0.547120  1.0  -0.6147
  O  O191  1  0.666800  0.611500  0.495200  1.0  -0.6478
  O  O192  1  0.552700  0.553100  0.544500  1.0  -0.8183
  O  O193  1  0.909500  0.937100  0.366000  1.0  -0.731
  O  O194  1  0.835800  0.788500  0.380900  1.0  -0.4989
  O  O195  1  0.960400  0.646400  0.329000  1.0  -0.4488
  O  O196  1  0.813400  0.585900  0.307200  1.0  -0.3684
  O  O197  1  0.553100  0.603500  0.119080  1.0  -0.6043
  O  O198  1  0.548600  0.661500  0.047120  1.0  -0.6153
  O  O199  1  0.833200  0.888500  0.995200  1.0  -0.6478
  O  O200  1  0.947300  0.946900  0.044500  1.0  -0.8166
  O  O201  1  0.409500  0.562900  0.634000  1.0  -0.7317
  O  O202  1  0.335800  0.711500  0.619100  1.0  -0.5009
  O  O203  1  0.460400  0.853600  0.671000  1.0  -0.4529
  O  O204  1  0.313400  0.914100  0.692800  1.0  -0.368
  O  O205  1  0.053100  0.896500  0.880920  1.0  -0.6013
  O  O206  1  0.048600  0.838500  0.952880  1.0  -0.6132
  O  O207  1  0.333200  0.611500  0.004800  1.0  -0.652
  O  O208  1  0.447300  0.553100  0.955500  1.0  -0.8174
  O  O209  1  0.090500  0.937100  0.134000  1.0  -0.729
  O  O210  1  0.164200  0.788500  0.119100  1.0  -0.4995
  O  O211  1  0.039600  0.646400  0.171000  1.0  -0.4516
  O  O212  1  0.186600  0.585900  0.192800  1.0  -0.3683
  O  O213  1  0.446900  0.603500  0.380920  1.0  -0.6035
  O  O214  1  0.451400  0.661500  0.452880  1.0  -0.6147
  O  O215  1  0.166800  0.888500  0.504800  1.0  -0.6512
  O  O216  1  0.052700  0.946900  0.455500  1.0  -0.8176
  O  O217  1  0.409500  0.437100  0.134000  1.0  -0.7308
  O  O218  1  0.335800  0.288500  0.119100  1.0  -0.5011
  O  O219  1  0.460400  0.146400  0.171000  1.0  -0.4502
  O  O220  1  0.313400  0.085900  0.192800  1.0  -0.369
  O  O221  1  0.053100  0.103500  0.380920  1.0  -0.6019
  O  O222  1  0.048600  0.161500  0.452880  1.0  -0.614
  O  O223  1  0.333200  0.388500  0.504800  1.0  -0.6518
  O  O224  1  0.447300  0.446900  0.455500  1.0  -0.8172
  O  O225  1  0.090500  0.062900  0.634000  1.0  -0.7302
  O  O226  1  0.164200  0.211500  0.619100  1.0  -0.4991
  O  O227  1  0.039600  0.353600  0.671000  1.0  -0.453
  O  O228  1  0.186600  0.414100  0.692800  1.0  -0.3681
  O  O229  1  0.446900  0.396500  0.880920  1.0  -0.6034
  O  O230  1  0.451400  0.338500  0.952880  1.0  -0.6139
  O  O231  1  0.166800  0.111500  0.004800  1.0  -0.6511
  O  O232  1  0.052700  0.053100  0.955500  1.0  -0.818
  O  O233  1  0.590500  0.437100  0.366000  1.0  -0.729
  O  O234  1  0.664200  0.288500  0.380900  1.0  -0.5033
  O  O235  1  0.539600  0.146400  0.329000  1.0  -0.4503
  O  O236  1  0.686600  0.085900  0.307200  1.0  -0.3678
  O  O237  1  0.946900  0.103500  0.119080  1.0  -0.6054
  O  O238  1  0.951400  0.161500  0.047120  1.0  -0.6138
  O  O239  1  0.666800  0.388500  0.995200  1.0  -0.6477
  O  O240  1  0.552700  0.446900  0.044500  1.0  -0.8179
  O  O241  1  0.909500  0.062900  0.866000  1.0  -0.7311
  O  O242  1  0.835800  0.211500  0.880900  1.0  -0.5017
  O  O243  1  0.960400  0.353600  0.829000  1.0  -0.4517
  O  O244  1  0.813400  0.414100  0.807200  1.0  -0.3671
  O  O245  1  0.553100  0.396500  0.619080  1.0  -0.6032
  O  O246  1  0.548600  0.338500  0.547120  1.0  -0.6122
  O  O247  1  0.833200  0.111500  0.495200  1.0  -0.6478
  O  O248  1  0.947300  0.053100  0.544500  1.0  -0.8172
