# generated using pymatgen
data_CdH3C9NO4
_symmetry_space_group_name_H-M   'P 1'
_cell_length_a   7.12910000
_cell_length_b   16.07480000
_cell_length_c   11.03750000
_cell_angle_alpha   90.00000000
_cell_angle_beta   90.00000000
_cell_angle_gamma   90.00000000
_symmetry_Int_Tables_number   1
_chemical_formula_structural   CdH3C9NO4
_chemical_formula_sum   'Cd4 H12 C36 N4 O16'
_cell_volume   1264.88488061
_cell_formula_units_Z   4
loop_
 _symmetry_equiv_pos_site_id
 _symmetry_equiv_pos_as_xyz
  1  'x, y, z'
loop_
 _atom_site_type_symbol
 _atom_site_label
 _atom_site_symmetry_multiplicity
 _atom_site_fract_x
 _atom_site_fract_y
 _atom_site_fract_z
 _atom_site_occupancy
 _atom_site_charge
  Cd  Cd1  1  0.544640  0.223840  0.866210  1.0  1.0005
  Cd  Cd2  1  0.455360  0.776160  0.366210  1.0  0.9992
  Cd  Cd3  1  0.044640  0.276160  0.866210  1.0  0.9994
  Cd  Cd4  1  0.955360  0.723840  0.366210  1.0  1.0004
  H  H5  1  0.311200  0.999500  0.126800  1.0  0.129
  H  H6  1  0.828800  0.992200  0.316800  1.0  0.1376
  H  H7  1  0.960900  0.195800  0.120600  1.0  0.1299
  H  H8  1  0.688800  0.000500  0.626800  1.0  0.1289
  H  H9  1  0.171200  0.007800  0.816800  1.0  0.1373
  H  H10  1  0.039100  0.804200  0.620600  1.0  0.1304
  H  H11  1  0.811200  0.500500  0.126800  1.0  0.1293
  H  H12  1  0.328800  0.507800  0.316800  1.0  0.1373
  H  H13  1  0.460900  0.304200  0.120600  1.0  0.1299
  H  H14  1  0.188800  0.499500  0.626800  1.0  0.1286
  H  H15  1  0.671200  0.492200  0.816800  1.0  0.1377
  H  H16  1  0.539100  0.695800  0.620600  1.0  0.1302
  C  C17  1  0.288400  0.149800  0.024700  1.0  0.7078
  C  C18  1  0.155900  0.104600  0.109100  1.0  -0.1104
  C  C19  1  0.200400  0.024800  0.151500  1.0  0.0529
  C  C20  1  0.079800  0.983000  0.230700  1.0  -0.1406
  C  C21  1  0.133300  0.898700  0.284700  1.0  0.7452
  C  C22  1  0.911000  0.020100  0.265600  1.0  -0.06
  C  C23  1  0.867000  0.099300  0.222900  1.0  0.0099
  C  C24  1  0.691400  0.137200  0.259300  1.0  0.2966
  C  C25  1  0.990000  0.142200  0.146400  1.0  -0.077
  C  C26  1  0.711600  0.850200  0.524700  1.0  0.7081
  C  C27  1  0.844100  0.895400  0.609100  1.0  -0.1102
  C  C28  1  0.799600  0.975200  0.651500  1.0  0.0534
  C  C29  1  0.920200  0.017000  0.730700  1.0  -0.1404
  C  C30  1  0.866700  0.101300  0.784700  1.0  0.7455
  C  C31  1  0.089000  0.979900  0.765600  1.0  -0.0593
  C  C32  1  0.133000  0.900700  0.722900  1.0  0.0129
  C  C33  1  0.308600  0.862800  0.759300  1.0  0.2978
  C  C34  1  0.010000  0.857800  0.646400  1.0  -0.0747
  C  C35  1  0.788400  0.350200  0.024700  1.0  0.7073
  C  C36  1  0.655900  0.395400  0.109100  1.0  -0.1106
  C  C37  1  0.700400  0.475200  0.151500  1.0  0.0527
  C  C38  1  0.579800  0.517000  0.230700  1.0  -0.1403
  C  C39  1  0.633300  0.601300  0.284700  1.0  0.7457
  C  C40  1  0.411000  0.479900  0.265600  1.0  -0.0603
  C  C41  1  0.367000  0.400700  0.222900  1.0  0.0104
  C  C42  1  0.191400  0.362800  0.259300  1.0  0.2972
  C  C43  1  0.490000  0.357800  0.146400  1.0  -0.076
  C  C44  1  0.211600  0.649800  0.524700  1.0  0.7083
  C  C45  1  0.344100  0.604600  0.609100  1.0  -0.1101
  C  C46  1  0.299600  0.524800  0.651500  1.0  0.0536
  C  C47  1  0.420200  0.483000  0.730700  1.0  -0.1409
  C  C48  1  0.366700  0.398700  0.784700  1.0  0.7445
  C  C49  1  0.589000  0.520100  0.765600  1.0  -0.059
  C  C50  1  0.633000  0.599300  0.722900  1.0  0.0123
  C  C51  1  0.808600  0.637200  0.759300  1.0  0.2973
  C  C52  1  0.510000  0.642200  0.646400  1.0  -0.0755
  N  N53  1  0.550000  0.165100  0.289200  1.0  -0.392
  N  N54  1  0.450000  0.834900  0.789200  1.0  -0.3932
  N  N55  1  0.050000  0.334900  0.289200  1.0  -0.3917
  N  N56  1  0.950000  0.665100  0.789200  1.0  -0.3934
  O  O57  1  0.428700  0.111710  0.985300  1.0  -0.5671
  O  O58  1  0.257200  0.224570  0.998600  1.0  -0.6474
  O  O59  1  0.300900  0.877300  0.270900  1.0  -0.6118
  O  O60  1  0.007100  0.860630  0.338100  1.0  -0.6057
  O  O61  1  0.571300  0.888290  0.485300  1.0  -0.5684
  O  O62  1  0.742800  0.775430  0.498600  1.0  -0.6469
  O  O63  1  0.699100  0.122700  0.770900  1.0  -0.6132
  O  O64  1  0.992900  0.139370  0.838100  1.0  -0.6047
  O  O65  1  0.928700  0.388290  0.985300  1.0  -0.5675
  O  O66  1  0.757200  0.275430  0.998600  1.0  -0.6473
  O  O67  1  0.800900  0.622700  0.270900  1.0  -0.6113
  O  O68  1  0.507100  0.639370  0.338100  1.0  -0.6051
  O  O69  1  0.071300  0.611710  0.485300  1.0  -0.5685
  O  O70  1  0.242800  0.724570  0.498600  1.0  -0.6471
  O  O71  1  0.199100  0.377300  0.770900  1.0  -0.6123
  O  O72  1  0.492900  0.360630  0.838100  1.0  -0.6052
