# generated using pymatgen
data_ZnH8C12(IN2)2
_symmetry_space_group_name_H-M   'P 1'
_cell_length_a   28.07240000
_cell_length_b   14.00070000
_cell_length_c   44.71590000
_cell_angle_alpha   90.00000000
_cell_angle_beta   90.00000000
_cell_angle_gamma   90.00000000
_symmetry_Int_Tables_number   1
_chemical_formula_structural   ZnH8C12(IN2)2
_chemical_formula_sum   'Zn24 H192 C288 I48 N96'
_cell_volume   17574.83553408
_cell_formula_units_Z   24
loop_
 _symmetry_equiv_pos_site_id
 _symmetry_equiv_pos_as_xyz
  1  'x, y, z'
loop_
 _atom_site_type_symbol
 _atom_site_label
 _atom_site_symmetry_multiplicity
 _atom_site_fract_x
 _atom_site_fract_y
 _atom_site_fract_z
 _atom_site_occupancy
 _atom_site_charge
  Zn  Zn1  1  0.238150  0.826450  0.820810  1.0  0.8594
  Zn  Zn2  1  0.477240  0.385290  0.413720  1.0  0.8258
  Zn  Zn3  1  0.450020  0.138200  0.586890  1.0  0.8497
  Zn  Zn4  1  0.261850  0.173550  0.320810  1.0  0.856
  Zn  Zn5  1  0.022760  0.614710  0.913720  1.0  0.8245
  Zn  Zn6  1  0.049980  0.861800  0.086890  1.0  0.8508
  Zn  Zn7  1  0.761850  0.326450  0.679190  1.0  0.858
  Zn  Zn8  1  0.522760  0.885290  0.086280  1.0  0.8251
  Zn  Zn9  1  0.549980  0.638200  0.913110  1.0  0.8515
  Zn  Zn10  1  0.738150  0.673550  0.179190  1.0  0.8564
  Zn  Zn11  1  0.977240  0.114710  0.586280  1.0  0.8248
  Zn  Zn12  1  0.950020  0.361800  0.413110  1.0  0.8502
  Zn  Zn13  1  0.761850  0.173550  0.179190  1.0  0.8559
  Zn  Zn14  1  0.522760  0.614710  0.586280  1.0  0.8248
  Zn  Zn15  1  0.549980  0.861800  0.413110  1.0  0.8511
  Zn  Zn16  1  0.738150  0.826450  0.679190  1.0  0.8588
  Zn  Zn17  1  0.977240  0.385290  0.086280  1.0  0.8255
  Zn  Zn18  1  0.950020  0.138200  0.913110  1.0  0.8507
  Zn  Zn19  1  0.238150  0.673550  0.320810  1.0  0.8564
  Zn  Zn20  1  0.477240  0.114710  0.913720  1.0  0.8246
  Zn  Zn21  1  0.450020  0.361800  0.086890  1.0  0.8502
  Zn  Zn22  1  0.261850  0.326450  0.820810  1.0  0.8586
  Zn  Zn23  1  0.022760  0.885290  0.413720  1.0  0.8254
  Zn  Zn24  1  0.049980  0.638200  0.586890  1.0  0.8503
  H  H25  1  0.160600  0.869300  0.776900  1.0  0.0858
  H  H26  1  0.150600  0.934400  0.729700  1.0  0.1188
  H  H27  1  0.289400  0.005200  0.729600  1.0  0.116
  H  H28  1  0.295900  0.944400  0.778000  1.0  0.0958
  H  H29  1  0.084800  0.031900  0.672000  1.0  0.1185
  H  H30  1  0.014400  0.055100  0.646500  1.0  0.0798
  H  H31  1  0.082700  0.107500  0.572000  1.0  0.0819
  H  H32  1  0.154900  0.088100  0.595100  1.0  0.1234
  H  H33  1  0.271900  0.105100  0.594300  1.0  0.1208
  H  H34  1  0.345400  0.129600  0.571100  1.0  0.0863
  H  H35  1  0.413500  0.053000  0.644100  1.0  0.0883
  H  H36  1  0.343600  0.026600  0.668900  1.0  0.1219
  H  H37  1  0.422600  0.195600  0.523900  1.0  0.0855
  H  H38  1  0.405400  0.124200  0.478500  1.0  0.1219
  H  H39  1  0.451900  0.874700  0.512700  1.0  0.1144
  H  H40  1  0.467700  0.952700  0.557500  1.0  0.0934
  H  H41  1  0.468600  0.525000  0.464800  1.0  0.0817
  H  H42  1  0.442900  0.678300  0.474500  1.0  0.1197
  H  H43  1  0.396300  0.691900  0.389200  1.0  0.1174
  H  H44  1  0.421600  0.537800  0.382400  1.0  0.0886
  H  H45  1  0.361500  0.124200  0.411200  1.0  0.1211
  H  H46  1  0.323500  0.206400  0.372800  1.0  0.0906
  H  H47  1  0.285500  0.968300  0.334800  1.0  0.0847
  H  H48  1  0.326500  0.879500  0.370400  1.0  0.1168
  H  H49  1  0.339400  0.130700  0.276900  1.0  0.0862
  H  H50  1  0.349400  0.065600  0.229700  1.0  0.1189
  H  H51  1  0.210600  0.994800  0.229600  1.0  0.1157
  H  H52  1  0.204100  0.055600  0.278000  1.0  0.0966
  H  H53  1  0.415200  0.968100  0.172000  1.0  0.1181
  H  H54  1  0.485600  0.944900  0.146500  1.0  0.0796
  H  H55  1  0.417300  0.892500  0.072000  1.0  0.0818
  H  H56  1  0.345100  0.911900  0.095100  1.0  0.1239
  H  H57  1  0.228100  0.894900  0.094300  1.0  0.1206
  H  H58  1  0.154600  0.870400  0.071100  1.0  0.0858
  H  H59  1  0.086500  0.947000  0.144100  1.0  0.0886
  H  H60  1  0.156400  0.973400  0.168900  1.0  0.1221
  H  H61  1  0.077400  0.804400  0.023900  1.0  0.0862
  H  H62  1  0.094600  0.875800  0.978500  1.0  0.1216
  H  H63  1  0.048100  0.125300  0.012700  1.0  0.1139
  H  H64  1  0.032300  0.047300  0.057500  1.0  0.0937
  H  H65  1  0.031400  0.475000  0.964800  1.0  0.0823
  H  H66  1  0.057100  0.321700  0.974500  1.0  0.119
  H  H67  1  0.103700  0.308100  0.889200  1.0  0.1173
  H  H68  1  0.078400  0.462200  0.882400  1.0  0.0889
  H  H69  1  0.138500  0.875800  0.911200  1.0  0.1211
  H  H70  1  0.176500  0.793600  0.872800  1.0  0.0919
  H  H71  1  0.214500  0.031700  0.834800  1.0  0.0849
  H  H72  1  0.173500  0.120500  0.870400  1.0  0.1172
  H  H73  1  0.839400  0.369300  0.723100  1.0  0.0867
  H  H74  1  0.849400  0.434400  0.770300  1.0  0.1191
  H  H75  1  0.710600  0.505200  0.770400  1.0  0.1156
  H  H76  1  0.704100  0.444400  0.722000  1.0  0.0968
  H  H77  1  0.915200  0.531900  0.828000  1.0  0.1184
  H  H78  1  0.985600  0.555100  0.853500  1.0  0.0792
  H  H79  1  0.917300  0.607500  0.928000  1.0  0.0826
  H  H80  1  0.845100  0.588100  0.904900  1.0  0.1241
  H  H81  1  0.728100  0.605100  0.905700  1.0  0.1207
  H  H82  1  0.654600  0.629600  0.928900  1.0  0.0857
  H  H83  1  0.586500  0.553000  0.855900  1.0  0.0881
  H  H84  1  0.656400  0.526600  0.831100  1.0  0.122
  H  H85  1  0.577400  0.695600  0.976100  1.0  0.0854
  H  H86  1  0.594600  0.624200  0.021500  1.0  0.1221
  H  H87  1  0.548100  0.374700  0.987300  1.0  0.1145
  H  H88  1  0.532300  0.452700  0.942500  1.0  0.0925
  H  H89  1  0.531400  0.025000  0.035200  1.0  0.0816
  H  H90  1  0.557100  0.178300  0.025500  1.0  0.1193
  H  H91  1  0.603700  0.191900  0.110800  1.0  0.1171
  H  H92  1  0.578400  0.037800  0.117600  1.0  0.0887
  H  H93  1  0.638500  0.624200  0.088800  1.0  0.1214
  H  H94  1  0.676500  0.706400  0.127200  1.0  0.0907
  H  H95  1  0.714500  0.468300  0.165200  1.0  0.0841
  H  H96  1  0.673500  0.379500  0.129600  1.0  0.117
  H  H97  1  0.660600  0.630700  0.223100  1.0  0.0854
  H  H98  1  0.650600  0.565600  0.270300  1.0  0.1186
  H  H99  1  0.789400  0.494800  0.270400  1.0  0.1161
  H  H100  1  0.795900  0.555600  0.222000  1.0  0.0963
  H  H101  1  0.584800  0.468100  0.328000  1.0  0.1184
  H  H102  1  0.514400  0.444900  0.353500  1.0  0.0796
  H  H103  1  0.582700  0.392500  0.428000  1.0  0.0829
  H  H104  1  0.654900  0.411900  0.404900  1.0  0.1238
  H  H105  1  0.771900  0.394900  0.405700  1.0  0.1213
  H  H106  1  0.845400  0.370400  0.428900  1.0  0.086
  H  H107  1  0.913500  0.447000  0.355900  1.0  0.0887
  H  H108  1  0.843600  0.473400  0.331100  1.0  0.1224
  H  H109  1  0.922600  0.304400  0.476100  1.0  0.0863
  H  H110  1  0.905400  0.375800  0.521500  1.0  0.1223
  H  H111  1  0.951900  0.625300  0.487300  1.0  0.1141
  H  H112  1  0.967700  0.547300  0.442500  1.0  0.0924
  H  H113  1  0.968600  0.975000  0.535200  1.0  0.0815
  H  H114  1  0.942900  0.821700  0.525500  1.0  0.1194
  H  H115  1  0.896300  0.808100  0.610800  1.0  0.117
  H  H116  1  0.921600  0.962200  0.617600  1.0  0.0886
  H  H117  1  0.861500  0.375800  0.588800  1.0  0.121
  H  H118  1  0.823500  0.293600  0.627200  1.0  0.0921
  H  H119  1  0.785500  0.531700  0.665200  1.0  0.0843
  H  H120  1  0.826500  0.620500  0.629600  1.0  0.1169
  H  H121  1  0.839400  0.130700  0.223100  1.0  0.0868
  H  H122  1  0.849400  0.065600  0.270300  1.0  0.1187
  H  H123  1  0.710600  0.994800  0.270400  1.0  0.1159
  H  H124  1  0.704100  0.055600  0.222000  1.0  0.0967
  H  H125  1  0.915200  0.968100  0.328000  1.0  0.1185
  H  H126  1  0.985600  0.944900  0.353500  1.0  0.0792
  H  H127  1  0.917300  0.892500  0.428000  1.0  0.083
  H  H128  1  0.845100  0.911900  0.404900  1.0  0.1241
  H  H129  1  0.728100  0.894900  0.405700  1.0  0.1209
  H  H130  1  0.654600  0.870400  0.428900  1.0  0.0855
  H  H131  1  0.586500  0.947000  0.355900  1.0  0.0885
  H  H132  1  0.656400  0.973400  0.331100  1.0  0.1221
  H  H133  1  0.577400  0.804400  0.476100  1.0  0.0863
  H  H134  1  0.594600  0.875800  0.521500  1.0  0.1219
  H  H135  1  0.548100  0.125300  0.487300  1.0  0.114
  H  H136  1  0.532300  0.047300  0.442500  1.0  0.0926
  H  H137  1  0.531400  0.475000  0.535200  1.0  0.082
  H  H138  1  0.557100  0.321700  0.525500  1.0  0.1193
  H  H139  1  0.603700  0.308100  0.610800  1.0  0.117
  H  H140  1  0.578400  0.462200  0.617600  1.0  0.0887
  H  H141  1  0.638500  0.875800  0.588800  1.0  0.121
  H  H142  1  0.676500  0.793600  0.627200  1.0  0.0921
  H  H143  1  0.714500  0.031700  0.665200  1.0  0.0842
  H  H144  1  0.673500  0.120500  0.629600  1.0  0.1169
  H  H145  1  0.660600  0.869300  0.723100  1.0  0.0857
  H  H146  1  0.650600  0.934400  0.770300  1.0  0.1188
  H  H147  1  0.789400  0.005200  0.770400  1.0  0.1162
  H  H148  1  0.795900  0.944400  0.722000  1.0  0.0964
  H  H149  1  0.584800  0.031900  0.828000  1.0  0.1184
  H  H150  1  0.514400  0.055100  0.853500  1.0  0.0795
  H  H151  1  0.582700  0.107500  0.928000  1.0  0.0827
  H  H152  1  0.654900  0.088100  0.904900  1.0  0.1235
  H  H153  1  0.771900  0.105100  0.905700  1.0  0.121
  H  H154  1  0.845400  0.129600  0.928900  1.0  0.0859
  H  H155  1  0.913500  0.053000  0.855900  1.0  0.0882
  H  H156  1  0.843600  0.026600  0.831100  1.0  0.1221
  H  H157  1  0.922600  0.195600  0.976100  1.0  0.0856
  H  H158  1  0.905400  0.124200  0.021500  1.0  0.1222
  H  H159  1  0.951900  0.874700  0.987300  1.0  0.1145
  H  H160  1  0.967700  0.952700  0.942500  1.0  0.0926
  H  H161  1  0.968600  0.525000  0.035200  1.0  0.0812
  H  H162  1  0.942900  0.678300  0.025500  1.0  0.1194
  H  H163  1  0.896300  0.691900  0.110800  1.0  0.1171
  H  H164  1  0.921600  0.537800  0.117600  1.0  0.089
  H  H165  1  0.861500  0.124200  0.088800  1.0  0.1213
  H  H166  1  0.823500  0.206400  0.127200  1.0  0.0906
  H  H167  1  0.785500  0.968300  0.165200  1.0  0.0844
  H  H168  1  0.826500  0.879500  0.129600  1.0  0.1168
  H  H169  1  0.160600  0.630700  0.276900  1.0  0.0851
  H  H170  1  0.150600  0.565600  0.229700  1.0  0.1189
  H  H171  1  0.289400  0.494800  0.229600  1.0  0.1156
  H  H172  1  0.295900  0.555600  0.278000  1.0  0.0958
  H  H173  1  0.084800  0.468100  0.172000  1.0  0.1183
  H  H174  1  0.014400  0.444900  0.146500  1.0  0.0798
  H  H175  1  0.082700  0.392500  0.072000  1.0  0.0821
  H  H176  1  0.154900  0.411900  0.095100  1.0  0.1233
  H  H177  1  0.271900  0.394900  0.094300  1.0  0.1209
  H  H178  1  0.345400  0.370400  0.071100  1.0  0.0863
  H  H179  1  0.413500  0.447000  0.144100  1.0  0.0887
  H  H180  1  0.343600  0.473400  0.168900  1.0  0.1219
  H  H181  1  0.422600  0.304400  0.023900  1.0  0.0863
  H  H182  1  0.405400  0.375800  0.978500  1.0  0.1215
  H  H183  1  0.451900  0.625300  0.012700  1.0  0.1142
  H  H184  1  0.467700  0.547300  0.057500  1.0  0.0933
  H  H185  1  0.468600  0.975000  0.964800  1.0  0.0818
  H  H186  1  0.442900  0.821700  0.974500  1.0  0.1194
  H  H187  1  0.396300  0.808100  0.889200  1.0  0.1173
  H  H188  1  0.421600  0.962200  0.882400  1.0  0.0883
  H  H189  1  0.361500  0.375800  0.911200  1.0  0.1212
  H  H190  1  0.323500  0.293600  0.872800  1.0  0.0919
  H  H191  1  0.285500  0.531700  0.834800  1.0  0.0848
  H  H192  1  0.326500  0.620500  0.870400  1.0  0.117
  H  H193  1  0.339400  0.369300  0.776900  1.0  0.0866
  H  H194  1  0.349400  0.434400  0.729700  1.0  0.119
  H  H195  1  0.210600  0.505200  0.729600  1.0  0.1156
  H  H196  1  0.204100  0.444400  0.778000  1.0  0.0966
  H  H197  1  0.415200  0.531900  0.672000  1.0  0.1182
  H  H198  1  0.485600  0.555100  0.646500  1.0  0.0796
  H  H199  1  0.417300  0.607500  0.572000  1.0  0.0817
  H  H200  1  0.345100  0.588100  0.595100  1.0  0.1241
  H  H201  1  0.228100  0.605100  0.594300  1.0  0.1206
  H  H202  1  0.154600  0.629600  0.571100  1.0  0.0861
  H  H203  1  0.086500  0.553000  0.644100  1.0  0.0883
  H  H204  1  0.156400  0.526600  0.668900  1.0  0.1222
  H  H205  1  0.077400  0.695600  0.523900  1.0  0.0852
  H  H206  1  0.094600  0.624200  0.478500  1.0  0.1221
  H  H207  1  0.048100  0.374700  0.512700  1.0  0.1142
  H  H208  1  0.032300  0.452700  0.557500  1.0  0.0936
  H  H209  1  0.031400  0.025000  0.464800  1.0  0.0821
  H  H210  1  0.057100  0.178300  0.474500  1.0  0.1193
  H  H211  1  0.103700  0.191900  0.389200  1.0  0.1174
  H  H212  1  0.078400  0.037800  0.382400  1.0  0.0888
  H  H213  1  0.138500  0.624200  0.411200  1.0  0.1212
  H  H214  1  0.176500  0.706400  0.372800  1.0  0.0906
  H  H215  1  0.214500  0.468300  0.334800  1.0  0.0847
  H  H216  1  0.173500  0.379500  0.370400  1.0  0.1171
  C  C217  1  0.187100  0.897800  0.767210  1.0  0.1363
  C  C218  1  0.181000  0.935400  0.739030  1.0  -0.1419
  C  C219  1  0.220100  0.974800  0.724580  1.0  -0.1179
  C  C220  1  0.262400  0.977800  0.739050  1.0  -0.0818
  C  C221  1  0.266200  0.940700  0.767850  1.0  0.116
  C  C222  1  0.215800  0.009700  0.692930  1.0  0.4024
  C  C223  1  0.174300  0.046500  0.652060  1.0  0.3935
  C  C224  1  0.254300  0.049100  0.650550  1.0  0.4226
  C  C225  1  0.128100  0.058500  0.636770  1.0  -0.0689
  C  C226  1  0.085500  0.048300  0.651410  1.0  -0.1317
  C  C227  1  0.043500  0.062200  0.635920  1.0  0.1505
  C  C228  1  0.083200  0.092800  0.592780  1.0  0.1418
  C  C229  1  0.126300  0.081100  0.606280  1.0  -0.1416
  C  C230  1  0.299700  0.064000  0.634450  1.0  -0.1061
  C  C231  1  0.300600  0.094300  0.605000  1.0  -0.1467
  C  C232  1  0.344800  0.108800  0.591340  1.0  0.1376
  C  C233  1  0.384300  0.064100  0.633880  1.0  0.1378
  C  C234  1  0.343000  0.048300  0.648740  1.0  -0.1267
  C  C235  1  0.428100  0.129100  0.521590  1.0  0.1389
  C  C236  1  0.417600  0.087200  0.494590  1.0  -0.1636
  C  C237  1  0.425000  0.990200  0.491240  1.0  -0.044
  C  C238  1  0.444800  0.940700  0.514680  1.0  -0.1044
  C  C239  1  0.454500  0.987600  0.541220  1.0  0.1212
  C  C240  1  0.410400  0.939600  0.463390  1.0  0.3979
  C  C241  1  0.371800  0.939200  0.419720  1.0  0.3818
  C  C242  1  0.405200  0.804300  0.436860  1.0  0.3445
  C  C243  1  0.454000  0.560200  0.449130  1.0  0.1446
  C  C244  1  0.439200  0.651700  0.455080  1.0  -0.1602
  C  C245  1  0.418800  0.704300  0.432220  1.0  -0.1253
  C  C246  1  0.411800  0.659100  0.405100  1.0  -0.1216
  C  C247  1  0.426900  0.567600  0.401150  1.0  0.152
  C  C248  1  0.346700  0.993300  0.395260  1.0  -0.1
  C  C249  1  0.346200  0.090000  0.395580  1.0  -0.1124
  C  C250  1  0.323100  0.138500  0.372700  1.0  0.1292
  C  C251  1  0.301600  0.000900  0.350500  1.0  0.1371
  C  C252  1  0.325200  0.947200  0.371940  1.0  -0.1479
  C  C253  1  0.312900  0.102200  0.267210  1.0  0.1337
  C  C254  1  0.319000  0.064600  0.239030  1.0  -0.1417
  C  C255  1  0.279900  0.025200  0.224580  1.0  -0.1187
  C  C256  1  0.237600  0.022200  0.239050  1.0  -0.0836
  C  C257  1  0.233800  0.059300  0.267850  1.0  0.1157
  C  C258  1  0.284200  0.990300  0.192930  1.0  0.4025
  C  C259  1  0.325700  0.953500  0.152060  1.0  0.3935
  C  C260  1  0.245700  0.950900  0.150550  1.0  0.4237
  C  C261  1  0.371900  0.941500  0.136770  1.0  -0.068
  C  C262  1  0.414500  0.951700  0.151410  1.0  -0.1315
  C  C263  1  0.456500  0.937800  0.135920  1.0  0.15
  C  C264  1  0.416800  0.907200  0.092780  1.0  0.1433
  C  C265  1  0.373700  0.918900  0.106280  1.0  -0.141
  C  C266  1  0.200300  0.936000  0.134450  1.0  -0.1056
  C  C267  1  0.199400  0.905700  0.105000  1.0  -0.1473
  C  C268  1  0.155200  0.891200  0.091340  1.0  0.1375
  C  C269  1  0.115700  0.935900  0.133880  1.0  0.1382
  C  C270  1  0.157000  0.951700  0.148740  1.0  -0.1269
  C  C271  1  0.071900  0.870900  0.021590  1.0  0.1396
  C  C272  1  0.082400  0.912800  0.994590  1.0  -0.1647
  C  C273  1  0.075000  0.009800  0.991240  1.0  -0.0438
  C  C274  1  0.055200  0.059300  0.014680  1.0  -0.1043
  C  C275  1  0.045500  0.012400  0.041220  1.0  0.1203
  C  C276  1  0.089600  0.060400  0.963390  1.0  0.3965
  C  C277  1  0.128200  0.060800  0.919720  1.0  0.3812
  C  C278  1  0.094800  0.195700  0.936860  1.0  0.3447
  C  C279  1  0.046000  0.439800  0.949130  1.0  0.1429
  C  C280  1  0.060800  0.348300  0.955080  1.0  -0.1607
  C  C281  1  0.081200  0.295700  0.932220  1.0  -0.1228
  C  C282  1  0.088200  0.340900  0.905100  1.0  -0.1213
  C  C283  1  0.073100  0.432400  0.901150  1.0  0.1514
  C  C284  1  0.153300  0.006700  0.895260  1.0  -0.1004
  C  C285  1  0.153800  0.910000  0.895580  1.0  -0.1122
  C  C286  1  0.176900  0.861500  0.872700  1.0  0.1283
  C  C287  1  0.198400  0.999100  0.850500  1.0  0.1361
  C  C288  1  0.174800  0.052800  0.871940  1.0  -0.1493
  C  C289  1  0.812900  0.397800  0.732790  1.0  0.134
  C  C290  1  0.819000  0.435400  0.760970  1.0  -0.1415
  C  C291  1  0.779900  0.474800  0.775420  1.0  -0.1172
  C  C292  1  0.737600  0.477800  0.760950  1.0  -0.0827
  C  C293  1  0.733800  0.440700  0.732150  1.0  0.1154
  C  C294  1  0.784200  0.509700  0.807070  1.0  0.4023
  C  C295  1  0.825700  0.546500  0.847940  1.0  0.3935
  C  C296  1  0.745700  0.549100  0.849450  1.0  0.4235
  C  C297  1  0.871900  0.558500  0.863230  1.0  -0.0683
  C  C298  1  0.914500  0.548300  0.848590  1.0  -0.1292
  C  C299  1  0.956500  0.562200  0.864080  1.0  0.1485
  C  C300  1  0.916800  0.592800  0.907220  1.0  0.1404
  C  C301  1  0.873700  0.581100  0.893720  1.0  -0.1413
  C  C302  1  0.700300  0.564000  0.865550  1.0  -0.1054
  C  C303  1  0.699400  0.594300  0.895000  1.0  -0.1473
  C  C304  1  0.655200  0.608800  0.908660  1.0  0.1378
  C  C305  1  0.615700  0.564100  0.866120  1.0  0.1389
  C  C306  1  0.657000  0.548300  0.851260  1.0  -0.125
  C  C307  1  0.571900  0.629100  0.978410  1.0  0.1383
  C  C308  1  0.582400  0.587200  0.005410  1.0  -0.1646
  C  C309  1  0.575000  0.490200  0.008760  1.0  -0.0449
  C  C310  1  0.555200  0.440700  0.985320  1.0  -0.105
  C  C311  1  0.545500  0.487600  0.958780  1.0  0.1216
  C  C312  1  0.589600  0.439600  0.036610  1.0  0.3963
  C  C313  1  0.628200  0.439200  0.080280  1.0  0.3815
  C  C314  1  0.594800  0.304300  0.063140  1.0  0.345
  C  C315  1  0.546000  0.060200  0.050870  1.0  0.1425
  C  C316  1  0.560800  0.151700  0.044920  1.0  -0.1594
  C  C317  1  0.581200  0.204300  0.067780  1.0  -0.1241
  C  C318  1  0.588200  0.159100  0.094900  1.0  -0.1214
  C  C319  1  0.573100  0.067600  0.098850  1.0  0.1526
  C  C320  1  0.653300  0.493300  0.104740  1.0  -0.1004
  C  C321  1  0.653800  0.590000  0.104420  1.0  -0.1122
  C  C322  1  0.676900  0.638500  0.127300  1.0  0.1297
  C  C323  1  0.698400  0.500900  0.149500  1.0  0.138
  C  C324  1  0.674800  0.447200  0.128060  1.0  -0.1474
  C  C325  1  0.687100  0.602200  0.232790  1.0  0.1347
  C  C326  1  0.681000  0.564600  0.260970  1.0  -0.1425
  C  C327  1  0.720100  0.525200  0.275420  1.0  -0.1162
  C  C328  1  0.762400  0.522200  0.260950  1.0  -0.0817
  C  C329  1  0.766200  0.559300  0.232150  1.0  0.1152
  C  C330  1  0.715800  0.490300  0.307070  1.0  0.4024
  C  C331  1  0.674300  0.453500  0.347940  1.0  0.3933
  C  C332  1  0.754300  0.450900  0.349450  1.0  0.4227
  C  C333  1  0.628100  0.441500  0.363230  1.0  -0.0691
  C  C334  1  0.585500  0.451700  0.348590  1.0  -0.1292
  C  C335  1  0.543500  0.437800  0.364080  1.0  0.1503
  C  C336  1  0.583200  0.407200  0.407220  1.0  0.141
  C  C337  1  0.626300  0.418900  0.393720  1.0  -0.1405
  C  C338  1  0.799700  0.436000  0.365550  1.0  -0.1058
  C  C339  1  0.800600  0.405700  0.395000  1.0  -0.1474
  C  C340  1  0.844800  0.391200  0.408660  1.0  0.1387
  C  C341  1  0.884300  0.435900  0.366120  1.0  0.1372
  C  C342  1  0.843000  0.451700  0.351260  1.0  -0.1267
  C  C343  1  0.928100  0.370900  0.478410  1.0  0.139
  C  C344  1  0.917600  0.412800  0.505410  1.0  -0.164
  C  C345  1  0.925000  0.509800  0.508760  1.0  -0.0435
  C  C346  1  0.944800  0.559300  0.485320  1.0  -0.1041
  C  C347  1  0.954500  0.512400  0.458780  1.0  0.122
  C  C348  1  0.910400  0.560400  0.536610  1.0  0.398
  C  C349  1  0.871800  0.560800  0.580280  1.0  0.3821
  C  C350  1  0.905200  0.695700  0.563140  1.0  0.3452
  C  C351  1  0.954000  0.939800  0.550870  1.0  0.1433
  C  C352  1  0.939200  0.848300  0.544920  1.0  -0.1589
  C  C353  1  0.918800  0.795700  0.567780  1.0  -0.1238
  C  C354  1  0.911800  0.840900  0.594900  1.0  -0.1218
  C  C355  1  0.926900  0.932400  0.598850  1.0  0.1514
  C  C356  1  0.846700  0.506700  0.604740  1.0  -0.1011
  C  C357  1  0.846200  0.410000  0.604420  1.0  -0.112
  C  C358  1  0.823100  0.361500  0.627300  1.0  0.1277
  C  C359  1  0.801600  0.499100  0.649500  1.0  0.1379
  C  C360  1  0.825200  0.552800  0.628060  1.0  -0.1489
  C  C361  1  0.812900  0.102200  0.232790  1.0  0.1332
  C  C362  1  0.819000  0.064600  0.260970  1.0  -0.1414
  C  C363  1  0.779900  0.025200  0.275420  1.0  -0.1171
  C  C364  1  0.737600  0.022200  0.260950  1.0  -0.0833
  C  C365  1  0.733800  0.059300  0.232150  1.0  0.1154
  C  C366  1  0.784200  0.990300  0.307070  1.0  0.4025
  C  C367  1  0.825700  0.953500  0.347940  1.0  0.3934
  C  C368  1  0.745700  0.950900  0.349450  1.0  0.4236
  C  C369  1  0.871900  0.941500  0.363230  1.0  -0.0684
  C  C370  1  0.914500  0.951700  0.348590  1.0  -0.1294
  C  C371  1  0.956500  0.937800  0.364080  1.0  0.1489
  C  C372  1  0.916800  0.907200  0.407220  1.0  0.1412
  C  C373  1  0.873700  0.918900  0.393720  1.0  -0.1409
  C  C374  1  0.700300  0.936000  0.365550  1.0  -0.1053
  C  C375  1  0.699400  0.905700  0.395000  1.0  -0.147
  C  C376  1  0.655200  0.891200  0.408660  1.0  0.1383
  C  C377  1  0.615700  0.935900  0.366120  1.0  0.1387
  C  C378  1  0.657000  0.951700  0.351260  1.0  -0.1255
  C  C379  1  0.571900  0.870900  0.478410  1.0  0.1396
  C  C380  1  0.582400  0.912800  0.505410  1.0  -0.1653
  C  C381  1  0.575000  0.009800  0.508760  1.0  -0.0455
  C  C382  1  0.555200  0.059300  0.485320  1.0  -0.1038
  C  C383  1  0.545500  0.012400  0.458780  1.0  0.1218
  C  C384  1  0.589600  0.060400  0.536610  1.0  0.3963
  C  C385  1  0.628200  0.060800  0.580280  1.0  0.3814
  C  C386  1  0.594800  0.195700  0.563140  1.0  0.3449
  C  C387  1  0.546000  0.439800  0.550870  1.0  0.1429
  C  C388  1  0.560800  0.348300  0.544920  1.0  -0.1593
  C  C389  1  0.581200  0.295700  0.567780  1.0  -0.1228
  C  C390  1  0.588200  0.340900  0.594900  1.0  -0.121
  C  C391  1  0.573100  0.432400  0.598850  1.0  0.1516
  C  C392  1  0.653300  0.006700  0.604740  1.0  -0.1002
  C  C393  1  0.653800  0.910000  0.604420  1.0  -0.1125
  C  C394  1  0.676900  0.861500  0.627300  1.0  0.1279
  C  C395  1  0.698400  0.999100  0.649500  1.0  0.1373
  C  C396  1  0.674800  0.052800  0.628060  1.0  -0.1488
  C  C397  1  0.687100  0.897800  0.732790  1.0  0.1347
  C  C398  1  0.681000  0.935400  0.760970  1.0  -0.1423
  C  C399  1  0.720100  0.974800  0.775420  1.0  -0.1163
  C  C400  1  0.762400  0.977800  0.760950  1.0  -0.0814
  C  C401  1  0.766200  0.940700  0.732150  1.0  0.115
  C  C402  1  0.715800  0.009700  0.807070  1.0  0.4022
  C  C403  1  0.674300  0.046500  0.847940  1.0  0.3935
  C  C404  1  0.754300  0.049100  0.849450  1.0  0.4225
  C  C405  1  0.628100  0.058500  0.863230  1.0  -0.069
  C  C406  1  0.585500  0.048300  0.848590  1.0  -0.1286
  C  C407  1  0.543500  0.062200  0.864080  1.0  0.1501
  C  C408  1  0.583200  0.092800  0.907220  1.0  0.1404
  C  C409  1  0.626300  0.081100  0.893720  1.0  -0.1405
  C  C410  1  0.799700  0.064000  0.865550  1.0  -0.106
  C  C411  1  0.800600  0.094300  0.895000  1.0  -0.1479
  C  C412  1  0.844800  0.108800  0.908660  1.0  0.1382
  C  C413  1  0.884300  0.064100  0.866120  1.0  0.1373
  C  C414  1  0.843000  0.048300  0.851260  1.0  -0.1261
  C  C415  1  0.928100  0.129100  0.978410  1.0  0.1393
  C  C416  1  0.917600  0.087200  0.005410  1.0  -0.1641
  C  C417  1  0.925000  0.990200  0.008760  1.0  -0.0434
  C  C418  1  0.944800  0.940700  0.985320  1.0  -0.1054
  C  C419  1  0.954500  0.987600  0.958780  1.0  0.1218
  C  C420  1  0.910400  0.939600  0.036610  1.0  0.398
  C  C421  1  0.871800  0.939200  0.080280  1.0  0.3822
  C  C422  1  0.905200  0.804300  0.063140  1.0  0.3449
  C  C423  1  0.954000  0.560200  0.050870  1.0  0.1429
  C  C424  1  0.939200  0.651700  0.044920  1.0  -0.1589
  C  C425  1  0.918800  0.704300  0.067780  1.0  -0.1253
  C  C426  1  0.911800  0.659100  0.094900  1.0  -0.1223
  C  C427  1  0.926900  0.567600  0.098850  1.0  0.1527
  C  C428  1  0.846700  0.993300  0.104740  1.0  -0.1009
  C  C429  1  0.846200  0.090000  0.104420  1.0  -0.1119
  C  C430  1  0.823100  0.138500  0.127300  1.0  0.1293
  C  C431  1  0.801600  0.000900  0.149500  1.0  0.1384
  C  C432  1  0.825200  0.947200  0.128060  1.0  -0.1472
  C  C433  1  0.187100  0.602200  0.267210  1.0  0.1352
  C  C434  1  0.181000  0.564600  0.239030  1.0  -0.1419
  C  C435  1  0.220100  0.525200  0.224580  1.0  -0.1184
  C  C436  1  0.262400  0.522200  0.239050  1.0  -0.0822
  C  C437  1  0.266200  0.559300  0.267850  1.0  0.116
  C  C438  1  0.215800  0.490300  0.192930  1.0  0.4025
  C  C439  1  0.174300  0.453500  0.152060  1.0  0.3934
  C  C440  1  0.254300  0.450900  0.150550  1.0  0.4227
  C  C441  1  0.128100  0.441500  0.136770  1.0  -0.069
  C  C442  1  0.085500  0.451700  0.151410  1.0  -0.1319
  C  C443  1  0.043500  0.437800  0.135920  1.0  0.1509
  C  C444  1  0.083200  0.407200  0.092780  1.0  0.1423
  C  C445  1  0.126300  0.418900  0.106280  1.0  -0.1417
  C  C446  1  0.299700  0.436000  0.134450  1.0  -0.1059
  C  C447  1  0.300600  0.405700  0.105000  1.0  -0.1463
  C  C448  1  0.344800  0.391200  0.091340  1.0  0.1376
  C  C449  1  0.384300  0.435900  0.133880  1.0  0.1375
  C  C450  1  0.343000  0.451700  0.148740  1.0  -0.1273
  C  C451  1  0.428100  0.370900  0.021590  1.0  0.1388
  C  C452  1  0.417600  0.412800  0.994590  1.0  -0.1635
  C  C453  1  0.425000  0.509800  0.991240  1.0  -0.0439
  C  C454  1  0.444800  0.559300  0.014680  1.0  -0.1041
  C  C455  1  0.454500  0.512400  0.041220  1.0  0.1203
  C  C456  1  0.410400  0.560400  0.963390  1.0  0.398
  C  C457  1  0.371800  0.560800  0.919720  1.0  0.3817
  C  C458  1  0.405200  0.695700  0.936860  1.0  0.345
  C  C459  1  0.454000  0.939800  0.949130  1.0  0.1434
  C  C460  1  0.439200  0.848300  0.955080  1.0  -0.1606
  C  C461  1  0.418800  0.795700  0.932220  1.0  -0.1237
  C  C462  1  0.411800  0.840900  0.905100  1.0  -0.1213
  C  C463  1  0.426900  0.932400  0.901150  1.0  0.1524
  C  C464  1  0.346700  0.506700  0.895260  1.0  -0.101
  C  C465  1  0.346200  0.410000  0.895580  1.0  -0.1118
  C  C466  1  0.323100  0.361500  0.872700  1.0  0.1281
  C  C467  1  0.301600  0.499100  0.850500  1.0  0.137
  C  C468  1  0.325200  0.552800  0.871940  1.0  -0.1495
  C  C469  1  0.312900  0.397800  0.767210  1.0  0.1358
  C  C470  1  0.319000  0.435400  0.739030  1.0  -0.1416
  C  C471  1  0.279900  0.474800  0.724580  1.0  -0.1182
  C  C472  1  0.237600  0.477800  0.739050  1.0  -0.0828
  C  C473  1  0.233800  0.440700  0.767850  1.0  0.1158
  C  C474  1  0.284200  0.509700  0.692930  1.0  0.4024
  C  C475  1  0.325700  0.546500  0.652060  1.0  0.3935
  C  C476  1  0.245700  0.549100  0.650550  1.0  0.4236
  C  C477  1  0.371900  0.558500  0.636770  1.0  -0.0679
  C  C478  1  0.414500  0.548300  0.651410  1.0  -0.1315
  C  C479  1  0.456500  0.562200  0.635920  1.0  0.1496
  C  C480  1  0.416800  0.592800  0.592780  1.0  0.1427
  C  C481  1  0.373700  0.581100  0.606280  1.0  -0.1411
  C  C482  1  0.200300  0.564000  0.634450  1.0  -0.1056
  C  C483  1  0.199400  0.594300  0.605000  1.0  -0.1477
  C  C484  1  0.155200  0.608800  0.591340  1.0  0.1373
  C  C485  1  0.115700  0.564100  0.633880  1.0  0.1386
  C  C486  1  0.157000  0.548300  0.648740  1.0  -0.1262
  C  C487  1  0.071900  0.629100  0.521590  1.0  0.1382
  C  C488  1  0.082400  0.587200  0.494590  1.0  -0.164
  C  C489  1  0.075000  0.490200  0.491240  1.0  -0.0434
  C  C490  1  0.055200  0.440700  0.514680  1.0  -0.1042
  C  C491  1  0.045500  0.487600  0.541220  1.0  0.1212
  C  C492  1  0.089600  0.439600  0.463390  1.0  0.3965
  C  C493  1  0.128200  0.439200  0.419720  1.0  0.3813
  C  C494  1  0.094800  0.304300  0.436860  1.0  0.3447
  C  C495  1  0.046000  0.060200  0.449130  1.0  0.144
  C  C496  1  0.060800  0.151700  0.455080  1.0  -0.1604
  C  C497  1  0.081200  0.204300  0.432220  1.0  -0.1242
  C  C498  1  0.088200  0.159100  0.405100  1.0  -0.1216
  C  C499  1  0.073100  0.067600  0.401150  1.0  0.1509
  C  C500  1  0.153300  0.493300  0.395260  1.0  -0.0997
  C  C501  1  0.153800  0.590000  0.395580  1.0  -0.1126
  C  C502  1  0.176900  0.638500  0.372700  1.0  0.1296
  C  C503  1  0.198400  0.500900  0.350500  1.0  0.1364
  C  C504  1  0.174800  0.447200  0.371940  1.0  -0.148
  I  I505  1  0.198480  0.664100  0.815590  1.0  -0.35
  I  I506  1  0.325960  0.827820  0.834570  1.0  -0.2923
  I  I507  1  0.425670  0.306430  0.374820  1.0  -0.3317
  I  I508  1  0.495510  0.304480  0.463620  1.0  -0.4181
  I  I509  1  0.441960  0.319180  0.583430  1.0  -0.4044
  I  I510  1  0.514620  0.055360  0.616410  1.0  -0.3917
  I  I511  1  0.301520  0.335900  0.315590  1.0  -0.3489
  I  I512  1  0.174040  0.172180  0.334570  1.0  -0.2911
  I  I513  1  0.074330  0.693570  0.874820  1.0  -0.3314
  I  I514  1  0.004490  0.695520  0.963620  1.0  -0.419
  I  I515  1  0.058040  0.680820  0.083430  1.0  -0.4051
  I  I516  1  0.985380  0.944640  0.116410  1.0  -0.3923
  I  I517  1  0.801520  0.164100  0.684410  1.0  -0.3494
  I  I518  1  0.674040  0.327820  0.665430  1.0  -0.2912
  I  I519  1  0.574330  0.806430  0.125180  1.0  -0.3315
  I  I520  1  0.504490  0.804480  0.036380  1.0  -0.4194
  I  I521  1  0.558040  0.819180  0.916570  1.0  -0.405
  I  I522  1  0.485380  0.555360  0.883590  1.0  -0.3925
  I  I523  1  0.698480  0.835900  0.184410  1.0  -0.3496
  I  I524  1  0.825960  0.672180  0.165430  1.0  -0.2922
  I  I525  1  0.925670  0.193570  0.625180  1.0  -0.3317
  I  I526  1  0.995510  0.195520  0.536380  1.0  -0.4184
  I  I527  1  0.941960  0.180820  0.416570  1.0  -0.4046
  I  I528  1  0.014620  0.444640  0.383590  1.0  -0.3916
  I  I529  1  0.801520  0.335900  0.184410  1.0  -0.3491
  I  I530  1  0.674040  0.172180  0.165430  1.0  -0.2912
  I  I531  1  0.574330  0.693570  0.625180  1.0  -0.3313
  I  I532  1  0.504490  0.695520  0.536380  1.0  -0.4192
  I  I533  1  0.558040  0.680820  0.416570  1.0  -0.4051
  I  I534  1  0.485380  0.944640  0.383590  1.0  -0.3924
  I  I535  1  0.698480  0.664100  0.684410  1.0  -0.3503
  I  I536  1  0.825960  0.827820  0.665430  1.0  -0.2922
  I  I537  1  0.925670  0.306430  0.125180  1.0  -0.331
  I  I538  1  0.995510  0.304480  0.036380  1.0  -0.4184
  I  I539  1  0.941960  0.319180  0.916570  1.0  -0.4044
  I  I540  1  0.014620  0.055360  0.883590  1.0  -0.3915
  I  I541  1  0.198480  0.835900  0.315590  1.0  -0.3496
  I  I542  1  0.325960  0.672180  0.334570  1.0  -0.2923
  I  I543  1  0.425670  0.193570  0.874820  1.0  -0.3318
  I  I544  1  0.495510  0.195520  0.963620  1.0  -0.4182
  I  I545  1  0.441960  0.180820  0.083430  1.0  -0.4046
  I  I546  1  0.514620  0.444640  0.116410  1.0  -0.3917
  I  I547  1  0.301520  0.164100  0.815590  1.0  -0.349
  I  I548  1  0.174040  0.327820  0.834570  1.0  -0.2911
  I  I549  1  0.074330  0.806430  0.374820  1.0  -0.3321
  I  I550  1  0.004490  0.804480  0.463620  1.0  -0.4191
  I  I551  1  0.058040  0.819180  0.583430  1.0  -0.4051
  I  I552  1  0.985380  0.555360  0.616410  1.0  -0.3924
  N  N553  1  0.229100  0.899700  0.781600  1.0  -0.3455
  N  N554  1  0.385900  0.094900  0.605400  1.0  -0.3058
  N  N555  1  0.041400  0.084900  0.607110  1.0  -0.2984
  N  N556  1  0.257430  0.024300  0.679330  1.0  -0.5692
  N  N557  1  0.174000  0.019600  0.680890  1.0  -0.4423
  N  N558  1  0.213550  0.062400  0.636080  1.0  -0.4769
  N  N559  1  0.445810  0.080500  0.544580  1.0  -0.3014
  N  N560  1  0.449000  0.518000  0.422610  1.0  -0.3235
  N  N561  1  0.300400  0.093900  0.350820  1.0  -0.2985
  N  N562  1  0.421800  0.847200  0.461030  1.0  -0.4544
  N  N563  1  0.378300  0.846800  0.415420  1.0  -0.4761
  N  N564  1  0.386700  0.990400  0.442790  1.0  -0.3637
  N  N565  1  0.270900  0.100300  0.281600  1.0  -0.346
  N  N566  1  0.114100  0.905100  0.105400  1.0  -0.3074
  N  N567  1  0.458600  0.915100  0.107110  1.0  -0.2978
  N  N568  1  0.242570  0.975700  0.179330  1.0  -0.5697
  N  N569  1  0.326000  0.980400  0.180890  1.0  -0.4421
  N  N570  1  0.286450  0.937600  0.136080  1.0  -0.4782
  N  N571  1  0.054190  0.919500  0.044580  1.0  -0.2991
  N  N572  1  0.051000  0.482000  0.922610  1.0  -0.3242
  N  N573  1  0.199600  0.906100  0.850820  1.0  -0.2968
  N  N574  1  0.078200  0.152800  0.961030  1.0  -0.4553
  N  N575  1  0.121700  0.153200  0.915420  1.0  -0.4781
  N  N576  1  0.113300  0.009600  0.942790  1.0  -0.3632
  N  N577  1  0.770900  0.399700  0.718400  1.0  -0.3476
  N  N578  1  0.614100  0.594900  0.894600  1.0  -0.3076
  N  N579  1  0.958600  0.584900  0.892890  1.0  -0.299
  N  N580  1  0.742570  0.524300  0.820670  1.0  -0.5699
  N  N581  1  0.826000  0.519600  0.819110  1.0  -0.4438
  N  N582  1  0.786450  0.562400  0.863920  1.0  -0.478
  N  N583  1  0.554190  0.580500  0.955420  1.0  -0.3008
  N  N584  1  0.551000  0.018000  0.077390  1.0  -0.3238
  N  N585  1  0.699600  0.593900  0.149180  1.0  -0.2976
  N  N586  1  0.578200  0.347200  0.038970  1.0  -0.4544
  N  N587  1  0.621700  0.346800  0.084580  1.0  -0.477
  N  N588  1  0.613300  0.490400  0.057210  1.0  -0.3636
  N  N589  1  0.729100  0.600300  0.218400  1.0  -0.3465
  N  N590  1  0.885900  0.405100  0.394600  1.0  -0.3068
  N  N591  1  0.541400  0.415100  0.392890  1.0  -0.3002
  N  N592  1  0.757430  0.475700  0.320670  1.0  -0.5698
  N  N593  1  0.674000  0.480400  0.319110  1.0  -0.4433
  N  N594  1  0.713550  0.437600  0.363920  1.0  -0.4785
  N  N595  1  0.945810  0.419500  0.455420  1.0  -0.3025
  N  N596  1  0.949000  0.982000  0.577390  1.0  -0.3255
  N  N597  1  0.800400  0.406100  0.649180  1.0  -0.2994
  N  N598  1  0.921800  0.652800  0.538970  1.0  -0.4534
  N  N599  1  0.878300  0.653200  0.584580  1.0  -0.4787
  N  N600  1  0.886700  0.509600  0.557210  1.0  -0.3619
  N  N601  1  0.770900  0.100300  0.218400  1.0  -0.3465
  N  N602  1  0.614100  0.905100  0.394600  1.0  -0.3083
  N  N603  1  0.958600  0.915100  0.392890  1.0  -0.2979
  N  N604  1  0.742570  0.975700  0.320670  1.0  -0.5699
  N  N605  1  0.826000  0.980400  0.319110  1.0  -0.4438
  N  N606  1  0.786450  0.937600  0.363920  1.0  -0.4784
  N  N607  1  0.554190  0.919500  0.455420  1.0  -0.3022
  N  N608  1  0.551000  0.482000  0.577390  1.0  -0.3246
  N  N609  1  0.699600  0.906100  0.649180  1.0  -0.2968
  N  N610  1  0.578200  0.152800  0.538970  1.0  -0.4532
  N  N611  1  0.621700  0.153200  0.584580  1.0  -0.479
  N  N612  1  0.613300  0.009600  0.557210  1.0  -0.3628
  N  N613  1  0.729100  0.899700  0.718400  1.0  -0.3473
  N  N614  1  0.885900  0.094900  0.894600  1.0  -0.3065
  N  N615  1  0.541400  0.084900  0.892890  1.0  -0.2999
  N  N616  1  0.757430  0.024300  0.820670  1.0  -0.5699
  N  N617  1  0.674000  0.019600  0.819110  1.0  -0.4432
  N  N618  1  0.713550  0.062400  0.863920  1.0  -0.4781
  N  N619  1  0.945810  0.080500  0.955420  1.0  -0.3014
  N  N620  1  0.949000  0.518000  0.077390  1.0  -0.3235
  N  N621  1  0.800400  0.093900  0.149180  1.0  -0.2999
  N  N622  1  0.921800  0.847200  0.038970  1.0  -0.4542
  N  N623  1  0.878300  0.846800  0.084580  1.0  -0.4773
  N  N624  1  0.886700  0.990400  0.057210  1.0  -0.3635
  N  N625  1  0.229100  0.600300  0.281600  1.0  -0.3458
  N  N626  1  0.385900  0.405100  0.105400  1.0  -0.3062
  N  N627  1  0.041400  0.415100  0.107110  1.0  -0.2995
  N  N628  1  0.257430  0.475700  0.179330  1.0  -0.5692
  N  N629  1  0.174000  0.480400  0.180890  1.0  -0.4424
  N  N630  1  0.213550  0.437600  0.136080  1.0  -0.4784
  N  N631  1  0.445810  0.419500  0.044580  1.0  -0.3003
  N  N632  1  0.449000  0.982000  0.922610  1.0  -0.3249
  N  N633  1  0.300400  0.406100  0.850820  1.0  -0.299
  N  N634  1  0.421800  0.652800  0.961030  1.0  -0.455
  N  N635  1  0.378300  0.653200  0.915420  1.0  -0.4769
  N  N636  1  0.386700  0.509600  0.942790  1.0  -0.3618
  N  N637  1  0.270900  0.399700  0.781600  1.0  -0.3458
  N  N638  1  0.114100  0.594900  0.605400  1.0  -0.3066
  N  N639  1  0.458600  0.584900  0.607110  1.0  -0.2983
  N  N640  1  0.242570  0.524300  0.679330  1.0  -0.5695
  N  N641  1  0.326000  0.519600  0.680890  1.0  -0.4422
  N  N642  1  0.286450  0.562400  0.636080  1.0  -0.4769
  N  N643  1  0.054190  0.580500  0.544580  1.0  -0.2999
  N  N644  1  0.051000  0.018000  0.422610  1.0  -0.3238
  N  N645  1  0.199600  0.593900  0.350820  1.0  -0.297
  N  N646  1  0.078200  0.347200  0.461030  1.0  -0.4547
  N  N647  1  0.121700  0.346800  0.415420  1.0  -0.477
  N  N648  1  0.113300  0.490400  0.442790  1.0  -0.3642
