# generated using pymatgen
data_Er3H40(C4O)16
_symmetry_space_group_name_H-M   'P 1'
_cell_length_a   30.61960000
_cell_length_b   16.09040000
_cell_length_c   25.88220000
_cell_angle_alpha   90.00000000
_cell_angle_beta   90.00800000
_cell_angle_gamma   90.00000000
_symmetry_Int_Tables_number   1
_chemical_formula_structural   Er3H40(C4O)16
_chemical_formula_sum   'Er12 H160 C256 O64'
_cell_volume   12751.68388966
_cell_formula_units_Z   4
loop_
 _symmetry_equiv_pos_site_id
 _symmetry_equiv_pos_as_xyz
  1  'x, y, z'
loop_
 _atom_site_type_symbol
 _atom_site_label
 _atom_site_symmetry_multiplicity
 _atom_site_fract_x
 _atom_site_fract_y
 _atom_site_fract_z
 _atom_site_occupancy
 _atom_site_charge
  Er  Er1  1  0.499450  0.589230  0.062810  1.0  1.5622
  Er  Er2  1  0.499100  0.714970  0.250290  1.0  1.5666
  Er  Er3  1  0.499000  0.577580  0.437180  1.0  1.5327
  Er  Er4  1  0.999450  0.089230  0.062810  1.0  1.5622
  Er  Er5  1  0.999100  0.214970  0.250290  1.0  1.5626
  Er  Er6  1  0.999000  0.077580  0.437180  1.0  1.5327
  Er  Er7  1  0.499450  0.410770  0.562810  1.0  1.5617
  Er  Er8  1  0.499100  0.285030  0.750290  1.0  1.5658
  Er  Er9  1  0.499000  0.422420  0.937180  1.0  1.5318
  Er  Er10  1  0.999450  0.910770  0.562810  1.0  1.5617
  Er  Er11  1  0.999100  0.785030  0.750290  1.0  1.5612
  Er  Er12  1  0.999000  0.922420  0.937180  1.0  1.5318
  H  H13  1  0.369600  0.749700  0.208800  1.0  0.1001
  H  H14  1  0.295900  0.771800  0.188000  1.0  0.1149
  H  H15  1  0.315300  0.676700  0.049600  1.0  0.1008
  H  H16  1  0.389300  0.652700  0.068400  1.0  0.113
  H  H17  1  0.237600  0.700300  0.085900  1.0  0.0971
  H  H18  1  0.612800  0.787700  0.197700  1.0  0.1141
  H  H19  1  0.686700  0.830000  0.188500  1.0  0.1302
  H  H20  1  0.703100  0.658000  0.079300  1.0  0.1146
  H  H21  1  0.629500  0.613900  0.088300  1.0  0.1196
  H  H22  1  0.747700  0.822900  0.153000  1.0  0.1266
  H  H23  1  0.111700  0.965900  0.122800  1.0  0.1045
  H  H24  1  0.180100  0.916400  0.149800  1.0  0.1258
  H  H25  1  0.177700  0.751700  0.036800  1.0  0.1053
  H  H26  1  0.109200  0.799300  0.008800  1.0  0.1272
  H  H27  1  0.240700  0.837100  0.140700  1.0  0.1156
  H  H28  1  0.606800  0.683700  0.006000  1.0  0.1153
  H  H29  1  0.673200  0.751400  0.988700  1.0  0.1067
  H  H30  1  0.685000  0.629600  0.856900  1.0  0.1207
  H  H31  1  0.618500  0.560700  0.872700  1.0  0.1081
  H  H32  1  0.730400  0.794300  0.931100  1.0  0.0886
  H  H33  1  0.625100  0.757800  0.294500  1.0  0.1069
  H  H34  1  0.696100  0.803000  0.315100  1.0  0.1249
  H  H35  1  0.693600  0.661400  0.440300  1.0  0.1056
  H  H36  1  0.622700  0.614700  0.420400  1.0  0.1201
  H  H37  1  0.750400  0.759300  0.431100  1.0  0.1196
  H  H38  1  0.878600  0.745400  0.792900  1.0  0.0993
  H  H39  1  0.806700  0.699500  0.807200  1.0  0.1262
  H  H40  1  0.809500  0.802800  0.945800  1.0  0.0994
  H  H41  1  0.881300  0.850300  0.932800  1.0  0.1272
  H  H42  1  0.748800  0.670300  0.869100  1.0  0.1329
  H  H43  1  0.898700  0.945600  0.372700  1.0  0.126
  H  H44  1  0.831800  0.896100  0.338100  1.0  0.1145
  H  H45  1  0.818100  0.740400  0.455900  1.0  0.1194
  H  H46  1  0.884800  0.787700  0.492300  1.0  0.1193
  H  H47  1  0.776200  0.785700  0.335100  1.0  0.0864
  H  H48  1  0.892900  0.807600  0.002500  1.0  0.1078
  H  H49  1  0.828000  0.745200  0.032600  1.0  0.1086
  H  H50  1  0.825400  0.893100  0.154500  1.0  0.1135
  H  H51  1  0.890400  0.957400  0.126300  1.0  0.1145
  H  H52  1  0.783100  0.713700  0.102200  1.0  0.1202
  H  H53  1  0.869600  0.249700  0.208800  1.0  0.1001
  H  H54  1  0.795900  0.271800  0.188000  1.0  0.1149
  H  H55  1  0.815300  0.176700  0.049600  1.0  0.1008
  H  H56  1  0.889300  0.152700  0.068400  1.0  0.113
  H  H57  1  0.737600  0.200300  0.085900  1.0  0.0971
  H  H58  1  0.112800  0.287700  0.197700  1.0  0.1143
  H  H59  1  0.186700  0.330000  0.188500  1.0  0.1302
  H  H60  1  0.203100  0.158000  0.079300  1.0  0.1146
  H  H61  1  0.129500  0.113900  0.088300  1.0  0.1196
  H  H62  1  0.247700  0.322900  0.153000  1.0  0.1266
  H  H63  1  0.611700  0.465900  0.122800  1.0  0.1045
  H  H64  1  0.680100  0.416400  0.149800  1.0  0.1258
  H  H65  1  0.677700  0.251700  0.036800  1.0  0.1053
  H  H66  1  0.609200  0.299300  0.008800  1.0  0.1281
  H  H67  1  0.740700  0.337100  0.140700  1.0  0.1156
  H  H68  1  0.106800  0.183700  0.006000  1.0  0.117
  H  H69  1  0.173200  0.251400  0.988700  1.0  0.1067
  H  H70  1  0.185000  0.129600  0.856900  1.0  0.1207
  H  H71  1  0.118500  0.060700  0.872700  1.0  0.1081
  H  H72  1  0.230400  0.294300  0.931100  1.0  0.0886
  H  H73  1  0.125100  0.257800  0.294500  1.0  0.106
  H  H74  1  0.196100  0.303000  0.315100  1.0  0.1249
  H  H75  1  0.193600  0.161400  0.440300  1.0  0.1056
  H  H76  1  0.122700  0.114700  0.420400  1.0  0.1201
  H  H77  1  0.250400  0.259300  0.431100  1.0  0.1196
  H  H78  1  0.378600  0.245400  0.792900  1.0  0.0981
  H  H79  1  0.306700  0.199500  0.807200  1.0  0.1262
  H  H80  1  0.309500  0.302800  0.945800  1.0  0.0994
  H  H81  1  0.381300  0.350300  0.932800  1.0  0.1272
  H  H82  1  0.248800  0.170300  0.869100  1.0  0.1329
  H  H83  1  0.398700  0.445600  0.372700  1.0  0.127
  H  H84  1  0.331800  0.396100  0.338100  1.0  0.1145
  H  H85  1  0.318100  0.240400  0.455900  1.0  0.1194
  H  H86  1  0.384800  0.287700  0.492300  1.0  0.1189
  H  H87  1  0.276200  0.285700  0.335100  1.0  0.0864
  H  H88  1  0.392900  0.307600  0.002500  1.0  0.1079
  H  H89  1  0.328000  0.245200  0.032600  1.0  0.1086
  H  H90  1  0.325400  0.393100  0.154500  1.0  0.1135
  H  H91  1  0.390400  0.457400  0.126300  1.0  0.1145
  H  H92  1  0.283100  0.213700  0.102200  1.0  0.1202
  H  H93  1  0.369600  0.250300  0.708800  1.0  0.1002
  H  H94  1  0.295900  0.228200  0.688000  1.0  0.1151
  H  H95  1  0.315300  0.323300  0.549600  1.0  0.101
  H  H96  1  0.389300  0.347300  0.568400  1.0  0.1128
  H  H97  1  0.237600  0.299700  0.585900  1.0  0.0979
  H  H98  1  0.612800  0.212300  0.697700  1.0  0.1134
  H  H99  1  0.686700  0.170000  0.688500  1.0  0.1308
  H  H100  1  0.703100  0.342000  0.579300  1.0  0.1148
  H  H101  1  0.629500  0.386100  0.588300  1.0  0.1194
  H  H102  1  0.747700  0.177100  0.653000  1.0  0.1261
  H  H103  1  0.111700  0.034100  0.622800  1.0  0.1046
  H  H104  1  0.180100  0.083600  0.649800  1.0  0.1256
  H  H105  1  0.177700  0.248300  0.536800  1.0  0.1051
  H  H106  1  0.109200  0.200700  0.508800  1.0  0.1272
  H  H107  1  0.240700  0.162900  0.640700  1.0  0.1155
  H  H108  1  0.606800  0.316300  0.506000  1.0  0.1157
  H  H109  1  0.673200  0.248600  0.488700  1.0  0.1069
  H  H110  1  0.685000  0.370400  0.356900  1.0  0.1207
  H  H111  1  0.618500  0.439300  0.372700  1.0  0.1082
  H  H112  1  0.730400  0.205700  0.431100  1.0  0.088
  H  H113  1  0.625100  0.242200  0.794500  1.0  0.1064
  H  H114  1  0.696100  0.197000  0.815100  1.0  0.1244
  H  H115  1  0.693600  0.338600  0.940300  1.0  0.1062
  H  H116  1  0.622700  0.385300  0.920400  1.0  0.1198
  H  H117  1  0.750400  0.240700  0.931100  1.0  0.1196
  H  H118  1  0.878600  0.254600  0.292900  1.0  0.0996
  H  H119  1  0.806700  0.300500  0.307200  1.0  0.1263
  H  H120  1  0.809500  0.197200  0.445800  1.0  0.0995
  H  H121  1  0.881300  0.149700  0.432800  1.0  0.1274
  H  H122  1  0.748800  0.329700  0.369100  1.0  0.1322
  H  H123  1  0.898700  0.054400  0.872700  1.0  0.126
  H  H124  1  0.831800  0.103900  0.838100  1.0  0.1149
  H  H125  1  0.818100  0.259600  0.955900  1.0  0.1197
  H  H126  1  0.884800  0.212300  0.992300  1.0  0.1188
  H  H127  1  0.776200  0.214300  0.835100  1.0  0.0864
  H  H128  1  0.892900  0.192400  0.502500  1.0  0.1076
  H  H129  1  0.828000  0.254800  0.532600  1.0  0.109
  H  H130  1  0.825400  0.106900  0.654500  1.0  0.1136
  H  H131  1  0.890400  0.042600  0.626300  1.0  0.1151
  H  H132  1  0.783100  0.286300  0.602200  1.0  0.1194
  H  H133  1  0.869600  0.750300  0.708800  1.0  0.1002
  H  H134  1  0.795900  0.728200  0.688000  1.0  0.1151
  H  H135  1  0.815300  0.823300  0.549600  1.0  0.101
  H  H136  1  0.889300  0.847300  0.568400  1.0  0.1128
  H  H137  1  0.737600  0.799700  0.585900  1.0  0.0979
  H  H138  1  0.112800  0.712300  0.697700  1.0  0.1138
  H  H139  1  0.186700  0.670000  0.688500  1.0  0.1308
  H  H140  1  0.203100  0.842000  0.579300  1.0  0.1148
  H  H141  1  0.129500  0.886100  0.588300  1.0  0.1194
  H  H142  1  0.247700  0.677100  0.653000  1.0  0.1261
  H  H143  1  0.611700  0.534100  0.622800  1.0  0.1046
  H  H144  1  0.680100  0.583600  0.649800  1.0  0.1256
  H  H145  1  0.677700  0.748300  0.536800  1.0  0.1051
  H  H146  1  0.609200  0.700700  0.508800  1.0  0.128
  H  H147  1  0.740700  0.662900  0.640700  1.0  0.1155
  H  H148  1  0.106800  0.816300  0.506000  1.0  0.1168
  H  H149  1  0.173200  0.748600  0.488700  1.0  0.1069
  H  H150  1  0.185000  0.870400  0.356900  1.0  0.1207
  H  H151  1  0.118500  0.939300  0.372700  1.0  0.1082
  H  H152  1  0.230400  0.705700  0.431100  1.0  0.088
  H  H153  1  0.125100  0.742200  0.794500  1.0  0.1058
  H  H154  1  0.196100  0.697000  0.815100  1.0  0.1244
  H  H155  1  0.193600  0.838600  0.940300  1.0  0.1062
  H  H156  1  0.122700  0.885300  0.920400  1.0  0.1198
  H  H157  1  0.250400  0.740700  0.931100  1.0  0.1196
  H  H158  1  0.378600  0.754600  0.292900  1.0  0.0986
  H  H159  1  0.306700  0.800500  0.307200  1.0  0.1263
  H  H160  1  0.309500  0.697200  0.445800  1.0  0.0995
  H  H161  1  0.381300  0.649700  0.432800  1.0  0.1274
  H  H162  1  0.248800  0.829700  0.369100  1.0  0.1322
  H  H163  1  0.398700  0.554400  0.872700  1.0  0.127
  H  H164  1  0.331800  0.603900  0.838100  1.0  0.1149
  H  H165  1  0.318100  0.759600  0.955900  1.0  0.1197
  H  H166  1  0.384800  0.712300  0.992300  1.0  0.119
  H  H167  1  0.276200  0.714300  0.835100  1.0  0.0864
  H  H168  1  0.392900  0.692400  0.502500  1.0  0.1076
  H  H169  1  0.328000  0.754800  0.532600  1.0  0.109
  H  H170  1  0.325400  0.606900  0.654500  1.0  0.1136
  H  H171  1  0.390400  0.542600  0.626300  1.0  0.1151
  H  H172  1  0.283100  0.786300  0.602200  1.0  0.1194
  C  C173  1  0.434600  0.683400  0.153600  1.0  0.7503
  C  C174  1  0.386700  0.698800  0.140900  1.0  -0.1104
  C  C175  1  0.359100  0.734400  0.176500  1.0  -0.0412
  C  C176  1  0.314400  0.747900  0.163700  1.0  -0.1224
  C  C177  1  0.298300  0.726600  0.116600  1.0  0.018
  C  C178  1  0.326100  0.691600  0.081900  1.0  -0.0547
  C  C179  1  0.371000  0.676700  0.093000  1.0  -0.1404
  C  C180  1  0.251600  0.742000  0.104500  1.0  -0.1343
  C  C181  1  0.567500  0.671900  0.151200  1.0  0.714
  C  C182  1  0.615000  0.697300  0.144100  1.0  -0.1082
  C  C183  1  0.630900  0.761400  0.174000  1.0  -0.0214
  C  C184  1  0.675200  0.787200  0.168600  1.0  -0.1625
  C  C185  1  0.700100  0.746600  0.133100  1.0  0.0974
  C  C186  1  0.684800  0.683600  0.103200  1.0  -0.1078
  C  C187  1  0.640600  0.657000  0.108400  1.0  -0.0998
  C  C188  1  0.745600  0.778100  0.130400  1.0  -0.0981
  C  C189  1  0.059000  0.922900  0.047800  1.0  0.7687
  C  C190  1  0.103300  0.888000  0.063400  1.0  -0.1653
  C  C191  1  0.124700  0.922200  0.105000  1.0  -0.0251
  C  C192  1  0.166300  0.892500  0.121500  1.0  -0.1133
  C  C193  1  0.185600  0.828900  0.095600  1.0  -0.0278
  C  C194  1  0.164400  0.795300  0.054500  1.0  -0.1162
  C  C195  1  0.122800  0.823700  0.037100  1.0  -0.0993
  C  C196  1  0.228900  0.802000  0.115600  1.0  -0.0592
  C  C197  1  0.563100  0.571500  0.953200  1.0  0.7122
  C  C198  1  0.606000  0.615000  0.941100  1.0  -0.1206
  C  C199  1  0.622100  0.672000  0.975800  1.0  -0.0405
  C  C200  1  0.662400  0.713000  0.965100  1.0  -0.0859
  C  C201  1  0.685400  0.697200  0.921200  1.0  0.1355
  C  C202  1  0.669400  0.640900  0.887000  1.0  -0.1159
  C  C203  1  0.629100  0.598900  0.896500  1.0  -0.0372
  C  C204  1  0.726900  0.743700  0.914300  1.0  -0.1277
  C  C205  1  0.571100  0.649200  0.344800  1.0  0.7517
  C  C206  1  0.616800  0.682100  0.355100  1.0  -0.1443
  C  C207  1  0.638700  0.737700  0.324100  1.0  -0.0489
  C  C208  1  0.681700  0.765400  0.336400  1.0  -0.1136
  C  C209  1  0.701200  0.735800  0.379800  1.0  0.031
  C  C210  1  0.679800  0.680900  0.410600  1.0  -0.0747
  C  C211  1  0.636800  0.652400  0.398900  1.0  -0.0764
  C  C212  1  0.745800  0.761600  0.395600  1.0  -0.1087
  C  C213  1  0.933400  0.829900  0.848700  1.0  0.7496
  C  C214  1  0.887000  0.802300  0.861000  1.0  -0.1264
  C  C215  1  0.864900  0.757600  0.824000  1.0  -0.037
  C  C216  1  0.821300  0.729500  0.832500  1.0  -0.079
  C  C217  1  0.801400  0.747100  0.878100  1.0  -0.0026
  C  C218  1  0.823400  0.791200  0.914600  1.0  -0.1268
  C  C219  1  0.867000  0.820300  0.907300  1.0  -0.1972
  C  C220  1  0.756100  0.717900  0.887500  1.0  -0.0989
  C  C221  1  0.939600  0.902200  0.457800  1.0  0.7481
  C  C222  1  0.896800  0.870600  0.435400  1.0  -0.1112
  C  C223  1  0.882700  0.904600  0.389500  1.0  -0.0704
  C  C224  1  0.842500  0.874500  0.368900  1.0  -0.0694
  C  C225  1  0.819800  0.814500  0.394300  1.0  0.13
  C  C226  1  0.834300  0.781400  0.439400  1.0  -0.0659
  C  C227  1  0.874400  0.809700  0.461400  1.0  -0.0911
  C  C228  1  0.778200  0.785700  0.371000  1.0  -0.1318
  C  C229  1  0.939300  0.930400  0.043600  1.0  0.7512
  C  C230  1  0.897400  0.888600  0.062000  1.0  -0.1272
  C  C231  1  0.879800  0.825400  0.033000  1.0  -0.1427
  C  C232  1  0.840600  0.788100  0.051600  1.0  -0.1014
  C  C233  1  0.820800  0.813100  0.095900  1.0  0.0961
  C  C234  1  0.838700  0.875600  0.124100  1.0  -0.0874
  C  C235  1  0.878000  0.914700  0.107100  1.0  -0.0504
  C  C236  1  0.780100  0.769400  0.111200  1.0  -0.1436
  C  C237  1  0.934600  0.183400  0.153600  1.0  0.7503
  C  C238  1  0.886700  0.198800  0.140900  1.0  -0.1104
  C  C239  1  0.859100  0.234400  0.176500  1.0  -0.0412
  C  C240  1  0.814400  0.247900  0.163700  1.0  -0.1224
  C  C241  1  0.798300  0.226600  0.116600  1.0  0.018
  C  C242  1  0.826100  0.191600  0.081900  1.0  -0.0547
  C  C243  1  0.871000  0.176700  0.093000  1.0  -0.1404
  C  C244  1  0.751600  0.242000  0.104500  1.0  -0.1343
  C  C245  1  0.067500  0.171900  0.151200  1.0  0.714
  C  C246  1  0.115000  0.197300  0.144100  1.0  -0.1082
  C  C247  1  0.130900  0.261400  0.174000  1.0  -0.0214
  C  C248  1  0.175200  0.287200  0.168600  1.0  -0.1625
  C  C249  1  0.200100  0.246600  0.133100  1.0  0.0974
  C  C250  1  0.184800  0.183600  0.103200  1.0  -0.1078
  C  C251  1  0.140600  0.157000  0.108400  1.0  -0.0998
  C  C252  1  0.245600  0.278100  0.130400  1.0  -0.0981
  C  C253  1  0.559000  0.422900  0.047800  1.0  0.7687
  C  C254  1  0.603300  0.388000  0.063400  1.0  -0.1653
  C  C255  1  0.624700  0.422200  0.105000  1.0  -0.0251
  C  C256  1  0.666300  0.392500  0.121500  1.0  -0.1133
  C  C257  1  0.685600  0.328900  0.095600  1.0  -0.0278
  C  C258  1  0.664400  0.295300  0.054500  1.0  -0.1162
  C  C259  1  0.622800  0.323700  0.037100  1.0  -0.0993
  C  C260  1  0.728900  0.302000  0.115600  1.0  -0.0592
  C  C261  1  0.063100  0.071500  0.953200  1.0  0.7122
  C  C262  1  0.106000  0.115000  0.941100  1.0  -0.1242
  C  C263  1  0.122100  0.172000  0.975800  1.0  -0.0385
  C  C264  1  0.162400  0.213000  0.965100  1.0  -0.0859
  C  C265  1  0.185400  0.197200  0.921200  1.0  0.1355
  C  C266  1  0.169400  0.140900  0.887000  1.0  -0.1159
  C  C267  1  0.129100  0.098900  0.896500  1.0  -0.0399
  C  C268  1  0.226900  0.243700  0.914300  1.0  -0.1277
  C  C269  1  0.071100  0.149200  0.344800  1.0  0.7517
  C  C270  1  0.116800  0.182100  0.355100  1.0  -0.1443
  C  C271  1  0.138700  0.237700  0.324100  1.0  -0.0489
  C  C272  1  0.181700  0.265400  0.336400  1.0  -0.1136
  C  C273  1  0.201200  0.235800  0.379800  1.0  0.031
  C  C274  1  0.179800  0.180900  0.410600  1.0  -0.0747
  C  C275  1  0.136800  0.152400  0.398900  1.0  -0.0764
  C  C276  1  0.245800  0.261600  0.395600  1.0  -0.1087
  C  C277  1  0.433400  0.329900  0.848700  1.0  0.7536
  C  C278  1  0.387000  0.302300  0.861000  1.0  -0.1264
  C  C279  1  0.364900  0.257600  0.824000  1.0  -0.037
  C  C280  1  0.321300  0.229500  0.832500  1.0  -0.079
  C  C281  1  0.301400  0.247100  0.878100  1.0  -0.0026
  C  C282  1  0.323400  0.291200  0.914600  1.0  -0.1268
  C  C283  1  0.367000  0.320300  0.907300  1.0  -0.1972
  C  C284  1  0.256100  0.217900  0.887500  1.0  -0.0989
  C  C285  1  0.439600  0.402200  0.457800  1.0  0.7481
  C  C286  1  0.396800  0.370600  0.435400  1.0  -0.1113
  C  C287  1  0.382700  0.404600  0.389500  1.0  -0.0694
  C  C288  1  0.342500  0.374500  0.368900  1.0  -0.0701
  C  C289  1  0.319800  0.314500  0.394300  1.0  0.13
  C  C290  1  0.334300  0.281400  0.439400  1.0  -0.0659
  C  C291  1  0.374400  0.309700  0.461400  1.0  -0.0905
  C  C292  1  0.278200  0.285700  0.371000  1.0  -0.1318
  C  C293  1  0.439300  0.430400  0.043600  1.0  0.7512
  C  C294  1  0.397400  0.388600  0.062000  1.0  -0.1305
  C  C295  1  0.379800  0.325400  0.033000  1.0  -0.1494
  C  C296  1  0.340600  0.288100  0.051600  1.0  -0.1027
  C  C297  1  0.320800  0.313100  0.095900  1.0  0.0961
  C  C298  1  0.338700  0.375600  0.124100  1.0  -0.0909
  C  C299  1  0.378000  0.414700  0.107100  1.0  -0.0536
  C  C300  1  0.280100  0.269400  0.111200  1.0  -0.1436
  C  C301  1  0.434600  0.316600  0.653600  1.0  0.7504
  C  C302  1  0.386700  0.301200  0.640900  1.0  -0.1107
  C  C303  1  0.359100  0.265600  0.676500  1.0  -0.0408
  C  C304  1  0.314400  0.252100  0.663700  1.0  -0.1216
  C  C305  1  0.298300  0.273400  0.616600  1.0  0.0178
  C  C306  1  0.326100  0.308400  0.581900  1.0  -0.0547
  C  C307  1  0.371000  0.323300  0.593000  1.0  -0.1382
  C  C308  1  0.251600  0.258000  0.604500  1.0  -0.135
  C  C309  1  0.567500  0.328100  0.651200  1.0  0.7147
  C  C310  1  0.615000  0.302700  0.644100  1.0  -0.1084
  C  C311  1  0.630900  0.238600  0.674000  1.0  -0.0205
  C  C312  1  0.675200  0.212800  0.668600  1.0  -0.1641
  C  C313  1  0.700100  0.253400  0.633100  1.0  0.0968
  C  C314  1  0.684800  0.316400  0.603200  1.0  -0.1093
  C  C315  1  0.640600  0.343000  0.608400  1.0  -0.0994
  C  C316  1  0.745600  0.221900  0.630400  1.0  -0.098
  C  C317  1  0.059000  0.077100  0.547800  1.0  0.7684
  C  C318  1  0.103300  0.112000  0.563400  1.0  -0.1651
  C  C319  1  0.124700  0.077800  0.605000  1.0  -0.0234
  C  C320  1  0.166300  0.107500  0.621500  1.0  -0.1126
  C  C321  1  0.185600  0.171100  0.595600  1.0  -0.0273
  C  C322  1  0.164400  0.204700  0.554500  1.0  -0.115
  C  C323  1  0.122800  0.176300  0.537100  1.0  -0.0998
  C  C324  1  0.228900  0.198000  0.615600  1.0  -0.0591
  C  C325  1  0.563100  0.428500  0.453200  1.0  0.7123
  C  C326  1  0.606000  0.385000  0.441100  1.0  -0.1205
  C  C327  1  0.622100  0.328000  0.475800  1.0  -0.0397
  C  C328  1  0.662400  0.287000  0.465100  1.0  -0.0855
  C  C329  1  0.685400  0.302800  0.421200  1.0  0.1353
  C  C330  1  0.669400  0.359100  0.387000  1.0  -0.1161
  C  C331  1  0.629100  0.401100  0.396500  1.0  -0.0367
  C  C332  1  0.726900  0.256300  0.414300  1.0  -0.1259
  C  C333  1  0.571100  0.350800  0.844800  1.0  0.752
  C  C334  1  0.616800  0.317900  0.855100  1.0  -0.1446
  C  C335  1  0.638700  0.262300  0.824100  1.0  -0.0496
  C  C336  1  0.681700  0.234600  0.836400  1.0  -0.1135
  C  C337  1  0.701200  0.264200  0.879800  1.0  0.0311
  C  C338  1  0.679800  0.319100  0.910600  1.0  -0.0754
  C  C339  1  0.636800  0.347600  0.898900  1.0  -0.0763
  C  C340  1  0.745800  0.238400  0.895600  1.0  -0.1086
  C  C341  1  0.933400  0.170100  0.348700  1.0  0.7491
  C  C342  1  0.887000  0.197700  0.361000  1.0  -0.1268
  C  C343  1  0.864900  0.242400  0.324000  1.0  -0.0369
  C  C344  1  0.821300  0.270500  0.332500  1.0  -0.0799
  C  C345  1  0.801400  0.252900  0.378100  1.0  -0.002
  C  C346  1  0.823400  0.208800  0.414600  1.0  -0.1269
  C  C347  1  0.867000  0.179700  0.407300  1.0  -0.1963
  C  C348  1  0.756100  0.282100  0.387500  1.0  -0.0991
  C  C349  1  0.939600  0.097800  0.957800  1.0  0.7486
  C  C350  1  0.896800  0.129400  0.935400  1.0  -0.1119
  C  C351  1  0.882700  0.095400  0.889500  1.0  -0.0701
  C  C352  1  0.842500  0.125500  0.868900  1.0  -0.0683
  C  C353  1  0.819800  0.185500  0.894300  1.0  0.1302
  C  C354  1  0.834300  0.218600  0.939400  1.0  -0.0652
  C  C355  1  0.874400  0.190300  0.961400  1.0  -0.0908
  C  C356  1  0.778200  0.214300  0.871000  1.0  -0.1315
  C  C357  1  0.939300  0.069600  0.543600  1.0  0.7508
  C  C358  1  0.897400  0.111400  0.562000  1.0  -0.1272
  C  C359  1  0.879800  0.174600  0.533000  1.0  -0.143
  C  C360  1  0.840600  0.211900  0.551600  1.0  -0.1001
  C  C361  1  0.820800  0.186900  0.595900  1.0  0.0966
  C  C362  1  0.838700  0.124400  0.624100  1.0  -0.087
  C  C363  1  0.878000  0.085300  0.607100  1.0  -0.0497
  C  C364  1  0.780100  0.230600  0.611200  1.0  -0.145
  C  C365  1  0.934600  0.816600  0.653600  1.0  0.7504
  C  C366  1  0.886700  0.801200  0.640900  1.0  -0.1107
  C  C367  1  0.859100  0.765600  0.676500  1.0  -0.0408
  C  C368  1  0.814400  0.752100  0.663700  1.0  -0.1216
  C  C369  1  0.798300  0.773400  0.616600  1.0  0.0178
  C  C370  1  0.826100  0.808400  0.581900  1.0  -0.0547
  C  C371  1  0.871000  0.823300  0.593000  1.0  -0.1382
  C  C372  1  0.751600  0.758000  0.604500  1.0  -0.135
  C  C373  1  0.067500  0.828100  0.651200  1.0  0.7147
  C  C374  1  0.115000  0.802700  0.644100  1.0  -0.1084
  C  C375  1  0.130900  0.738600  0.674000  1.0  -0.0205
  C  C376  1  0.175200  0.712800  0.668600  1.0  -0.1641
  C  C377  1  0.200100  0.753400  0.633100  1.0  0.0968
  C  C378  1  0.184800  0.816400  0.603200  1.0  -0.1093
  C  C379  1  0.140600  0.843000  0.608400  1.0  -0.0994
  C  C380  1  0.245600  0.721900  0.630400  1.0  -0.098
  C  C381  1  0.559000  0.577100  0.547800  1.0  0.7684
  C  C382  1  0.603300  0.612000  0.563400  1.0  -0.1651
  C  C383  1  0.624700  0.577800  0.605000  1.0  -0.0234
  C  C384  1  0.666300  0.607500  0.621500  1.0  -0.1126
  C  C385  1  0.685600  0.671100  0.595600  1.0  -0.0273
  C  C386  1  0.664400  0.704700  0.554500  1.0  -0.115
  C  C387  1  0.622800  0.676300  0.537100  1.0  -0.0998
  C  C388  1  0.728900  0.698000  0.615600  1.0  -0.0591
  C  C389  1  0.063100  0.928500  0.453200  1.0  0.7123
  C  C390  1  0.106000  0.885000  0.441100  1.0  -0.1241
  C  C391  1  0.122100  0.828000  0.475800  1.0  -0.0376
  C  C392  1  0.162400  0.787000  0.465100  1.0  -0.0855
  C  C393  1  0.185400  0.802800  0.421200  1.0  0.1353
  C  C394  1  0.169400  0.859100  0.387000  1.0  -0.1161
  C  C395  1  0.129100  0.901100  0.396500  1.0  -0.0395
  C  C396  1  0.226900  0.756300  0.414300  1.0  -0.1259
  C  C397  1  0.071100  0.850800  0.844800  1.0  0.752
  C  C398  1  0.116800  0.817900  0.855100  1.0  -0.1446
  C  C399  1  0.138700  0.762300  0.824100  1.0  -0.0496
  C  C400  1  0.181700  0.734600  0.836400  1.0  -0.1135
  C  C401  1  0.201200  0.764200  0.879800  1.0  0.0311
  C  C402  1  0.179800  0.819100  0.910600  1.0  -0.0754
  C  C403  1  0.136800  0.847600  0.898900  1.0  -0.0763
  C  C404  1  0.245800  0.738400  0.895600  1.0  -0.1086
  C  C405  1  0.433400  0.670100  0.348700  1.0  0.7491
  C  C406  1  0.387000  0.697700  0.361000  1.0  -0.1268
  C  C407  1  0.364900  0.742400  0.324000  1.0  -0.0369
  C  C408  1  0.321300  0.770500  0.332500  1.0  -0.0799
  C  C409  1  0.301400  0.752900  0.378100  1.0  -0.002
  C  C410  1  0.323400  0.708800  0.414600  1.0  -0.1269
  C  C411  1  0.367000  0.679700  0.407300  1.0  -0.1963
  C  C412  1  0.256100  0.782100  0.387500  1.0  -0.0991
  C  C413  1  0.439600  0.597800  0.957800  1.0  0.7486
  C  C414  1  0.396800  0.629400  0.935400  1.0  -0.1118
  C  C415  1  0.382700  0.595400  0.889500  1.0  -0.0693
  C  C416  1  0.342500  0.625500  0.868900  1.0  -0.0693
  C  C417  1  0.319800  0.685500  0.894300  1.0  0.1302
  C  C418  1  0.334300  0.718600  0.939400  1.0  -0.0652
  C  C419  1  0.374400  0.690300  0.961400  1.0  -0.0904
  C  C420  1  0.278200  0.714300  0.871000  1.0  -0.1315
  C  C421  1  0.439300  0.569600  0.543600  1.0  0.7508
  C  C422  1  0.397400  0.611400  0.562000  1.0  -0.1302
  C  C423  1  0.379800  0.674600  0.533000  1.0  -0.1492
  C  C424  1  0.340600  0.711900  0.551600  1.0  -0.1015
  C  C425  1  0.320800  0.686900  0.595900  1.0  0.0966
  C  C426  1  0.338700  0.624400  0.624100  1.0  -0.0905
  C  C427  1  0.378000  0.585300  0.607100  1.0  -0.0525
  C  C428  1  0.280100  0.730600  0.611200  1.0  -0.145
  O  O429  1  0.448900  0.703200  0.196700  1.0  -0.6876
  O  O430  1  0.456400  0.651200  0.118500  1.0  -0.7185
  O  O431  1  0.547600  0.712500  0.184400  1.0  -0.6525
  O  O432  1  0.554500  0.614200  0.123500  1.0  -0.6719
  O  O433  1  0.044300  0.981000  0.074000  1.0  -0.6237
  O  O434  1  0.042800  0.887700  0.009800  1.0  -0.7137
  O  O435  1  0.546600  0.593300  0.994800  1.0  -0.6674
  O  O436  1  0.551700  0.521700  0.919200  1.0  -0.6962
  O  O437  1  0.552900  0.675500  0.305400  1.0  -0.7392
  O  O438  1  0.554200  0.599200  0.375100  1.0  -0.6768
  O  O439  1  0.946400  0.808600  0.805500  1.0  -0.6621
  O  O440  1  0.953300  0.869900  0.882100  1.0  -0.7097
  O  O441  1  0.958200  0.956800  0.432300  1.0  -0.6909
  O  O442  1  0.952500  0.871800  0.499000  1.0  -0.6601
  O  O443  1  0.954000  0.902300  0.002500  1.0  -0.6899
  O  O444  1  0.952600  0.986500  0.072300  1.0  -0.6294
  O  O445  1  0.948900  0.203200  0.196700  1.0  -0.6876
  O  O446  1  0.956400  0.151200  0.118500  1.0  -0.7178
  O  O447  1  0.047600  0.212500  0.184400  1.0  -0.6525
  O  O448  1  0.054500  0.114200  0.123500  1.0  -0.6719
  O  O449  1  0.544300  0.481000  0.074000  1.0  -0.6237
  O  O450  1  0.542800  0.387700  0.009800  1.0  -0.7142
  O  O451  1  0.046600  0.093300  0.994800  1.0  -0.6674
  O  O452  1  0.051700  0.021700  0.919200  1.0  -0.6962
  O  O453  1  0.052900  0.175500  0.305400  1.0  -0.7392
  O  O454  1  0.054200  0.099200  0.375100  1.0  -0.677
  O  O455  1  0.446400  0.308600  0.805500  1.0  -0.6591
  O  O456  1  0.453300  0.369900  0.882100  1.0  -0.7097
  O  O457  1  0.458200  0.456800  0.432300  1.0  -0.6909
  O  O458  1  0.452500  0.371800  0.499000  1.0  -0.6601
  O  O459  1  0.454000  0.402300  0.002500  1.0  -0.6899
  O  O460  1  0.452600  0.486500  0.072300  1.0  -0.6291
  O  O461  1  0.448900  0.296800  0.696700  1.0  -0.6873
  O  O462  1  0.456400  0.348800  0.618500  1.0  -0.7173
  O  O463  1  0.547600  0.287500  0.684400  1.0  -0.653
  O  O464  1  0.554500  0.385800  0.623500  1.0  -0.6726
  O  O465  1  0.044300  0.019000  0.574000  1.0  -0.6239
  O  O466  1  0.042800  0.112300  0.509800  1.0  -0.7133
  O  O467  1  0.546600  0.406700  0.494800  1.0  -0.667
  O  O468  1  0.551700  0.478300  0.419200  1.0  -0.6955
  O  O469  1  0.552900  0.324500  0.805400  1.0  -0.7389
  O  O470  1  0.554200  0.400800  0.875100  1.0  -0.6762
  O  O471  1  0.946400  0.191400  0.305500  1.0  -0.6603
  O  O472  1  0.953300  0.130100  0.382100  1.0  -0.7099
  O  O473  1  0.958200  0.043200  0.932300  1.0  -0.6911
  O  O474  1  0.952500  0.128200  0.999000  1.0  -0.6598
  O  O475  1  0.954000  0.097700  0.502500  1.0  -0.6895
  O  O476  1  0.952600  0.013500  0.572300  1.0  -0.6299
  O  O477  1  0.948900  0.796800  0.696700  1.0  -0.6873
  O  O478  1  0.956400  0.848800  0.618500  1.0  -0.7167
  O  O479  1  0.047600  0.787500  0.684400  1.0  -0.653
  O  O480  1  0.054500  0.885800  0.623500  1.0  -0.6726
  O  O481  1  0.544300  0.519000  0.574000  1.0  -0.6239
  O  O482  1  0.542800  0.612300  0.509800  1.0  -0.7139
  O  O483  1  0.046600  0.906700  0.494800  1.0  -0.667
  O  O484  1  0.051700  0.978300  0.419200  1.0  -0.6955
  O  O485  1  0.052900  0.824500  0.805400  1.0  -0.7389
  O  O486  1  0.054200  0.900800  0.875100  1.0  -0.6762
  O  O487  1  0.446400  0.691400  0.305500  1.0  -0.6603
  O  O488  1  0.453300  0.630100  0.382100  1.0  -0.7099
  O  O489  1  0.458200  0.543200  0.932300  1.0  -0.6911
  O  O490  1  0.452500  0.628200  0.999000  1.0  -0.6598
  O  O491  1  0.454000  0.597700  0.502500  1.0  -0.6895
  O  O492  1  0.452600  0.513500  0.572300  1.0  -0.6297
