# generated using pymatgen
data_Tm3H40(C4O)16
_symmetry_space_group_name_H-M   'P 1'
_cell_length_a   30.49200000
_cell_length_b   15.98610000
_cell_length_c   25.70220000
_cell_angle_alpha   90.00000000
_cell_angle_beta   89.99100000
_cell_angle_gamma   90.00000000
_symmetry_Int_Tables_number   1
_chemical_formula_structural   Tm3H40(C4O)16
_chemical_formula_sum   'Tm12 H160 C256 O64'
_cell_volume   12528.48997423
_cell_formula_units_Z   4
loop_
 _symmetry_equiv_pos_site_id
 _symmetry_equiv_pos_as_xyz
  1  'x, y, z'
loop_
 _atom_site_type_symbol
 _atom_site_label
 _atom_site_symmetry_multiplicity
 _atom_site_fract_x
 _atom_site_fract_y
 _atom_site_fract_z
 _atom_site_occupancy
 _atom_site_charge
  Tm  Tm1  1  0.499890  0.597720  0.063660  1.0  2.1721
  Tm  Tm2  1  0.500430  0.708060  0.251110  1.0  1.9842
  Tm  Tm3  1  0.499700  0.569090  0.437510  1.0  2.1437
  Tm  Tm4  1  0.999890  0.097720  0.063660  1.0  2.1721
  Tm  Tm5  1  0.000430  0.208060  0.251110  1.0  1.9772
  Tm  Tm6  1  0.999700  0.069090  0.437510  1.0  2.1437
  Tm  Tm7  1  0.499890  0.402280  0.563660  1.0  2.1714
  Tm  Tm8  1  0.500430  0.291940  0.751110  1.0  1.9834
  Tm  Tm9  1  0.499700  0.430910  0.937510  1.0  2.1435
  Tm  Tm10  1  0.999890  0.902280  0.563660  1.0  2.1714
  Tm  Tm11  1  0.000430  0.791940  0.751110  1.0  1.9766
  Tm  Tm12  1  0.999700  0.930910  0.937510  1.0  2.1435
  H  H13  1  0.369300  0.755300  0.208400  1.0  0.0869
  H  H14  1  0.296900  0.787000  0.185400  1.0  0.0955
  H  H15  1  0.315200  0.685000  0.047600  1.0  0.1022
  H  H16  1  0.387600  0.653500  0.070100  1.0  0.0841
  H  H17  1  0.239800  0.732400  0.076700  1.0  0.1472
  H  H18  1  0.615800  0.795000  0.197800  1.0  0.0914
  H  H19  1  0.689800  0.833600  0.187800  1.0  0.1073
  H  H20  1  0.704900  0.661500  0.078500  1.0  0.1043
  H  H21  1  0.631000  0.621800  0.088900  1.0  0.0767
  H  H22  1  0.757000  0.820400  0.151400  1.0  0.101
  H  H23  1  0.107000  0.979700  0.120500  1.0  0.1036
  H  H24  1  0.175600  0.935400  0.152300  1.0  0.0908
  H  H25  1  0.181400  0.755200  0.048000  1.0  0.1192
  H  H26  1  0.112800  0.797200  0.015300  1.0  0.0901
  H  H27  1  0.237400  0.839500  0.155000  1.0  0.066
  H  H28  1  0.609000  0.694700  0.004400  1.0  0.0814
  H  H29  1  0.675500  0.760500  0.986900  1.0  0.0812
  H  H30  1  0.690900  0.624700  0.860800  1.0  0.116
  H  H31  1  0.624200  0.558800  0.877900  1.0  0.0775
  H  H32  1  0.739200  0.793300  0.933100  1.0  0.1506
  H  H33  1  0.623900  0.752300  0.296800  1.0  0.0853
  H  H34  1  0.695700  0.796100  0.317300  1.0  0.1083
  H  H35  1  0.693400  0.648300  0.441000  1.0  0.0973
  H  H36  1  0.621700  0.603800  0.420600  1.0  0.0911
  H  H37  1  0.749100  0.750100  0.432500  1.0  0.0994
  H  H38  1  0.884800  0.738900  0.797100  1.0  0.0886
  H  H39  1  0.812700  0.691000  0.810100  1.0  0.0989
  H  H40  1  0.805200  0.817600  0.941900  1.0  0.097
  H  H41  1  0.877300  0.866400  0.929300  1.0  0.1414
  H  H42  1  0.748500  0.672500  0.859700  1.0  0.1345
  H  H43  1  0.900400  0.929900  0.370900  1.0  0.1006
  H  H44  1  0.833400  0.879100  0.338000  1.0  0.1014
  H  H45  1  0.820500  0.733900  0.460600  1.0  0.0876
  H  H46  1  0.887200  0.782600  0.495400  1.0  0.0966
  H  H47  1  0.777800  0.769800  0.337500  1.0  0.0765
  H  H48  1  0.894200  0.821000  0.997900  1.0  0.0999
  H  H49  1  0.830100  0.751800  0.023500  1.0  0.0756
  H  H50  1  0.825300  0.878600  0.154000  1.0  0.1008
  H  H51  1  0.889600  0.949100  0.130100  1.0  0.0881
  H  H52  1  0.779100  0.706100  0.084900  1.0  0.0673
  H  H53  1  0.869300  0.255300  0.208400  1.0  0.0857
  H  H54  1  0.796900  0.287000  0.185400  1.0  0.0955
  H  H55  1  0.815200  0.185000  0.047600  1.0  0.1022
  H  H56  1  0.887600  0.153500  0.070100  1.0  0.0841
  H  H57  1  0.739800  0.232400  0.076700  1.0  0.1472
  H  H58  1  0.115800  0.295000  0.197800  1.0  0.0917
  H  H59  1  0.189800  0.333600  0.187800  1.0  0.1073
  H  H60  1  0.204900  0.161500  0.078500  1.0  0.1043
  H  H61  1  0.131000  0.121800  0.088900  1.0  0.0767
  H  H62  1  0.257000  0.320400  0.151400  1.0  0.101
  H  H63  1  0.607000  0.479700  0.120500  1.0  0.1036
  H  H64  1  0.675600  0.435400  0.152300  1.0  0.0908
  H  H65  1  0.681400  0.255200  0.048000  1.0  0.1183
  H  H66  1  0.612800  0.297200  0.015300  1.0  0.09
  H  H67  1  0.737400  0.339500  0.155000  1.0  0.066
  H  H68  1  0.109000  0.194700  0.004400  1.0  0.0822
  H  H69  1  0.175500  0.260500  0.986900  1.0  0.0812
  H  H70  1  0.190900  0.124700  0.860800  1.0  0.116
  H  H71  1  0.124200  0.058800  0.877900  1.0  0.0775
  H  H72  1  0.239200  0.293300  0.933100  1.0  0.1506
  H  H73  1  0.123900  0.252300  0.296800  1.0  0.0849
  H  H74  1  0.195700  0.296100  0.317300  1.0  0.1083
  H  H75  1  0.193400  0.148300  0.441000  1.0  0.0973
  H  H76  1  0.121700  0.103800  0.420600  1.0  0.0911
  H  H77  1  0.249100  0.250100  0.432500  1.0  0.0994
  H  H78  1  0.384800  0.238900  0.797100  1.0  0.0865
  H  H79  1  0.312700  0.191000  0.810100  1.0  0.0989
  H  H80  1  0.305200  0.317600  0.941900  1.0  0.097
  H  H81  1  0.377300  0.366400  0.929300  1.0  0.1414
  H  H82  1  0.248500  0.172500  0.859700  1.0  0.1345
  H  H83  1  0.400400  0.429900  0.370900  1.0  0.1014
  H  H84  1  0.333400  0.379100  0.338000  1.0  0.1014
  H  H85  1  0.320500  0.233900  0.460600  1.0  0.0876
  H  H86  1  0.387200  0.282600  0.495400  1.0  0.0972
  H  H87  1  0.277800  0.269800  0.337500  1.0  0.0765
  H  H88  1  0.394200  0.321000  0.997900  1.0  0.1001
  H  H89  1  0.330100  0.251800  0.023500  1.0  0.0764
  H  H90  1  0.325300  0.378600  0.154000  1.0  0.1008
  H  H91  1  0.389600  0.449100  0.130100  1.0  0.0881
  H  H92  1  0.279100  0.206100  0.084900  1.0  0.0673
  H  H93  1  0.369300  0.244700  0.708400  1.0  0.0877
  H  H94  1  0.296900  0.213000  0.685400  1.0  0.0956
  H  H95  1  0.315200  0.315000  0.547600  1.0  0.1022
  H  H96  1  0.387600  0.346500  0.570100  1.0  0.0839
  H  H97  1  0.239800  0.267600  0.576700  1.0  0.1488
  H  H98  1  0.615800  0.205000  0.697800  1.0  0.0914
  H  H99  1  0.689800  0.166400  0.687800  1.0  0.1075
  H  H100  1  0.704900  0.338500  0.578500  1.0  0.1044
  H  H101  1  0.631000  0.378200  0.588900  1.0  0.0765
  H  H102  1  0.757000  0.179600  0.651400  1.0  0.1008
  H  H103  1  0.107000  0.020300  0.620500  1.0  0.104
  H  H104  1  0.175600  0.064600  0.652300  1.0  0.0908
  H  H105  1  0.181400  0.244800  0.548000  1.0  0.1188
  H  H106  1  0.112800  0.202800  0.515300  1.0  0.0901
  H  H107  1  0.237400  0.160500  0.655000  1.0  0.0671
  H  H108  1  0.609000  0.305300  0.504400  1.0  0.082
  H  H109  1  0.675500  0.239500  0.486900  1.0  0.0818
  H  H110  1  0.690900  0.375300  0.360800  1.0  0.1159
  H  H111  1  0.624200  0.441200  0.377900  1.0  0.0776
  H  H112  1  0.739200  0.206700  0.433100  1.0  0.1497
  H  H113  1  0.623900  0.247700  0.796800  1.0  0.0852
  H  H114  1  0.695700  0.203900  0.817300  1.0  0.1082
  H  H115  1  0.693400  0.351700  0.941000  1.0  0.0973
  H  H116  1  0.621700  0.396200  0.920600  1.0  0.0908
  H  H117  1  0.749100  0.249900  0.932500  1.0  0.0992
  H  H118  1  0.884800  0.261100  0.297100  1.0  0.0888
  H  H119  1  0.812700  0.309000  0.310100  1.0  0.099
  H  H120  1  0.805200  0.182400  0.441900  1.0  0.0971
  H  H121  1  0.877300  0.133600  0.429300  1.0  0.1416
  H  H122  1  0.748500  0.327500  0.359700  1.0  0.1348
  H  H123  1  0.900400  0.070100  0.870900  1.0  0.1006
  H  H124  1  0.833400  0.120900  0.838000  1.0  0.1013
  H  H125  1  0.820500  0.266100  0.960600  1.0  0.0877
  H  H126  1  0.887200  0.217400  0.995400  1.0  0.0964
  H  H127  1  0.777800  0.230200  0.837500  1.0  0.0768
  H  H128  1  0.894200  0.179000  0.497900  1.0  0.0997
  H  H129  1  0.830100  0.248200  0.523500  1.0  0.0759
  H  H130  1  0.825300  0.121400  0.654000  1.0  0.1012
  H  H131  1  0.889600  0.050900  0.630100  1.0  0.0887
  H  H132  1  0.779100  0.293900  0.584900  1.0  0.0679
  H  H133  1  0.869300  0.744700  0.708400  1.0  0.0865
  H  H134  1  0.796900  0.713000  0.685400  1.0  0.0956
  H  H135  1  0.815200  0.815000  0.547600  1.0  0.1022
  H  H136  1  0.887600  0.846500  0.570100  1.0  0.0839
  H  H137  1  0.739800  0.767600  0.576700  1.0  0.1487
  H  H138  1  0.115800  0.705000  0.697800  1.0  0.0916
  H  H139  1  0.189800  0.666400  0.687800  1.0  0.1075
  H  H140  1  0.204900  0.838500  0.578500  1.0  0.1044
  H  H141  1  0.131000  0.878200  0.588900  1.0  0.0765
  H  H142  1  0.257000  0.679600  0.651400  1.0  0.1008
  H  H143  1  0.607000  0.520300  0.620500  1.0  0.104
  H  H144  1  0.675600  0.564600  0.652300  1.0  0.0908
  H  H145  1  0.681400  0.744800  0.548000  1.0  0.118
  H  H146  1  0.612800  0.702800  0.515300  1.0  0.0902
  H  H147  1  0.737400  0.660500  0.655000  1.0  0.0671
  H  H148  1  0.109000  0.805300  0.504400  1.0  0.0821
  H  H149  1  0.175500  0.739500  0.486900  1.0  0.0818
  H  H150  1  0.190900  0.875300  0.360800  1.0  0.1159
  H  H151  1  0.124200  0.941200  0.377900  1.0  0.0776
  H  H152  1  0.239200  0.706700  0.433100  1.0  0.1497
  H  H153  1  0.123900  0.747700  0.796800  1.0  0.0848
  H  H154  1  0.195700  0.703900  0.817300  1.0  0.1082
  H  H155  1  0.193400  0.851700  0.941000  1.0  0.0973
  H  H156  1  0.121700  0.896200  0.920600  1.0  0.0908
  H  H157  1  0.249100  0.749900  0.932500  1.0  0.0992
  H  H158  1  0.384800  0.761100  0.297100  1.0  0.0868
  H  H159  1  0.312700  0.809000  0.310100  1.0  0.099
  H  H160  1  0.305200  0.682400  0.441900  1.0  0.0971
  H  H161  1  0.377300  0.633600  0.429300  1.0  0.1416
  H  H162  1  0.248500  0.827500  0.359700  1.0  0.1348
  H  H163  1  0.400400  0.570100  0.870900  1.0  0.1013
  H  H164  1  0.333400  0.620900  0.838000  1.0  0.1013
  H  H165  1  0.320500  0.766100  0.960600  1.0  0.0877
  H  H166  1  0.387200  0.717400  0.995400  1.0  0.097
  H  H167  1  0.277800  0.730200  0.837500  1.0  0.0768
  H  H168  1  0.394200  0.679000  0.497900  1.0  0.0991
  H  H169  1  0.330100  0.748200  0.523500  1.0  0.0767
  H  H170  1  0.325300  0.621400  0.654000  1.0  0.1012
  H  H171  1  0.389600  0.550900  0.630100  1.0  0.0887
  H  H172  1  0.279100  0.793900  0.584900  1.0  0.0679
  C  C173  1  0.433400  0.678700  0.155000  1.0  0.7218
  C  C174  1  0.386500  0.700600  0.141800  1.0  -0.0762
  C  C175  1  0.359000  0.740500  0.175600  1.0  -0.0461
  C  C176  1  0.315100  0.759800  0.161700  1.0  -0.1451
  C  C177  1  0.299500  0.739100  0.114400  1.0  0.026
  C  C178  1  0.325800  0.699700  0.080300  1.0  -0.1184
  C  C179  1  0.369800  0.680500  0.094200  1.0  -0.1398
  C  C180  1  0.252700  0.762600  0.103600  1.0  -0.1568
  C  C181  1  0.568400  0.678700  0.150200  1.0  0.6987
  C  C182  1  0.616000  0.704300  0.144200  1.0  -0.156
  C  C183  1  0.633300  0.767400  0.173600  1.0  -0.0617
  C  C184  1  0.678000  0.790900  0.167700  1.0  -0.1293
  C  C185  1  0.703000  0.750700  0.132400  1.0  0.0346
  C  C186  1  0.687100  0.688400  0.102700  1.0  -0.1513
  C  C187  1  0.642400  0.664900  0.109000  1.0  -0.0332
  C  C188  1  0.749900  0.778100  0.128000  1.0  -0.1156
  C  C189  1  0.059500  0.918100  0.042700  1.0  0.7535
  C  C190  1  0.103500  0.892000  0.064500  1.0  -0.143
  C  C191  1  0.121400  0.934400  0.105500  1.0  -0.0633
  C  C192  1  0.162900  0.907300  0.124400  1.0  -0.0731
  C  C193  1  0.184300  0.842100  0.103100  1.0  -0.0084
  C  C194  1  0.166600  0.800200  0.062800  1.0  -0.1959
  C  C195  1  0.125200  0.825800  0.043100  1.0  -0.054
  C  C196  1  0.228000  0.815000  0.124100  1.0  -0.1087
  C  C197  1  0.565700  0.574000  0.952800  1.0  0.7084
  C  C198  1  0.608700  0.618600  0.943000  1.0  -0.0939
  C  C199  1  0.624800  0.679300  0.975000  1.0  -0.0402
  C  C200  1  0.665400  0.719300  0.964300  1.0  -0.0792
  C  C201  1  0.689800  0.699500  0.922300  1.0  0.0778
  C  C202  1  0.674700  0.639700  0.890100  1.0  -0.1945
  C  C203  1  0.634000  0.599800  0.900800  1.0  -0.0447
  C  C204  1  0.732300  0.745300  0.914400  1.0  -0.0878
  C  C205  1  0.570200  0.644700  0.343800  1.0  0.727
  C  C206  1  0.616000  0.674000  0.356400  1.0  -0.1455
  C  C207  1  0.637800  0.730700  0.326100  1.0  -0.0428
  C  C208  1  0.681000  0.757700  0.338100  1.0  -0.1398
  C  C209  1  0.699700  0.725300  0.381100  1.0  0.0801
  C  C210  1  0.679200  0.669400  0.411700  1.0  -0.1071
  C  C211  1  0.636100  0.642400  0.399500  1.0  -0.1183
  C  C212  1  0.745300  0.750800  0.396600  1.0  -0.1278
  C  C213  1  0.934300  0.837900  0.852900  1.0  0.7367
  C  C214  1  0.888000  0.807600  0.862100  1.0  -0.1246
  C  C215  1  0.869200  0.755400  0.826400  1.0  -0.0677
  C  C216  1  0.825700  0.726400  0.834300  1.0  -0.1214
  C  C217  1  0.803300  0.750200  0.876900  1.0  0.0216
  C  C218  1  0.821100  0.801600  0.912700  1.0  -0.1733
  C  C219  1  0.864600  0.830900  0.904900  1.0  -0.1368
  C  C220  1  0.757600  0.715600  0.881400  1.0  -0.189
  C  C221  1  0.942500  0.892900  0.457600  1.0  0.7535
  C  C222  1  0.899500  0.860900  0.435900  1.0  -0.1312
  C  C223  1  0.884500  0.890300  0.389400  1.0  -0.0579
  C  C224  1  0.844000  0.859600  0.369600  1.0  -0.089
  C  C225  1  0.821300  0.802400  0.396800  1.0  0.1258
  C  C226  1  0.836600  0.773700  0.442500  1.0  -0.0752
  C  C227  1  0.876800  0.802600  0.463800  1.0  -0.1
  C  C228  1  0.778800  0.772400  0.373600  1.0  -0.1335
  C  C229  1  0.940000  0.936400  0.044000  1.0  0.7193
  C  C230  1  0.898600  0.892600  0.061800  1.0  -0.1604
  C  C231  1  0.881000  0.833700  0.029600  1.0  -0.1973
  C  C232  1  0.842000  0.792100  0.045400  1.0  -0.1155
  C  C233  1  0.821600  0.808200  0.090700  1.0  0.0994
  C  C234  1  0.838900  0.866300  0.122500  1.0  -0.1555
  C  C235  1  0.877900  0.909100  0.107800  1.0  -0.0671
  C  C236  1  0.780800  0.758100  0.101000  1.0  -0.1188
  C  C237  1  0.933400  0.178700  0.155000  1.0  0.7218
  C  C238  1  0.886500  0.200600  0.141800  1.0  -0.0762
  C  C239  1  0.859000  0.240500  0.175600  1.0  -0.0461
  C  C240  1  0.815100  0.259800  0.161700  1.0  -0.1451
  C  C241  1  0.799500  0.239100  0.114400  1.0  0.0262
  C  C242  1  0.825800  0.199700  0.080300  1.0  -0.1185
  C  C243  1  0.869800  0.180500  0.094200  1.0  -0.1398
  C  C244  1  0.752700  0.262600  0.103600  1.0  -0.1568
  C  C245  1  0.068400  0.178700  0.150200  1.0  0.6987
  C  C246  1  0.116000  0.204300  0.144200  1.0  -0.156
  C  C247  1  0.133300  0.267400  0.173600  1.0  -0.0617
  C  C248  1  0.178000  0.290900  0.167700  1.0  -0.1293
  C  C249  1  0.203000  0.250700  0.132400  1.0  0.0346
  C  C250  1  0.187100  0.188400  0.102700  1.0  -0.1513
  C  C251  1  0.142400  0.164900  0.109000  1.0  -0.0332
  C  C252  1  0.249900  0.278100  0.128000  1.0  -0.1156
  C  C253  1  0.559500  0.418100  0.042700  1.0  0.7536
  C  C254  1  0.603500  0.392000  0.064500  1.0  -0.143
  C  C255  1  0.621400  0.434400  0.105500  1.0  -0.0642
  C  C256  1  0.662900  0.407300  0.124400  1.0  -0.0731
  C  C257  1  0.684300  0.342100  0.103100  1.0  -0.0056
  C  C258  1  0.666667  0.300200  0.062800  1.0  -0.1934
  C  C259  1  0.625200  0.325800  0.043100  1.0  -0.0593
  C  C260  1  0.728000  0.315000  0.124100  1.0  -0.1086
  C  C261  1  0.065700  0.074000  0.952800  1.0  0.7084
  C  C262  1  0.108700  0.118600  0.943000  1.0  -0.1013
  C  C263  1  0.124800  0.179300  0.975000  1.0  -0.0402
  C  C264  1  0.165400  0.219300  0.964300  1.0  -0.0792
  C  C265  1  0.189800  0.199500  0.922300  1.0  0.0778
  C  C266  1  0.174700  0.139700  0.890100  1.0  -0.1945
  C  C267  1  0.134000  0.099800  0.900800  1.0  -0.0447
  C  C268  1  0.232300  0.245300  0.914400  1.0  -0.0878
  C  C269  1  0.070200  0.144700  0.343800  1.0  0.727
  C  C270  1  0.116000  0.174000  0.356400  1.0  -0.1455
  C  C271  1  0.137800  0.230700  0.326100  1.0  -0.0428
  C  C272  1  0.181000  0.257700  0.338100  1.0  -0.1398
  C  C273  1  0.199700  0.225300  0.381100  1.0  0.0801
  C  C274  1  0.179200  0.169400  0.411700  1.0  -0.1071
  C  C275  1  0.136100  0.142400  0.399500  1.0  -0.1183
  C  C276  1  0.245300  0.250800  0.396600  1.0  -0.1278
  C  C277  1  0.434300  0.337900  0.852900  1.0  0.7367
  C  C278  1  0.388000  0.307600  0.862100  1.0  -0.1246
  C  C279  1  0.369200  0.255400  0.826400  1.0  -0.0677
  C  C280  1  0.325700  0.226400  0.834300  1.0  -0.1214
  C  C281  1  0.303300  0.250200  0.876900  1.0  0.0216
  C  C282  1  0.321100  0.301600  0.912700  1.0  -0.1733
  C  C283  1  0.364600  0.330900  0.904900  1.0  -0.1368
  C  C284  1  0.257600  0.215600  0.881400  1.0  -0.189
  C  C285  1  0.442500  0.392900  0.457600  1.0  0.7535
  C  C286  1  0.399500  0.360900  0.435900  1.0  -0.1251
  C  C287  1  0.384500  0.390300  0.389400  1.0  -0.0598
  C  C288  1  0.344000  0.359600  0.369600  1.0  -0.089
  C  C289  1  0.321300  0.302400  0.396800  1.0  0.1258
  C  C290  1  0.336600  0.273700  0.442500  1.0  -0.0752
  C  C291  1  0.376800  0.302600  0.463800  1.0  -0.1
  C  C292  1  0.278800  0.272400  0.373600  1.0  -0.1335
  C  C293  1  0.440000  0.436400  0.044000  1.0  0.7193
  C  C294  1  0.398600  0.392600  0.061800  1.0  -0.168
  C  C295  1  0.381000  0.333700  0.029600  1.0  -0.2053
  C  C296  1  0.342000  0.292100  0.045400  1.0  -0.1173
  C  C297  1  0.321600  0.308200  0.090700  1.0  0.0994
  C  C298  1  0.338900  0.366300  0.122500  1.0  -0.1555
  C  C299  1  0.377900  0.409100  0.107800  1.0  -0.0677
  C  C300  1  0.280800  0.258100  0.101000  1.0  -0.1188
  C  C301  1  0.433400  0.321300  0.655000  1.0  0.7216
  C  C302  1  0.386500  0.299400  0.641800  1.0  -0.0757
  C  C303  1  0.359000  0.259500  0.675600  1.0  -0.0451
  C  C304  1  0.315100  0.240200  0.661700  1.0  -0.1447
  C  C305  1  0.299500  0.260900  0.614400  1.0  0.0261
  C  C306  1  0.325800  0.300300  0.580300  1.0  -0.1187
  C  C307  1  0.369800  0.319500  0.594200  1.0  -0.1421
  C  C308  1  0.252700  0.237400  0.603600  1.0  -0.156
  C  C309  1  0.568400  0.321300  0.650200  1.0  0.6996
  C  C310  1  0.616000  0.295700  0.644200  1.0  -0.1559
  C  C311  1  0.633300  0.232600  0.673600  1.0  -0.0609
  C  C312  1  0.678000  0.209100  0.667700  1.0  -0.1278
  C  C313  1  0.703000  0.249300  0.632400  1.0  0.0342
  C  C314  1  0.687100  0.311600  0.602700  1.0  -0.1525
  C  C315  1  0.642400  0.335100  0.609000  1.0  -0.0322
  C  C316  1  0.749900  0.221900  0.628000  1.0  -0.1152
  C  C317  1  0.059500  0.081900  0.542700  1.0  0.7534
  C  C318  1  0.103500  0.108000  0.564500  1.0  -0.1425
  C  C319  1  0.121400  0.065600  0.605500  1.0  -0.0629
  C  C320  1  0.162900  0.092700  0.624400  1.0  -0.0728
  C  C321  1  0.184300  0.157900  0.603100  1.0  -0.008
  C  C322  1  0.166600  0.199800  0.562800  1.0  -0.1946
  C  C323  1  0.125200  0.174200  0.543100  1.0  -0.0541
  C  C324  1  0.228000  0.185000  0.624100  1.0  -0.1088
  C  C325  1  0.565700  0.426000  0.452800  1.0  0.7079
  C  C326  1  0.608700  0.381400  0.443000  1.0  -0.0936
  C  C327  1  0.624800  0.320700  0.475000  1.0  -0.0406
  C  C328  1  0.665400  0.280700  0.464300  1.0  -0.079
  C  C329  1  0.689800  0.300500  0.422300  1.0  0.0786
  C  C330  1  0.674700  0.360300  0.390100  1.0  -0.1935
  C  C331  1  0.634000  0.400200  0.400800  1.0  -0.0444
  C  C332  1  0.732300  0.254700  0.414400  1.0  -0.0869
  C  C333  1  0.570200  0.355300  0.843800  1.0  0.7277
  C  C334  1  0.616000  0.326000  0.856400  1.0  -0.1459
  C  C335  1  0.637800  0.269300  0.826100  1.0  -0.0431
  C  C336  1  0.681000  0.242300  0.838100  1.0  -0.1418
  C  C337  1  0.699700  0.274700  0.881100  1.0  0.0801
  C  C338  1  0.679200  0.330600  0.911700  1.0  -0.1081
  C  C339  1  0.636100  0.357600  0.899500  1.0  -0.1181
  C  C340  1  0.745300  0.249200  0.896600  1.0  -0.1278
  C  C341  1  0.934300  0.162100  0.352900  1.0  0.736
  C  C342  1  0.888000  0.192400  0.362100  1.0  -0.1258
  C  C343  1  0.869200  0.244600  0.326400  1.0  -0.0675
  C  C344  1  0.825700  0.273600  0.334300  1.0  -0.122
  C  C345  1  0.803300  0.249800  0.376900  1.0  0.0221
  C  C346  1  0.821100  0.198400  0.412700  1.0  -0.1735
  C  C347  1  0.864600  0.169100  0.404900  1.0  -0.1359
  C  C348  1  0.757600  0.284400  0.381400  1.0  -0.1883
  C  C349  1  0.942500  0.107100  0.957600  1.0  0.753
  C  C350  1  0.899500  0.139100  0.935900  1.0  -0.1316
  C  C351  1  0.884500  0.109700  0.889400  1.0  -0.0583
  C  C352  1  0.844000  0.140400  0.869600  1.0  -0.0883
  C  C353  1  0.821300  0.197600  0.896800  1.0  0.1257
  C  C354  1  0.836600  0.226300  0.942500  1.0  -0.0748
  C  C355  1  0.876800  0.197400  0.963800  1.0  -0.1001
  C  C356  1  0.778800  0.227600  0.873600  1.0  -0.1338
  C  C357  1  0.940000  0.063600  0.544000  1.0  0.7185
  C  C358  1  0.898600  0.107400  0.561800  1.0  -0.1617
  C  C359  1  0.881000  0.166300  0.529600  1.0  -0.1975
  C  C360  1  0.842000  0.207900  0.545400  1.0  -0.1149
  C  C361  1  0.821600  0.191800  0.590700  1.0  0.1001
  C  C362  1  0.838900  0.133700  0.622500  1.0  -0.155
  C  C363  1  0.877900  0.090900  0.607800  1.0  -0.0666
  C  C364  1  0.780800  0.241900  0.601000  1.0  -0.1191
  C  C365  1  0.933400  0.821300  0.655000  1.0  0.7216
  C  C366  1  0.886500  0.799400  0.641800  1.0  -0.0757
  C  C367  1  0.859000  0.759500  0.675600  1.0  -0.0451
  C  C368  1  0.815100  0.740200  0.661700  1.0  -0.1447
  C  C369  1  0.799500  0.760900  0.614400  1.0  0.0263
  C  C370  1  0.825800  0.800300  0.580300  1.0  -0.1188
  C  C371  1  0.869800  0.819500  0.594200  1.0  -0.1421
  C  C372  1  0.752700  0.737400  0.603600  1.0  -0.156
  C  C373  1  0.068400  0.821300  0.650200  1.0  0.6996
  C  C374  1  0.116000  0.795700  0.644200  1.0  -0.1559
  C  C375  1  0.133300  0.732600  0.673600  1.0  -0.0609
  C  C376  1  0.178000  0.709100  0.667700  1.0  -0.1278
  C  C377  1  0.203000  0.749300  0.632400  1.0  0.0342
  C  C378  1  0.187100  0.811600  0.602700  1.0  -0.1525
  C  C379  1  0.142400  0.835100  0.609000  1.0  -0.0322
  C  C380  1  0.249900  0.721900  0.628000  1.0  -0.1152
  C  C381  1  0.559500  0.581900  0.542700  1.0  0.7535
  C  C382  1  0.603500  0.608000  0.564500  1.0  -0.1425
  C  C383  1  0.621400  0.565600  0.605500  1.0  -0.0639
  C  C384  1  0.662900  0.592700  0.624400  1.0  -0.0728
  C  C385  1  0.684300  0.657900  0.603100  1.0  -0.0051
  C  C386  1  0.666667  0.699800  0.562800  1.0  -0.1926
  C  C387  1  0.625200  0.674200  0.543100  1.0  -0.0594
  C  C388  1  0.728000  0.685000  0.624100  1.0  -0.1088
  C  C389  1  0.065700  0.926000  0.452800  1.0  0.7079
  C  C390  1  0.108700  0.881400  0.443000  1.0  -0.1016
  C  C391  1  0.124800  0.820700  0.475000  1.0  -0.0406
  C  C392  1  0.165400  0.780700  0.464300  1.0  -0.079
  C  C393  1  0.189800  0.800500  0.422300  1.0  0.0786
  C  C394  1  0.174700  0.860300  0.390100  1.0  -0.1935
  C  C395  1  0.134000  0.900200  0.400800  1.0  -0.0444
  C  C396  1  0.232300  0.754700  0.414400  1.0  -0.0869
  C  C397  1  0.070200  0.855300  0.843800  1.0  0.7277
  C  C398  1  0.116000  0.826000  0.856400  1.0  -0.1459
  C  C399  1  0.137800  0.769300  0.826100  1.0  -0.0431
  C  C400  1  0.181000  0.742300  0.838100  1.0  -0.1418
  C  C401  1  0.199700  0.774700  0.881100  1.0  0.0801
  C  C402  1  0.179200  0.830600  0.911700  1.0  -0.1081
  C  C403  1  0.136100  0.857600  0.899500  1.0  -0.1181
  C  C404  1  0.245300  0.749200  0.896600  1.0  -0.1278
  C  C405  1  0.434300  0.662100  0.352900  1.0  0.736
  C  C406  1  0.388000  0.692400  0.362100  1.0  -0.1258
  C  C407  1  0.369200  0.744600  0.326400  1.0  -0.0675
  C  C408  1  0.325700  0.773600  0.334300  1.0  -0.122
  C  C409  1  0.303300  0.749800  0.376900  1.0  0.0221
  C  C410  1  0.321100  0.698400  0.412700  1.0  -0.1735
  C  C411  1  0.364600  0.669100  0.404900  1.0  -0.1359
  C  C412  1  0.257600  0.784400  0.381400  1.0  -0.1883
  C  C413  1  0.442500  0.607100  0.957600  1.0  0.753
  C  C414  1  0.399500  0.639100  0.935900  1.0  -0.1259
  C  C415  1  0.384500  0.609700  0.889400  1.0  -0.06
  C  C416  1  0.344000  0.640400  0.869600  1.0  -0.0883
  C  C417  1  0.321300  0.697600  0.896800  1.0  0.1257
  C  C418  1  0.336600  0.726300  0.942500  1.0  -0.0748
  C  C419  1  0.376800  0.697400  0.963800  1.0  -0.1001
  C  C420  1  0.278800  0.727600  0.873600  1.0  -0.1338
  C  C421  1  0.440000  0.563600  0.544000  1.0  0.7185
  C  C422  1  0.398600  0.607400  0.561800  1.0  -0.1693
  C  C423  1  0.381000  0.666300  0.529600  1.0  -0.2048
  C  C424  1  0.342000  0.707900  0.545400  1.0  -0.1166
  C  C425  1  0.321600  0.691800  0.590700  1.0  0.1001
  C  C426  1  0.338900  0.633700  0.622500  1.0  -0.155
  C  C427  1  0.377900  0.590900  0.607800  1.0  -0.0673
  C  C428  1  0.280800  0.741900  0.601000  1.0  -0.1191
  O  O429  1  0.447200  0.698200  0.198700  1.0  -0.6975
  O  O430  1  0.457400  0.642500  0.123200  1.0  -0.7174
  O  O431  1  0.549000  0.720600  0.183700  1.0  -0.6719
  O  O432  1  0.555500  0.621000  0.121700  1.0  -0.6839
  O  O433  1  0.040800  0.978400  0.063300  1.0  -0.705
  O  O434  1  0.045500  0.876400  0.005400  1.0  -0.6567
  O  O435  1  0.546300  0.597500  0.992500  1.0  -0.7527
  O  O436  1  0.555600  0.520300  0.920000  1.0  -0.6645
  O  O437  1  0.554900  0.677100  0.303900  1.0  -0.7299
  O  O438  1  0.550500  0.593400  0.371300  1.0  -0.7268
  O  O439  1  0.952100  0.812400  0.812500  1.0  -0.6871
  O  O440  1  0.950700  0.885100  0.885700  1.0  -0.7073
  O  O441  1  0.960700  0.945600  0.429500  1.0  -0.7173
  O  O442  1  0.953900  0.863000  0.500100  1.0  -0.6798
  O  O443  1  0.954400  0.914000  0.001000  1.0  -0.6265
  O  O444  1  0.953700  0.988900  0.075500  1.0  -0.6444
  O  O445  1  0.947200  0.198200  0.198700  1.0  -0.6975
  O  O446  1  0.957400  0.142500  0.123200  1.0  -0.7175
  O  O447  1  0.049000  0.220600  0.183700  1.0  -0.6714
  O  O448  1  0.055500  0.121000  0.121700  1.0  -0.6843
  O  O449  1  0.540800  0.478400  0.063300  1.0  -0.705
  O  O450  1  0.545500  0.376400  0.005400  1.0  -0.6567
  O  O451  1  0.046300  0.097500  0.992500  1.0  -0.7527
  O  O452  1  0.055600  0.020300  0.920000  1.0  -0.6645
  O  O453  1  0.054900  0.177100  0.303900  1.0  -0.7299
  O  O454  1  0.050500  0.093400  0.371300  1.0  -0.7269
  O  O455  1  0.452100  0.312400  0.812500  1.0  -0.6871
  O  O456  1  0.450700  0.385100  0.885700  1.0  -0.7073
  O  O457  1  0.460700  0.445600  0.429500  1.0  -0.7173
  O  O458  1  0.453900  0.363000  0.500100  1.0  -0.6798
  O  O459  1  0.454400  0.414000  0.001000  1.0  -0.6265
  O  O460  1  0.453700  0.488900  0.075500  1.0  -0.6447
  O  O461  1  0.447200  0.301800  0.698700  1.0  -0.6976
  O  O462  1  0.457400  0.357500  0.623200  1.0  -0.717
  O  O463  1  0.549000  0.279400  0.683700  1.0  -0.6727
  O  O464  1  0.555500  0.379000  0.621700  1.0  -0.6837
  O  O465  1  0.040800  0.021600  0.563300  1.0  -0.7059
  O  O466  1  0.045500  0.123600  0.505400  1.0  -0.6574
  O  O467  1  0.546300  0.402500  0.492500  1.0  -0.7511
  O  O468  1  0.555600  0.479700  0.420000  1.0  -0.6645
  O  O469  1  0.554900  0.322900  0.803900  1.0  -0.7307
  O  O470  1  0.550500  0.406600  0.871300  1.0  -0.727
  O  O471  1  0.952100  0.187600  0.312500  1.0  -0.6874
  O  O472  1  0.950700  0.114900  0.385700  1.0  -0.708
  O  O473  1  0.960700  0.054400  0.929500  1.0  -0.718
  O  O474  1  0.953900  0.137000  0.000100  1.0  -0.6788
  O  O475  1  0.954400  0.086000  0.501000  1.0  -0.6261
  O  O476  1  0.953700  0.011100  0.575500  1.0  -0.6455
  O  O477  1  0.947200  0.801800  0.698700  1.0  -0.6976
  O  O478  1  0.957400  0.857500  0.623200  1.0  -0.7171
  O  O479  1  0.049000  0.779400  0.683700  1.0  -0.6722
  O  O480  1  0.055500  0.879000  0.621700  1.0  -0.684
  O  O481  1  0.540800  0.521600  0.563300  1.0  -0.7059
  O  O482  1  0.545500  0.623600  0.505400  1.0  -0.6574
  O  O483  1  0.046300  0.902500  0.492500  1.0  -0.7511
  O  O484  1  0.055600  0.979700  0.420000  1.0  -0.6645
  O  O485  1  0.054900  0.822900  0.803900  1.0  -0.7307
  O  O486  1  0.050500  0.906600  0.871300  1.0  -0.727
  O  O487  1  0.452100  0.687600  0.312500  1.0  -0.6874
  O  O488  1  0.450700  0.614900  0.385700  1.0  -0.708
  O  O489  1  0.460700  0.554400  0.929500  1.0  -0.718
  O  O490  1  0.453900  0.637000  0.000100  1.0  -0.6788
  O  O491  1  0.454400  0.586000  0.501000  1.0  -0.6261
  O  O492  1  0.453700  0.511100  0.575500  1.0  -0.6458
