# generated using pymatgen
data_CdH14C17N3O4
_symmetry_space_group_name_H-M   'P 1'
_cell_length_a   10.34200000
_cell_length_b   15.07900000
_cell_length_c   25.11700000
_cell_angle_alpha   90.00000000
_cell_angle_beta   90.00000000
_cell_angle_gamma   90.00000000
_symmetry_Int_Tables_number   1
_chemical_formula_structural   CdH14C17N3O4
_chemical_formula_sum   'Cd8 H112 C136 N24 O32'
_cell_volume   3916.92125111
_cell_formula_units_Z   8
loop_
 _symmetry_equiv_pos_site_id
 _symmetry_equiv_pos_as_xyz
  1  'x, y, z'
loop_
 _atom_site_type_symbol
 _atom_site_label
 _atom_site_symmetry_multiplicity
 _atom_site_fract_x
 _atom_site_fract_y
 _atom_site_fract_z
 _atom_site_occupancy
 _atom_site_charge
  Cd  Cd1  1  0.912120  0.499740  0.536660  1.0  1.057
  Cd  Cd2  1  0.671630  0.505910  0.455960  1.0  1.0445
  Cd  Cd3  1  0.587880  0.500260  0.036660  1.0  1.0576
  Cd  Cd4  1  0.828370  0.494090  0.955960  1.0  1.0453
  Cd  Cd5  1  0.087880  0.999740  0.963340  1.0  1.0564
  Cd  Cd6  1  0.328370  0.005910  0.044040  1.0  1.0461
  Cd  Cd7  1  0.412120  0.000260  0.463340  1.0  1.056
  Cd  Cd8  1  0.171630  0.994090  0.544040  1.0  1.0453
  H  H9  1  0.798900  0.342700  0.171100  1.0  0.1199
  H  H10  1  0.093400  0.166600  0.173700  1.0  0.1152
  H  H11  1  0.093100  0.500500  0.386300  1.0  0.1057
  H  H12  1  0.159000  0.406800  0.384500  1.0  0.0799
  H  H13  1  0.941800  0.245900  0.035500  1.0  0.1076
  H  H14  1  0.883600  0.328700  0.326200  1.0  0.1296
  H  H15  1  0.965100  0.509400  0.308600  1.0  0.1053
  H  H16  1  0.323600  0.414000  0.293100  1.0  0.1115
  H  H17  1  0.158900  0.141500  0.330500  1.0  0.1244
  H  H18  1  0.022000  0.245800  0.467100  1.0  0.1005
  H  H19  1  0.277500  0.635100  0.353500  1.0  0.1226
  H  H20  1  0.493500  0.653900  0.391300  1.0  0.0968
  H  H21  1  0.936300  0.499300  0.217600  1.0  0.1027
  H  H22  1  0.092800  0.400400  0.127300  1.0  0.0941
  H  H23  1  0.024600  0.493200  0.130700  1.0  0.1016
  H  H24  1  0.349700  0.336400  0.403900  1.0  0.0827
  H  H25  1  0.470300  0.355300  0.440000  1.0  0.0925
  H  H26  1  0.298600  0.407400  0.201300  1.0  0.1175
  H  H27  1  0.326500  0.404600  0.507200  1.0  0.099
  H  H28  1  0.311900  0.303400  0.494300  1.0  0.099
  H  H29  1  0.211800  0.371600  0.471500  1.0  0.1031
  H  H30  1  0.134500  0.373400  0.027400  1.0  0.1021
  H  H31  1  0.221100  0.293500  0.009300  1.0  0.1009
  H  H32  1  0.253900  0.389900  0.990200  1.0  0.1037
  H  H33  1  0.275600  0.330800  0.096600  1.0  0.0854
  H  H34  1  0.394200  0.349800  0.059400  1.0  0.1016
  H  H35  1  0.197700  0.633200  0.139100  1.0  0.1135
  H  H36  1  0.404700  0.655200  0.093000  1.0  0.1088
  H  H37  1  0.701100  0.657300  0.671100  1.0  0.1193
  H  H38  1  0.406600  0.833400  0.673700  1.0  0.1148
  H  H39  1  0.406900  0.499500  0.886300  1.0  0.1066
  H  H40  1  0.341000  0.593200  0.884500  1.0  0.0793
  H  H41  1  0.558200  0.754100  0.535500  1.0  0.1077
  H  H42  1  0.616400  0.671300  0.826200  1.0  0.1298
  H  H43  1  0.534900  0.490600  0.808600  1.0  0.1062
  H  H44  1  0.176400  0.586000  0.793100  1.0  0.1123
  H  H45  1  0.341100  0.858500  0.830500  1.0  0.125
  H  H46  1  0.478000  0.754200  0.967100  1.0  0.1006
  H  H47  1  0.222500  0.364900  0.853500  1.0  0.1224
  H  H48  1  0.006500  0.346100  0.891300  1.0  0.0964
  H  H49  1  0.563700  0.500700  0.717600  1.0  0.1034
  H  H50  1  0.407200  0.599600  0.627300  1.0  0.0939
  H  H51  1  0.475400  0.506800  0.630700  1.0  0.0999
  H  H52  1  0.150300  0.663600  0.903900  1.0  0.0843
  H  H53  1  0.029700  0.644700  0.940000  1.0  0.0952
  H  H54  1  0.201400  0.592600  0.701300  1.0  0.1175
  H  H55  1  0.173500  0.595400  0.007200  1.0  0.0982
  H  H56  1  0.188100  0.696600  0.994300  1.0  0.1002
  H  H57  1  0.288200  0.628400  0.971500  1.0  0.1033
  H  H58  1  0.365500  0.626600  0.527400  1.0  0.1048
  H  H59  1  0.278900  0.706500  0.509300  1.0  0.1027
  H  H60  1  0.246100  0.610100  0.490200  1.0  0.1036
  H  H61  1  0.224400  0.669200  0.596600  1.0  0.0852
  H  H62  1  0.105800  0.650200  0.559400  1.0  0.1019
  H  H63  1  0.302300  0.366800  0.639100  1.0  0.1142
  H  H64  1  0.095300  0.344800  0.593000  1.0  0.109
  H  H65  1  0.201100  0.842700  0.328900  1.0  0.1192
  H  H66  1  0.906600  0.666667  0.326300  1.0  0.1144
  H  H67  1  0.906900  0.000500  0.113700  1.0  0.1067
  H  H68  1  0.841000  0.906800  0.115500  1.0  0.0802
  H  H69  1  0.058200  0.745900  0.464500  1.0  0.1058
  H  H70  1  0.116400  0.828700  0.173800  1.0  0.1297
  H  H71  1  0.034900  0.009400  0.191400  1.0  0.1059
  H  H72  1  0.676400  0.914000  0.206900  1.0  0.1126
  H  H73  1  0.841100  0.641500  0.169500  1.0  0.1253
  H  H74  1  0.978000  0.745800  0.032900  1.0  0.1003
  H  H75  1  0.722500  0.135100  0.146500  1.0  0.1223
  H  H76  1  0.506500  0.153900  0.108700  1.0  0.0975
  H  H77  1  0.063700  0.999300  0.282400  1.0  0.1034
  H  H78  1  0.907200  0.900400  0.372700  1.0  0.0938
  H  H79  1  0.975400  0.993200  0.369300  1.0  0.0999
  H  H80  1  0.650300  0.836400  0.096100  1.0  0.0858
  H  H81  1  0.529700  0.855300  0.060000  1.0  0.0961
  H  H82  1  0.701400  0.907400  0.298700  1.0  0.1168
  H  H83  1  0.673500  0.904600  0.992800  1.0  0.0978
  H  H84  1  0.688100  0.803400  0.005700  1.0  0.0993
  H  H85  1  0.788200  0.871600  0.028500  1.0  0.1045
  H  H86  1  0.865500  0.873400  0.472600  1.0  0.1042
  H  H87  1  0.778900  0.793500  0.490700  1.0  0.1016
  H  H88  1  0.746100  0.889900  0.509800  1.0  0.1032
  H  H89  1  0.724400  0.830800  0.403400  1.0  0.0849
  H  H90  1  0.605800  0.849800  0.440600  1.0  0.1026
  H  H91  1  0.802300  0.133200  0.360900  1.0  0.1146
  H  H92  1  0.595300  0.155200  0.407000  1.0  0.1094
  H  H93  1  0.298900  0.157300  0.828900  1.0  0.1195
  H  H94  1  0.593400  0.333400  0.826300  1.0  0.1153
  H  H95  1  0.593100  0.999500  0.613700  1.0  0.1061
  H  H96  1  0.659000  0.093200  0.615500  1.0  0.0796
  H  H97  1  0.441800  0.254100  0.964500  1.0  0.1058
  H  H98  1  0.383600  0.171300  0.673800  1.0  0.1294
  H  H99  1  0.465100  0.990600  0.691400  1.0  0.1057
  H  H100  1  0.823600  0.086000  0.706900  1.0  0.1119
  H  H101  1  0.658900  0.358500  0.669500  1.0  0.1242
  H  H102  1  0.522000  0.254200  0.532900  1.0  0.1004
  H  H103  1  0.777500  0.864900  0.646500  1.0  0.1219
  H  H104  1  0.993500  0.846100  0.608700  1.0  0.0971
  H  H105  1  0.436300  0.000700  0.782400  1.0  0.1021
  H  H106  1  0.592800  0.099600  0.872700  1.0  0.0939
  H  H107  1  0.524600  0.006800  0.869300  1.0  0.1016
  H  H108  1  0.849700  0.163600  0.596100  1.0  0.0835
  H  H109  1  0.970300  0.144700  0.560000  1.0  0.0922
  H  H110  1  0.798600  0.092600  0.798700  1.0  0.1174
  H  H111  1  0.826500  0.095400  0.492800  1.0  0.0987
  H  H112  1  0.811900  0.196600  0.505700  1.0  0.1007
  H  H113  1  0.711800  0.128400  0.528500  1.0  0.1039
  H  H114  1  0.634500  0.126600  0.972600  1.0  0.1019
  H  H115  1  0.721100  0.206500  0.990700  1.0  0.1022
  H  H116  1  0.753900  0.110100  0.009800  1.0  0.1038
  H  H117  1  0.775600  0.169200  0.903400  1.0  0.085
  H  H118  1  0.894200  0.150200  0.940600  1.0  0.1025
  H  H119  1  0.697700  0.866800  0.860900  1.0  0.1148
  H  H120  1  0.904700  0.844800  0.907000  1.0  0.1087
  C  C121  1  0.178000  0.117000  0.437100  1.0  0.7181
  C  C122  1  0.025000  0.195000  0.100200  1.0  -0.0951
  C  C123  1  0.860000  0.306000  0.099300  1.0  -0.0688
  C  C124  1  0.871000  0.370000  0.429600  1.0  0.6754
  C  C125  1  0.946000  0.300000  0.401200  1.0  -0.0969
  C  C126  1  0.102000  0.181000  0.404800  1.0  -0.164
  C  C127  1  0.021000  0.234000  0.320900  1.0  0.1559
  C  C128  1  0.858000  0.307000  0.153300  1.0  -0.1228
  C  C129  1  0.946000  0.255000  0.182700  1.0  0.131
  C  C130  1  0.032000  0.200000  0.155200  1.0  -0.0412
  C  C131  1  0.163000  0.467000  0.370600  1.0  -0.0601
  C  C132  1  0.943000  0.248000  0.072500  1.0  -0.0858
  C  C133  1  0.940000  0.294000  0.345800  1.0  -0.0747
  C  C134  1  0.146000  0.464000  0.310000  1.0  0.0286
  C  C135  1  0.032000  0.489000  0.287300  1.0  -0.1131
  C  C136  1  0.247000  0.433000  0.277600  1.0  -0.0788
  C  C137  1  0.103000  0.179000  0.348700  1.0  -0.121
  C  C138  1  0.384000  0.469000  0.413400  1.0  0.3321
  C  C139  1  0.115000  0.459000  0.199300  1.0  0.0643
  C  C140  1  0.023000  0.243000  0.430200  1.0  -0.0781
  C  C141  1  0.325000  0.593000  0.372600  1.0  -0.1277
  C  C142  1  0.443000  0.603000  0.393700  1.0  0.0415
  C  C143  1  0.016000  0.485000  0.232300  1.0  -0.0995
  C  C144  1  0.102000  0.461000  0.140200  1.0  -0.0153
  C  C145  1  0.383000  0.374000  0.432200  1.0  -0.1753
  C  C146  1  0.232000  0.429000  0.222600  1.0  -0.0828
  C  C147  1  0.301000  0.362000  0.480600  1.0  -0.3044
  C  C148  1  0.105000  0.126000  0.070200  1.0  0.6968
  C  C149  1  0.777000  0.369000  0.067400  1.0  0.6704
  C  C150  1  0.308000  0.463000  0.086000  1.0  0.3304
  C  C151  1  0.221000  0.355000  0.019200  1.0  -0.3114
  C  C152  1  0.307000  0.368000  0.067900  1.0  -0.1775
  C  C153  1  0.245000  0.590000  0.120900  1.0  -0.1255
  C  C154  1  0.360000  0.602000  0.095400  1.0  0.0291
  C  C155  1  0.322000  0.883000  0.937100  1.0  0.7175
  C  C156  1  0.475000  0.805000  0.600200  1.0  -0.0952
  C  C157  1  0.640000  0.694000  0.599300  1.0  -0.0663
  C  C158  1  0.629000  0.630000  0.929600  1.0  0.6752
  C  C159  1  0.554000  0.700000  0.901200  1.0  -0.0946
  C  C160  1  0.398000  0.819000  0.904800  1.0  -0.1637
  C  C161  1  0.479000  0.766000  0.820900  1.0  0.155
  C  C162  1  0.642000  0.693000  0.653300  1.0  -0.122
  C  C163  1  0.554000  0.745000  0.682700  1.0  0.1303
  C  C164  1  0.468000  0.800000  0.655200  1.0  -0.0414
  C  C165  1  0.337000  0.533000  0.870600  1.0  -0.059
  C  C166  1  0.557000  0.752000  0.572500  1.0  -0.0859
  C  C167  1  0.560000  0.706000  0.845800  1.0  -0.0758
  C  C168  1  0.354000  0.536000  0.810000  1.0  0.0286
  C  C169  1  0.468000  0.511000  0.787300  1.0  -0.1138
  C  C170  1  0.253000  0.567000  0.777600  1.0  -0.0795
  C  C171  1  0.397000  0.821000  0.848700  1.0  -0.1206
  C  C172  1  0.116000  0.531000  0.913400  1.0  0.3302
  C  C173  1  0.385000  0.541000  0.699300  1.0  0.0645
  C  C174  1  0.477000  0.757000  0.930200  1.0  -0.0782
  C  C175  1  0.175000  0.407000  0.872600  1.0  -0.1297
  C  C176  1  0.057000  0.397000  0.893700  1.0  0.0391
  C  C177  1  0.484000  0.515000  0.732300  1.0  -0.1021
  C  C178  1  0.398000  0.539000  0.640200  1.0  -0.0162
  C  C179  1  0.117000  0.626000  0.932200  1.0  -0.1732
  C  C180  1  0.268000  0.571000  0.722600  1.0  -0.0823
  C  C181  1  0.199000  0.638000  0.980600  1.0  -0.3053
  C  C182  1  0.395000  0.874000  0.570200  1.0  0.6966
  C  C183  1  0.723000  0.631000  0.567400  1.0  0.6697
  C  C184  1  0.192000  0.537000  0.586000  1.0  0.3299
  C  C185  1  0.279000  0.645000  0.519200  1.0  -0.3128
  C  C186  1  0.193000  0.632000  0.567900  1.0  -0.1789
  C  C187  1  0.255000  0.410000  0.620900  1.0  -0.1267
  C  C188  1  0.140000  0.398000  0.595400  1.0  0.0292
  C  C189  1  0.822000  0.617000  0.062900  1.0  0.7179
  C  C190  1  0.975000  0.695000  0.399800  1.0  -0.0955
  C  C191  1  0.140000  0.806000  0.400700  1.0  -0.0662
  C  C192  1  0.129000  0.870000  0.070400  1.0  0.674
  C  C193  1  0.054000  0.800000  0.098800  1.0  -0.0946
  C  C194  1  0.898000  0.681000  0.095200  1.0  -0.1642
  C  C195  1  0.979000  0.734000  0.179100  1.0  0.1556
  C  C196  1  0.142000  0.807000  0.346700  1.0  -0.123
  C  C197  1  0.054000  0.755000  0.317300  1.0  0.1301
  C  C198  1  0.968000  0.700000  0.344800  1.0  -0.0397
  C  C199  1  0.837000  0.967000  0.129400  1.0  -0.0592
  C  C200  1  0.057000  0.748000  0.427500  1.0  -0.0892
  C  C201  1  0.060000  0.794000  0.154200  1.0  -0.0751
  C  C202  1  0.854000  0.964000  0.190000  1.0  0.0288
  C  C203  1  0.968000  0.989000  0.212700  1.0  -0.115
  C  C204  1  0.753000  0.933000  0.222400  1.0  -0.0801
  C  C205  1  0.897000  0.679000  0.151300  1.0  -0.12
  C  C206  1  0.616000  0.969000  0.086600  1.0  0.3295
  C  C207  1  0.885000  0.959000  0.300700  1.0  0.0645
  C  C208  1  0.977000  0.743000  0.069800  1.0  -0.0758
  C  C209  1  0.675000  0.093000  0.127400  1.0  -0.1314
  C  C210  1  0.557000  0.103000  0.106300  1.0  0.0399
  C  C211  1  0.984000  0.985000  0.267700  1.0  -0.1029
  C  C212  1  0.898000  0.961000  0.359800  1.0  -0.0162
  C  C213  1  0.617000  0.874000  0.067800  1.0  -0.1765
  C  C214  1  0.768000  0.929000  0.277400  1.0  -0.083
  C  C215  1  0.699000  0.862000  0.019400  1.0  -0.3034
  C  C216  1  0.895000  0.626000  0.429800  1.0  0.6965
  C  C217  1  0.223000  0.869000  0.432600  1.0  0.6697
  C  C218  1  0.692000  0.963000  0.414000  1.0  0.3298
  C  C219  1  0.779000  0.855000  0.480800  1.0  -0.3124
  C  C220  1  0.693000  0.868000  0.432100  1.0  -0.1796
  C  C221  1  0.755000  0.090000  0.379100  1.0  -0.1288
  C  C222  1  0.640000  0.102000  0.404600  1.0  0.0296
  C  C223  1  0.678000  0.383000  0.562900  1.0  0.7166
  C  C224  1  0.525000  0.305000  0.899800  1.0  -0.0948
  C  C225  1  0.360000  0.194000  0.900700  1.0  -0.0685
  C  C226  1  0.371000  0.130000  0.570400  1.0  0.6748
  C  C227  1  0.446000  0.200000  0.598800  1.0  -0.0972
  C  C228  1  0.602000  0.319000  0.595200  1.0  -0.1634
  C  C229  1  0.521000  0.266000  0.679100  1.0  0.1552
  C  C230  1  0.358000  0.193000  0.846700  1.0  -0.1229
  C  C231  1  0.446000  0.245000  0.817300  1.0  0.1303
  C  C232  1  0.532000  0.300000  0.844800  1.0  -0.042
  C  C233  1  0.663000  0.033000  0.629400  1.0  -0.0596
  C  C234  1  0.443000  0.252000  0.927500  1.0  -0.0897
  C  C235  1  0.440000  0.206000  0.654200  1.0  -0.0743
  C  C236  1  0.646000  0.036000  0.690000  1.0  0.0284
  C  C237  1  0.532000  0.011000  0.712700  1.0  -0.1132
  C  C238  1  0.747000  0.067000  0.722400  1.0  -0.0793
  C  C239  1  0.603000  0.321000  0.651300  1.0  -0.1214
  C  C240  1  0.884000  0.031000  0.586600  1.0  0.3309
  C  C241  1  0.615000  0.041000  0.800700  1.0  0.064
  C  C242  1  0.523000  0.257000  0.569800  1.0  -0.0757
  C  C243  1  0.825000  0.907000  0.627400  1.0  -0.1312
  C  C244  1  0.943000  0.897000  0.606300  1.0  0.0401
  C  C245  1  0.516000  0.015000  0.767700  1.0  -0.0994
  C  C246  1  0.602000  0.039000  0.859800  1.0  -0.0161
  C  C247  1  0.883000  0.126000  0.567800  1.0  -0.1748
  C  C248  1  0.732000  0.071000  0.777400  1.0  -0.082
  C  C249  1  0.801000  0.138000  0.519400  1.0  -0.3024
  C  C250  1  0.605000  0.374000  0.929800  1.0  0.6962
  C  C251  1  0.277000  0.131000  0.932600  1.0  0.6713
  C  C252  1  0.808000  0.037000  0.914000  1.0  0.3295
  C  C253  1  0.721000  0.145000  0.980800  1.0  -0.3114
  C  C254  1  0.807000  0.132000  0.932100  1.0  -0.1767
  C  C255  1  0.745000  0.910000  0.879100  1.0  -0.1289
  C  C256  1  0.860000  0.898000  0.904600  1.0  0.0281
  N  N257  1  0.287000  0.507000  0.385800  1.0  0.018
  N  N258  1  0.938000  0.261600  0.239100  1.0  -0.195
  N  N259  1  0.480000  0.526500  0.419300  1.0  -0.418
  N  N260  1  0.028000  0.224800  0.263400  1.0  -0.1822
  N  N261  1  0.214000  0.502000  0.114200  1.0  0.0707
  N  N262  1  0.399000  0.522800  0.073800  1.0  -0.4134
  N  N263  1  0.213000  0.493000  0.885800  1.0  0.0162
  N  N264  1  0.562000  0.738400  0.739100  1.0  -0.1955
  N  N265  1  0.020000  0.473500  0.919300  1.0  -0.4175
  N  N266  1  0.472000  0.775200  0.763400  1.0  -0.1816
  N  N267  1  0.286000  0.498000  0.614200  1.0  0.07
  N  N268  1  0.101000  0.477200  0.573800  1.0  -0.4154
  N  N269  1  0.713000  0.007000  0.114200  1.0  0.0141
  N  N270  1  0.062000  0.761600  0.260900  1.0  -0.196
  N  N271  1  0.520000  0.026500  0.080700  1.0  -0.4157
  N  N272  1  0.972000  0.724800  0.236600  1.0  -0.1817
  N  N273  1  0.786000  0.002000  0.385800  1.0  0.07
  N  N274  1  0.601000  0.022800  0.426200  1.0  -0.4168
  N  N275  1  0.787000  0.993000  0.614200  1.0  0.0154
  N  N276  1  0.438000  0.238400  0.760900  1.0  -0.1959
  N  N277  1  0.980000  0.973500  0.580700  1.0  -0.4177
  N  N278  1  0.528000  0.275200  0.736600  1.0  -0.1828
  N  N279  1  0.714000  0.998000  0.885800  1.0  0.0713
  N  N280  1  0.899000  0.977200  0.926200  1.0  -0.4141
  O  O281  1  0.133000  0.097200  0.482200  1.0  -0.6542
  O  O282  1  0.281000  0.088000  0.417200  1.0  -0.5903
  O  O283  1  0.773000  0.401400  0.408000  1.0  -0.6014
  O  O284  1  0.917000  0.394000  0.474100  1.0  -0.7162
  O  O285  1  0.054000  0.097400  0.028700  1.0  -0.6456
  O  O286  1  0.211000  0.104800  0.090200  1.0  -0.5911
  O  O287  1  0.828000  0.396700  0.024600  1.0  -0.7389
  O  O288  1  0.667000  0.386800  0.086900  1.0  -0.6149
  O  O289  1  0.367000  0.902800  0.982200  1.0  -0.6561
  O  O290  1  0.219000  0.912000  0.917200  1.0  -0.5903
  O  O291  1  0.727000  0.598600  0.908000  1.0  -0.6037
  O  O292  1  0.583000  0.606000  0.974100  1.0  -0.7143
  O  O293  1  0.446000  0.902600  0.528700  1.0  -0.6456
  O  O294  1  0.289000  0.895200  0.590200  1.0  -0.5905
  O  O295  1  0.672000  0.603300  0.524600  1.0  -0.7393
  O  O296  1  0.833000  0.613200  0.586900  1.0  -0.6162
  O  O297  1  0.867000  0.597200  0.017800  1.0  -0.6566
  O  O298  1  0.719000  0.588000  0.082800  1.0  -0.5893
  O  O299  1  0.227000  0.901400  0.092000  1.0  -0.6025
  O  O300  1  0.083000  0.894000  0.025900  1.0  -0.714
  O  O301  1  0.946000  0.597400  0.471300  1.0  -0.6448
  O  O302  1  0.789000  0.604800  0.409800  1.0  -0.5914
  O  O303  1  0.172000  0.896700  0.475400  1.0  -0.7389
  O  O304  1  0.333000  0.886800  0.413100  1.0  -0.6175
  O  O305  1  0.633000  0.402800  0.517800  1.0  -0.6548
  O  O306  1  0.781000  0.412000  0.582800  1.0  -0.5909
  O  O307  1  0.273000  0.098600  0.592000  1.0  -0.6012
  O  O308  1  0.417000  0.106000  0.525900  1.0  -0.7154
  O  O309  1  0.554000  0.402600  0.971300  1.0  -0.6452
  O  O310  1  0.711000  0.395200  0.909800  1.0  -0.5921
  O  O311  1  0.328000  0.103300  0.975400  1.0  -0.7388
  O  O312  1  0.167000  0.113200  0.913100  1.0  -0.6157
