# generated using pymatgen
data_LaH3C7NO4
_symmetry_space_group_name_H-M   'P 1'
_cell_length_a   20.36610000
_cell_length_b   20.36610000
_cell_length_c   20.36610000
_cell_angle_alpha   90.00000000
_cell_angle_beta   90.00000000
_cell_angle_gamma   90.00000000
_symmetry_Int_Tables_number   1
_chemical_formula_structural   LaH3C7NO4
_chemical_formula_sum   'La24 H72 C168 N24 O96'
_cell_volume   8447.41082069
_cell_formula_units_Z   24
loop_
 _symmetry_equiv_pos_site_id
 _symmetry_equiv_pos_as_xyz
  1  'x, y, z'
loop_
 _atom_site_type_symbol
 _atom_site_label
 _atom_site_symmetry_multiplicity
 _atom_site_fract_x
 _atom_site_fract_y
 _atom_site_fract_z
 _atom_site_occupancy
 _atom_site_charge
  La  La1  1  0.742760  0.145550  0.012690  1.0  2.0613
  La  La2  1  0.757240  0.854450  0.512690  1.0  2.0619
  La  La3  1  0.257240  0.645550  0.487310  1.0  2.0611
  La  La4  1  0.242760  0.354450  0.987310  1.0  2.0619
  La  La5  1  0.012690  0.742760  0.145550  1.0  2.0582
  La  La6  1  0.512690  0.757240  0.854450  1.0  2.0605
  La  La7  1  0.487310  0.257240  0.645550  1.0  2.0596
  La  La8  1  0.987310  0.242760  0.354450  1.0  2.0618
  La  La9  1  0.145550  0.012690  0.742760  1.0  2.0609
  La  La10  1  0.854450  0.512690  0.757240  1.0  2.0597
  La  La11  1  0.645550  0.487310  0.257240  1.0  2.0605
  La  La12  1  0.354450  0.987310  0.242760  1.0  2.0596
  La  La13  1  0.257240  0.854450  0.987310  1.0  2.0618
  La  La14  1  0.242760  0.145550  0.487310  1.0  2.0611
  La  La15  1  0.742760  0.354450  0.512690  1.0  2.0619
  La  La16  1  0.757240  0.645550  0.012690  1.0  2.0613
  La  La17  1  0.987310  0.257240  0.854450  1.0  2.0618
  La  La18  1  0.487310  0.242760  0.145550  1.0  2.0596
  La  La19  1  0.512690  0.742760  0.354450  1.0  2.0605
  La  La20  1  0.012690  0.757240  0.645550  1.0  2.0582
  La  La21  1  0.854450  0.987310  0.257240  1.0  2.0596
  La  La22  1  0.145550  0.487310  0.242760  1.0  2.0605
  La  La23  1  0.354450  0.512690  0.742760  1.0  2.0597
  La  La24  1  0.645550  0.012690  0.757240  1.0  2.0609
  H  H25  1  0.816300  0.401800  0.950600  1.0  0.091
  H  H26  1  0.726300  0.457000  0.993900  1.0  0.0796
  H  H27  1  0.639800  0.396300  0.038800  1.0  0.0889
  H  H28  1  0.683700  0.598200  0.450600  1.0  0.0905
  H  H29  1  0.773700  0.543000  0.493900  1.0  0.0792
  H  H30  1  0.860200  0.603700  0.538800  1.0  0.0889
  H  H31  1  0.183700  0.901800  0.549400  1.0  0.09
  H  H32  1  0.273700  0.957000  0.506100  1.0  0.0798
  H  H33  1  0.360200  0.896300  0.461200  1.0  0.0893
  H  H34  1  0.316300  0.098200  0.049400  1.0  0.0904
  H  H35  1  0.226300  0.043000  0.006100  1.0  0.0791
  H  H36  1  0.139800  0.103700  0.961200  1.0  0.0891
  H  H37  1  0.950600  0.816300  0.401800  1.0  0.0906
  H  H38  1  0.993900  0.726300  0.457000  1.0  0.0812
  H  H39  1  0.038800  0.639800  0.396300  1.0  0.0888
  H  H40  1  0.450600  0.683700  0.598200  1.0  0.0904
  H  H41  1  0.493900  0.773700  0.543000  1.0  0.0811
  H  H42  1  0.538800  0.860200  0.603700  1.0  0.0891
  H  H43  1  0.549400  0.183700  0.901800  1.0  0.0903
  H  H44  1  0.506100  0.273700  0.957000  1.0  0.081
  H  H45  1  0.461200  0.360200  0.896300  1.0  0.089
  H  H46  1  0.049400  0.316300  0.098200  1.0  0.091
  H  H47  1  0.006100  0.226300  0.043000  1.0  0.0807
  H  H48  1  0.961200  0.139800  0.103700  1.0  0.0888
  H  H49  1  0.401800  0.950600  0.816300  1.0  0.0912
  H  H50  1  0.457000  0.993900  0.726300  1.0  0.0827
  H  H51  1  0.396300  0.038800  0.639800  1.0  0.0885
  H  H52  1  0.598200  0.450600  0.683700  1.0  0.0909
  H  H53  1  0.543000  0.493900  0.773700  1.0  0.081
  H  H54  1  0.603700  0.538800  0.860200  1.0  0.0885
  H  H55  1  0.901800  0.549400  0.183700  1.0  0.0912
  H  H56  1  0.957000  0.506100  0.273700  1.0  0.0826
  H  H57  1  0.896300  0.461200  0.360200  1.0  0.0883
  H  H58  1  0.098200  0.049400  0.316300  1.0  0.0912
  H  H59  1  0.043000  0.006100  0.226300  1.0  0.0813
  H  H60  1  0.103700  0.961200  0.139800  1.0  0.0884
  H  H61  1  0.183700  0.598200  0.049400  1.0  0.0902
  H  H62  1  0.273700  0.543000  0.006100  1.0  0.079
  H  H63  1  0.360200  0.603700  0.961200  1.0  0.089
  H  H64  1  0.316300  0.401800  0.549400  1.0  0.0905
  H  H65  1  0.226300  0.457000  0.506100  1.0  0.0797
  H  H66  1  0.139800  0.396300  0.461200  1.0  0.0889
  H  H67  1  0.816300  0.098200  0.450600  1.0  0.0907
  H  H68  1  0.726300  0.043000  0.493900  1.0  0.0792
  H  H69  1  0.639800  0.103700  0.538800  1.0  0.0891
  H  H70  1  0.683700  0.901800  0.950600  1.0  0.0905
  H  H71  1  0.773700  0.957000  0.993900  1.0  0.0797
  H  H72  1  0.860200  0.896300  0.038800  1.0  0.089
  H  H73  1  0.049400  0.183700  0.598200  1.0  0.0903
  H  H74  1  0.006100  0.273700  0.543000  1.0  0.0807
  H  H75  1  0.961200  0.360200  0.603700  1.0  0.0889
  H  H76  1  0.549400  0.316300  0.401800  1.0  0.0905
  H  H77  1  0.506100  0.226300  0.457000  1.0  0.0811
  H  H78  1  0.461200  0.139800  0.396300  1.0  0.089
  H  H79  1  0.450600  0.816300  0.098200  1.0  0.0911
  H  H80  1  0.493900  0.726300  0.043000  1.0  0.081
  H  H81  1  0.538800  0.639800  0.103700  1.0  0.0889
  H  H82  1  0.950600  0.683700  0.901800  1.0  0.0905
  H  H83  1  0.993900  0.773700  0.957000  1.0  0.0811
  H  H84  1  0.038800  0.860200  0.896300  1.0  0.0889
  H  H85  1  0.598200  0.049400  0.183700  1.0  0.0909
  H  H86  1  0.543000  0.006100  0.273700  1.0  0.081
  H  H87  1  0.603700  0.961200  0.360200  1.0  0.0888
  H  H88  1  0.401800  0.549400  0.316300  1.0  0.0912
  H  H89  1  0.457000  0.506100  0.226300  1.0  0.0828
  H  H90  1  0.396300  0.461200  0.139800  1.0  0.0885
  H  H91  1  0.098200  0.450600  0.816300  1.0  0.0913
  H  H92  1  0.043000  0.493900  0.726300  1.0  0.0811
  H  H93  1  0.103700  0.538800  0.639800  1.0  0.088
  H  H94  1  0.901800  0.950600  0.683700  1.0  0.0912
  H  H95  1  0.957000  0.993900  0.773700  1.0  0.0827
  H  H96  1  0.896300  0.038800  0.860200  1.0  0.0884
  C  C97  1  0.839300  0.269100  0.947900  1.0  0.6705
  C  C98  1  0.783600  0.311100  0.974100  1.0  0.0748
  C  C99  1  0.781900  0.378700  0.970000  1.0  -0.1512
  C  C100  1  0.728200  0.411400  0.995200  1.0  -0.1111
  C  C101  1  0.676900  0.375400  0.022400  1.0  -0.136
  C  C102  1  0.682500  0.308100  0.024500  1.0  0.0718
  C  C103  1  0.630500  0.263600  0.053300  1.0  0.6612
  C  C104  1  0.660700  0.730900  0.447900  1.0  0.671
  C  C105  1  0.716400  0.688900  0.474100  1.0  0.074
  C  C106  1  0.718100  0.621300  0.470000  1.0  -0.151
  C  C107  1  0.771800  0.588600  0.495200  1.0  -0.1115
  C  C108  1  0.823100  0.624600  0.522400  1.0  -0.136
  C  C109  1  0.817500  0.691900  0.524500  1.0  0.0716
  C  C110  1  0.869500  0.736400  0.553300  1.0  0.6617
  C  C111  1  0.160700  0.769100  0.552100  1.0  0.671
  C  C112  1  0.216400  0.811100  0.525900  1.0  0.0738
  C  C113  1  0.218100  0.878700  0.530000  1.0  -0.151
  C  C114  1  0.271800  0.911400  0.504800  1.0  -0.1102
  C  C115  1  0.323100  0.875400  0.477600  1.0  -0.136
  C  C116  1  0.317500  0.808100  0.475500  1.0  0.0724
  C  C117  1  0.369500  0.763600  0.446700  1.0  0.6611
  C  C118  1  0.339300  0.230900  0.052100  1.0  0.6711
  C  C119  1  0.283600  0.188900  0.025900  1.0  0.074
  C  C120  1  0.281900  0.121300  0.030000  1.0  -0.1516
  C  C121  1  0.228200  0.088600  0.004800  1.0  -0.1117
  C  C122  1  0.176900  0.124600  0.977600  1.0  -0.1368
  C  C123  1  0.182500  0.191900  0.975500  1.0  0.072
  C  C124  1  0.130500  0.236400  0.946700  1.0  0.6619
  C  C125  1  0.947900  0.839300  0.269100  1.0  0.6707
  C  C126  1  0.974100  0.783600  0.311100  1.0  0.0737
  C  C127  1  0.970000  0.781900  0.378700  1.0  -0.1519
  C  C128  1  0.995200  0.728200  0.411400  1.0  -0.1144
  C  C129  1  0.022400  0.676900  0.375400  1.0  -0.1359
  C  C130  1  0.024500  0.682500  0.308100  1.0  0.0739
  C  C131  1  0.053300  0.630500  0.263600  1.0  0.6636
  C  C132  1  0.447900  0.660700  0.730900  1.0  0.6721
  C  C133  1  0.474100  0.716400  0.688900  1.0  0.0736
  C  C134  1  0.470000  0.718100  0.621300  1.0  -0.1523
  C  C135  1  0.495200  0.771800  0.588600  1.0  -0.1158
  C  C136  1  0.522400  0.823100  0.624600  1.0  -0.1347
  C  C137  1  0.524500  0.817500  0.691900  1.0  0.0721
  C  C138  1  0.553300  0.869500  0.736400  1.0  0.6637
  C  C139  1  0.552100  0.160700  0.769100  1.0  0.6702
  C  C140  1  0.525900  0.216400  0.811100  1.0  0.0731
  C  C141  1  0.530000  0.218100  0.878700  1.0  -0.1525
  C  C142  1  0.504800  0.271800  0.911400  1.0  -0.1155
  C  C143  1  0.477600  0.323100  0.875400  1.0  -0.1363
  C  C144  1  0.475500  0.317500  0.808100  1.0  0.0741
  C  C145  1  0.446700  0.369500  0.763600  1.0  0.663
  C  C146  1  0.052100  0.339300  0.230900  1.0  0.6704
  C  C147  1  0.025900  0.283600  0.188900  1.0  0.0732
  C  C148  1  0.030000  0.281900  0.121300  1.0  -0.1517
  C  C149  1  0.004800  0.228200  0.088600  1.0  -0.116
  C  C150  1  0.977600  0.176900  0.124600  1.0  -0.1359
  C  C151  1  0.975500  0.182500  0.191900  1.0  0.0729
  C  C152  1  0.946700  0.130500  0.236400  1.0  0.6631
  C  C153  1  0.269100  0.947900  0.839300  1.0  0.6704
  C  C154  1  0.311100  0.974100  0.783600  1.0  0.0745
  C  C155  1  0.378700  0.970000  0.781900  1.0  -0.153
  C  C156  1  0.411400  0.995200  0.728200  1.0  -0.1159
  C  C157  1  0.375400  0.022400  0.676900  1.0  -0.1382
  C  C158  1  0.308100  0.024500  0.682500  1.0  0.0719
  C  C159  1  0.263600  0.053300  0.630500  1.0  0.6622
  C  C160  1  0.730900  0.447900  0.660700  1.0  0.6714
  C  C161  1  0.688900  0.474100  0.716400  1.0  0.075
  C  C162  1  0.621300  0.470000  0.718100  1.0  -0.1521
  C  C163  1  0.588600  0.495200  0.771800  1.0  -0.1181
  C  C164  1  0.624600  0.522400  0.823100  1.0  -0.1405
  C  C165  1  0.691900  0.524500  0.817500  1.0  0.0731
  C  C166  1  0.736400  0.553300  0.869500  1.0  0.6627
  C  C167  1  0.769100  0.552100  0.160700  1.0  0.671
  C  C168  1  0.811100  0.525900  0.216400  1.0  0.0746
  C  C169  1  0.878700  0.530000  0.218100  1.0  -0.1541
  C  C170  1  0.911400  0.504800  0.271800  1.0  -0.1162
  C  C171  1  0.875400  0.477600  0.323100  1.0  -0.1391
  C  C172  1  0.808100  0.475500  0.317500  1.0  0.0722
  C  C173  1  0.763600  0.446700  0.369500  1.0  0.6622
  C  C174  1  0.230900  0.052100  0.339300  1.0  0.6709
  C  C175  1  0.188900  0.025900  0.283600  1.0  0.0744
  C  C176  1  0.121300  0.030000  0.281900  1.0  -0.1521
  C  C177  1  0.088600  0.004800  0.228200  1.0  -0.1182
  C  C178  1  0.124600  0.977600  0.176900  1.0  -0.1382
  C  C179  1  0.191900  0.975500  0.182500  1.0  0.0731
  C  C180  1  0.236400  0.946700  0.130500  1.0  0.662
  C  C181  1  0.160700  0.730900  0.052100  1.0  0.6704
  C  C182  1  0.216400  0.688900  0.025900  1.0  0.0738
  C  C183  1  0.218100  0.621300  0.030000  1.0  -0.1512
  C  C184  1  0.271800  0.588600  0.004800  1.0  -0.1111
  C  C185  1  0.323100  0.624600  0.977600  1.0  -0.1366
  C  C186  1  0.317500  0.691900  0.975500  1.0  0.0721
  C  C187  1  0.369500  0.736400  0.946700  1.0  0.6629
  C  C188  1  0.339300  0.269100  0.552100  1.0  0.6713
  C  C189  1  0.283600  0.311100  0.525900  1.0  0.0743
  C  C190  1  0.281900  0.378700  0.530000  1.0  -0.1513
  C  C191  1  0.228200  0.411400  0.504800  1.0  -0.1109
  C  C192  1  0.176900  0.375400  0.477600  1.0  -0.137
  C  C193  1  0.182500  0.308100  0.475500  1.0  0.0719
  C  C194  1  0.130500  0.263600  0.446700  1.0  0.6606
  C  C195  1  0.839300  0.230900  0.447900  1.0  0.671
  C  C196  1  0.783600  0.188900  0.474100  1.0  0.0742
  C  C197  1  0.781900  0.121300  0.470000  1.0  -0.1514
  C  C198  1  0.728200  0.088600  0.495200  1.0  -0.1121
  C  C199  1  0.676900  0.124600  0.522400  1.0  -0.136
  C  C200  1  0.682500  0.191900  0.524500  1.0  0.0718
  C  C201  1  0.630500  0.236400  0.553300  1.0  0.6604
  C  C202  1  0.660700  0.769100  0.947900  1.0  0.6708
  C  C203  1  0.716400  0.811100  0.974100  1.0  0.0741
  C  C204  1  0.718100  0.878700  0.970000  1.0  -0.151
  C  C205  1  0.771800  0.911400  0.995200  1.0  -0.1105
  C  C206  1  0.823100  0.875400  0.022400  1.0  -0.1354
  C  C207  1  0.817500  0.808100  0.024500  1.0  0.072
  C  C208  1  0.869500  0.763600  0.053300  1.0  0.662
  C  C209  1  0.052100  0.160700  0.730900  1.0  0.6718
  C  C210  1  0.025900  0.216400  0.688900  1.0  0.0738
  C  C211  1  0.030000  0.218100  0.621300  1.0  -0.1526
  C  C212  1  0.004800  0.271800  0.588600  1.0  -0.1163
  C  C213  1  0.977600  0.323100  0.624600  1.0  -0.1355
  C  C214  1  0.975500  0.317500  0.691900  1.0  0.0722
  C  C215  1  0.946700  0.369500  0.736400  1.0  0.6621
  C  C216  1  0.552100  0.339300  0.269100  1.0  0.6704
  C  C217  1  0.525900  0.283600  0.311100  1.0  0.0736
  C  C218  1  0.530000  0.281900  0.378700  1.0  -0.1519
  C  C219  1  0.504800  0.228200  0.411400  1.0  -0.1153
  C  C220  1  0.477600  0.176900  0.375400  1.0  -0.1361
  C  C221  1  0.475500  0.182500  0.308100  1.0  0.0737
  C  C222  1  0.446700  0.130500  0.263600  1.0  0.663
  C  C223  1  0.447900  0.839300  0.230900  1.0  0.6703
  C  C224  1  0.474100  0.783600  0.188900  1.0  0.0734
  C  C225  1  0.470000  0.781900  0.121300  1.0  -0.1515
  C  C226  1  0.495200  0.728200  0.088600  1.0  -0.1154
  C  C227  1  0.522400  0.676900  0.124600  1.0  -0.1357
  C  C228  1  0.524500  0.682500  0.191900  1.0  0.0731
  C  C229  1  0.553300  0.630500  0.236400  1.0  0.6646
  C  C230  1  0.947900  0.660700  0.769100  1.0  0.671
  C  C231  1  0.974100  0.716400  0.811100  1.0  0.0729
  C  C232  1  0.970000  0.718100  0.878700  1.0  -0.1524
  C  C233  1  0.995200  0.771800  0.911400  1.0  -0.1146
  C  C234  1  0.022400  0.823100  0.875400  1.0  -0.1355
  C  C235  1  0.024500  0.817500  0.808100  1.0  0.0739
  C  C236  1  0.053300  0.869500  0.763600  1.0  0.6637
  C  C237  1  0.730900  0.052100  0.160700  1.0  0.6716
  C  C238  1  0.688900  0.025900  0.216400  1.0  0.0748
  C  C239  1  0.621300  0.030000  0.218100  1.0  -0.1524
  C  C240  1  0.588600  0.004800  0.271800  1.0  -0.1187
  C  C241  1  0.624600  0.977600  0.323100  1.0  -0.1393
  C  C242  1  0.691900  0.975500  0.317500  1.0  0.0735
  C  C243  1  0.736400  0.946700  0.369500  1.0  0.6632
  C  C244  1  0.269100  0.552100  0.339300  1.0  0.6696
  C  C245  1  0.311100  0.525900  0.283600  1.0  0.0742
  C  C246  1  0.378700  0.530000  0.281900  1.0  -0.1531
  C  C247  1  0.411400  0.504800  0.228200  1.0  -0.1159
  C  C248  1  0.375400  0.477600  0.176900  1.0  -0.1383
  C  C249  1  0.308100  0.475500  0.182500  1.0  0.0717
  C  C250  1  0.263600  0.446700  0.130500  1.0  0.6618
  C  C251  1  0.230900  0.447900  0.839300  1.0  0.6715
  C  C252  1  0.188900  0.474100  0.783600  1.0  0.0749
  C  C253  1  0.121300  0.470000  0.781900  1.0  -0.152
  C  C254  1  0.088600  0.495200  0.728200  1.0  -0.1177
  C  C255  1  0.124600  0.522400  0.676900  1.0  -0.1385
  C  C256  1  0.191900  0.524500  0.682500  1.0  0.073
  C  C257  1  0.236400  0.553300  0.630500  1.0  0.663
  C  C258  1  0.769100  0.947900  0.660700  1.0  0.6708
  C  C259  1  0.811100  0.974100  0.716400  1.0  0.0745
  C  C260  1  0.878700  0.970000  0.718100  1.0  -0.1538
  C  C261  1  0.911400  0.995200  0.771800  1.0  -0.116
  C  C262  1  0.875400  0.022400  0.823100  1.0  -0.1396
  C  C263  1  0.808100  0.024500  0.817500  1.0  0.0722
  C  C264  1  0.763600  0.053300  0.869500  1.0  0.6613
  N  N265  1  0.735000  0.275700  0.000800  1.0  -0.4984
  N  N266  1  0.765000  0.724300  0.500800  1.0  -0.5024
  N  N267  1  0.265000  0.775700  0.499200  1.0  -0.4988
  N  N268  1  0.235000  0.224300  0.999200  1.0  -0.5012
  N  N269  1  0.000800  0.735000  0.275700  1.0  -0.5035
  N  N270  1  0.500800  0.765000  0.724300  1.0  -0.5048
  N  N271  1  0.499200  0.265000  0.775700  1.0  -0.5033
  N  N272  1  0.999200  0.235000  0.224300  1.0  -0.5054
  N  N273  1  0.275700  0.000800  0.735000  1.0  -0.4981
  N  N274  1  0.724300  0.500800  0.765000  1.0  -0.4997
  N  N275  1  0.775700  0.499200  0.265000  1.0  -0.4987
  N  N276  1  0.224300  0.999200  0.235000  1.0  -0.4996
  N  N277  1  0.265000  0.724300  0.999200  1.0  -0.5023
  N  N278  1  0.235000  0.275700  0.499200  1.0  -0.4983
  N  N279  1  0.735000  0.224300  0.500800  1.0  -0.5012
  N  N280  1  0.765000  0.775700  0.000800  1.0  -0.499
  N  N281  1  0.999200  0.265000  0.724300  1.0  -0.5053
  N  N282  1  0.499200  0.235000  0.275700  1.0  -0.5036
  N  N283  1  0.500800  0.735000  0.224300  1.0  -0.505
  N  N284  1  0.000800  0.765000  0.775700  1.0  -0.5033
  N  N285  1  0.724300  0.999200  0.265000  1.0  -0.4998
  N  N286  1  0.275700  0.499200  0.235000  1.0  -0.4984
  N  N287  1  0.224300  0.500800  0.735000  1.0  -0.4995
  N  N288  1  0.775700  0.000800  0.765000  1.0  -0.4984
  O  O289  1  0.835100  0.208500  0.960000  1.0  -0.7255
  O  O290  1  0.884000  0.295800  0.915800  1.0  -0.739
  O  O291  1  0.642300  0.202600  0.053000  1.0  -0.7195
  O  O292  1  0.579600  0.289600  0.076000  1.0  -0.7078
  O  O293  1  0.664900  0.791500  0.460000  1.0  -0.7262
  O  O294  1  0.616000  0.704200  0.415800  1.0  -0.7398
  O  O295  1  0.857700  0.797400  0.553000  1.0  -0.7175
  O  O296  1  0.920400  0.710400  0.576000  1.0  -0.7083
  O  O297  1  0.164900  0.708500  0.540000  1.0  -0.7255
  O  O298  1  0.116000  0.795800  0.584200  1.0  -0.739
  O  O299  1  0.357700  0.702600  0.447000  1.0  -0.7214
  O  O300  1  0.420400  0.789600  0.424000  1.0  -0.709
  O  O301  1  0.335100  0.291500  0.040000  1.0  -0.7254
  O  O302  1  0.384000  0.204200  0.084200  1.0  -0.7387
  O  O303  1  0.142300  0.297400  0.947000  1.0  -0.7187
  O  O304  1  0.079600  0.210400  0.924000  1.0  -0.7098
  O  O305  1  0.960000  0.835100  0.208500  1.0  -0.7266
  O  O306  1  0.915800  0.884000  0.295800  1.0  -0.7381
  O  O307  1  0.053000  0.642300  0.202600  1.0  -0.724
  O  O308  1  0.076000  0.579600  0.289600  1.0  -0.7035
  O  O309  1  0.460000  0.664900  0.791500  1.0  -0.7266
  O  O310  1  0.415800  0.616000  0.704200  1.0  -0.7377
  O  O311  1  0.553000  0.857700  0.797400  1.0  -0.7262
  O  O312  1  0.576000  0.920400  0.710400  1.0  -0.7039
  O  O313  1  0.540000  0.164900  0.708500  1.0  -0.7269
  O  O314  1  0.584200  0.116000  0.795800  1.0  -0.737
  O  O315  1  0.447000  0.357700  0.702600  1.0  -0.7242
  O  O316  1  0.424000  0.420400  0.789600  1.0  -0.7063
  O  O317  1  0.040000  0.335100  0.291500  1.0  -0.7276
  O  O318  1  0.084200  0.384000  0.204200  1.0  -0.7374
  O  O319  1  0.947000  0.142300  0.297400  1.0  -0.7267
  O  O320  1  0.924000  0.079600  0.210400  1.0  -0.7038
  O  O321  1  0.208500  0.960000  0.835100  1.0  -0.7269
  O  O322  1  0.295800  0.915800  0.884000  1.0  -0.7425
  O  O323  1  0.202600  0.053000  0.642300  1.0  -0.7237
  O  O324  1  0.289600  0.076000  0.579600  1.0  -0.7068
  O  O325  1  0.791500  0.460000  0.664900  1.0  -0.7272
  O  O326  1  0.704200  0.415800  0.616000  1.0  -0.7419
  O  O327  1  0.797400  0.553000  0.857700  1.0  -0.7249
  O  O328  1  0.710400  0.576000  0.920400  1.0  -0.709
  O  O329  1  0.708500  0.540000  0.164900  1.0  -0.7257
  O  O330  1  0.795800  0.584200  0.116000  1.0  -0.7432
  O  O331  1  0.702600  0.447000  0.357700  1.0  -0.7234
  O  O332  1  0.789600  0.424000  0.420400  1.0  -0.7063
  O  O333  1  0.291500  0.040000  0.335100  1.0  -0.728
  O  O334  1  0.204200  0.084200  0.384000  1.0  -0.7441
  O  O335  1  0.297400  0.947000  0.142300  1.0  -0.7246
  O  O336  1  0.210400  0.924000  0.079600  1.0  -0.7076
  O  O337  1  0.164900  0.791500  0.040000  1.0  -0.7261
  O  O338  1  0.116000  0.704200  0.084200  1.0  -0.739
  O  O339  1  0.357700  0.797400  0.947000  1.0  -0.7183
  O  O340  1  0.420400  0.710400  0.924000  1.0  -0.7093
  O  O341  1  0.335100  0.208500  0.540000  1.0  -0.7257
  O  O342  1  0.384000  0.295800  0.584200  1.0  -0.7387
  O  O343  1  0.142300  0.202600  0.447000  1.0  -0.7209
  O  O344  1  0.079600  0.289600  0.424000  1.0  -0.7095
  O  O345  1  0.835100  0.291500  0.460000  1.0  -0.7255
  O  O346  1  0.884000  0.204200  0.415800  1.0  -0.739
  O  O347  1  0.642300  0.297400  0.553000  1.0  -0.718
  O  O348  1  0.579600  0.210400  0.576000  1.0  -0.7083
  O  O349  1  0.664900  0.708500  0.960000  1.0  -0.7255
  O  O350  1  0.616000  0.795800  0.915800  1.0  -0.7395
  O  O351  1  0.857700  0.702600  0.053000  1.0  -0.7204
  O  O352  1  0.920400  0.789600  0.076000  1.0  -0.7076
  O  O353  1  0.040000  0.164900  0.791500  1.0  -0.7271
  O  O354  1  0.084200  0.116000  0.704200  1.0  -0.7366
  O  O355  1  0.947000  0.357700  0.797400  1.0  -0.7264
  O  O356  1  0.924000  0.420400  0.710400  1.0  -0.7052
  O  O357  1  0.540000  0.335100  0.208500  1.0  -0.7269
  O  O358  1  0.584200  0.384000  0.295800  1.0  -0.7372
  O  O359  1  0.447000  0.142300  0.202600  1.0  -0.724
  O  O360  1  0.424000  0.079600  0.289600  1.0  -0.7045
  O  O361  1  0.460000  0.835100  0.291500  1.0  -0.727
  O  O362  1  0.415800  0.884000  0.204200  1.0  -0.7383
  O  O363  1  0.553000  0.642300  0.297400  1.0  -0.7262
  O  O364  1  0.576000  0.579600  0.210400  1.0  -0.7032
  O  O365  1  0.960000  0.664900  0.708500  1.0  -0.7264
  O  O366  1  0.915800  0.616000  0.795800  1.0  -0.7377
  O  O367  1  0.053000  0.857700  0.702600  1.0  -0.7244
  O  O368  1  0.076000  0.920400  0.789600  1.0  -0.7045
  O  O369  1  0.791500  0.040000  0.164900  1.0  -0.7269
  O  O370  1  0.704200  0.084200  0.116000  1.0  -0.7431
  O  O371  1  0.797400  0.947000  0.357700  1.0  -0.7245
  O  O372  1  0.710400  0.924000  0.420400  1.0  -0.7075
  O  O373  1  0.208500  0.540000  0.335100  1.0  -0.7267
  O  O374  1  0.295800  0.584200  0.384000  1.0  -0.7443
  O  O375  1  0.202600  0.447000  0.142300  1.0  -0.7234
  O  O376  1  0.289600  0.424000  0.079600  1.0  -0.7062
  O  O377  1  0.291500  0.460000  0.835100  1.0  -0.7281
  O  O378  1  0.204200  0.415800  0.884000  1.0  -0.7425
  O  O379  1  0.297400  0.553000  0.642300  1.0  -0.7247
  O  O380  1  0.210400  0.576000  0.579600  1.0  -0.7082
  O  O381  1  0.708500  0.960000  0.664900  1.0  -0.7262
  O  O382  1  0.795800  0.915800  0.616000  1.0  -0.7419
  O  O383  1  0.702600  0.053000  0.857700  1.0  -0.724
  O  O384  1  0.789600  0.076000  0.920400  1.0  -0.7077
