# generated using pymatgen
data_LaH3C7NO4
_symmetry_space_group_name_H-M   'P 1'
_cell_length_a   19.98180000
_cell_length_b   19.98180000
_cell_length_c   19.98180000
_cell_angle_alpha   90.00000000
_cell_angle_beta   90.00000000
_cell_angle_gamma   90.00000000
_symmetry_Int_Tables_number   1
_chemical_formula_structural   LaH3C7NO4
_chemical_formula_sum   'La24 H72 C168 N24 O96'
_cell_volume   7978.17986837
_cell_formula_units_Z   24
loop_
 _symmetry_equiv_pos_site_id
 _symmetry_equiv_pos_as_xyz
  1  'x, y, z'
loop_
 _atom_site_type_symbol
 _atom_site_label
 _atom_site_symmetry_multiplicity
 _atom_site_fract_x
 _atom_site_fract_y
 _atom_site_fract_z
 _atom_site_occupancy
 _atom_site_charge
  La  La1  1  0.747390  0.153390  0.007070  1.0  2.0715
  La  La2  1  0.752610  0.846610  0.507070  1.0  2.0724
  La  La3  1  0.252610  0.653390  0.492930  1.0  2.0716
  La  La4  1  0.247390  0.346610  0.992930  1.0  2.0726
  La  La5  1  0.007070  0.747390  0.153390  1.0  2.0706
  La  La6  1  0.507070  0.752610  0.846610  1.0  2.0719
  La  La7  1  0.492930  0.252610  0.653390  1.0  2.0703
  La  La8  1  0.992930  0.247390  0.346610  1.0  2.0716
  La  La9  1  0.153390  0.007070  0.747390  1.0  2.0714
  La  La10  1  0.846610  0.507070  0.752610  1.0  2.0703
  La  La11  1  0.653390  0.492930  0.252610  1.0  2.0716
  La  La12  1  0.346610  0.992930  0.247390  1.0  2.0699
  La  La13  1  0.252610  0.846610  0.992930  1.0  2.0726
  La  La14  1  0.247390  0.153390  0.492930  1.0  2.0716
  La  La15  1  0.747390  0.346610  0.507070  1.0  2.0724
  La  La16  1  0.752610  0.653390  0.007070  1.0  2.0715
  La  La17  1  0.992930  0.252610  0.846610  1.0  2.0717
  La  La18  1  0.492930  0.247390  0.153390  1.0  2.0703
  La  La19  1  0.507070  0.747390  0.346610  1.0  2.0719
  La  La20  1  0.007070  0.752610  0.653390  1.0  2.0706
  La  La21  1  0.846610  0.992930  0.252610  1.0  2.0701
  La  La22  1  0.153390  0.492930  0.247390  1.0  2.0713
  La  La23  1  0.346610  0.507070  0.747390  1.0  2.07
  La  La24  1  0.653390  0.007070  0.752610  1.0  2.0717
  H  H25  1  0.650800  0.407900  0.047300  1.0  0.0948
  H  H26  1  0.735700  0.467900  0.000300  1.0  0.072
  H  H27  1  0.825700  0.412600  0.947900  1.0  0.1008
  H  H28  1  0.849200  0.592100  0.547300  1.0  0.0947
  H  H29  1  0.764300  0.532100  0.500300  1.0  0.0723
  H  H30  1  0.674300  0.587400  0.447900  1.0  0.1003
  H  H31  1  0.349200  0.907900  0.452700  1.0  0.0948
  H  H32  1  0.264300  0.967900  0.499700  1.0  0.0723
  H  H33  1  0.174300  0.912600  0.552100  1.0  0.1006
  H  H34  1  0.150800  0.092100  0.952700  1.0  0.0944
  H  H35  1  0.235700  0.032100  0.999700  1.0  0.0718
  H  H36  1  0.325700  0.087400  0.052100  1.0  0.1008
  H  H37  1  0.047300  0.650800  0.407900  1.0  0.0944
  H  H38  1  0.000300  0.735700  0.467900  1.0  0.0733
  H  H39  1  0.947900  0.825700  0.412600  1.0  0.1011
  H  H40  1  0.547300  0.849200  0.592100  1.0  0.0953
  H  H41  1  0.500300  0.764300  0.532100  1.0  0.0729
  H  H42  1  0.447900  0.674300  0.587400  1.0  0.1008
  H  H43  1  0.452700  0.349200  0.907900  1.0  0.0952
  H  H44  1  0.499700  0.264300  0.967900  1.0  0.0733
  H  H45  1  0.552100  0.174300  0.912600  1.0  0.1008
  H  H46  1  0.952700  0.150800  0.092100  1.0  0.0947
  H  H47  1  0.999700  0.235700  0.032100  1.0  0.073
  H  H48  1  0.052100  0.325700  0.087400  1.0  0.1012
  H  H49  1  0.407900  0.047300  0.650800  1.0  0.0956
  H  H50  1  0.467900  0.000300  0.735700  1.0  0.0731
  H  H51  1  0.412600  0.947900  0.825700  1.0  0.1017
  H  H52  1  0.592100  0.547300  0.849200  1.0  0.0958
  H  H53  1  0.532100  0.500300  0.764300  1.0  0.0727
  H  H54  1  0.587400  0.447900  0.674300  1.0  0.1015
  H  H55  1  0.907900  0.452700  0.349200  1.0  0.0952
  H  H56  1  0.967900  0.499700  0.264300  1.0  0.0731
  H  H57  1  0.912600  0.552100  0.174300  1.0  0.1016
  H  H58  1  0.092100  0.952700  0.150800  1.0  0.0952
  H  H59  1  0.032100  0.999700  0.235700  1.0  0.0725
  H  H60  1  0.087400  0.052100  0.325700  1.0  0.102
  H  H61  1  0.349200  0.592100  0.952700  1.0  0.0944
  H  H62  1  0.264300  0.532100  0.999700  1.0  0.072
  H  H63  1  0.174300  0.587400  0.052100  1.0  0.1005
  H  H64  1  0.150800  0.407900  0.452700  1.0  0.0947
  H  H65  1  0.235700  0.467900  0.499700  1.0  0.072
  H  H66  1  0.325700  0.412600  0.552100  1.0  0.1007
  H  H67  1  0.650800  0.092100  0.547300  1.0  0.0947
  H  H68  1  0.735700  0.032100  0.500300  1.0  0.0721
  H  H69  1  0.825700  0.087400  0.447900  1.0  0.1007
  H  H70  1  0.849200  0.907900  0.047300  1.0  0.0948
  H  H71  1  0.764300  0.967900  0.000300  1.0  0.0724
  H  H72  1  0.674300  0.912600  0.947900  1.0  0.1005
  H  H73  1  0.952700  0.349200  0.592100  1.0  0.0955
  H  H74  1  0.999700  0.264300  0.532100  1.0  0.073
  H  H75  1  0.052100  0.174300  0.587400  1.0  0.1009
  H  H76  1  0.452700  0.150800  0.407900  1.0  0.0946
  H  H77  1  0.499700  0.235700  0.467900  1.0  0.0734
  H  H78  1  0.552100  0.325700  0.412600  1.0  0.101
  H  H79  1  0.547300  0.650800  0.092100  1.0  0.0946
  H  H80  1  0.500300  0.735700  0.032100  1.0  0.0729
  H  H81  1  0.447900  0.825700  0.087400  1.0  0.1012
  H  H82  1  0.047300  0.849200  0.907900  1.0  0.0948
  H  H83  1  0.000300  0.764300  0.967900  1.0  0.0732
  H  H84  1  0.947900  0.674300  0.912600  1.0  0.1009
  H  H85  1  0.592100  0.952700  0.349200  1.0  0.0955
  H  H86  1  0.532100  0.999700  0.264300  1.0  0.0725
  H  H87  1  0.587400  0.052100  0.174300  1.0  0.1016
  H  H88  1  0.407900  0.452700  0.150800  1.0  0.0954
  H  H89  1  0.467900  0.499700  0.235700  1.0  0.0731
  H  H90  1  0.412600  0.552100  0.325700  1.0  0.1017
  H  H91  1  0.092100  0.547300  0.650800  1.0  0.0954
  H  H92  1  0.032100  0.500300  0.735700  1.0  0.0726
  H  H93  1  0.087400  0.447900  0.825700  1.0  0.102
  H  H94  1  0.907900  0.047300  0.849200  1.0  0.0954
  H  H95  1  0.967900  0.000300  0.764300  1.0  0.0731
  H  H96  1  0.912600  0.947900  0.674300  1.0  0.1017
  C  C97  1  0.634800  0.273400  0.053000  1.0  0.6334
  C  C98  1  0.688200  0.317500  0.024700  1.0  0.0418
  C  C99  1  0.686500  0.386000  0.027000  1.0  -0.1352
  C  C100  1  0.737100  0.421400  0.999300  1.0  -0.1408
  C  C101  1  0.791700  0.389000  0.969100  1.0  -0.1347
  C  C102  1  0.791600  0.319300  0.973000  1.0  0.082
  C  C103  1  0.845500  0.277300  0.944100  1.0  0.6446
  C  C104  1  0.865200  0.726600  0.553000  1.0  0.6338
  C  C105  1  0.811800  0.682500  0.524700  1.0  0.0413
  C  C106  1  0.813500  0.614000  0.527000  1.0  -0.1344
  C  C107  1  0.762900  0.578600  0.499300  1.0  -0.1398
  C  C108  1  0.708300  0.611000  0.469100  1.0  -0.1352
  C  C109  1  0.708400  0.680700  0.473000  1.0  0.0817
  C  C110  1  0.654500  0.722700  0.444100  1.0  0.645
  C  C111  1  0.365200  0.773400  0.447000  1.0  0.6333
  C  C112  1  0.311800  0.817500  0.475300  1.0  0.0415
  C  C113  1  0.313500  0.886000  0.473000  1.0  -0.1337
  C  C114  1  0.262900  0.921400  0.500700  1.0  -0.1402
  C  C115  1  0.208300  0.889000  0.530900  1.0  -0.1343
  C  C116  1  0.208400  0.819300  0.527000  1.0  0.0819
  C  C117  1  0.154500  0.777300  0.555900  1.0  0.6461
  C  C118  1  0.134800  0.226600  0.947000  1.0  0.6326
  C  C119  1  0.188200  0.182500  0.975300  1.0  0.0417
  C  C120  1  0.186500  0.114000  0.973000  1.0  -0.1352
  C  C121  1  0.237100  0.078600  0.000700  1.0  -0.1391
  C  C122  1  0.291700  0.111000  0.030900  1.0  -0.1346
  C  C123  1  0.291600  0.180700  0.027000  1.0  0.0815
  C  C124  1  0.345500  0.222700  0.055900  1.0  0.6438
  C  C125  1  0.053000  0.634800  0.273400  1.0  0.634
  C  C126  1  0.024700  0.688200  0.317500  1.0  0.0424
  C  C127  1  0.027000  0.686500  0.386000  1.0  -0.1348
  C  C128  1  0.999300  0.737100  0.421400  1.0  -0.1395
  C  C129  1  0.969100  0.791700  0.389000  1.0  -0.1354
  C  C130  1  0.973000  0.791600  0.319300  1.0  0.0824
  C  C131  1  0.944100  0.845500  0.277300  1.0  0.6456
  C  C132  1  0.553000  0.865200  0.726600  1.0  0.6332
  C  C133  1  0.524700  0.811800  0.682500  1.0  0.0433
  C  C134  1  0.527000  0.813500  0.614000  1.0  -0.1351
  C  C135  1  0.499300  0.762900  0.578600  1.0  -0.1409
  C  C136  1  0.469100  0.708300  0.611000  1.0  -0.136
  C  C137  1  0.473000  0.708400  0.680700  1.0  0.0825
  C  C138  1  0.444100  0.654500  0.722700  1.0  0.6472
  C  C139  1  0.447000  0.365200  0.773400  1.0  0.6344
  C  C140  1  0.475300  0.311800  0.817500  1.0  0.0432
  C  C141  1  0.473000  0.313500  0.886000  1.0  -0.1365
  C  C142  1  0.500700  0.262900  0.921400  1.0  -0.1392
  C  C143  1  0.530900  0.208300  0.889000  1.0  -0.1361
  C  C144  1  0.527000  0.208400  0.819300  1.0  0.0816
  C  C145  1  0.555900  0.154500  0.777300  1.0  0.6459
  C  C146  1  0.947000  0.134800  0.226600  1.0  0.635
  C  C147  1  0.975300  0.188200  0.182500  1.0  0.0437
  C  C148  1  0.973000  0.186500  0.114000  1.0  -0.1354
  C  C149  1  0.000700  0.237100  0.078600  1.0  -0.1403
  C  C150  1  0.030900  0.291700  0.111000  1.0  -0.1359
  C  C151  1  0.027000  0.291600  0.180700  1.0  0.0823
  C  C152  1  0.055900  0.345500  0.222700  1.0  0.6472
  C  C153  1  0.273400  0.053000  0.634800  1.0  0.6355
  C  C154  1  0.317500  0.024700  0.688200  1.0  0.0431
  C  C155  1  0.386000  0.027000  0.686500  1.0  -0.1361
  C  C156  1  0.421400  0.999300  0.737100  1.0  -0.1432
  C  C157  1  0.389000  0.969100  0.791700  1.0  -0.1362
  C  C158  1  0.319300  0.973000  0.791600  1.0  0.0806
  C  C159  1  0.277300  0.944100  0.845500  1.0  0.6469
  C  C160  1  0.726600  0.553000  0.865200  1.0  0.6347
  C  C161  1  0.682500  0.524700  0.811800  1.0  0.0437
  C  C162  1  0.614000  0.527000  0.813500  1.0  -0.138
  C  C163  1  0.578600  0.499300  0.762900  1.0  -0.1486
  C  C164  1  0.611000  0.469100  0.708300  1.0  -0.1354
  C  C165  1  0.680700  0.473000  0.708400  1.0  0.0815
  C  C166  1  0.722700  0.444100  0.654500  1.0  0.6454
  C  C167  1  0.773400  0.447000  0.365200  1.0  0.635
  C  C168  1  0.817500  0.475300  0.311800  1.0  0.043
  C  C169  1  0.886000  0.473000  0.313500  1.0  -0.1368
  C  C170  1  0.921400  0.500700  0.262900  1.0  -0.1433
  C  C171  1  0.889000  0.530900  0.208300  1.0  -0.1365
  C  C172  1  0.819300  0.527000  0.208400  1.0  0.0816
  C  C173  1  0.777300  0.555900  0.154500  1.0  0.6459
  C  C174  1  0.226600  0.947000  0.134800  1.0  0.6335
  C  C175  1  0.182500  0.975300  0.188200  1.0  0.0438
  C  C176  1  0.114000  0.973000  0.186500  1.0  -0.1361
  C  C177  1  0.078600  0.000700  0.237100  1.0  -0.149
  C  C178  1  0.111000  0.030900  0.291700  1.0  -0.1367
  C  C179  1  0.180700  0.027000  0.291600  1.0  0.0801
  C  C180  1  0.222700  0.055900  0.345500  1.0  0.6459
  C  C181  1  0.365200  0.726600  0.947000  1.0  0.6334
  C  C182  1  0.311800  0.682500  0.975300  1.0  0.0414
  C  C183  1  0.313500  0.614000  0.973000  1.0  -0.1344
  C  C184  1  0.262900  0.578600  0.000700  1.0  -0.1393
  C  C185  1  0.208300  0.611000  0.030900  1.0  -0.1346
  C  C186  1  0.208400  0.680700  0.027000  1.0  0.0818
  C  C187  1  0.154500  0.722700  0.055900  1.0  0.6443
  C  C188  1  0.134800  0.273400  0.447000  1.0  0.633
  C  C189  1  0.188200  0.317500  0.475300  1.0  0.0419
  C  C190  1  0.186500  0.386000  0.473000  1.0  -0.1351
  C  C191  1  0.237100  0.421400  0.500700  1.0  -0.1403
  C  C192  1  0.291700  0.389000  0.530900  1.0  -0.1346
  C  C193  1  0.291600  0.319300  0.527000  1.0  0.082
  C  C194  1  0.345500  0.277300  0.555900  1.0  0.6452
  C  C195  1  0.634800  0.226600  0.553000  1.0  0.6324
  C  C196  1  0.688200  0.182500  0.524700  1.0  0.0418
  C  C197  1  0.686500  0.114000  0.527000  1.0  -0.1353
  C  C198  1  0.737100  0.078600  0.499300  1.0  -0.1395
  C  C199  1  0.791700  0.111000  0.469100  1.0  -0.135
  C  C200  1  0.791600  0.180700  0.473000  1.0  0.0816
  C  C201  1  0.845500  0.222700  0.444100  1.0  0.644
  C  C202  1  0.865200  0.773400  0.053000  1.0  0.6345
  C  C203  1  0.811800  0.817500  0.024700  1.0  0.0413
  C  C204  1  0.813500  0.886000  0.027000  1.0  -0.1338
  C  C205  1  0.762900  0.921400  0.999300  1.0  -0.1407
  C  C206  1  0.708300  0.889000  0.969100  1.0  -0.1348
  C  C207  1  0.708400  0.819300  0.973000  1.0  0.0818
  C  C208  1  0.654500  0.777300  0.944100  1.0  0.6461
  C  C209  1  0.947000  0.365200  0.726600  1.0  0.6338
  C  C210  1  0.975300  0.311800  0.682500  1.0  0.0435
  C  C211  1  0.973000  0.313500  0.614000  1.0  -0.1354
  C  C212  1  0.000700  0.262900  0.578600  1.0  -0.1406
  C  C213  1  0.030900  0.208300  0.611000  1.0  -0.1368
  C  C214  1  0.027000  0.208400  0.680700  1.0  0.0825
  C  C215  1  0.055900  0.154500  0.722700  1.0  0.648
  C  C216  1  0.447000  0.134800  0.273400  1.0  0.6352
  C  C217  1  0.475300  0.188200  0.317500  1.0  0.0426
  C  C218  1  0.473000  0.186500  0.386000  1.0  -0.135
  C  C219  1  0.500700  0.237100  0.421400  1.0  -0.1392
  C  C220  1  0.530900  0.291700  0.389000  1.0  -0.1354
  C  C221  1  0.527000  0.291600  0.319300  1.0  0.0823
  C  C222  1  0.555900  0.345500  0.277300  1.0  0.6461
  C  C223  1  0.553000  0.634800  0.226600  1.0  0.6345
  C  C224  1  0.524700  0.688200  0.182500  1.0  0.0437
  C  C225  1  0.527000  0.686500  0.114000  1.0  -0.1355
  C  C226  1  0.499300  0.737100  0.078600  1.0  -0.1406
  C  C227  1  0.469100  0.791700  0.111000  1.0  -0.1353
  C  C228  1  0.473000  0.791600  0.180700  1.0  0.0823
  C  C229  1  0.444100  0.845500  0.222700  1.0  0.6463
  C  C230  1  0.053000  0.865200  0.773400  1.0  0.6331
  C  C231  1  0.024700  0.811800  0.817500  1.0  0.0426
  C  C232  1  0.027000  0.813500  0.886000  1.0  -0.1358
  C  C233  1  0.999300  0.762900  0.921400  1.0  -0.1395
  C  C234  1  0.969100  0.708300  0.889000  1.0  -0.1356
  C  C235  1  0.973000  0.708400  0.819300  1.0  0.0817
  C  C236  1  0.944100  0.654500  0.777300  1.0  0.6457
  C  C237  1  0.726600  0.947000  0.365200  1.0  0.6344
  C  C238  1  0.682500  0.975300  0.311800  1.0  0.0439
  C  C239  1  0.614000  0.973000  0.313500  1.0  -0.1367
  C  C240  1  0.578600  0.000700  0.262900  1.0  -0.1488
  C  C241  1  0.611000  0.030900  0.208300  1.0  -0.1357
  C  C242  1  0.680700  0.027000  0.208400  1.0  0.0814
  C  C243  1  0.722700  0.055900  0.154500  1.0  0.6454
  C  C244  1  0.273400  0.447000  0.134800  1.0  0.635
  C  C245  1  0.317500  0.475300  0.188200  1.0  0.0427
  C  C246  1  0.386000  0.473000  0.186500  1.0  -0.1364
  C  C247  1  0.421400  0.500700  0.237100  1.0  -0.1434
  C  C248  1  0.389000  0.530900  0.291700  1.0  -0.1358
  C  C249  1  0.319300  0.527000  0.291600  1.0  0.0804
  C  C250  1  0.277300  0.555900  0.345500  1.0  0.6457
  C  C251  1  0.226600  0.553000  0.634800  1.0  0.6344
  C  C252  1  0.182500  0.524700  0.688200  1.0  0.0436
  C  C253  1  0.114000  0.527000  0.686500  1.0  -0.136
  C  C254  1  0.078600  0.499300  0.737100  1.0  -0.1486
  C  C255  1  0.111000  0.469100  0.791700  1.0  -0.1367
  C  C256  1  0.180700  0.473000  0.791600  1.0  0.0804
  C  C257  1  0.222700  0.444100  0.845500  1.0  0.6467
  C  C258  1  0.773400  0.053000  0.865200  1.0  0.6351
  C  C259  1  0.817500  0.024700  0.811800  1.0  0.0433
  C  C260  1  0.886000  0.027000  0.813500  1.0  -0.1374
  C  C261  1  0.921400  0.999300  0.762900  1.0  -0.1432
  C  C262  1  0.889000  0.969100  0.708300  1.0  -0.1364
  C  C263  1  0.819300  0.973000  0.708400  1.0  0.0815
  C  C264  1  0.777300  0.944100  0.654500  1.0  0.6461
  N  N265  1  0.742400  0.282600  0.999400  1.0  -0.4949
  N  N266  1  0.757600  0.717400  0.499400  1.0  -0.4981
  N  N267  1  0.257600  0.782600  0.500600  1.0  -0.495
  N  N268  1  0.242400  0.217400  0.000600  1.0  -0.4972
  N  N269  1  0.999400  0.742400  0.282600  1.0  -0.5035
  N  N270  1  0.499400  0.757600  0.717400  1.0  -0.5035
  N  N271  1  0.500600  0.257600  0.782600  1.0  -0.504
  N  N272  1  0.000600  0.242400  0.217400  1.0  -0.5041
  N  N273  1  0.282600  0.999400  0.742400  1.0  -0.4971
  N  N274  1  0.717400  0.499400  0.757600  1.0  -0.4965
  N  N275  1  0.782600  0.500600  0.257600  1.0  -0.4977
  N  N276  1  0.217400  0.000600  0.242400  1.0  -0.4966
  N  N277  1  0.257600  0.717400  0.000600  1.0  -0.4978
  N  N278  1  0.242400  0.282600  0.500600  1.0  -0.4945
  N  N279  1  0.742400  0.217400  0.499400  1.0  -0.4976
  N  N280  1  0.757600  0.782600  0.999400  1.0  -0.4954
  N  N281  1  0.000600  0.257600  0.717400  1.0  -0.5043
  N  N282  1  0.500600  0.242400  0.282600  1.0  -0.5041
  N  N283  1  0.499400  0.742400  0.217400  1.0  -0.5033
  N  N284  1  0.999400  0.757600  0.782600  1.0  -0.5034
  N  N285  1  0.717400  0.000600  0.257600  1.0  -0.497
  N  N286  1  0.282600  0.500600  0.242400  1.0  -0.4973
  N  N287  1  0.217400  0.499400  0.742400  1.0  -0.4963
  N  N288  1  0.782600  0.999400  0.757600  1.0  -0.4972
  O  O289  1  0.644300  0.209800  0.046700  1.0  -0.7037
  O  O290  1  0.585800  0.298100  0.080900  1.0  -0.7058
  O  O291  1  0.843700  0.214700  0.958600  1.0  -0.7008
  O  O292  1  0.889100  0.301700  0.906100  1.0  -0.7176
  O  O293  1  0.855700  0.790200  0.546700  1.0  -0.7036
  O  O294  1  0.914200  0.701900  0.580900  1.0  -0.7056
  O  O295  1  0.656300  0.785300  0.458600  1.0  -0.702
  O  O296  1  0.610900  0.698300  0.406100  1.0  -0.717
  O  O297  1  0.355700  0.709800  0.453300  1.0  -0.7044
  O  O298  1  0.414200  0.798100  0.419100  1.0  -0.7064
  O  O299  1  0.156300  0.714700  0.541400  1.0  -0.7012
  O  O300  1  0.110900  0.801700  0.593900  1.0  -0.7185
  O  O301  1  0.144300  0.290200  0.953300  1.0  -0.7037
  O  O302  1  0.085800  0.201900  0.919100  1.0  -0.707
  O  O303  1  0.343700  0.285300  0.041400  1.0  -0.7007
  O  O304  1  0.389100  0.198300  0.093900  1.0  -0.7188
  O  O305  1  0.046700  0.644300  0.209800  1.0  -0.7084
  O  O306  1  0.080900  0.585800  0.298100  1.0  -0.7052
  O  O307  1  0.958600  0.843700  0.214700  1.0  -0.7048
  O  O308  1  0.906100  0.889100  0.301700  1.0  -0.7167
  O  O309  1  0.546700  0.855700  0.790200  1.0  -0.7084
  O  O310  1  0.580900  0.914200  0.701900  1.0  -0.705
  O  O311  1  0.458600  0.656300  0.785300  1.0  -0.704
  O  O312  1  0.406100  0.610900  0.698300  1.0  -0.7162
  O  O313  1  0.453300  0.355700  0.709800  1.0  -0.7095
  O  O314  1  0.419100  0.414200  0.798100  1.0  -0.7042
  O  O315  1  0.541400  0.156300  0.714700  1.0  -0.7056
  O  O316  1  0.593900  0.110900  0.801700  1.0  -0.7167
  O  O317  1  0.953300  0.144300  0.290200  1.0  -0.7087
  O  O318  1  0.919100  0.085800  0.201900  1.0  -0.7054
  O  O319  1  0.041400  0.343700  0.285300  1.0  -0.7042
  O  O320  1  0.093900  0.389100  0.198300  1.0  -0.7155
  O  O321  1  0.209800  0.046700  0.644300  1.0  -0.7059
  O  O322  1  0.298100  0.080900  0.585800  1.0  -0.706
  O  O323  1  0.214700  0.958600  0.843700  1.0  -0.7025
  O  O324  1  0.301700  0.906100  0.889100  1.0  -0.717
  O  O325  1  0.790200  0.546700  0.855700  1.0  -0.7056
  O  O326  1  0.701900  0.580900  0.914200  1.0  -0.7051
  O  O327  1  0.785300  0.458600  0.656300  1.0  -0.7031
  O  O328  1  0.698300  0.406100  0.610900  1.0  -0.7186
  O  O329  1  0.709800  0.453300  0.355700  1.0  -0.7056
  O  O330  1  0.798100  0.419100  0.414200  1.0  -0.704
  O  O331  1  0.714700  0.541400  0.156300  1.0  -0.7031
  O  O332  1  0.801700  0.593900  0.110900  1.0  -0.7172
  O  O333  1  0.290200  0.953300  0.144300  1.0  -0.7051
  O  O334  1  0.201900  0.919100  0.085800  1.0  -0.7059
  O  O335  1  0.285300  0.041400  0.343700  1.0  -0.7031
  O  O336  1  0.198300  0.093900  0.389100  1.0  -0.7185
  O  O337  1  0.355700  0.790200  0.953300  1.0  -0.7035
  O  O338  1  0.414200  0.701900  0.919100  1.0  -0.7073
  O  O339  1  0.156300  0.785300  0.041400  1.0  -0.7018
  O  O340  1  0.110900  0.698300  0.093900  1.0  -0.718
  O  O341  1  0.144300  0.209800  0.453300  1.0  -0.7041
  O  O342  1  0.085800  0.298100  0.419100  1.0  -0.7072
  O  O343  1  0.343700  0.214700  0.541400  1.0  -0.7008
  O  O344  1  0.389100  0.301700  0.593900  1.0  -0.7187
  O  O345  1  0.644300  0.290200  0.546700  1.0  -0.7038
  O  O346  1  0.585800  0.201900  0.580900  1.0  -0.7065
  O  O347  1  0.843700  0.285300  0.458600  1.0  -0.7009
  O  O348  1  0.889100  0.198300  0.406100  1.0  -0.7177
  O  O349  1  0.855700  0.709800  0.046700  1.0  -0.7044
  O  O350  1  0.914200  0.798100  0.080900  1.0  -0.706
  O  O351  1  0.656300  0.714700  0.958600  1.0  -0.7012
  O  O352  1  0.610900  0.801700  0.906100  1.0  -0.7176
  O  O353  1  0.953300  0.355700  0.790200  1.0  -0.709
  O  O354  1  0.919100  0.414200  0.701900  1.0  -0.7055
  O  O355  1  0.041400  0.156300  0.785300  1.0  -0.7046
  O  O356  1  0.093900  0.110900  0.698300  1.0  -0.7159
  O  O357  1  0.453300  0.144300  0.209800  1.0  -0.7091
  O  O358  1  0.419100  0.085800  0.298100  1.0  -0.7049
  O  O359  1  0.541400  0.343700  0.214700  1.0  -0.7051
  O  O360  1  0.593900  0.389100  0.301700  1.0  -0.7163
  O  O361  1  0.546700  0.644300  0.290200  1.0  -0.7081
  O  O362  1  0.580900  0.585800  0.201900  1.0  -0.7066
  O  O363  1  0.458600  0.843700  0.285300  1.0  -0.7036
  O  O364  1  0.406100  0.889100  0.198300  1.0  -0.7157
  O  O365  1  0.046700  0.855700  0.709800  1.0  -0.7088
  O  O366  1  0.080900  0.914200  0.798100  1.0  -0.705
  O  O367  1  0.958600  0.656300  0.714700  1.0  -0.7053
  O  O368  1  0.906100  0.610900  0.801700  1.0  -0.717
  O  O369  1  0.790200  0.953300  0.355700  1.0  -0.7052
  O  O370  1  0.701900  0.919100  0.414200  1.0  -0.7048
  O  O371  1  0.785300  0.041400  0.156300  1.0  -0.7034
  O  O372  1  0.698300  0.093900  0.110900  1.0  -0.7181
  O  O373  1  0.209800  0.453300  0.144300  1.0  -0.7053
  O  O374  1  0.298100  0.419100  0.085800  1.0  -0.7066
  O  O375  1  0.214700  0.541400  0.343700  1.0  -0.7029
  O  O376  1  0.301700  0.593900  0.389100  1.0  -0.7168
  O  O377  1  0.290200  0.546700  0.644300  1.0  -0.7055
  O  O378  1  0.201900  0.580900  0.585800  1.0  -0.7068
  O  O379  1  0.285300  0.458600  0.843700  1.0  -0.703
  O  O380  1  0.198300  0.406100  0.889100  1.0  -0.7185
  O  O381  1  0.709800  0.046700  0.855700  1.0  -0.7063
  O  O382  1  0.798100  0.080900  0.914200  1.0  -0.7055
  O  O383  1  0.714700  0.958600  0.656300  1.0  -0.7027
  O  O384  1  0.801700  0.906100  0.610900  1.0  -0.7179
