# generated using pymatgen
data_Cd7H64C104N8Cl5O28
_symmetry_space_group_name_H-M   'P 1'
_cell_length_a   10.36460000
_cell_length_b   28.93180000
_cell_length_c   28.93180000
_cell_angle_alpha   90.00000000
_cell_angle_beta   90.00000000
_cell_angle_gamma   90.00000000
_symmetry_Int_Tables_number   1
_chemical_formula_structural   Cd7H64C104N8Cl5O28
_chemical_formula_sum   'Cd14 H128 C208 N16 Cl10 O56'
_cell_volume   8675.67859648
_cell_formula_units_Z   2
loop_
 _symmetry_equiv_pos_site_id
 _symmetry_equiv_pos_as_xyz
  1  'x, y, z'
loop_
 _atom_site_type_symbol
 _atom_site_label
 _atom_site_symmetry_multiplicity
 _atom_site_fract_x
 _atom_site_fract_y
 _atom_site_fract_z
 _atom_site_occupancy
 _atom_site_charge
  Cd  Cd1  1  0.231760  0.511580  0.905490  1.0  1.1255
  Cd  Cd2  1  0.231760  0.988420  0.594510  1.0  1.1258
  Cd  Cd3  1  0.231760  0.594510  0.511580  1.0  1.1308
  Cd  Cd4  1  0.231760  0.905490  0.988420  1.0  1.1309
  Cd  Cd5  1  0.768240  0.488420  0.094510  1.0  1.1258
  Cd  Cd6  1  0.768240  0.011580  0.405490  1.0  1.1248
  Cd  Cd7  1  0.768240  0.405490  0.488420  1.0  1.1302
  Cd  Cd8  1  0.768240  0.094510  0.011580  1.0  1.1302
  Cd  Cd9  1  0.000000  0.500000  0.000000  1.0  1.1006
  Cd  Cd10  1  0.000000  0.000000  0.500000  1.0  1.1006
  Cd  Cd11  1  0.000000  0.500000  0.500000  1.0  1.1025
  Cd  Cd12  1  0.000000  0.000000  0.000000  1.0  1.1025
  Cd  Cd13  1  0.740170  0.750000  0.750000  1.0  0.9083
  Cd  Cd14  1  0.259830  0.250000  0.250000  1.0  0.9097
  H  H15  1  0.671000  0.643700  0.089500  1.0  0.113
  H  H16  1  0.627000  0.721200  0.075600  1.0  0.1168
  H  H17  1  0.896800  0.722600  0.975300  1.0  0.1196
  H  H18  1  0.935800  0.644800  0.987300  1.0  0.1192
  H  H19  1  0.926200  0.796300  0.008100  1.0  0.1137
  H  H20  1  0.694100  0.907400  0.997400  1.0  0.1067
  H  H21  1  0.541700  0.780200  0.019200  1.0  0.1129
  H  H22  1  0.671000  0.856300  0.410500  1.0  0.1132
  H  H23  1  0.627000  0.778800  0.424400  1.0  0.1165
  H  H24  1  0.896800  0.777400  0.524700  1.0  0.1201
  H  H25  1  0.935800  0.855200  0.512700  1.0  0.1186
  H  H26  1  0.926200  0.703700  0.491900  1.0  0.1135
  H  H27  1  0.694100  0.592600  0.502600  1.0  0.1073
  H  H28  1  0.541700  0.719800  0.480800  1.0  0.1126
  H  H29  1  0.671000  0.410500  0.643700  1.0  0.111
  H  H30  1  0.627000  0.424400  0.721200  1.0  0.1182
  H  H31  1  0.896800  0.524700  0.722600  1.0  0.1188
  H  H32  1  0.935800  0.512700  0.644800  1.0  0.1192
  H  H33  1  0.926200  0.491900  0.796300  1.0  0.1129
  H  H34  1  0.694100  0.502600  0.907400  1.0  0.1064
  H  H35  1  0.541700  0.480800  0.780200  1.0  0.1127
  H  H36  1  0.671000  0.089500  0.856300  1.0  0.1124
  H  H37  1  0.627000  0.075600  0.778800  1.0  0.1195
  H  H38  1  0.896800  0.975300  0.777400  1.0  0.1193
  H  H39  1  0.935800  0.987300  0.855200  1.0  0.1186
  H  H40  1  0.926200  0.008100  0.703700  1.0  0.1124
  H  H41  1  0.694100  0.997400  0.592600  1.0  0.1074
  H  H42  1  0.541700  0.019200  0.719800  1.0  0.1131
  H  H43  1  0.329000  0.356300  0.910500  1.0  0.1133
  H  H44  1  0.373000  0.278800  0.924400  1.0  0.1169
  H  H45  1  0.103200  0.277400  0.024700  1.0  0.121
  H  H46  1  0.064200  0.355200  0.012700  1.0  0.1184
  H  H47  1  0.073800  0.203700  0.991900  1.0  0.1142
  H  H48  1  0.305900  0.092600  0.002600  1.0  0.1071
  H  H49  1  0.458300  0.219800  0.980800  1.0  0.1123
  H  H50  1  0.329000  0.143700  0.589500  1.0  0.1126
  H  H51  1  0.373000  0.221200  0.575600  1.0  0.1163
  H  H52  1  0.103200  0.222600  0.475300  1.0  0.1201
  H  H53  1  0.064200  0.144800  0.487300  1.0  0.1186
  H  H54  1  0.073800  0.296300  0.508100  1.0  0.1148
  H  H55  1  0.305900  0.407400  0.497400  1.0  0.1069
  H  H56  1  0.458300  0.280200  0.519200  1.0  0.1123
  H  H57  1  0.329000  0.589500  0.356300  1.0  0.112
  H  H58  1  0.373000  0.575600  0.278800  1.0  0.119
  H  H59  1  0.103200  0.475300  0.277400  1.0  0.1194
  H  H60  1  0.064200  0.487300  0.355200  1.0  0.1185
  H  H61  1  0.073800  0.508100  0.203700  1.0  0.1136
  H  H62  1  0.305900  0.497400  0.092600  1.0  0.1068
  H  H63  1  0.458300  0.519200  0.219800  1.0  0.1127
  H  H64  1  0.329000  0.910500  0.143700  1.0  0.1114
  H  H65  1  0.373000  0.924400  0.221200  1.0  0.1183
  H  H66  1  0.103200  0.024700  0.222600  1.0  0.1199
  H  H67  1  0.064200  0.012700  0.144800  1.0  0.1187
  H  H68  1  0.073800  0.991900  0.296300  1.0  0.1137
  H  H69  1  0.305900  0.002600  0.407400  1.0  0.1066
  H  H70  1  0.458300  0.980800  0.280200  1.0  0.1124
  H  H71  1  0.621700  0.766600  0.572100  1.0  0.1227
  H  H72  1  0.619200  0.681700  0.585300  1.0  0.1101
  H  H73  1  0.408300  0.883000  0.538700  1.0  0.1301
  H  H74  1  0.439800  0.832800  0.600100  1.0  0.125
  H  H75  1  0.803700  0.880500  0.613200  1.0  0.1341
  H  H76  1  0.767000  0.928400  0.549400  1.0  0.107
  H  H77  1  0.627200  0.966000  0.500800  1.0  0.117
  H  H78  1  0.567800  0.924300  0.471400  1.0  0.1246
  H  H79  1  0.476100  0.955000  0.503600  1.0  0.1181
  H  H80  1  0.621700  0.733400  0.927900  1.0  0.1231
  H  H81  1  0.619200  0.818300  0.914700  1.0  0.1101
  H  H82  1  0.408300  0.617000  0.961300  1.0  0.1304
  H  H83  1  0.439800  0.667200  0.899900  1.0  0.1248
  H  H84  1  0.803700  0.619500  0.886800  1.0  0.1345
  H  H85  1  0.767000  0.571600  0.950600  1.0  0.1066
  H  H86  1  0.627200  0.534000  0.999200  1.0  0.1169
  H  H87  1  0.567800  0.575700  0.028600  1.0  0.1248
  H  H88  1  0.476100  0.545000  0.996400  1.0  0.1188
  H  H89  1  0.621700  0.927900  0.766600  1.0  0.1223
  H  H90  1  0.619200  0.914700  0.681700  1.0  0.1096
  H  H91  1  0.408300  0.961300  0.883000  1.0  0.1294
  H  H92  1  0.439800  0.899900  0.832800  1.0  0.1243
  H  H93  1  0.803700  0.886800  0.880500  1.0  0.1348
  H  H94  1  0.767000  0.950600  0.928400  1.0  0.106
  H  H95  1  0.627200  0.999200  0.966000  1.0  0.1158
  H  H96  1  0.567800  0.028600  0.924300  1.0  0.1253
  H  H97  1  0.476100  0.996400  0.955000  1.0  0.1189
  H  H98  1  0.621700  0.572100  0.733400  1.0  0.1227
  H  H99  1  0.619200  0.585300  0.818300  1.0  0.1099
  H  H100  1  0.408300  0.538700  0.617000  1.0  0.1301
  H  H101  1  0.439800  0.600100  0.667200  1.0  0.1242
  H  H102  1  0.803700  0.613200  0.619500  1.0  0.135
  H  H103  1  0.767000  0.549400  0.571600  1.0  0.1063
  H  H104  1  0.627200  0.500800  0.534000  1.0  0.1163
  H  H105  1  0.567800  0.471400  0.575700  1.0  0.1259
  H  H106  1  0.476100  0.503600  0.545000  1.0  0.1185
  H  H107  1  0.378300  0.233400  0.427900  1.0  0.1226
  H  H108  1  0.380800  0.318300  0.414700  1.0  0.1101
  H  H109  1  0.591700  0.117000  0.461300  1.0  0.1306
  H  H110  1  0.560200  0.167200  0.399900  1.0  0.1246
  H  H111  1  0.196300  0.119500  0.386800  1.0  0.1347
  H  H112  1  0.233000  0.071600  0.450600  1.0  0.1061
  H  H113  1  0.372800  0.034000  0.499200  1.0  0.1177
  H  H114  1  0.432200  0.075700  0.528600  1.0  0.1251
  H  H115  1  0.523900  0.045000  0.496400  1.0  0.1198
  H  H116  1  0.378300  0.266600  0.072100  1.0  0.1226
  H  H117  1  0.380800  0.181700  0.085300  1.0  0.11
  H  H118  1  0.591700  0.383000  0.038700  1.0  0.1304
  H  H119  1  0.560200  0.332800  0.100100  1.0  0.1248
  H  H120  1  0.196300  0.380500  0.113200  1.0  0.1344
  H  H121  1  0.233000  0.428400  0.049400  1.0  0.1065
  H  H122  1  0.372800  0.466000  0.000800  1.0  0.1173
  H  H123  1  0.432200  0.424300  0.971400  1.0  0.1247
  H  H124  1  0.523900  0.455000  0.003600  1.0  0.12
  H  H125  1  0.378300  0.072100  0.233400  1.0  0.1223
  H  H126  1  0.380800  0.085300  0.318300  1.0  0.1101
  H  H127  1  0.591700  0.038700  0.117000  1.0  0.1303
  H  H128  1  0.560200  0.100100  0.167200  1.0  0.1237
  H  H129  1  0.196300  0.113200  0.119500  1.0  0.1351
  H  H130  1  0.233000  0.049400  0.071600  1.0  0.1058
  H  H131  1  0.372800  0.000800  0.034000  1.0  0.1163
  H  H132  1  0.432200  0.971400  0.075700  1.0  0.1258
  H  H133  1  0.523900  0.003600  0.045000  1.0  0.1198
  H  H134  1  0.378300  0.427900  0.266600  1.0  0.1222
  H  H135  1  0.380800  0.414700  0.181700  1.0  0.1096
  H  H136  1  0.591700  0.461300  0.383000  1.0  0.1313
  H  H137  1  0.560200  0.399900  0.332800  1.0  0.1242
  H  H138  1  0.196300  0.386800  0.380500  1.0  0.1344
  H  H139  1  0.233000  0.450600  0.428400  1.0  0.1059
  H  H140  1  0.372800  0.499200  0.466000  1.0  0.1163
  H  H141  1  0.432200  0.528600  0.424300  1.0  0.1256
  H  H142  1  0.523900  0.496400  0.455000  1.0  0.1205
  C  C143  1  0.838900  0.586200  0.048800  1.0  0.7431
  C  C144  1  0.810300  0.636800  0.040700  1.0  -0.1461
  C  C145  1  0.717300  0.659800  0.066100  1.0  -0.0402
  C  C146  1  0.691100  0.705900  0.057800  1.0  -0.106
  C  C147  1  0.757400  0.730200  0.023700  1.0  0.0762
  C  C148  1  0.849500  0.706600  0.998500  1.0  -0.1512
  C  C149  1  0.874500  0.660400  0.006000  1.0  -0.0576
  C  C150  1  0.736000  0.780400  0.016200  1.0  0.049
  C  C151  1  0.842000  0.809300  0.008400  1.0  -0.0773
  C  C152  1  0.827700  0.856100  0.001300  1.0  -0.1443
  C  C153  1  0.704800  0.875000  0.001300  1.0  -0.0346
  C  C154  1  0.597300  0.847100  0.007100  1.0  -0.1079
  C  C155  1  0.614900  0.799500  0.014800  1.0  -0.1075
  C  C156  1  0.464400  0.867000  0.001500  1.0  0.6641
  C  C157  1  0.945200  0.885800  0.992900  1.0  0.7264
  C  C158  1  0.838900  0.913800  0.451200  1.0  0.7416
  C  C159  1  0.810300  0.863200  0.459300  1.0  -0.1474
  C  C160  1  0.717300  0.840200  0.433900  1.0  -0.0401
  C  C161  1  0.691100  0.794100  0.442200  1.0  -0.1065
  C  C162  1  0.757400  0.769800  0.476300  1.0  0.0768
  C  C163  1  0.849500  0.793400  0.501500  1.0  -0.1507
  C  C164  1  0.874500  0.839600  0.494000  1.0  -0.0567
  C  C165  1  0.736000  0.719600  0.483800  1.0  0.0491
  C  C166  1  0.842000  0.690700  0.491600  1.0  -0.0774
  C  C167  1  0.827700  0.643900  0.498700  1.0  -0.1445
  C  C168  1  0.704800  0.625000  0.498700  1.0  -0.0326
  C  C169  1  0.597300  0.652900  0.492900  1.0  -0.1073
  C  C170  1  0.614900  0.700500  0.485200  1.0  -0.1089
  C  C171  1  0.464400  0.633000  0.498500  1.0  0.6633
  C  C172  1  0.945200  0.614200  0.507100  1.0  0.7256
  C  C173  1  0.838900  0.451200  0.586200  1.0  0.742
  C  C174  1  0.810300  0.459300  0.636800  1.0  -0.1486
  C  C175  1  0.717300  0.433900  0.659800  1.0  -0.0351
  C  C176  1  0.691100  0.442200  0.705900  1.0  -0.1059
  C  C177  1  0.757400  0.476300  0.730200  1.0  0.0766
  C  C178  1  0.849500  0.501500  0.706600  1.0  -0.1507
  C  C179  1  0.874500  0.494000  0.660400  1.0  -0.0568
  C  C180  1  0.736000  0.483800  0.780400  1.0  0.0484
  C  C181  1  0.842000  0.491600  0.809300  1.0  -0.0762
  C  C182  1  0.827700  0.498700  0.856100  1.0  -0.1451
  C  C183  1  0.704800  0.498700  0.875000  1.0  -0.0361
  C  C184  1  0.597300  0.492900  0.847100  1.0  -0.1088
  C  C185  1  0.614900  0.485200  0.799500  1.0  -0.1066
  C  C186  1  0.464400  0.498500  0.867000  1.0  0.663
  C  C187  1  0.945200  0.507100  0.885800  1.0  0.7263
  C  C188  1  0.838900  0.048800  0.913800  1.0  0.7402
  C  C189  1  0.810300  0.040700  0.863200  1.0  -0.1496
  C  C190  1  0.717300  0.066100  0.840200  1.0  -0.0326
  C  C191  1  0.691100  0.057800  0.794100  1.0  -0.1051
  C  C192  1  0.757400  0.023700  0.769800  1.0  0.0766
  C  C193  1  0.849500  0.998500  0.793400  1.0  -0.151
  C  C194  1  0.874500  0.006000  0.839600  1.0  -0.0556
  C  C195  1  0.736000  0.016200  0.719600  1.0  0.048
  C  C196  1  0.842000  0.008400  0.690700  1.0  -0.0764
  C  C197  1  0.827700  0.001300  0.643900  1.0  -0.1441
  C  C198  1  0.704800  0.001300  0.625000  1.0  -0.0349
  C  C199  1  0.597300  0.007100  0.652900  1.0  -0.1082
  C  C200  1  0.614900  0.014800  0.700500  1.0  -0.1083
  C  C201  1  0.464400  0.001500  0.633000  1.0  0.6642
  C  C202  1  0.945200  0.992900  0.614200  1.0  0.7262
  C  C203  1  0.161100  0.413800  0.951200  1.0  0.7443
  C  C204  1  0.189700  0.363200  0.959300  1.0  -0.1485
  C  C205  1  0.282700  0.340200  0.933900  1.0  -0.0404
  C  C206  1  0.308900  0.294100  0.942200  1.0  -0.1079
  C  C207  1  0.242600  0.269800  0.976300  1.0  0.0764
  C  C208  1  0.150500  0.293400  0.001500  1.0  -0.1516
  C  C209  1  0.125500  0.339600  0.994000  1.0  -0.057
  C  C210  1  0.264000  0.219600  0.983800  1.0  0.049
  C  C211  1  0.158000  0.190700  0.991600  1.0  -0.0793
  C  C212  1  0.172300  0.143900  0.998700  1.0  -0.1448
  C  C213  1  0.295200  0.125000  0.998700  1.0  -0.0327
  C  C214  1  0.402700  0.152900  0.992900  1.0  -0.1066
  C  C215  1  0.385100  0.200500  0.985200  1.0  -0.1089
  C  C216  1  0.535600  0.133000  0.998500  1.0  0.6621
  C  C217  1  0.054800  0.114200  0.007100  1.0  0.7258
  C  C218  1  0.161100  0.086200  0.548800  1.0  0.7427
  C  C219  1  0.189700  0.136800  0.540700  1.0  -0.1464
  C  C220  1  0.282700  0.159800  0.566100  1.0  -0.0384
  C  C221  1  0.308900  0.205900  0.557800  1.0  -0.1059
  C  C222  1  0.242600  0.230200  0.523700  1.0  0.0751
  C  C223  1  0.150500  0.206600  0.498500  1.0  -0.1517
  C  C224  1  0.125500  0.160400  0.506000  1.0  -0.0553
  C  C225  1  0.264000  0.280400  0.516200  1.0  0.0477
  C  C226  1  0.158000  0.309300  0.508400  1.0  -0.0785
  C  C227  1  0.172300  0.356100  0.501300  1.0  -0.1439
  C  C228  1  0.295200  0.375000  0.501300  1.0  -0.034
  C  C229  1  0.402700  0.347100  0.507100  1.0  -0.106
  C  C230  1  0.385100  0.299500  0.514800  1.0  -0.1075
  C  C231  1  0.535600  0.367000  0.501500  1.0  0.6617
  C  C232  1  0.054800  0.385800  0.492900  1.0  0.7264
  C  C233  1  0.161100  0.548800  0.413800  1.0  0.7406
  C  C234  1  0.189700  0.540700  0.363200  1.0  -0.1501
  C  C235  1  0.282700  0.566100  0.340200  1.0  -0.0308
  C  C236  1  0.308900  0.557800  0.294100  1.0  -0.1053
  C  C237  1  0.242600  0.523700  0.269800  1.0  0.0761
  C  C238  1  0.150500  0.498500  0.293400  1.0  -0.1513
  C  C239  1  0.125500  0.506000  0.339600  1.0  -0.0549
  C  C240  1  0.264000  0.516200  0.219600  1.0  0.0468
  C  C241  1  0.158000  0.508400  0.190700  1.0  -0.0785
  C  C242  1  0.172300  0.501300  0.143900  1.0  -0.1447
  C  C243  1  0.295200  0.501300  0.125000  1.0  -0.0346
  C  C244  1  0.402700  0.507100  0.152900  1.0  -0.1071
  C  C245  1  0.385100  0.514800  0.200500  1.0  -0.1094
  C  C246  1  0.535600  0.501500  0.133000  1.0  0.6622
  C  C247  1  0.054800  0.492900  0.114200  1.0  0.7266
  C  C248  1  0.161100  0.951200  0.086200  1.0  0.7432
  C  C249  1  0.189700  0.959300  0.136800  1.0  -0.1512
  C  C250  1  0.282700  0.933900  0.159800  1.0  -0.0354
  C  C251  1  0.308900  0.942200  0.205900  1.0  -0.1076
  C  C252  1  0.242600  0.976300  0.230200  1.0  0.0761
  C  C253  1  0.150500  0.001500  0.206600  1.0  -0.152
  C  C254  1  0.125500  0.994000  0.160400  1.0  -0.0555
  C  C255  1  0.264000  0.983800  0.280400  1.0  0.0475
  C  C256  1  0.158000  0.991600  0.309300  1.0  -0.0768
  C  C257  1  0.172300  0.998700  0.356100  1.0  -0.145
  C  C258  1  0.295200  0.998700  0.375000  1.0  -0.0358
  C  C259  1  0.402700  0.992900  0.347100  1.0  -0.1073
  C  C260  1  0.385100  0.985200  0.299500  1.0  -0.1077
  C  C261  1  0.535600  0.998500  0.367000  1.0  0.661
  C  C262  1  0.054800  0.007100  0.385800  1.0  0.7263
  C  C263  1  0.646100  0.772900  0.645400  1.0  0.1849
  C  C264  1  0.630200  0.751300  0.601000  1.0  -0.1608
  C  C265  1  0.629700  0.704900  0.608200  1.0  -0.1584
  C  C266  1  0.648000  0.697400  0.656900  1.0  0.1894
  C  C267  1  0.643300  0.820700  0.654400  1.0  -0.0308
  C  C268  1  0.489400  0.882000  0.554000  1.0  0.0334
  C  C269  1  0.507600  0.852700  0.590500  1.0  -0.1003
  C  C270  1  0.625600  0.852000  0.613600  1.0  0.1241
  C  C271  1  0.722100  0.880300  0.598200  1.0  -0.1318
  C  C272  1  0.699900  0.909000  0.560500  1.0  0.0476
  C  C273  1  0.562300  0.941400  0.500600  1.0  -0.1732
  C  C274  1  0.646100  0.727100  0.854600  1.0  0.1862
  C  C275  1  0.630200  0.748700  0.899000  1.0  -0.1607
  C  C276  1  0.629700  0.795100  0.891800  1.0  -0.1585
  C  C277  1  0.648000  0.802600  0.843100  1.0  0.1907
  C  C278  1  0.643300  0.679300  0.845600  1.0  -0.0303
  C  C279  1  0.489400  0.618000  0.946000  1.0  0.032
  C  C280  1  0.507600  0.647300  0.909500  1.0  -0.1008
  C  C281  1  0.625600  0.648000  0.886400  1.0  0.1241
  C  C282  1  0.722100  0.619700  0.901800  1.0  -0.1307
  C  C283  1  0.699900  0.591000  0.939500  1.0  0.0475
  C  C284  1  0.562300  0.558600  0.999400  1.0  -0.1735
  C  C285  1  0.646100  0.854600  0.772900  1.0  0.1841
  C  C286  1  0.630200  0.899000  0.751300  1.0  -0.1596
  C  C287  1  0.629700  0.891800  0.704900  1.0  -0.1588
  C  C288  1  0.648000  0.843100  0.697400  1.0  0.1891
  C  C289  1  0.643300  0.845600  0.820700  1.0  -0.0307
  C  C290  1  0.489400  0.946000  0.882000  1.0  0.0314
  C  C291  1  0.507600  0.909500  0.852700  1.0  -0.0995
  C  C292  1  0.625600  0.886400  0.852000  1.0  0.1239
  C  C293  1  0.722100  0.901800  0.880300  1.0  -0.1316
  C  C294  1  0.699900  0.939500  0.909000  1.0  0.0477
  C  C295  1  0.562300  0.999400  0.941400  1.0  -0.1726
  C  C296  1  0.646100  0.645400  0.727100  1.0  0.1841
  C  C297  1  0.630200  0.601000  0.748700  1.0  -0.161
  C  C298  1  0.629700  0.608200  0.795100  1.0  -0.158
  C  C299  1  0.648000  0.656900  0.802600  1.0  0.1888
  C  C300  1  0.643300  0.654400  0.679300  1.0  -0.0307
  C  C301  1  0.489400  0.554000  0.618000  1.0  0.0306
  C  C302  1  0.507600  0.590500  0.647300  1.0  -0.0994
  C  C303  1  0.625600  0.613600  0.648000  1.0  0.1233
  C  C304  1  0.722100  0.598200  0.619700  1.0  -0.1313
  C  C305  1  0.699900  0.560500  0.591000  1.0  0.0475
  C  C306  1  0.562300  0.500600  0.558600  1.0  -0.1718
  C  C307  1  0.353900  0.227100  0.354600  1.0  0.1867
  C  C308  1  0.369800  0.248700  0.399000  1.0  -0.1596
  C  C309  1  0.370300  0.295100  0.391800  1.0  -0.158
  C  C310  1  0.352000  0.302600  0.343100  1.0  0.1909
  C  C311  1  0.356700  0.179300  0.345600  1.0  -0.03
  C  C312  1  0.510600  0.118000  0.446000  1.0  0.0299
  C  C313  1  0.492400  0.147300  0.409500  1.0  -0.1014
  C  C314  1  0.374400  0.148000  0.386400  1.0  0.1249
  C  C315  1  0.277900  0.119700  0.401800  1.0  -0.1296
  C  C316  1  0.300100  0.091000  0.439500  1.0  0.0466
  C  C317  1  0.437700  0.058600  0.499400  1.0  -0.1732
  C  C318  1  0.353900  0.272900  0.145400  1.0  0.1852
  C  C319  1  0.369800  0.251300  0.101000  1.0  -0.1596
  C  C320  1  0.370300  0.204900  0.108200  1.0  -0.1576
  C  C321  1  0.352000  0.197400  0.156900  1.0  0.1897
  C  C322  1  0.356700  0.320700  0.154400  1.0  -0.0308
  C  C323  1  0.510600  0.382000  0.054000  1.0  0.0317
  C  C324  1  0.492400  0.352700  0.090500  1.0  -0.0996
  C  C325  1  0.374400  0.352000  0.113600  1.0  0.1254
  C  C326  1  0.277900  0.380300  0.098200  1.0  -0.1298
  C  C327  1  0.300100  0.409000  0.060500  1.0  0.0469
  C  C328  1  0.437700  0.441400  0.000600  1.0  -0.1737
  C  C329  1  0.353900  0.145400  0.227100  1.0  0.1845
  C  C330  1  0.369800  0.101000  0.248700  1.0  -0.1598
  C  C331  1  0.370300  0.108200  0.295100  1.0  -0.157
  C  C332  1  0.352000  0.156900  0.302600  1.0  0.1891
  C  C333  1  0.356700  0.154400  0.179300  1.0  -0.0306
  C  C334  1  0.510600  0.054000  0.118000  1.0  0.03
  C  C335  1  0.492400  0.090500  0.147300  1.0  -0.0996
  C  C336  1  0.374400  0.113600  0.148000  1.0  0.1243
  C  C337  1  0.277900  0.098200  0.119700  1.0  -0.1302
  C  C338  1  0.300100  0.060500  0.091000  1.0  0.0465
  C  C339  1  0.437700  0.000600  0.058600  1.0  -0.1717
  C  C340  1  0.353900  0.354600  0.272900  1.0  0.1844
  C  C341  1  0.369800  0.399000  0.251300  1.0  -0.1582
  C  C342  1  0.370300  0.391800  0.204900  1.0  -0.158
  C  C343  1  0.352000  0.343100  0.197400  1.0  0.1891
  C  C344  1  0.356700  0.345600  0.320700  1.0  -0.0306
  C  C345  1  0.510600  0.446000  0.382000  1.0  0.0292
  C  C346  1  0.492400  0.409500  0.352700  1.0  -0.0985
  C  C347  1  0.374400  0.386400  0.352000  1.0  0.125
  C  C348  1  0.277900  0.401800  0.380300  1.0  -0.1297
  C  C349  1  0.300100  0.439500  0.409000  1.0  0.0471
  C  C350  1  0.437700  0.499400  0.441400  1.0  -0.1727
  N  N351  1  0.658700  0.739240  0.678270  1.0  -0.3008
  N  N352  1  0.586100  0.909400  0.539800  1.0  0.0661
  N  N353  1  0.658700  0.760760  0.821730  1.0  -0.2995
  N  N354  1  0.586100  0.590600  0.960200  1.0  0.0671
  N  N355  1  0.658700  0.821730  0.739240  1.0  -0.3005
  N  N356  1  0.586100  0.960200  0.909400  1.0  0.0682
  N  N357  1  0.658700  0.678270  0.760760  1.0  -0.3011
  N  N358  1  0.586100  0.539800  0.590600  1.0  0.0683
  N  N359  1  0.341300  0.260760  0.321730  1.0  -0.2994
  N  N360  1  0.413900  0.090600  0.460200  1.0  0.0671
  N  N361  1  0.341300  0.239240  0.178270  1.0  -0.301
  N  N362  1  0.413900  0.409400  0.039800  1.0  0.0661
  N  N363  1  0.341300  0.178270  0.260760  1.0  -0.301
  N  N364  1  0.413900  0.039800  0.090600  1.0  0.0678
  N  N365  1  0.341300  0.321730  0.239240  1.0  -0.3005
  N  N366  1  0.413900  0.460200  0.409400  1.0  0.0686
  Cl  Cl367  1  0.220630  0.540060  0.989170  1.0  -0.5138
  Cl  Cl368  1  0.220630  0.959940  0.510830  1.0  -0.5149
  Cl  Cl369  1  0.220630  0.510830  0.540060  1.0  -0.5161
  Cl  Cl370  1  0.220630  0.989170  0.959940  1.0  -0.5167
  Cl  Cl371  1  0.779370  0.459940  0.010830  1.0  -0.5153
  Cl  Cl372  1  0.779370  0.040060  0.489170  1.0  -0.5146
  Cl  Cl373  1  0.779370  0.489170  0.459940  1.0  -0.5171
  Cl  Cl374  1  0.779370  0.010830  0.040060  1.0  -0.5148
  Cl  Cl375  1  0.977300  0.750000  0.750000  1.0  -0.4403
  Cl  Cl376  1  0.022700  0.250000  0.250000  1.0  -0.4413
  O  O377  1  0.776700  0.566100  0.079550  1.0  -0.6251
  O  O378  1  0.921100  0.568390  0.022170  1.0  -0.6647
  O  O379  1  0.051900  0.866100  0.998840  1.0  -0.6332
  O  O380  1  0.929000  0.926880  0.981140  1.0  -0.6626
  O  O381  1  0.209400  0.590600  0.885200  1.0  -0.3018
  O  O382  1  0.368000  0.841200  0.006600  1.0  -0.5946
  O  O383  1  0.455400  0.909390  0.990950  1.0  -0.5669
  O  O384  1  0.776700  0.933900  0.420450  1.0  -0.6255
  O  O385  1  0.921100  0.931610  0.477830  1.0  -0.6653
  O  O386  1  0.051900  0.633900  0.501160  1.0  -0.6314
  O  O387  1  0.929000  0.573120  0.518860  1.0  -0.6628
  O  O388  1  0.209400  0.909400  0.614800  1.0  -0.2993
  O  O389  1  0.368000  0.658800  0.493400  1.0  -0.5913
  O  O390  1  0.455400  0.590610  0.509050  1.0  -0.5662
  O  O391  1  0.776700  0.420450  0.566100  1.0  -0.6234
  O  O392  1  0.921100  0.477830  0.568390  1.0  -0.6662
  O  O393  1  0.051900  0.501160  0.866100  1.0  -0.6343
  O  O394  1  0.929000  0.518860  0.926880  1.0  -0.6609
  O  O395  1  0.209400  0.614800  0.590600  1.0  -0.3003
  O  O396  1  0.368000  0.493400  0.841200  1.0  -0.5967
  O  O397  1  0.455400  0.509050  0.909390  1.0  -0.5676
  O  O398  1  0.776700  0.079550  0.933900  1.0  -0.6246
  O  O399  1  0.921100  0.022170  0.931610  1.0  -0.6658
  O  O400  1  0.051900  0.998840  0.633900  1.0  -0.632
  O  O401  1  0.929000  0.981140  0.573120  1.0  -0.6609
  O  O402  1  0.209400  0.885200  0.909400  1.0  -0.299
  O  O403  1  0.368000  0.006600  0.658800  1.0  -0.5964
  O  O404  1  0.455400  0.990950  0.590610  1.0  -0.5672
  O  O405  1  0.223300  0.433900  0.920450  1.0  -0.6267
  O  O406  1  0.078900  0.431610  0.977830  1.0  -0.6644
  O  O407  1  0.948100  0.133900  0.001160  1.0  -0.6327
  O  O408  1  0.071000  0.073120  0.018860  1.0  -0.6633
  O  O409  1  0.790600  0.409400  0.114800  1.0  -0.2998
  O  O410  1  0.632000  0.158800  0.993400  1.0  -0.5937
  O  O411  1  0.544600  0.090610  0.009050  1.0  -0.5668
  O  O412  1  0.223300  0.066100  0.579550  1.0  -0.6257
  O  O413  1  0.078900  0.068390  0.522170  1.0  -0.6644
  O  O414  1  0.948100  0.366100  0.498840  1.0  -0.633
  O  O415  1  0.071000  0.426880  0.481140  1.0  -0.6644
  O  O416  1  0.790600  0.090600  0.385200  1.0  -0.3017
  O  O417  1  0.632000  0.341200  0.506600  1.0  -0.5958
  O  O418  1  0.544600  0.409390  0.490950  1.0  -0.5669
  O  O419  1  0.223300  0.579550  0.433900  1.0  -0.6252
  O  O420  1  0.078900  0.522170  0.431610  1.0  -0.6653
  O  O421  1  0.948100  0.498840  0.133900  1.0  -0.6328
  O  O422  1  0.071000  0.481140  0.073120  1.0  -0.6617
  O  O423  1  0.790600  0.385200  0.409400  1.0  -0.2988
  O  O424  1  0.632000  0.506600  0.158800  1.0  -0.5985
  O  O425  1  0.544600  0.490950  0.090610  1.0  -0.5677
  O  O426  1  0.223300  0.920450  0.066100  1.0  -0.6239
  O  O427  1  0.078900  0.977830  0.068390  1.0  -0.6659
  O  O428  1  0.948100  0.001160  0.366100  1.0  -0.6344
  O  O429  1  0.071000  0.018860  0.426880  1.0  -0.6618
  O  O430  1  0.790600  0.114800  0.090600  1.0  -0.3
  O  O431  1  0.632000  0.993400  0.341200  1.0  -0.5987
  O  O432  1  0.544600  0.009050  0.409390  1.0  -0.5681
