# generated using pymatgen
data_Mn7H76C108N8(Cl2O15)2
_symmetry_space_group_name_H-M   'P 1'
_cell_length_a   10.37180000
_cell_length_b   28.50500000
_cell_length_c   28.50500000
_cell_angle_alpha   90.00000000
_cell_angle_beta   90.00000000
_cell_angle_gamma   90.00000000
_symmetry_Int_Tables_number   1
_chemical_formula_structural   Mn7H76C108N8(Cl2O15)2
_chemical_formula_sum   'Mn14 H152 C216 N16 Cl8 O60'
_cell_volume   8427.45077230
_cell_formula_units_Z   2
loop_
 _symmetry_equiv_pos_site_id
 _symmetry_equiv_pos_as_xyz
  1  'x, y, z'
loop_
 _atom_site_type_symbol
 _atom_site_label
 _atom_site_symmetry_multiplicity
 _atom_site_fract_x
 _atom_site_fract_y
 _atom_site_fract_z
 _atom_site_occupancy
 _atom_site_charge
  Mn  Mn1  1  0.767240  0.490620  0.401710  1.0  1.0896
  Mn  Mn2  1  0.767240  0.009380  0.098290  1.0  1.0905
  Mn  Mn3  1  0.767240  0.098290  0.490620  1.0  1.0904
  Mn  Mn4  1  0.767240  0.401710  0.009380  1.0  1.0901
  Mn  Mn5  1  0.232760  0.509380  0.598290  1.0  1.0905
  Mn  Mn6  1  0.232760  0.990620  0.901710  1.0  1.0896
  Mn  Mn7  1  0.232760  0.901710  0.509380  1.0  1.0904
  Mn  Mn8  1  0.232760  0.598290  0.990620  1.0  1.0906
  Mn  Mn9  1  0.000000  0.500000  0.500000  1.0  1.1889
  Mn  Mn10  1  0.000000  0.000000  0.000000  1.0  1.1889
  Mn  Mn11  1  0.000000  0.000000  0.500000  1.0  1.1889
  Mn  Mn12  1  0.000000  0.500000  0.000000  1.0  1.1889
  Mn  Mn13  1  0.636370  0.750000  0.750000  1.0  0.9393
  Mn  Mn14  1  0.363630  0.250000  0.250000  1.0  0.9392
  H  H15  1  0.929300  0.491200  0.701300  1.0  0.1082
  H  H16  1  0.959700  0.504800  0.855100  1.0  0.1145
  H  H17  1  0.618500  0.429100  0.780300  1.0  0.12
  H  H18  1  0.545400  0.479100  0.721300  1.0  0.1097
  H  H19  1  0.687000  0.500800  0.590500  1.0  0.1061
  H  H20  1  0.659800  0.413800  0.858600  1.0  0.1165
  H  H21  1  0.917500  0.519700  0.776400  1.0  0.121
  H  H22  1  0.797000  0.415700  0.306100  1.0  0.1618
  H  H23  1  0.714800  0.372500  0.325800  1.0  0.1487
  H  H24  1  0.647300  0.422400  0.318000  1.0  0.1511
  H  H25  1  0.929300  0.008800  0.798700  1.0  0.1084
  H  H26  1  0.959700  0.995200  0.644900  1.0  0.1146
  H  H27  1  0.618500  0.070900  0.719700  1.0  0.1213
  H  H28  1  0.545400  0.020900  0.778700  1.0  0.1113
  H  H29  1  0.687000  0.999200  0.909500  1.0  0.1061
  H  H30  1  0.659800  0.086200  0.641400  1.0  0.1174
  H  H31  1  0.917500  0.980300  0.723600  1.0  0.1211
  H  H32  1  0.797000  0.084300  0.193900  1.0  0.1623
  H  H33  1  0.714800  0.127500  0.174200  1.0  0.1483
  H  H34  1  0.647300  0.077600  0.182000  1.0  0.1501
  H  H35  1  0.929300  0.798700  0.491200  1.0  0.1085
  H  H36  1  0.959700  0.644900  0.504800  1.0  0.1147
  H  H37  1  0.618500  0.719700  0.429100  1.0  0.1205
  H  H38  1  0.545400  0.778700  0.479100  1.0  0.1097
  H  H39  1  0.687000  0.909500  0.500800  1.0  0.1057
  H  H40  1  0.659800  0.641400  0.413800  1.0  0.1167
  H  H41  1  0.917500  0.723600  0.519700  1.0  0.1212
  H  H42  1  0.797000  0.193900  0.415700  1.0  0.1646
  H  H43  1  0.714800  0.174200  0.372500  1.0  0.1422
  H  H44  1  0.647300  0.182000  0.422400  1.0  0.1498
  H  H45  1  0.929300  0.701300  0.008800  1.0  0.1087
  H  H46  1  0.959700  0.855100  0.995200  1.0  0.1149
  H  H47  1  0.618500  0.780300  0.070900  1.0  0.1214
  H  H48  1  0.545400  0.721300  0.020900  1.0  0.1113
  H  H49  1  0.687000  0.590500  0.999200  1.0  0.1061
  H  H50  1  0.659800  0.858600  0.086200  1.0  0.1165
  H  H51  1  0.917500  0.776400  0.980300  1.0  0.1212
  H  H52  1  0.797000  0.306100  0.084300  1.0  0.164
  H  H53  1  0.714800  0.325800  0.127500  1.0  0.1428
  H  H54  1  0.647300  0.318000  0.077600  1.0  0.1513
  H  H55  1  0.070700  0.508800  0.298700  1.0  0.1083
  H  H56  1  0.040300  0.495200  0.144900  1.0  0.1142
  H  H57  1  0.381500  0.570900  0.219700  1.0  0.121
  H  H58  1  0.454600  0.520900  0.278700  1.0  0.1117
  H  H59  1  0.313000  0.499200  0.409500  1.0  0.104
  H  H60  1  0.340200  0.586200  0.141400  1.0  0.1172
  H  H61  1  0.082500  0.480300  0.223600  1.0  0.121
  H  H62  1  0.203000  0.584300  0.693900  1.0  0.1625
  H  H63  1  0.285200  0.627500  0.674200  1.0  0.1482
  H  H64  1  0.352700  0.577600  0.682000  1.0  0.1505
  H  H65  1  0.070700  0.991200  0.201300  1.0  0.1085
  H  H66  1  0.040300  0.004800  0.355100  1.0  0.1145
  H  H67  1  0.381500  0.929100  0.280300  1.0  0.1205
  H  H68  1  0.454600  0.979100  0.221300  1.0  0.1113
  H  H69  1  0.313000  0.000800  0.090500  1.0  0.1059
  H  H70  1  0.340200  0.913800  0.358600  1.0  0.1168
  H  H71  1  0.082500  0.019700  0.276400  1.0  0.1213
  H  H72  1  0.203000  0.915700  0.806100  1.0  0.1604
  H  H73  1  0.285200  0.872500  0.825800  1.0  0.1483
  H  H74  1  0.352700  0.922400  0.818000  1.0  0.1489
  H  H75  1  0.070700  0.201300  0.508800  1.0  0.1094
  H  H76  1  0.040300  0.355100  0.495200  1.0  0.1146
  H  H77  1  0.381500  0.280300  0.570900  1.0  0.121
  H  H78  1  0.454600  0.221300  0.520900  1.0  0.1112
  H  H79  1  0.313000  0.090500  0.499200  1.0  0.1058
  H  H80  1  0.340200  0.358600  0.586200  1.0  0.1166
  H  H81  1  0.082500  0.276400  0.480300  1.0  0.1212
  H  H82  1  0.203000  0.806100  0.584300  1.0  0.1626
  H  H83  1  0.285200  0.825800  0.627500  1.0  0.1438
  H  H84  1  0.352700  0.818000  0.577600  1.0  0.1505
  H  H85  1  0.070700  0.298700  0.991200  1.0  0.1088
  H  H86  1  0.040300  0.144900  0.004800  1.0  0.1144
  H  H87  1  0.381500  0.219700  0.929100  1.0  0.1217
  H  H88  1  0.454600  0.278700  0.979100  1.0  0.1113
  H  H89  1  0.313000  0.409500  0.000800  1.0  0.1055
  H  H90  1  0.340200  0.141400  0.913800  1.0  0.1168
  H  H91  1  0.082500  0.223600  0.019700  1.0  0.1213
  H  H92  1  0.203000  0.693900  0.915700  1.0  0.1633
  H  H93  1  0.285200  0.674200  0.872500  1.0  0.1412
  H  H94  1  0.352700  0.682000  0.922400  1.0  0.1494
  H  H95  1  0.627300  0.571200  0.764800  1.0  0.1224
  H  H96  1  0.626800  0.585300  0.679500  1.0  0.1126
  H  H97  1  0.425300  0.596900  0.831300  1.0  0.1239
  H  H98  1  0.394500  0.534000  0.881500  1.0  0.1289
  H  H99  1  0.756400  0.544500  0.926600  1.0  0.109
  H  H100  1  0.791800  0.608600  0.879400  1.0  0.1245
  H  H101  1  0.616600  0.495200  0.964900  1.0  0.1032
  H  H102  1  0.465300  0.498400  0.954500  1.0  0.1033
  H  H103  1  0.555500  0.466200  0.922400  1.0  0.1202
  H  H104  1  0.627300  0.928800  0.735200  1.0  0.1223
  H  H105  1  0.626800  0.914700  0.820500  1.0  0.1123
  H  H106  1  0.425300  0.903100  0.668700  1.0  0.1238
  H  H107  1  0.394500  0.966000  0.618500  1.0  0.1285
  H  H108  1  0.756400  0.955500  0.573400  1.0  0.1093
  H  H109  1  0.791800  0.891400  0.620600  1.0  0.1245
  H  H110  1  0.616600  0.004800  0.535100  1.0  0.1032
  H  H111  1  0.465300  0.001600  0.545500  1.0  0.1035
  H  H112  1  0.555500  0.033800  0.577600  1.0  0.1191
  H  H113  1  0.627300  0.735200  0.571200  1.0  0.1226
  H  H114  1  0.626800  0.820500  0.585300  1.0  0.1124
  H  H115  1  0.425300  0.668700  0.596900  1.0  0.1236
  H  H116  1  0.394500  0.618500  0.534000  1.0  0.1289
  H  H117  1  0.756400  0.573400  0.544500  1.0  0.1093
  H  H118  1  0.791800  0.620600  0.608600  1.0  0.1236
  H  H119  1  0.616600  0.535100  0.495200  1.0  0.1036
  H  H120  1  0.465300  0.545500  0.498400  1.0  0.1032
  H  H121  1  0.555500  0.577600  0.466200  1.0  0.119
  H  H122  1  0.627300  0.764800  0.928800  1.0  0.1227
  H  H123  1  0.626800  0.679500  0.914700  1.0  0.1134
  H  H124  1  0.425300  0.831300  0.903100  1.0  0.1232
  H  H125  1  0.394500  0.881500  0.966000  1.0  0.1282
  H  H126  1  0.756400  0.926600  0.955500  1.0  0.1094
  H  H127  1  0.791800  0.879400  0.891400  1.0  0.124
  H  H128  1  0.616600  0.964900  0.004800  1.0  0.1046
  H  H129  1  0.465300  0.954500  0.001600  1.0  0.1034
  H  H130  1  0.555500  0.922400  0.033800  1.0  0.1213
  H  H131  1  0.372700  0.428800  0.235200  1.0  0.1222
  H  H132  1  0.373200  0.414700  0.320500  1.0  0.1122
  H  H133  1  0.574700  0.403100  0.168700  1.0  0.1238
  H  H134  1  0.605500  0.466000  0.118500  1.0  0.1278
  H  H135  1  0.243600  0.455500  0.073400  1.0  0.109
  H  H136  1  0.208200  0.391400  0.120600  1.0  0.1248
  H  H137  1  0.383400  0.504800  0.035100  1.0  0.1028
  H  H138  1  0.534700  0.501600  0.045500  1.0  0.1049
  H  H139  1  0.444500  0.533800  0.077600  1.0  0.1191
  H  H140  1  0.372700  0.071200  0.264800  1.0  0.1208
  H  H141  1  0.373200  0.085300  0.179500  1.0  0.1127
  H  H142  1  0.574700  0.096900  0.331300  1.0  0.1244
  H  H143  1  0.605500  0.034000  0.381500  1.0  0.129
  H  H144  1  0.243600  0.044500  0.426600  1.0  0.1091
  H  H145  1  0.208200  0.108600  0.379400  1.0  0.125
  H  H146  1  0.383400  0.995200  0.464900  1.0  0.1029
  H  H147  1  0.534700  0.998400  0.454500  1.0  0.1044
  H  H148  1  0.444500  0.966200  0.422400  1.0  0.1207
  H  H149  1  0.372700  0.264800  0.428800  1.0  0.121
  H  H150  1  0.373200  0.179500  0.414700  1.0  0.1134
  H  H151  1  0.574700  0.331300  0.403100  1.0  0.1239
  H  H152  1  0.605500  0.381500  0.466000  1.0  0.1275
  H  H153  1  0.243600  0.426600  0.455500  1.0  0.1095
  H  H154  1  0.208200  0.379400  0.391400  1.0  0.1246
  H  H155  1  0.383400  0.464900  0.504800  1.0  0.1044
  H  H156  1  0.534700  0.454500  0.501600  1.0  0.1045
  H  H157  1  0.444500  0.422400  0.533800  1.0  0.1208
  H  H158  1  0.372700  0.235200  0.071200  1.0  0.1225
  H  H159  1  0.373200  0.320500  0.085300  1.0  0.1124
  H  H160  1  0.574700  0.168700  0.096900  1.0  0.1238
  H  H161  1  0.605500  0.118500  0.034000  1.0  0.1284
  H  H162  1  0.243600  0.073400  0.044500  1.0  0.1092
  H  H163  1  0.208200  0.120600  0.108600  1.0  0.1246
  H  H164  1  0.383400  0.035100  0.995200  1.0  0.1035
  H  H165  1  0.534700  0.045500  0.998400  1.0  0.1049
  H  H166  1  0.444500  0.077600  0.966200  1.0  0.1196
  C  C167  1  0.939900  0.506550  0.609760  1.0  0.7216
  C  C168  1  0.825300  0.498280  0.641320  1.0  -0.1272
  C  C169  1  0.844100  0.491120  0.689060  1.0  -0.0735
  C  C170  1  0.740500  0.483860  0.719450  1.0  0.0535
  C  C171  1  0.764500  0.475530  0.770020  1.0  0.0757
  C  C172  1  0.890400  0.489200  0.839880  1.0  -0.0205
  C  C173  1  0.688500  0.444360  0.795410  1.0  -0.0837
  C  C174  1  0.617000  0.484080  0.701190  1.0  -0.1057
  C  C175  1  0.596800  0.491580  0.653230  1.0  -0.1163
  C  C176  1  0.700700  0.497430  0.623250  1.0  -0.042
  C  C177  1  0.461900  0.495490  0.633440  1.0  0.6635
  C  C178  1  0.838800  0.449720  0.916190  1.0  0.7179
  C  C179  1  0.815100  0.457750  0.864760  1.0  -0.1462
  C  C180  1  0.712600  0.435270  0.841950  1.0  -0.0579
  C  C181  1  0.865200  0.498000  0.793060  1.0  -0.1563
  C  C182  1  0.727000  0.406600  0.327300  1.0  -0.0787
  C  C183  1  0.939900  0.993450  0.890240  1.0  0.7216
  C  C184  1  0.825300  0.001720  0.858680  1.0  -0.1281
  C  C185  1  0.844100  0.008880  0.810940  1.0  -0.073
  C  C186  1  0.740500  0.016140  0.780550  1.0  0.0546
  C  C187  1  0.764500  0.024470  0.729980  1.0  0.0747
  C  C188  1  0.890400  0.010800  0.660120  1.0  -0.0213
  C  C189  1  0.688500  0.055640  0.704590  1.0  -0.0822
  C  C190  1  0.617000  0.015920  0.798810  1.0  -0.1093
  C  C191  1  0.596800  0.008420  0.846770  1.0  -0.1139
  C  C192  1  0.700700  0.002570  0.876750  1.0  -0.0431
  C  C193  1  0.461900  0.004510  0.866560  1.0  0.6632
  C  C194  1  0.838800  0.050280  0.583810  1.0  0.7183
  C  C195  1  0.815100  0.042250  0.635240  1.0  -0.1445
  C  C196  1  0.712600  0.064730  0.658050  1.0  -0.051
  C  C197  1  0.865200  0.002000  0.706940  1.0  -0.1569
  C  C198  1  0.727000  0.093400  0.172700  1.0  -0.0811
  C  C199  1  0.939900  0.890240  0.506550  1.0  0.7218
  C  C200  1  0.825300  0.858680  0.498280  1.0  -0.1279
  C  C201  1  0.844100  0.810940  0.491120  1.0  -0.0751
  C  C202  1  0.740500  0.780550  0.483860  1.0  0.0522
  C  C203  1  0.764500  0.729980  0.475530  1.0  0.0747
  C  C204  1  0.890400  0.660120  0.489200  1.0  -0.0209
  C  C205  1  0.688500  0.704590  0.444360  1.0  -0.0853
  C  C206  1  0.617000  0.798810  0.484080  1.0  -0.1078
  C  C207  1  0.596800  0.846770  0.491580  1.0  -0.112
  C  C208  1  0.700700  0.876750  0.497430  1.0  -0.0432
  C  C209  1  0.461900  0.866560  0.495490  1.0  0.6648
  C  C210  1  0.838800  0.583810  0.449720  1.0  0.7289
  C  C211  1  0.815100  0.635240  0.457750  1.0  -0.1444
  C  C212  1  0.712600  0.658050  0.435270  1.0  -0.0625
  C  C213  1  0.865200  0.706940  0.498000  1.0  -0.1561
  C  C214  1  0.727000  0.172700  0.406600  1.0  -0.0788
  C  C215  1  0.939900  0.609760  0.993450  1.0  0.7206
  C  C216  1  0.825300  0.641320  0.001720  1.0  -0.1283
  C  C217  1  0.844100  0.689060  0.008880  1.0  -0.074
  C  C218  1  0.740500  0.719450  0.016140  1.0  0.0525
  C  C219  1  0.764500  0.770020  0.024470  1.0  0.0749
  C  C220  1  0.890400  0.839880  0.010800  1.0  -0.0224
  C  C221  1  0.688500  0.795410  0.055640  1.0  -0.0844
  C  C222  1  0.617000  0.701190  0.015920  1.0  -0.1104
  C  C223  1  0.596800  0.653230  0.008420  1.0  -0.1127
  C  C224  1  0.700700  0.623250  0.002570  1.0  -0.0424
  C  C225  1  0.461900  0.633440  0.004510  1.0  0.6625
  C  C226  1  0.838800  0.916190  0.050280  1.0  0.716
  C  C227  1  0.815100  0.864760  0.042250  1.0  -0.1433
  C  C228  1  0.712600  0.841950  0.064730  1.0  -0.0614
  C  C229  1  0.865200  0.793060  0.002000  1.0  -0.1573
  C  C230  1  0.727000  0.327300  0.093400  1.0  -0.0805
  C  C231  1  0.060100  0.493450  0.390240  1.0  0.7226
  C  C232  1  0.174700  0.501720  0.358680  1.0  -0.1258
  C  C233  1  0.155900  0.508880  0.310940  1.0  -0.0733
  C  C234  1  0.259500  0.516140  0.280550  1.0  0.0544
  C  C235  1  0.235500  0.524470  0.229980  1.0  0.0748
  C  C236  1  0.109600  0.510800  0.160120  1.0  -0.0181
  C  C237  1  0.311500  0.555640  0.204590  1.0  -0.0817
  C  C238  1  0.383000  0.515920  0.298810  1.0  -0.1065
  C  C239  1  0.403200  0.508420  0.346770  1.0  -0.1136
  C  C240  1  0.299300  0.502570  0.376750  1.0  -0.0427
  C  C241  1  0.538100  0.504510  0.366560  1.0  0.6654
  C  C242  1  0.161200  0.550280  0.083810  1.0  0.7203
  C  C243  1  0.184900  0.542250  0.135240  1.0  -0.1456
  C  C244  1  0.287400  0.564730  0.158050  1.0  -0.0487
  C  C245  1  0.134800  0.502000  0.206940  1.0  -0.1562
  C  C246  1  0.273000  0.593400  0.672700  1.0  -0.0834
  C  C247  1  0.060100  0.006550  0.109760  1.0  0.7224
  C  C248  1  0.174700  0.998280  0.141320  1.0  -0.1265
  C  C249  1  0.155900  0.991120  0.189060  1.0  -0.0743
  C  C250  1  0.259500  0.983860  0.219450  1.0  0.0534
  C  C251  1  0.235500  0.975530  0.270020  1.0  0.0758
  C  C252  1  0.109600  0.989200  0.339880  1.0  -0.0193
  C  C253  1  0.311500  0.944360  0.295410  1.0  -0.0848
  C  C254  1  0.383000  0.984080  0.201190  1.0  -0.1065
  C  C255  1  0.403200  0.991580  0.153230  1.0  -0.1155
  C  C256  1  0.299300  0.997430  0.123250  1.0  -0.0412
  C  C257  1  0.538100  0.995490  0.133440  1.0  0.6658
  C  C258  1  0.161200  0.949720  0.416190  1.0  0.716
  C  C259  1  0.184900  0.957750  0.364760  1.0  -0.1468
  C  C260  1  0.287400  0.935270  0.341950  1.0  -0.0591
  C  C261  1  0.134800  0.998000  0.293060  1.0  -0.1563
  C  C262  1  0.273000  0.906600  0.827300  1.0  -0.083
  C  C263  1  0.060100  0.109760  0.493450  1.0  0.7213
  C  C264  1  0.174700  0.141320  0.501720  1.0  -0.1265
  C  C265  1  0.155900  0.189060  0.508880  1.0  -0.0742
  C  C266  1  0.259500  0.219450  0.516140  1.0  0.0522
  C  C267  1  0.235500  0.270020  0.524470  1.0  0.0742
  C  C268  1  0.109600  0.339880  0.510800  1.0  -0.0199
  C  C269  1  0.311500  0.295410  0.555640  1.0  -0.0837
  C  C270  1  0.383000  0.201190  0.515920  1.0  -0.1071
  C  C271  1  0.403200  0.153230  0.508420  1.0  -0.1127
  C  C272  1  0.299300  0.123250  0.502570  1.0  -0.0423
  C  C273  1  0.538100  0.133440  0.504510  1.0  0.6654
  C  C274  1  0.161200  0.416190  0.550280  1.0  0.7152
  C  C275  1  0.184900  0.364760  0.542250  1.0  -0.1438
  C  C276  1  0.287400  0.341950  0.564730  1.0  -0.0602
  C  C277  1  0.134800  0.293060  0.502000  1.0  -0.1571
  C  C278  1  0.273000  0.827300  0.593400  1.0  -0.0827
  C  C279  1  0.060100  0.390240  0.006550  1.0  0.723
  C  C280  1  0.174700  0.358680  0.998280  1.0  -0.1268
  C  C281  1  0.155900  0.310940  0.991120  1.0  -0.0758
  C  C282  1  0.259500  0.280550  0.983860  1.0  0.0524
  C  C283  1  0.235500  0.229980  0.975530  1.0  0.0747
  C  C284  1  0.109600  0.160120  0.989200  1.0  -0.0188
  C  C285  1  0.311500  0.204590  0.944360  1.0  -0.0864
  C  C286  1  0.383000  0.298810  0.984080  1.0  -0.1079
  C  C287  1  0.403200  0.346770  0.991580  1.0  -0.1115
  C  C288  1  0.299300  0.376750  0.997430  1.0  -0.0425
  C  C289  1  0.538100  0.366560  0.995490  1.0  0.6663
  C  C290  1  0.161200  0.083810  0.949720  1.0  0.73
  C  C291  1  0.184900  0.135240  0.957750  1.0  -0.1459
  C  C292  1  0.287400  0.158050  0.935270  1.0  -0.062
  C  C293  1  0.134800  0.206940  0.998000  1.0  -0.1558
  C  C294  1  0.273000  0.672700  0.906600  1.0  -0.0828
  C  C295  1  0.630200  0.645640  0.771870  1.0  0.1961
  C  C296  1  0.629700  0.652570  0.820090  1.0  -0.0739
  C  C297  1  0.632900  0.657990  0.696100  1.0  0.178
  C  C298  1  0.628500  0.600920  0.749700  1.0  -0.1712
  C  C299  1  0.628800  0.608650  0.703340  1.0  -0.1664
  C  C300  1  0.612400  0.610390  0.850580  1.0  0.0869
  C  C301  1  0.493200  0.586900  0.851300  1.0  -0.0705
  C  C302  1  0.475200  0.549700  0.880600  1.0  0.0064
  C  C303  1  0.688400  0.556090  0.907500  1.0  0.0546
  C  C304  1  0.709900  0.593670  0.879400  1.0  -0.1195
  C  C305  1  0.550900  0.495490  0.940240  1.0  -0.1675
  C  C306  1  0.630200  0.854360  0.728130  1.0  0.1971
  C  C307  1  0.629700  0.847430  0.679910  1.0  -0.0746
  C  C308  1  0.632900  0.842010  0.803900  1.0  0.1802
  C  C309  1  0.628500  0.899080  0.750300  1.0  -0.1715
  C  C310  1  0.628800  0.891350  0.796660  1.0  -0.1649
  C  C311  1  0.612400  0.889610  0.649420  1.0  0.0864
  C  C312  1  0.493200  0.913100  0.648700  1.0  -0.0619
  C  C313  1  0.475200  0.950300  0.619400  1.0  0.0033
  C  C314  1  0.688400  0.943910  0.592500  1.0  0.0529
  C  C315  1  0.709900  0.906330  0.620600  1.0  -0.1196
  C  C316  1  0.550900  0.004510  0.559760  1.0  -0.1648
  C  C317  1  0.630200  0.728130  0.645640  1.0  0.1973
  C  C318  1  0.629700  0.679910  0.652570  1.0  -0.0748
  C  C319  1  0.632900  0.803900  0.657990  1.0  0.1815
  C  C320  1  0.628500  0.750300  0.600920  1.0  -0.1717
  C  C321  1  0.628800  0.796660  0.608650  1.0  -0.1661
  C  C322  1  0.612400  0.649420  0.610390  1.0  0.0865
  C  C323  1  0.493200  0.648700  0.586900  1.0  -0.0721
  C  C324  1  0.475200  0.619400  0.549700  1.0  0.0068
  C  C325  1  0.688400  0.592500  0.556090  1.0  0.054
  C  C326  1  0.709900  0.620600  0.593670  1.0  -0.1191
  C  C327  1  0.550900  0.559760  0.495490  1.0  -0.1666
  C  C328  1  0.630200  0.771870  0.854360  1.0  0.1991
  C  C329  1  0.629700  0.820090  0.847430  1.0  -0.0744
  C  C330  1  0.632900  0.696100  0.842010  1.0  0.1821
  C  C331  1  0.628500  0.749700  0.899080  1.0  -0.1699
  C  C332  1  0.628800  0.703340  0.891350  1.0  -0.1667
  C  C333  1  0.612400  0.850580  0.889610  1.0  0.0871
  C  C334  1  0.493200  0.851300  0.913100  1.0  -0.0719
  C  C335  1  0.475200  0.880600  0.950300  1.0  0.006
  C  C336  1  0.688400  0.907500  0.943910  1.0  0.0542
  C  C337  1  0.709900  0.879400  0.906330  1.0  -0.1256
  C  C338  1  0.550900  0.940240  0.004510  1.0  -0.1655
  C  C339  1  0.369800  0.354360  0.228130  1.0  0.1963
  C  C340  1  0.370300  0.347430  0.179910  1.0  -0.0755
  C  C341  1  0.367100  0.342010  0.303900  1.0  0.1784
  C  C342  1  0.371500  0.399080  0.250300  1.0  -0.172
  C  C343  1  0.371200  0.391350  0.296660  1.0  -0.1643
  C  C344  1  0.387600  0.389610  0.149420  1.0  0.0866
  C  C345  1  0.506800  0.413100  0.148700  1.0  -0.063
  C  C346  1  0.524800  0.450300  0.119400  1.0  0.0024
  C  C347  1  0.311600  0.443910  0.092500  1.0  0.0539
  C  C348  1  0.290100  0.406330  0.120600  1.0  -0.119
  C  C349  1  0.449100  0.504510  0.059760  1.0  -0.1641
  C  C350  1  0.369800  0.145640  0.271870  1.0  0.1961
  C  C351  1  0.370300  0.152570  0.320090  1.0  -0.0749
  C  C352  1  0.367100  0.157990  0.196100  1.0  0.1792
  C  C353  1  0.371500  0.100920  0.249700  1.0  -0.1726
  C  C354  1  0.371200  0.108650  0.203340  1.0  -0.1657
  C  C355  1  0.387600  0.110390  0.350580  1.0  0.087
  C  C356  1  0.506800  0.086900  0.351300  1.0  -0.0687
  C  C357  1  0.524800  0.049700  0.380600  1.0  0.0026
  C  C358  1  0.311600  0.056090  0.407500  1.0  0.054
  C  C359  1  0.290100  0.093670  0.379400  1.0  -0.1201
  C  C360  1  0.449100  0.995490  0.440240  1.0  -0.1676
  C  C361  1  0.369800  0.271870  0.354360  1.0  0.1991
  C  C362  1  0.370300  0.320090  0.347430  1.0  -0.0758
  C  C363  1  0.367100  0.196100  0.342010  1.0  0.181
  C  C364  1  0.371500  0.249700  0.399080  1.0  -0.1713
  C  C365  1  0.371200  0.203340  0.391350  1.0  -0.1662
  C  C366  1  0.387600  0.350580  0.389610  1.0  0.087
  C  C367  1  0.506800  0.351300  0.413100  1.0  -0.0715
  C  C368  1  0.524800  0.380600  0.450300  1.0  0.0041
  C  C369  1  0.311600  0.407500  0.443910  1.0  0.0538
  C  C370  1  0.290100  0.379400  0.406330  1.0  -0.1259
  C  C371  1  0.449100  0.440240  0.504510  1.0  -0.1636
  C  C372  1  0.369800  0.228130  0.145640  1.0  0.1973
  C  C373  1  0.370300  0.179910  0.152570  1.0  -0.0755
  C  C374  1  0.367100  0.303900  0.157990  1.0  0.1801
  C  C375  1  0.371500  0.250300  0.100920  1.0  -0.1729
  C  C376  1  0.371200  0.296660  0.108650  1.0  -0.1657
  C  C377  1  0.387600  0.149420  0.110390  1.0  0.0866
  C  C378  1  0.506800  0.148700  0.086900  1.0  -0.0714
  C  C379  1  0.524800  0.119400  0.049700  1.0  0.0029
  C  C380  1  0.311600  0.092500  0.056090  1.0  0.0542
  C  C381  1  0.290100  0.120600  0.093670  1.0  -0.119
  C  C382  1  0.449100  0.059760  0.995490  1.0  -0.1659
  N  N383  1  0.634400  0.680240  0.738700  1.0  -0.4199
  N  N384  1  0.573600  0.535270  0.908770  1.0  0.0506
  N  N385  1  0.634400  0.819760  0.761300  1.0  -0.4201
  N  N386  1  0.573600  0.964730  0.591230  1.0  0.0493
  N  N387  1  0.634400  0.761300  0.680240  1.0  -0.4193
  N  N388  1  0.573600  0.591230  0.535270  1.0  0.0488
  N  N389  1  0.634400  0.738700  0.819760  1.0  -0.4204
  N  N390  1  0.573600  0.908770  0.964730  1.0  0.049
  N  N391  1  0.365600  0.319760  0.261300  1.0  -0.4184
  N  N392  1  0.426400  0.464730  0.091230  1.0  0.0507
  N  N393  1  0.365600  0.180240  0.238700  1.0  -0.418
  N  N394  1  0.426400  0.035270  0.408770  1.0  0.0512
  N  N395  1  0.365600  0.238700  0.319760  1.0  -0.4184
  N  N396  1  0.426400  0.408770  0.464730  1.0  0.049
  N  N397  1  0.365600  0.261300  0.180240  1.0  -0.4174
  N  N398  1  0.426400  0.091230  0.035270  1.0  0.0498
  Cl  Cl399  1  0.791070  0.456300  0.480560  1.0  -0.5288
  Cl  Cl400  1  0.791070  0.043700  0.019440  1.0  -0.5279
  Cl  Cl401  1  0.791070  0.019440  0.456300  1.0  -0.5306
  Cl  Cl402  1  0.791070  0.480560  0.043700  1.0  -0.5294
  Cl  Cl403  1  0.208930  0.543700  0.519440  1.0  -0.5285
  Cl  Cl404  1  0.208930  0.956300  0.980560  1.0  -0.5287
  Cl  Cl405  1  0.208930  0.980560  0.543700  1.0  -0.5308
  Cl  Cl406  1  0.208930  0.519440  0.956300  1.0  -0.5311
  O  O407  1  0.916700  0.515680  0.567490  1.0  -0.611
  O  O408  1  0.922300  0.475140  0.935310  1.0  -0.642
  O  O409  1  0.775300  0.418550  0.935900  1.0  -0.6147
  O  O410  1  0.366800  0.487930  0.660030  1.0  -0.5503
  O  O411  1  0.448200  0.508110  0.592050  1.0  -0.559
  O  O412  1  0.048200  0.503800  0.628250  1.0  -0.5971
  O  O413  1  0.758200  0.419140  0.372100  1.0  -0.602
  O  O414  1  0.916700  0.984320  0.932510  1.0  -0.6093
  O  O415  1  0.922300  0.024860  0.564690  1.0  -0.6414
  O  O416  1  0.775300  0.081450  0.564100  1.0  -0.6163
  O  O417  1  0.366800  0.012070  0.839970  1.0  -0.5479
  O  O418  1  0.448200  0.991890  0.907950  1.0  -0.5584
  O  O419  1  0.048200  0.996200  0.871750  1.0  -0.5974
  O  O420  1  0.758200  0.080860  0.127900  1.0  -0.5994
  O  O421  1  0.916700  0.932510  0.515680  1.0  -0.6124
  O  O422  1  0.922300  0.564690  0.475140  1.0  -0.6415
  O  O423  1  0.775300  0.564100  0.418550  1.0  -0.6209
  O  O424  1  0.366800  0.839970  0.487930  1.0  -0.5455
  O  O425  1  0.448200  0.907950  0.508110  1.0  -0.5558
  O  O426  1  0.048200  0.871750  0.503800  1.0  -0.5982
  O  O427  1  0.758200  0.127900  0.419140  1.0  -0.609
  O  O428  1  0.916700  0.567490  0.984320  1.0  -0.6113
  O  O429  1  0.922300  0.935310  0.024860  1.0  -0.6413
  O  O430  1  0.775300  0.935900  0.081450  1.0  -0.6185
  O  O431  1  0.366800  0.660030  0.012070  1.0  -0.5453
  O  O432  1  0.448200  0.592050  0.991890  1.0  -0.5568
  O  O433  1  0.048200  0.628250  0.996200  1.0  -0.5984
  O  O434  1  0.758200  0.372100  0.080860  1.0  -0.6036
  O  O435  1  0.083300  0.484320  0.432510  1.0  -0.6106
  O  O436  1  0.077700  0.524860  0.064690  1.0  -0.6435
  O  O437  1  0.224700  0.581450  0.064100  1.0  -0.6192
  O  O438  1  0.633200  0.512070  0.339970  1.0  -0.5483
  O  O439  1  0.551800  0.491890  0.407950  1.0  -0.5597
  O  O440  1  0.951800  0.496200  0.371750  1.0  -0.5974
  O  O441  1  0.241800  0.580860  0.627900  1.0  -0.5996
  O  O442  1  0.083300  0.015680  0.067490  1.0  -0.61
  O  O443  1  0.077700  0.975140  0.435310  1.0  -0.6429
  O  O444  1  0.224700  0.918550  0.435900  1.0  -0.6161
  O  O445  1  0.633200  0.987930  0.160030  1.0  -0.5496
  O  O446  1  0.551800  0.008110  0.092050  1.0  -0.5585
  O  O447  1  0.951800  0.003800  0.128250  1.0  -0.5974
  O  O448  1  0.241800  0.919140  0.872100  1.0  -0.6014
  O  O449  1  0.083300  0.067490  0.484320  1.0  -0.611
  O  O450  1  0.077700  0.435310  0.524860  1.0  -0.6437
  O  O451  1  0.224700  0.435900  0.581450  1.0  -0.6218
  O  O452  1  0.633200  0.160030  0.512070  1.0  -0.5451
  O  O453  1  0.551800  0.092050  0.491890  1.0  -0.5571
  O  O454  1  0.951800  0.128250  0.496200  1.0  -0.5985
  O  O455  1  0.241800  0.872100  0.580860  1.0  -0.6041
  O  O456  1  0.083300  0.432510  0.015680  1.0  -0.6117
  O  O457  1  0.077700  0.064690  0.975140  1.0  -0.6429
  O  O458  1  0.224700  0.064100  0.918550  1.0  -0.623
  O  O459  1  0.633200  0.339970  0.987930  1.0  -0.5454
  O  O460  1  0.551800  0.407950  0.008110  1.0  -0.5576
  O  O461  1  0.951800  0.371750  0.003800  1.0  -0.5988
  O  O462  1  0.241800  0.627900  0.919140  1.0  -0.6063
  O  O463  1  0.850900  0.750000  0.750000  1.0  -0.2385
  O  O464  1  0.421900  0.750000  0.750000  1.0  -0.2711
  O  O465  1  0.149100  0.250000  0.250000  1.0  -0.241
  O  O466  1  0.578100  0.250000  0.250000  1.0  -0.2669
