# generated using pymatgen
data_Cd2Cu5H64C104N8(ClO6)4
_symmetry_space_group_name_H-M   'P 1'
_cell_length_a   9.99410000
_cell_length_b   29.28460000
_cell_length_c   29.28460000
_cell_angle_alpha   90.00000000
_cell_angle_beta   90.00000000
_cell_angle_gamma   90.00000000
_symmetry_Int_Tables_number   1
_chemical_formula_structural   Cd2Cu5H64C104N8(ClO6)4
_chemical_formula_sum   'Cd4 Cu10 H128 C208 N16 Cl8 O48'
_cell_volume   8570.81820360
_cell_formula_units_Z   2
loop_
 _symmetry_equiv_pos_site_id
 _symmetry_equiv_pos_as_xyz
  1  'x, y, z'
loop_
 _atom_site_type_symbol
 _atom_site_label
 _atom_site_symmetry_multiplicity
 _atom_site_fract_x
 _atom_site_fract_y
 _atom_site_fract_z
 _atom_site_occupancy
 _atom_site_charge
  Cd  Cd1  1  0.000000  0.000000  0.500000  1.0  1.0802
  Cd  Cd2  1  0.000000  0.500000  0.000000  1.0  1.0802
  Cd  Cd3  1  0.000000  0.000000  0.000000  1.0  1.0802
  Cd  Cd4  1  0.000000  0.500000  0.500000  1.0  1.0802
  Cu  Cu5  1  0.786880  0.992900  0.402090  1.0  0.92
  Cu  Cu6  1  0.786880  0.507100  0.097910  1.0  0.9185
  Cu  Cu7  1  0.786880  0.097910  0.992900  1.0  0.919
  Cu  Cu8  1  0.786880  0.402090  0.507100  1.0  0.9231
  Cu  Cu9  1  0.213120  0.007100  0.597910  1.0  0.9178
  Cu  Cu10  1  0.213120  0.492900  0.902090  1.0  0.92
  Cu  Cu11  1  0.213120  0.902090  0.007100  1.0  0.9231
  Cu  Cu12  1  0.213120  0.597910  0.492900  1.0  0.9188
  Cu  Cu13  1  0.645200  0.750000  0.750000  1.0  0.5524
  Cu  Cu14  1  0.354800  0.250000  0.250000  1.0  0.5527
  H  H15  1  0.530700  0.722500  0.479400  1.0  0.1054
  H  H16  1  0.658600  0.594100  0.494000  1.0  0.1023
  H  H17  1  0.921300  0.696300  0.491100  1.0  0.1186
  H  H18  1  0.903300  0.774900  0.523800  1.0  0.1191
  H  H19  1  0.953600  0.850300  0.509800  1.0  0.1204
  H  H20  1  0.665200  0.853400  0.414400  1.0  0.1273
  H  H21  1  0.613000  0.778700  0.431600  1.0  0.1081
  H  H22  1  0.530700  0.777500  0.020600  1.0  0.1057
  H  H23  1  0.658600  0.905900  0.006000  1.0  0.1026
  H  H24  1  0.921300  0.803700  0.008900  1.0  0.1187
  H  H25  1  0.903300  0.725100  0.976200  1.0  0.119
  H  H26  1  0.953600  0.649700  0.990200  1.0  0.1207
  H  H27  1  0.665200  0.646600  0.085600  1.0  0.1279
  H  H28  1  0.613000  0.721300  0.068400  1.0  0.1091
  H  H29  1  0.530700  0.020600  0.722500  1.0  0.1061
  H  H30  1  0.658600  0.006000  0.594100  1.0  0.1035
  H  H31  1  0.921300  0.008900  0.696300  1.0  0.1188
  H  H32  1  0.903300  0.976200  0.774900  1.0  0.1173
  H  H33  1  0.953600  0.990200  0.850300  1.0  0.1205
  H  H34  1  0.665200  0.085600  0.853400  1.0  0.1287
  H  H35  1  0.613000  0.068400  0.778700  1.0  0.109
  H  H36  1  0.530700  0.479400  0.777500  1.0  0.1059
  H  H37  1  0.658600  0.494000  0.905900  1.0  0.1027
  H  H38  1  0.921300  0.491100  0.803700  1.0  0.119
  H  H39  1  0.903300  0.523800  0.725100  1.0  0.1172
  H  H40  1  0.953600  0.509800  0.649700  1.0  0.1207
  H  H41  1  0.665200  0.414400  0.646600  1.0  0.1277
  H  H42  1  0.613000  0.431600  0.721300  1.0  0.1078
  H  H43  1  0.469300  0.277500  0.520600  1.0  0.1053
  H  H44  1  0.341400  0.405900  0.506000  1.0  0.1028
  H  H45  1  0.078700  0.303700  0.508900  1.0  0.1216
  H  H46  1  0.096700  0.225100  0.476200  1.0  0.119
  H  H47  1  0.046400  0.149700  0.490200  1.0  0.1204
  H  H48  1  0.334800  0.146600  0.585600  1.0  0.1273
  H  H49  1  0.387000  0.221300  0.568400  1.0  0.1089
  H  H50  1  0.469300  0.222500  0.979400  1.0  0.1042
  H  H51  1  0.341400  0.094100  0.994000  1.0  0.1023
  H  H52  1  0.078700  0.196300  0.991100  1.0  0.1212
  H  H53  1  0.096700  0.274900  0.023800  1.0  0.1194
  H  H54  1  0.046400  0.350300  0.009800  1.0  0.1201
  H  H55  1  0.334800  0.353400  0.914400  1.0  0.1275
  H  H56  1  0.387000  0.278700  0.931600  1.0  0.1088
  H  H57  1  0.469300  0.979400  0.277500  1.0  0.1052
  H  H58  1  0.341400  0.994000  0.405900  1.0  0.1027
  H  H59  1  0.078700  0.991100  0.303700  1.0  0.1218
  H  H60  1  0.096700  0.023800  0.225100  1.0  0.1174
  H  H61  1  0.046400  0.009800  0.149700  1.0  0.1204
  H  H62  1  0.334800  0.914400  0.146600  1.0  0.1283
  H  H63  1  0.387000  0.931600  0.221300  1.0  0.1079
  H  H64  1  0.469300  0.520600  0.222500  1.0  0.1052
  H  H65  1  0.341400  0.506000  0.094100  1.0  0.1032
  H  H66  1  0.078700  0.508900  0.196300  1.0  0.1212
  H  H67  1  0.096700  0.476200  0.274900  1.0  0.1171
  H  H68  1  0.046400  0.490200  0.350300  1.0  0.1203
  H  H69  1  0.334800  0.585600  0.353400  1.0  0.1284
  H  H70  1  0.387000  0.568400  0.278700  1.0  0.1088
  H  H71  1  0.816100  0.868000  0.611600  1.0  0.1244
  H  H72  1  0.625000  0.774700  0.577700  1.0  0.1293
  H  H73  1  0.473400  0.950400  0.506800  1.0  0.1255
  H  H74  1  0.605300  0.976600  0.519100  1.0  0.1219
  H  H75  1  0.609000  0.936300  0.484000  1.0  0.1388
  H  H76  1  0.638700  0.692300  0.587600  1.0  0.107
  H  H77  1  0.427700  0.853200  0.620400  1.0  0.1028
  H  H78  1  0.791200  0.920100  0.551500  1.0  0.1254
  H  H79  1  0.394500  0.900900  0.555100  1.0  0.1333
  H  H80  1  0.816100  0.632000  0.888400  1.0  0.1246
  H  H81  1  0.625000  0.725300  0.922300  1.0  0.1295
  H  H82  1  0.473400  0.549600  0.993200  1.0  0.1254
  H  H83  1  0.605300  0.523400  0.980900  1.0  0.1212
  H  H84  1  0.609000  0.563700  0.016000  1.0  0.1373
  H  H85  1  0.638700  0.807700  0.912400  1.0  0.1067
  H  H86  1  0.427700  0.646800  0.879600  1.0  0.1024
  H  H87  1  0.791200  0.579900  0.948500  1.0  0.1255
  H  H88  1  0.394500  0.599100  0.944900  1.0  0.1328
  H  H89  1  0.816100  0.888400  0.868000  1.0  0.124
  H  H90  1  0.625000  0.922300  0.774700  1.0  0.1291
  H  H91  1  0.473400  0.993200  0.950400  1.0  0.1259
  H  H92  1  0.605300  0.980900  0.976600  1.0  0.1207
  H  H93  1  0.609000  0.016000  0.936300  1.0  0.1387
  H  H94  1  0.638700  0.912400  0.692300  1.0  0.1069
  H  H95  1  0.427700  0.879600  0.853200  1.0  0.1028
  H  H96  1  0.791200  0.948500  0.920100  1.0  0.1252
  H  H97  1  0.394500  0.944900  0.900900  1.0  0.134
  H  H98  1  0.816100  0.611600  0.632000  1.0  0.1239
  H  H99  1  0.625000  0.577700  0.725300  1.0  0.1288
  H  H100  1  0.473400  0.506800  0.549600  1.0  0.1261
  H  H101  1  0.605300  0.519100  0.523400  1.0  0.1212
  H  H102  1  0.609000  0.484000  0.563700  1.0  0.1386
  H  H103  1  0.638700  0.587600  0.807700  1.0  0.1067
  H  H104  1  0.427700  0.620400  0.646800  1.0  0.1027
  H  H105  1  0.791200  0.551500  0.579900  1.0  0.125
  H  H106  1  0.394500  0.555100  0.599100  1.0  0.1338
  H  H107  1  0.183900  0.132000  0.388400  1.0  0.1249
  H  H108  1  0.375000  0.225300  0.422300  1.0  0.1291
  H  H109  1  0.526600  0.049600  0.493200  1.0  0.1244
  H  H110  1  0.394700  0.023400  0.480900  1.0  0.1216
  H  H111  1  0.391000  0.063700  0.516000  1.0  0.1369
  H  H112  1  0.361300  0.307700  0.412400  1.0  0.1067
  H  H113  1  0.572300  0.146800  0.379600  1.0  0.102
  H  H114  1  0.208800  0.079900  0.448500  1.0  0.1255
  H  H115  1  0.605500  0.099100  0.444900  1.0  0.1318
  H  H116  1  0.183900  0.368000  0.111600  1.0  0.1248
  H  H117  1  0.375000  0.274700  0.077700  1.0  0.1292
  H  H118  1  0.526600  0.450400  0.006800  1.0  0.1257
  H  H119  1  0.394700  0.476600  0.019100  1.0  0.1219
  H  H120  1  0.391000  0.436300  0.984000  1.0  0.1383
  H  H121  1  0.361300  0.192300  0.087600  1.0  0.1069
  H  H122  1  0.572300  0.353200  0.120400  1.0  0.1016
  H  H123  1  0.208800  0.420100  0.051500  1.0  0.1256
  H  H124  1  0.605500  0.400900  0.055100  1.0  0.1324
  H  H125  1  0.183900  0.111600  0.132000  1.0  0.1245
  H  H126  1  0.375000  0.077700  0.225300  1.0  0.1285
  H  H127  1  0.526600  0.006800  0.049600  1.0  0.1248
  H  H128  1  0.394700  0.019100  0.023400  1.0  0.1212
  H  H129  1  0.391000  0.984000  0.063700  1.0  0.1381
  H  H130  1  0.361300  0.087600  0.307700  1.0  0.1067
  H  H131  1  0.572300  0.120400  0.146800  1.0  0.1021
  H  H132  1  0.208800  0.051500  0.079900  1.0  0.1252
  H  H133  1  0.605500  0.055100  0.099100  1.0  0.1337
  H  H134  1  0.183900  0.388400  0.368000  1.0  0.1243
  H  H135  1  0.375000  0.422300  0.274700  1.0  0.129
  H  H136  1  0.526600  0.493200  0.450400  1.0  0.1262
  H  H137  1  0.394700  0.480900  0.476600  1.0  0.1205
  H  H138  1  0.391000  0.516000  0.436300  1.0  0.139
  H  H139  1  0.361300  0.412400  0.192300  1.0  0.1069
  H  H140  1  0.572300  0.379600  0.353200  1.0  0.1019
  H  H141  1  0.208800  0.448500  0.420100  1.0  0.1253
  H  H142  1  0.605500  0.444900  0.400900  1.0  0.1337
  C  C143  1  0.600500  0.702000  0.483700  1.0  -0.0725
  C  C144  1  0.676800  0.625200  0.492900  1.0  -0.0165
  C  C145  1  0.807400  0.640200  0.494600  1.0  -0.1198
  C  C146  1  0.833400  0.686000  0.490200  1.0  -0.0259
  C  C147  1  0.571500  0.656400  0.489500  1.0  -0.1621
  C  C148  1  0.857200  0.790800  0.501300  1.0  -0.1459
  C  C149  1  0.814600  0.859900  0.461100  1.0  -0.1588
  C  C150  1  0.757800  0.768200  0.475300  1.0  0.0532
  C  C151  1  0.919400  0.606500  0.498000  1.0  0.739
  C  C152  1  0.429700  0.636400  0.489400  1.0  0.6793
  C  C153  1  0.844500  0.911300  0.454900  1.0  0.6799
  C  C154  1  0.728200  0.717800  0.484300  1.0  0.0255
  C  C155  1  0.886000  0.836000  0.493400  1.0  -0.0093
  C  C156  1  0.713200  0.837900  0.436700  1.0  -0.0719
  C  C157  1  0.685100  0.792500  0.446200  1.0  -0.0789
  C  C158  1  0.600500  0.798000  0.016300  1.0  -0.0733
  C  C159  1  0.676800  0.874800  0.007100  1.0  -0.0199
  C  C160  1  0.807400  0.859800  0.005400  1.0  -0.119
  C  C161  1  0.833400  0.814000  0.009800  1.0  -0.0261
  C  C162  1  0.571500  0.843600  0.010500  1.0  -0.1649
  C  C163  1  0.857200  0.709200  0.998700  1.0  -0.1459
  C  C164  1  0.814600  0.640100  0.038900  1.0  -0.157
  C  C165  1  0.757800  0.731800  0.024700  1.0  0.0541
  C  C166  1  0.919400  0.893500  0.002000  1.0  0.739
  C  C167  1  0.429700  0.863600  0.010600  1.0  0.6781
  C  C168  1  0.844500  0.588700  0.045100  1.0  0.6781
  C  C169  1  0.728200  0.782200  0.015700  1.0  0.0244
  C  C170  1  0.886000  0.664000  0.006600  1.0  -0.0112
  C  C171  1  0.713200  0.662100  0.063300  1.0  -0.0741
  C  C172  1  0.685100  0.707500  0.053800  1.0  -0.0824
  C  C173  1  0.600500  0.016300  0.702000  1.0  -0.0734
  C  C174  1  0.676800  0.007100  0.625200  1.0  -0.0221
  C  C175  1  0.807400  0.005400  0.640200  1.0  -0.1191
  C  C176  1  0.833400  0.009800  0.686000  1.0  -0.0252
  C  C177  1  0.571500  0.010500  0.656400  1.0  -0.1623
  C  C178  1  0.857200  0.998700  0.790800  1.0  -0.1458
  C  C179  1  0.814600  0.038900  0.859900  1.0  -0.1626
  C  C180  1  0.757800  0.024700  0.768200  1.0  0.0567
  C  C181  1  0.919400  0.002000  0.606500  1.0  0.7387
  C  C182  1  0.429700  0.010600  0.636400  1.0  0.6767
  C  C183  1  0.844500  0.045100  0.911300  1.0  0.6802
  C  C184  1  0.728200  0.015700  0.717800  1.0  0.0253
  C  C185  1  0.886000  0.006600  0.836000  1.0  -0.0087
  C  C186  1  0.713200  0.063300  0.837900  1.0  -0.0648
  C  C187  1  0.685100  0.053800  0.792500  1.0  -0.0811
  C  C188  1  0.600500  0.483700  0.798000  1.0  -0.0733
  C  C189  1  0.676800  0.492900  0.874800  1.0  -0.0214
  C  C190  1  0.807400  0.494600  0.859800  1.0  -0.12
  C  C191  1  0.833400  0.490200  0.814000  1.0  -0.0256
  C  C192  1  0.571500  0.489500  0.843600  1.0  -0.1642
  C  C193  1  0.857200  0.501300  0.709200  1.0  -0.1464
  C  C194  1  0.814600  0.461100  0.640100  1.0  -0.16
  C  C195  1  0.757800  0.475300  0.731800  1.0  0.0561
  C  C196  1  0.919400  0.498000  0.893500  1.0  0.7401
  C  C197  1  0.429700  0.489400  0.863600  1.0  0.6789
  C  C198  1  0.844500  0.454900  0.588700  1.0  0.6793
  C  C199  1  0.728200  0.484300  0.782200  1.0  0.0258
  C  C200  1  0.886000  0.493400  0.664000  1.0  -0.0085
  C  C201  1  0.713200  0.436700  0.662100  1.0  -0.0648
  C  C202  1  0.685100  0.446200  0.707500  1.0  -0.0824
  C  C203  1  0.399500  0.298000  0.516300  1.0  -0.0709
  C  C204  1  0.323200  0.374800  0.507100  1.0  -0.0192
  C  C205  1  0.192600  0.359800  0.505400  1.0  -0.1188
  C  C206  1  0.166600  0.314000  0.509800  1.0  -0.0272
  C  C207  1  0.428500  0.343600  0.510500  1.0  -0.1663
  C  C208  1  0.142800  0.209200  0.498700  1.0  -0.1478
  C  C209  1  0.185400  0.140100  0.538900  1.0  -0.1579
  C  C210  1  0.242200  0.231800  0.524700  1.0  0.0537
  C  C211  1  0.080600  0.393500  0.502000  1.0  0.74
  C  C212  1  0.570300  0.363600  0.510600  1.0  0.6809
  C  C213  1  0.155500  0.088700  0.545100  1.0  0.6766
  C  C214  1  0.271800  0.282200  0.515700  1.0  0.0244
  C  C215  1  0.114000  0.164000  0.506600  1.0  -0.0107
  C  C216  1  0.286800  0.162100  0.563300  1.0  -0.073
  C  C217  1  0.314900  0.207500  0.553800  1.0  -0.0806
  C  C218  1  0.399500  0.202000  0.983700  1.0  -0.0715
  C  C219  1  0.323200  0.125200  0.992900  1.0  -0.0163
  C  C220  1  0.192600  0.140200  0.994600  1.0  -0.1204
  C  C221  1  0.166600  0.186000  0.990200  1.0  -0.0272
  C  C222  1  0.428500  0.156400  0.989500  1.0  -0.1644
  C  C223  1  0.142800  0.290800  0.001300  1.0  -0.1476
  C  C224  1  0.185400  0.359900  0.961100  1.0  -0.1585
  C  C225  1  0.242200  0.268200  0.975300  1.0  0.0526
  C  C226  1  0.080600  0.106500  0.998000  1.0  0.7393
  C  C227  1  0.570300  0.136400  0.989400  1.0  0.6816
  C  C228  1  0.155500  0.411300  0.954900  1.0  0.6809
  C  C229  1  0.271800  0.217800  0.984300  1.0  0.0257
  C  C230  1  0.114000  0.336000  0.993400  1.0  -0.0105
  C  C231  1  0.286800  0.337900  0.936700  1.0  -0.0728
  C  C232  1  0.314900  0.292500  0.946200  1.0  -0.0789
  C  C233  1  0.399500  0.983700  0.298000  1.0  -0.0715
  C  C234  1  0.323200  0.992900  0.374800  1.0  -0.0206
  C  C235  1  0.192600  0.994600  0.359800  1.0  -0.1202
  C  C236  1  0.166600  0.990200  0.314000  1.0  -0.0265
  C  C237  1  0.428500  0.989500  0.343600  1.0  -0.1657
  C  C238  1  0.142800  0.001300  0.209200  1.0  -0.1481
  C  C239  1  0.185400  0.961100  0.140100  1.0  -0.1615
  C  C240  1  0.242200  0.975300  0.231800  1.0  0.0561
  C  C241  1  0.080600  0.998000  0.393500  1.0  0.7404
  C  C242  1  0.570300  0.989400  0.363600  1.0  0.6811
  C  C243  1  0.155500  0.954900  0.088700  1.0  0.6795
  C  C244  1  0.271800  0.984300  0.282200  1.0  0.0262
  C  C245  1  0.114000  0.993400  0.164000  1.0  -0.0087
  C  C246  1  0.286800  0.936700  0.162100  1.0  -0.0651
  C  C247  1  0.314900  0.946200  0.207500  1.0  -0.0815
  C  C248  1  0.399500  0.516300  0.202000  1.0  -0.0729
  C  C249  1  0.323200  0.507100  0.125200  1.0  -0.0213
  C  C250  1  0.192600  0.505400  0.140200  1.0  -0.1203
  C  C251  1  0.166600  0.509800  0.186000  1.0  -0.0278
  C  C252  1  0.428500  0.510500  0.156400  1.0  -0.1648
  C  C253  1  0.142800  0.498700  0.290800  1.0  -0.1475
  C  C254  1  0.185400  0.538900  0.359900  1.0  -0.1624
  C  C255  1  0.242200  0.524700  0.268200  1.0  0.056
  C  C256  1  0.080600  0.502000  0.106500  1.0  0.7395
  C  C257  1  0.570300  0.510600  0.136400  1.0  0.6797
  C  C258  1  0.155500  0.545100  0.411300  1.0  0.6792
  C  C259  1  0.271800  0.515700  0.217800  1.0  0.0255
  C  C260  1  0.114000  0.506600  0.336000  1.0  -0.009
  C  C261  1  0.286800  0.563300  0.337900  1.0  -0.0633
  C  C262  1  0.314900  0.553800  0.292500  1.0  -0.0806
  C  C263  1  0.731100  0.875100  0.600800  1.0  -0.0959
  C  C264  1  0.622000  0.855200  0.620600  1.0  0.1131
  C  C265  1  0.637800  0.776300  0.650800  1.0  0.2148
  C  C266  1  0.631300  0.758500  0.605000  1.0  -0.1431
  C  C267  1  0.634300  0.822000  0.658800  1.0  -0.0143
  C  C268  1  0.568100  0.947400  0.511400  1.0  -0.2553
  C  C269  1  0.636300  0.713900  0.610900  1.0  -0.1119
  C  C270  1  0.637300  0.703700  0.658200  1.0  0.1126
  C  C271  1  0.501500  0.865600  0.605500  1.0  -0.1194
  C  C272  1  0.717500  0.905900  0.564700  1.0  0.0777
  C  C273  1  0.478900  0.895100  0.567200  1.0  0.0064
  C  C274  1  0.731100  0.624900  0.899200  1.0  -0.0962
  C  C275  1  0.622000  0.644800  0.879400  1.0  0.1128
  C  C276  1  0.637800  0.723700  0.849200  1.0  0.215
  C  C277  1  0.631300  0.741500  0.895000  1.0  -0.1427
  C  C278  1  0.634300  0.678000  0.841200  1.0  -0.0137
  C  C279  1  0.568100  0.552600  0.988600  1.0  -0.2555
  C  C280  1  0.636300  0.786100  0.889100  1.0  -0.1107
  C  C281  1  0.637300  0.796300  0.841800  1.0  0.1141
  C  C282  1  0.501500  0.634400  0.894500  1.0  -0.1197
  C  C283  1  0.717500  0.594100  0.935300  1.0  0.078
  C  C284  1  0.478900  0.604900  0.932800  1.0  0.0055
  C  C285  1  0.731100  0.899200  0.875100  1.0  -0.0968
  C  C286  1  0.622000  0.879400  0.855200  1.0  0.1128
  C  C287  1  0.637800  0.849200  0.776300  1.0  0.2143
  C  C288  1  0.631300  0.895000  0.758500  1.0  -0.1438
  C  C289  1  0.634300  0.841200  0.822000  1.0  -0.0154
  C  C290  1  0.568100  0.988600  0.947400  1.0  -0.2544
  C  C291  1  0.636300  0.889100  0.713900  1.0  -0.11
  C  C292  1  0.637300  0.841800  0.703700  1.0  0.11
  C  C293  1  0.501500  0.894500  0.865600  1.0  -0.1181
  C  C294  1  0.717500  0.935300  0.905900  1.0  0.0778
  C  C295  1  0.478900  0.932800  0.895100  1.0  0.0051
  C  C296  1  0.731100  0.600800  0.624900  1.0  -0.096
  C  C297  1  0.622000  0.620600  0.644800  1.0  0.1133
  C  C298  1  0.637800  0.650800  0.723700  1.0  0.2126
  C  C299  1  0.631300  0.605000  0.741500  1.0  -0.1441
  C  C300  1  0.634300  0.658800  0.678000  1.0  -0.0148
  C  C301  1  0.568100  0.511400  0.552600  1.0  -0.2549
  C  C302  1  0.636300  0.610900  0.786100  1.0  -0.1096
  C  C303  1  0.637300  0.658200  0.796300  1.0  0.1118
  C  C304  1  0.501500  0.605500  0.634400  1.0  -0.1177
  C  C305  1  0.717500  0.564700  0.594100  1.0  0.0774
  C  C306  1  0.478900  0.567200  0.604900  1.0  0.0054
  C  C307  1  0.268900  0.124900  0.399200  1.0  -0.0958
  C  C308  1  0.378000  0.144800  0.379400  1.0  0.1132
  C  C309  1  0.362200  0.223700  0.349200  1.0  0.2151
  C  C310  1  0.368700  0.241500  0.395000  1.0  -0.1432
  C  C311  1  0.365700  0.178000  0.341200  1.0  -0.0134
  C  C312  1  0.431900  0.052600  0.488600  1.0  -0.2555
  C  C313  1  0.363700  0.286100  0.389100  1.0  -0.1107
  C  C314  1  0.362700  0.296300  0.341800  1.0  0.1144
  C  C315  1  0.498500  0.134400  0.394500  1.0  -0.1185
  C  C316  1  0.282500  0.094100  0.435300  1.0  0.0779
  C  C317  1  0.521100  0.104900  0.432800  1.0  0.0062
  C  C318  1  0.268900  0.375100  0.100800  1.0  -0.0952
  C  C319  1  0.378000  0.355200  0.120600  1.0  0.113
  C  C320  1  0.362200  0.276300  0.150800  1.0  0.2152
  C  C321  1  0.368700  0.258500  0.105000  1.0  -0.1435
  C  C322  1  0.365700  0.322000  0.158800  1.0  -0.014
  C  C323  1  0.431900  0.447400  0.011400  1.0  -0.2557
  C  C324  1  0.363700  0.213900  0.110900  1.0  -0.1121
  C  C325  1  0.362700  0.203700  0.158200  1.0  0.1125
  C  C326  1  0.498500  0.365600  0.105500  1.0  -0.1184
  C  C327  1  0.282500  0.405900  0.064700  1.0  0.0779
  C  C328  1  0.521100  0.395100  0.067200  1.0  0.0064
  C  C329  1  0.268900  0.100800  0.124900  1.0  -0.0955
  C  C330  1  0.378000  0.120600  0.144800  1.0  0.1136
  C  C331  1  0.362200  0.150800  0.223700  1.0  0.2128
  C  C332  1  0.368700  0.105000  0.241500  1.0  -0.1445
  C  C333  1  0.365700  0.158800  0.178000  1.0  -0.0145
  C  C334  1  0.431900  0.011400  0.052600  1.0  -0.2547
  C  C335  1  0.363700  0.110900  0.286100  1.0  -0.1096
  C  C336  1  0.362700  0.158200  0.296300  1.0  0.1119
  C  C337  1  0.498500  0.105500  0.134400  1.0  -0.1169
  C  C338  1  0.282500  0.064700  0.094100  1.0  0.0775
  C  C339  1  0.521100  0.067200  0.104900  1.0  0.0063
  C  C340  1  0.268900  0.399200  0.375100  1.0  -0.0959
  C  C341  1  0.378000  0.379400  0.355200  1.0  0.1133
  C  C342  1  0.362200  0.349200  0.276300  1.0  0.2145
  C  C343  1  0.368700  0.395000  0.258500  1.0  -0.1439
  C  C344  1  0.365700  0.341200  0.322000  1.0  -0.0151
  C  C345  1  0.431900  0.488600  0.447400  1.0  -0.2548
  C  C346  1  0.363700  0.389100  0.213900  1.0  -0.1102
  C  C347  1  0.362700  0.341800  0.203700  1.0  0.1099
  C  C348  1  0.498500  0.394500  0.365600  1.0  -0.1172
  C  C349  1  0.282500  0.435300  0.405900  1.0  0.0778
  C  C350  1  0.521100  0.432800  0.395100  1.0  0.0064
  N  N351  1  0.640500  0.743000  0.682900  1.0  -0.4681
  N  N352  1  0.594100  0.913900  0.550200  1.0  -0.0714
  N  N353  1  0.640500  0.757000  0.817100  1.0  -0.4678
  N  N354  1  0.594100  0.586100  0.949800  1.0  -0.0713
  N  N355  1  0.640500  0.817100  0.743000  1.0  -0.4662
  N  N356  1  0.594100  0.949800  0.913900  1.0  -0.0706
  N  N357  1  0.640500  0.682900  0.757000  1.0  -0.4649
  N  N358  1  0.594100  0.550200  0.586100  1.0  -0.0712
  N  N359  1  0.359500  0.257000  0.317100  1.0  -0.4687
  N  N360  1  0.405900  0.086100  0.449800  1.0  -0.0705
  N  N361  1  0.359500  0.243000  0.182900  1.0  -0.4683
  N  N362  1  0.405900  0.413900  0.050200  1.0  -0.0706
  N  N363  1  0.359500  0.182900  0.257000  1.0  -0.4655
  N  N364  1  0.405900  0.050200  0.086100  1.0  -0.0705
  N  N365  1  0.359500  0.317100  0.243000  1.0  -0.4668
  N  N366  1  0.405900  0.449800  0.413900  1.0  -0.0695
  Cl  Cl367  1  0.810100  0.046300  0.461200  1.0  -0.5051
  Cl  Cl368  1  0.810100  0.453700  0.038800  1.0  -0.5059
  Cl  Cl369  1  0.810100  0.038800  0.046300  1.0  -0.5044
  Cl  Cl370  1  0.810100  0.461200  0.453700  1.0  -0.5066
  Cl  Cl371  1  0.189900  0.953700  0.538800  1.0  -0.5067
  Cl  Cl372  1  0.189900  0.546300  0.961200  1.0  -0.5054
  Cl  Cl373  1  0.189900  0.961200  0.953700  1.0  -0.5071
  Cl  Cl374  1  0.189900  0.538800  0.546300  1.0  -0.5052
  O  O375  1  0.912100  0.930230  0.482300  1.0  -0.5902
  O  O376  1  0.036100  0.623100  0.492300  1.0  -0.6226
  O  O377  1  0.407900  0.596200  0.494900  1.0  -0.5393
  O  O378  1  0.890000  0.566400  0.504000  1.0  -0.6248
  O  O379  1  0.791000  0.926790  0.418500  1.0  -0.597
  O  O380  1  0.335900  0.665300  0.486700  1.0  -0.5821
  O  O381  1  0.912100  0.569770  0.017700  1.0  -0.5898
  O  O382  1  0.036100  0.876900  0.007700  1.0  -0.623
  O  O383  1  0.407900  0.903800  0.005100  1.0  -0.5391
  O  O384  1  0.890000  0.933600  0.996000  1.0  -0.625
  O  O385  1  0.791000  0.573210  0.081500  1.0  -0.5966
  O  O386  1  0.335900  0.834700  0.013300  1.0  -0.5828
  O  O387  1  0.912100  0.017700  0.930230  1.0  -0.5901
  O  O388  1  0.036100  0.007700  0.623100  1.0  -0.6226
  O  O389  1  0.407900  0.005100  0.596200  1.0  -0.5389
  O  O390  1  0.890000  0.996000  0.566400  1.0  -0.626
  O  O391  1  0.791000  0.081500  0.926790  1.0  -0.5926
  O  O392  1  0.335900  0.013300  0.665300  1.0  -0.5909
  O  O393  1  0.912100  0.482300  0.569770  1.0  -0.5901
  O  O394  1  0.036100  0.492300  0.876900  1.0  -0.6214
  O  O395  1  0.407900  0.494900  0.903800  1.0  -0.5403
  O  O396  1  0.890000  0.504000  0.933600  1.0  -0.6245
  O  O397  1  0.791000  0.418500  0.573210  1.0  -0.5939
  O  O398  1  0.335900  0.486700  0.834700  1.0  -0.5889
  O  O399  1  0.087900  0.069770  0.517700  1.0  -0.5911
  O  O400  1  0.963900  0.376900  0.507700  1.0  -0.6237
  O  O401  1  0.592100  0.403800  0.505100  1.0  -0.5391
  O  O402  1  0.110000  0.433600  0.496000  1.0  -0.6257
  O  O403  1  0.209000  0.073210  0.581500  1.0  -0.5967
  O  O404  1  0.664100  0.334700  0.513300  1.0  -0.5838
  O  O405  1  0.087900  0.430230  0.982300  1.0  -0.5914
  O  O406  1  0.963900  0.123100  0.992300  1.0  -0.624
  O  O407  1  0.592100  0.096200  0.994900  1.0  -0.539
  O  O408  1  0.110000  0.066400  0.004000  1.0  -0.6254
  O  O409  1  0.209000  0.426790  0.918500  1.0  -0.5969
  O  O410  1  0.664100  0.165300  0.986700  1.0  -0.5828
  O  O411  1  0.087900  0.982300  0.069770  1.0  -0.5911
  O  O412  1  0.963900  0.992300  0.376900  1.0  -0.6219
  O  O413  1  0.592100  0.994900  0.403800  1.0  -0.5397
  O  O414  1  0.110000  0.004000  0.433600  1.0  -0.6251
  O  O415  1  0.209000  0.918500  0.073210  1.0  -0.5943
  O  O416  1  0.664100  0.986700  0.334700  1.0  -0.5886
  O  O417  1  0.087900  0.517700  0.430230  1.0  -0.5913
  O  O418  1  0.963900  0.507700  0.123100  1.0  -0.6238
  O  O419  1  0.592100  0.505100  0.096200  1.0  -0.5389
  O  O420  1  0.110000  0.496000  0.066400  1.0  -0.6267
  O  O421  1  0.209000  0.581500  0.426790  1.0  -0.593
  O  O422  1  0.664100  0.513300  0.165300  1.0  -0.5904
