# generated using pymatgen
data_FeH2(C3O2)2
_symmetry_space_group_name_H-M   'P 1'
_cell_length_a   26.57170000
_cell_length_b   26.57170000
_cell_length_c   26.57170000
_cell_angle_alpha   90.00000000
_cell_angle_beta   90.00000000
_cell_angle_gamma   90.00000000
_symmetry_Int_Tables_number   1
_chemical_formula_structural   FeH2(C3O2)2
_chemical_formula_sum   'Fe48 H96 C288 O192'
_cell_volume   18761.08804436
_cell_formula_units_Z   48
loop_
 _symmetry_equiv_pos_site_id
 _symmetry_equiv_pos_as_xyz
  1  'x, y, z'
loop_
 _atom_site_type_symbol
 _atom_site_label
 _atom_site_symmetry_multiplicity
 _atom_site_fract_x
 _atom_site_fract_y
 _atom_site_fract_z
 _atom_site_occupancy
 _atom_site_charge
  Fe  Fe1  1  0.710810  0.000000  0.210810  1.0  1.0472
  Fe  Fe2  1  0.710810  0.500000  0.710810  1.0  1.0472
  Fe  Fe3  1  0.289190  0.000000  0.210810  1.0  1.0464
  Fe  Fe4  1  0.289190  0.500000  0.710810  1.0  1.0464
  Fe  Fe5  1  0.789190  0.000000  0.710810  1.0  1.0464
  Fe  Fe6  1  0.289190  0.000000  0.789190  1.0  1.0481
  Fe  Fe7  1  0.289190  0.500000  0.289190  1.0  1.0481
  Fe  Fe8  1  0.789190  0.500000  0.789190  1.0  1.0481
  Fe  Fe9  1  0.710810  0.000000  0.789190  1.0  1.0491
  Fe  Fe10  1  0.710810  0.500000  0.289190  1.0  1.0491
  Fe  Fe11  1  0.210810  0.710810  0.000000  1.0  1.0501
  Fe  Fe12  1  0.210810  0.210810  0.500000  1.0  1.0501
  Fe  Fe13  1  0.710810  0.710810  0.500000  1.0  1.0501
  Fe  Fe14  1  0.210810  0.289190  0.000000  1.0  1.0513
  Fe  Fe15  1  0.210810  0.789190  0.500000  1.0  1.0513
  Fe  Fe16  1  0.710810  0.789190  0.000000  1.0  1.0513
  Fe  Fe17  1  0.789190  0.289190  0.000000  1.0  1.0506
  Fe  Fe18  1  0.789190  0.789190  0.500000  1.0  1.0506
  Fe  Fe19  1  0.789190  0.710810  0.000000  1.0  1.0486
  Fe  Fe20  1  0.789190  0.210810  0.500000  1.0  1.0486
  Fe  Fe21  1  0.000000  0.210810  0.710810  1.0  1.0456
  Fe  Fe22  1  0.500000  0.210810  0.210810  1.0  1.0456
  Fe  Fe23  1  0.500000  0.710810  0.710810  1.0  1.0456
  Fe  Fe24  1  0.000000  0.210810  0.289190  1.0  1.0455
  Fe  Fe25  1  0.000000  0.710810  0.789190  1.0  1.0455
  Fe  Fe26  1  0.500000  0.210810  0.789190  1.0  1.0455
  Fe  Fe27  1  0.000000  0.789190  0.289190  1.0  1.0477
  Fe  Fe28  1  0.500000  0.789190  0.789190  1.0  1.0477
  Fe  Fe29  1  0.000000  0.789190  0.710810  1.0  1.0455
  Fe  Fe30  1  0.500000  0.789190  0.210810  1.0  1.0455
  Fe  Fe31  1  0.500000  0.710810  0.289190  1.0  1.0455
  Fe  Fe32  1  0.000000  0.289190  0.789190  1.0  1.0477
  Fe  Fe33  1  0.500000  0.289190  0.289190  1.0  1.0477
  Fe  Fe34  1  0.000000  0.289190  0.210810  1.0  1.0455
  Fe  Fe35  1  0.500000  0.289190  0.710810  1.0  1.0455
  Fe  Fe36  1  0.000000  0.710810  0.210810  1.0  1.0456
  Fe  Fe37  1  0.710810  0.210810  0.000000  1.0  1.0501
  Fe  Fe38  1  0.289190  0.210810  0.000000  1.0  1.0486
  Fe  Fe39  1  0.289190  0.710810  0.500000  1.0  1.0486
  Fe  Fe40  1  0.289190  0.789190  0.000000  1.0  1.0506
  Fe  Fe41  1  0.289190  0.289190  0.500000  1.0  1.0506
  Fe  Fe42  1  0.710810  0.289190  0.500000  1.0  1.0513
  Fe  Fe43  1  0.210810  0.000000  0.289190  1.0  1.0491
  Fe  Fe44  1  0.210810  0.500000  0.789190  1.0  1.0491
  Fe  Fe45  1  0.210810  0.000000  0.710810  1.0  1.0472
  Fe  Fe46  1  0.210810  0.500000  0.210810  1.0  1.0472
  Fe  Fe47  1  0.789190  0.500000  0.210810  1.0  1.0464
  Fe  Fe48  1  0.789190  0.000000  0.289190  1.0  1.0481
  H  H49  1  0.620900  0.879100  0.272200  1.0  0.1191
  H  H50  1  0.620900  0.379100  0.772200  1.0  0.1191
  H  H51  1  0.379100  0.120900  0.272200  1.0  0.1193
  H  H52  1  0.379100  0.620900  0.772200  1.0  0.1193
  H  H53  1  0.879100  0.620900  0.272200  1.0  0.1193
  H  H54  1  0.379100  0.879100  0.727800  1.0  0.1192
  H  H55  1  0.379100  0.379100  0.227800  1.0  0.1192
  H  H56  1  0.879100  0.879100  0.227800  1.0  0.1192
  H  H57  1  0.620900  0.120900  0.727800  1.0  0.1194
  H  H58  1  0.620900  0.620900  0.227800  1.0  0.1194
  H  H59  1  0.272200  0.620900  0.879100  1.0  0.1186
  H  H60  1  0.772200  0.620900  0.379100  1.0  0.1186
  H  H61  1  0.272200  0.379100  0.120900  1.0  0.1185
  H  H62  1  0.272200  0.879100  0.620900  1.0  0.1185
  H  H63  1  0.772200  0.379100  0.620900  1.0  0.1185
  H  H64  1  0.727800  0.379100  0.879100  1.0  0.1184
  H  H65  1  0.227800  0.379100  0.379100  1.0  0.1184
  H  H66  1  0.227800  0.879100  0.879100  1.0  0.1184
  H  H67  1  0.727800  0.620900  0.120900  1.0  0.1185
  H  H68  1  0.227800  0.620900  0.620900  1.0  0.1185
  H  H69  1  0.879100  0.272200  0.620900  1.0  0.1189
  H  H70  1  0.879100  0.772200  0.120900  1.0  0.1189
  H  H71  1  0.120900  0.272200  0.379100  1.0  0.1187
  H  H72  1  0.120900  0.772200  0.879100  1.0  0.1187
  H  H73  1  0.620900  0.272200  0.879100  1.0  0.1187
  H  H74  1  0.879100  0.727800  0.379100  1.0  0.1185
  H  H75  1  0.879100  0.227800  0.879100  1.0  0.1185
  H  H76  1  0.120900  0.727800  0.620900  1.0  0.1185
  H  H77  1  0.120900  0.227800  0.120900  1.0  0.1185
  H  H78  1  0.620900  0.227800  0.620900  1.0  0.1185
  H  H79  1  0.879100  0.620900  0.727800  1.0  0.119
  H  H80  1  0.879100  0.120900  0.227800  1.0  0.119
  H  H81  1  0.120900  0.379100  0.727800  1.0  0.1192
  H  H82  1  0.120900  0.879100  0.227800  1.0  0.1192
  H  H83  1  0.620900  0.879100  0.727800  1.0  0.1192
  H  H84  1  0.879100  0.379100  0.272200  1.0  0.1192
  H  H85  1  0.879100  0.879100  0.772200  1.0  0.1192
  H  H86  1  0.120900  0.620900  0.272200  1.0  0.1194
  H  H87  1  0.120900  0.120900  0.772200  1.0  0.1194
  H  H88  1  0.620900  0.620900  0.772200  1.0  0.1194
  H  H89  1  0.620900  0.272200  0.120900  1.0  0.1188
  H  H90  1  0.620900  0.772200  0.620900  1.0  0.1188
  H  H91  1  0.379100  0.272200  0.879100  1.0  0.1185
  H  H92  1  0.379100  0.772200  0.379100  1.0  0.1185
  H  H93  1  0.879100  0.772200  0.879100  1.0  0.1185
  H  H94  1  0.379100  0.727800  0.120900  1.0  0.1186
  H  H95  1  0.379100  0.227800  0.620900  1.0  0.1186
  H  H96  1  0.879100  0.727800  0.620900  1.0  0.1186
  H  H97  1  0.620900  0.727800  0.879100  1.0  0.1186
  H  H98  1  0.620900  0.227800  0.379100  1.0  0.1186
  H  H99  1  0.272200  0.879100  0.379100  1.0  0.1184
  H  H100  1  0.772200  0.879100  0.879100  1.0  0.1184
  H  H101  1  0.272200  0.120900  0.620900  1.0  0.1188
  H  H102  1  0.772200  0.120900  0.120900  1.0  0.1188
  H  H103  1  0.772200  0.620900  0.620900  1.0  0.1188
  H  H104  1  0.727800  0.879100  0.620900  1.0  0.1185
  H  H105  1  0.227800  0.879100  0.120900  1.0  0.1185
  H  H106  1  0.727800  0.120900  0.379100  1.0  0.1183
  H  H107  1  0.727800  0.620900  0.879100  1.0  0.1183
  H  H108  1  0.227800  0.120900  0.879100  1.0  0.1183
  H  H109  1  0.379100  0.120900  0.727800  1.0  0.119
  H  H110  1  0.379100  0.620900  0.227800  1.0  0.119
  H  H111  1  0.620900  0.379100  0.227800  1.0  0.1192
  H  H112  1  0.620900  0.120900  0.272200  1.0  0.1194
  H  H113  1  0.379100  0.879100  0.272200  1.0  0.1192
  H  H114  1  0.379100  0.379100  0.772200  1.0  0.1192
  H  H115  1  0.727800  0.379100  0.120900  1.0  0.1185
  H  H116  1  0.227800  0.379100  0.620900  1.0  0.1185
  H  H117  1  0.227800  0.620900  0.379100  1.0  0.1183
  H  H118  1  0.272200  0.620900  0.120900  1.0  0.1188
  H  H119  1  0.272200  0.379100  0.879100  1.0  0.1184
  H  H120  1  0.772200  0.379100  0.379100  1.0  0.1184
  H  H121  1  0.120900  0.727800  0.379100  1.0  0.1186
  H  H122  1  0.120900  0.227800  0.879100  1.0  0.1186
  H  H123  1  0.879100  0.227800  0.120900  1.0  0.1186
  H  H124  1  0.120900  0.272200  0.620900  1.0  0.1188
  H  H125  1  0.120900  0.772200  0.120900  1.0  0.1188
  H  H126  1  0.879100  0.272200  0.379100  1.0  0.1185
  H  H127  1  0.120900  0.379100  0.272200  1.0  0.1191
  H  H128  1  0.120900  0.879100  0.772200  1.0  0.1191
  H  H129  1  0.879100  0.120900  0.772200  1.0  0.1193
  H  H130  1  0.120900  0.620900  0.727800  1.0  0.1194
  H  H131  1  0.120900  0.120900  0.227800  1.0  0.1194
  H  H132  1  0.879100  0.379100  0.727800  1.0  0.1192
  H  H133  1  0.379100  0.727800  0.879100  1.0  0.1185
  H  H134  1  0.379100  0.227800  0.379100  1.0  0.1185
  H  H135  1  0.620900  0.727800  0.120900  1.0  0.1185
  H  H136  1  0.620900  0.772200  0.379100  1.0  0.1187
  H  H137  1  0.379100  0.272200  0.120900  1.0  0.1189
  H  H138  1  0.379100  0.772200  0.620900  1.0  0.1189
  H  H139  1  0.727800  0.120900  0.620900  1.0  0.1185
  H  H140  1  0.227800  0.120900  0.120900  1.0  0.1185
  H  H141  1  0.727800  0.879100  0.379100  1.0  0.1184
  H  H142  1  0.272200  0.120900  0.379100  1.0  0.1186
  H  H143  1  0.772200  0.120900  0.879100  1.0  0.1186
  H  H144  1  0.772200  0.879100  0.120900  1.0  0.1185
  C  C145  1  0.677500  0.886800  0.322500  1.0  -0.1792
  C  C146  1  0.702500  0.930300  0.297500  1.0  0.7482
  C  C147  1  0.677500  0.386800  0.822500  1.0  -0.1792
  C  C148  1  0.702500  0.430300  0.797500  1.0  0.7482
  C  C149  1  0.177500  0.886800  0.822500  1.0  -0.1792
  C  C150  1  0.202500  0.930300  0.797500  1.0  0.7482
  C  C151  1  0.177500  0.386800  0.322500  1.0  -0.1792
  C  C152  1  0.202500  0.430300  0.297500  1.0  0.7482
  C  C153  1  0.322500  0.113200  0.322500  1.0  -0.1802
  C  C154  1  0.297500  0.069700  0.297500  1.0  0.747
  C  C155  1  0.322500  0.613200  0.822500  1.0  -0.1802
  C  C156  1  0.297500  0.569700  0.797500  1.0  0.747
  C  C157  1  0.822500  0.113200  0.822500  1.0  -0.1802
  C  C158  1  0.797500  0.069700  0.797500  1.0  0.747
  C  C159  1  0.822500  0.613200  0.322500  1.0  -0.1802
  C  C160  1  0.797500  0.569700  0.297500  1.0  0.747
  C  C161  1  0.322500  0.886800  0.677500  1.0  -0.1795
  C  C162  1  0.297500  0.930300  0.702500  1.0  0.7475
  C  C163  1  0.322500  0.386800  0.177500  1.0  -0.1795
  C  C164  1  0.297500  0.430300  0.202500  1.0  0.7475
  C  C165  1  0.822500  0.886800  0.177500  1.0  -0.1795
  C  C166  1  0.797500  0.930300  0.202500  1.0  0.7475
  C  C167  1  0.822500  0.386800  0.677500  1.0  -0.1795
  C  C168  1  0.797500  0.430300  0.702500  1.0  0.7475
  C  C169  1  0.677500  0.113200  0.677500  1.0  -0.1793
  C  C170  1  0.702500  0.069700  0.702500  1.0  0.7474
  C  C171  1  0.677500  0.613200  0.177500  1.0  -0.1793
  C  C172  1  0.702500  0.569700  0.202500  1.0  0.7474
  C  C173  1  0.177500  0.113200  0.177500  1.0  -0.1793
  C  C174  1  0.202500  0.069700  0.202500  1.0  0.7474
  C  C175  1  0.177500  0.613200  0.677500  1.0  -0.1793
  C  C176  1  0.202500  0.569700  0.702500  1.0  0.7474
  C  C177  1  0.322500  0.677500  0.886800  1.0  -0.1797
  C  C178  1  0.297500  0.702500  0.930300  1.0  0.7495
  C  C179  1  0.322500  0.177500  0.386800  1.0  -0.1797
  C  C180  1  0.297500  0.202500  0.430300  1.0  0.7495
  C  C181  1  0.822500  0.677500  0.386800  1.0  -0.1797
  C  C182  1  0.797500  0.702500  0.430300  1.0  0.7495
  C  C183  1  0.822500  0.177500  0.886800  1.0  -0.1797
  C  C184  1  0.797500  0.202500  0.930300  1.0  0.7495
  C  C185  1  0.322500  0.322500  0.113200  1.0  -0.1783
  C  C186  1  0.297500  0.297500  0.069700  1.0  0.7493
  C  C187  1  0.322500  0.822500  0.613200  1.0  -0.1783
  C  C188  1  0.297500  0.797500  0.569700  1.0  0.7493
  C  C189  1  0.822500  0.322500  0.613200  1.0  -0.1783
  C  C190  1  0.797500  0.297500  0.569700  1.0  0.7493
  C  C191  1  0.822500  0.822500  0.113200  1.0  -0.1783
  C  C192  1  0.797500  0.797500  0.069700  1.0  0.7493
  C  C193  1  0.677500  0.322500  0.886800  1.0  -0.1796
  C  C194  1  0.702500  0.297500  0.930300  1.0  0.7496
  C  C195  1  0.677500  0.822500  0.386800  1.0  -0.1796
  C  C196  1  0.702500  0.797500  0.430300  1.0  0.7496
  C  C197  1  0.177500  0.322500  0.386800  1.0  -0.1796
  C  C198  1  0.202500  0.297500  0.430300  1.0  0.7496
  C  C199  1  0.177500  0.822500  0.886800  1.0  -0.1796
  C  C200  1  0.202500  0.797500  0.930300  1.0  0.7496
  C  C201  1  0.677500  0.677500  0.113200  1.0  -0.1777
  C  C202  1  0.702500  0.702500  0.069700  1.0  0.75
  C  C203  1  0.677500  0.177500  0.613200  1.0  -0.1777
  C  C204  1  0.702500  0.202500  0.569700  1.0  0.75
  C  C205  1  0.177500  0.677500  0.613200  1.0  -0.1777
  C  C206  1  0.202500  0.702500  0.569700  1.0  0.75
  C  C207  1  0.177500  0.177500  0.113200  1.0  -0.1777
  C  C208  1  0.202500  0.202500  0.069700  1.0  0.75
  C  C209  1  0.886800  0.322500  0.677500  1.0  -0.1792
  C  C210  1  0.930300  0.297500  0.702500  1.0  0.7474
  C  C211  1  0.886800  0.822500  0.177500  1.0  -0.1792
  C  C212  1  0.930300  0.797500  0.202500  1.0  0.7474
  C  C213  1  0.386800  0.322500  0.177500  1.0  -0.1792
  C  C214  1  0.430300  0.297500  0.202500  1.0  0.7474
  C  C215  1  0.386800  0.822500  0.677500  1.0  -0.1792
  C  C216  1  0.430300  0.797500  0.702500  1.0  0.7474
  C  C217  1  0.113200  0.322500  0.322500  1.0  -0.1796
  C  C218  1  0.069700  0.297500  0.297500  1.0  0.7485
  C  C219  1  0.113200  0.822500  0.822500  1.0  -0.1796
  C  C220  1  0.069700  0.797500  0.797500  1.0  0.7485
  C  C221  1  0.613200  0.322500  0.822500  1.0  -0.1796
  C  C222  1  0.569700  0.297500  0.797500  1.0  0.7485
  C  C223  1  0.613200  0.822500  0.322500  1.0  -0.1796
  C  C224  1  0.569700  0.797500  0.297500  1.0  0.7485
  C  C225  1  0.886800  0.677500  0.322500  1.0  -0.1792
  C  C226  1  0.930300  0.702500  0.297500  1.0  0.7478
  C  C227  1  0.886800  0.177500  0.822500  1.0  -0.1792
  C  C228  1  0.930300  0.202500  0.797500  1.0  0.7478
  C  C229  1  0.386800  0.677500  0.822500  1.0  -0.1792
  C  C230  1  0.430300  0.702500  0.797500  1.0  0.7478
  C  C231  1  0.386800  0.177500  0.322500  1.0  -0.1792
  C  C232  1  0.430300  0.202500  0.297500  1.0  0.7478
  C  C233  1  0.113200  0.677500  0.677500  1.0  -0.1792
  C  C234  1  0.069700  0.702500  0.702500  1.0  0.7486
  C  C235  1  0.113200  0.177500  0.177500  1.0  -0.1792
  C  C236  1  0.069700  0.202500  0.202500  1.0  0.7486
  C  C237  1  0.613200  0.677500  0.177500  1.0  -0.1792
  C  C238  1  0.569700  0.702500  0.202500  1.0  0.7486
  C  C239  1  0.613200  0.177500  0.677500  1.0  -0.1792
  C  C240  1  0.569700  0.202500  0.702500  1.0  0.7486
  C  C241  1  0.886800  0.677500  0.677500  1.0  -0.1789
  C  C242  1  0.930300  0.702500  0.702500  1.0  0.7478
  C  C243  1  0.886800  0.177500  0.177500  1.0  -0.1789
  C  C244  1  0.930300  0.202500  0.202500  1.0  0.7478
  C  C245  1  0.386800  0.677500  0.177500  1.0  -0.1789
  C  C246  1  0.430300  0.702500  0.202500  1.0  0.7478
  C  C247  1  0.386800  0.177500  0.677500  1.0  -0.1789
  C  C248  1  0.430300  0.202500  0.702500  1.0  0.7478
  C  C249  1  0.113200  0.322500  0.677500  1.0  -0.1793
  C  C250  1  0.069700  0.297500  0.702500  1.0  0.7486
  C  C251  1  0.113200  0.822500  0.177500  1.0  -0.1793
  C  C252  1  0.069700  0.797500  0.202500  1.0  0.7486
  C  C253  1  0.613200  0.322500  0.177500  1.0  -0.1793
  C  C254  1  0.569700  0.297500  0.202500  1.0  0.7486
  C  C255  1  0.613200  0.822500  0.677500  1.0  -0.1793
  C  C256  1  0.569700  0.797500  0.702500  1.0  0.7486
  C  C257  1  0.886800  0.322500  0.322500  1.0  -0.1794
  C  C258  1  0.930300  0.297500  0.297500  1.0  0.7474
  C  C259  1  0.886800  0.822500  0.822500  1.0  -0.1794
  C  C260  1  0.930300  0.797500  0.797500  1.0  0.7474
  C  C261  1  0.386800  0.322500  0.822500  1.0  -0.1794
  C  C262  1  0.430300  0.297500  0.797500  1.0  0.7474
  C  C263  1  0.386800  0.822500  0.322500  1.0  -0.1794
  C  C264  1  0.430300  0.797500  0.297500  1.0  0.7474
  C  C265  1  0.113200  0.677500  0.322500  1.0  -0.1795
  C  C266  1  0.069700  0.702500  0.297500  1.0  0.7487
  C  C267  1  0.113200  0.177500  0.822500  1.0  -0.1795
  C  C268  1  0.069700  0.202500  0.797500  1.0  0.7487
  C  C269  1  0.613200  0.677500  0.822500  1.0  -0.1795
  C  C270  1  0.569700  0.702500  0.797500  1.0  0.7487
  C  C271  1  0.613200  0.177500  0.322500  1.0  -0.1795
  C  C272  1  0.569700  0.202500  0.297500  1.0  0.7487
  C  C273  1  0.677500  0.322500  0.113200  1.0  -0.1778
  C  C274  1  0.702500  0.297500  0.069700  1.0  0.7499
  C  C275  1  0.677500  0.822500  0.613200  1.0  -0.1778
  C  C276  1  0.702500  0.797500  0.569700  1.0  0.7499
  C  C277  1  0.177500  0.322500  0.613200  1.0  -0.1778
  C  C278  1  0.202500  0.297500  0.569700  1.0  0.7499
  C  C279  1  0.177500  0.822500  0.113200  1.0  -0.1778
  C  C280  1  0.202500  0.797500  0.069700  1.0  0.7499
  C  C281  1  0.322500  0.322500  0.886800  1.0  -0.1799
  C  C282  1  0.297500  0.297500  0.930300  1.0  0.749
  C  C283  1  0.322500  0.822500  0.386800  1.0  -0.1799
  C  C284  1  0.297500  0.797500  0.430300  1.0  0.749
  C  C285  1  0.822500  0.322500  0.386800  1.0  -0.1799
  C  C286  1  0.797500  0.297500  0.430300  1.0  0.749
  C  C287  1  0.822500  0.822500  0.886800  1.0  -0.1799
  C  C288  1  0.797500  0.797500  0.930300  1.0  0.749
  C  C289  1  0.322500  0.677500  0.113200  1.0  -0.1782
  C  C290  1  0.297500  0.702500  0.069700  1.0  0.7496
  C  C291  1  0.322500  0.177500  0.613200  1.0  -0.1782
  C  C292  1  0.297500  0.202500  0.569700  1.0  0.7496
  C  C293  1  0.822500  0.677500  0.613200  1.0  -0.1782
  C  C294  1  0.797500  0.702500  0.569700  1.0  0.7496
  C  C295  1  0.822500  0.177500  0.113200  1.0  -0.1782
  C  C296  1  0.797500  0.202500  0.069700  1.0  0.7496
  C  C297  1  0.677500  0.677500  0.886800  1.0  -0.1794
  C  C298  1  0.702500  0.702500  0.930300  1.0  0.75
  C  C299  1  0.677500  0.177500  0.386800  1.0  -0.1794
  C  C300  1  0.702500  0.202500  0.430300  1.0  0.75
  C  C301  1  0.177500  0.677500  0.386800  1.0  -0.1794
  C  C302  1  0.202500  0.702500  0.430300  1.0  0.75
  C  C303  1  0.177500  0.177500  0.886800  1.0  -0.1794
  C  C304  1  0.202500  0.202500  0.930300  1.0  0.75
  C  C305  1  0.322500  0.886800  0.322500  1.0  -0.1796
  C  C306  1  0.297500  0.930300  0.297500  1.0  0.7474
  C  C307  1  0.322500  0.386800  0.822500  1.0  -0.1796
  C  C308  1  0.297500  0.430300  0.797500  1.0  0.7474
  C  C309  1  0.822500  0.886800  0.822500  1.0  -0.1796
  C  C310  1  0.797500  0.930300  0.797500  1.0  0.7474
  C  C311  1  0.822500  0.386800  0.322500  1.0  -0.1796
  C  C312  1  0.797500  0.430300  0.297500  1.0  0.7474
  C  C313  1  0.322500  0.113200  0.677500  1.0  -0.1798
  C  C314  1  0.297500  0.069700  0.702500  1.0  0.7471
  C  C315  1  0.322500  0.613200  0.177500  1.0  -0.1798
  C  C316  1  0.297500  0.569700  0.202500  1.0  0.7471
  C  C317  1  0.822500  0.113200  0.177500  1.0  -0.1798
  C  C318  1  0.797500  0.069700  0.202500  1.0  0.7471
  C  C319  1  0.822500  0.613200  0.677500  1.0  -0.1798
  C  C320  1  0.797500  0.569700  0.702500  1.0  0.7471
  C  C321  1  0.677500  0.886800  0.677500  1.0  -0.179
  C  C322  1  0.702500  0.930300  0.702500  1.0  0.7478
  C  C323  1  0.677500  0.386800  0.177500  1.0  -0.179
  C  C324  1  0.702500  0.430300  0.202500  1.0  0.7478
  C  C325  1  0.177500  0.886800  0.177500  1.0  -0.179
  C  C326  1  0.202500  0.930300  0.202500  1.0  0.7478
  C  C327  1  0.177500  0.386800  0.677500  1.0  -0.179
  C  C328  1  0.202500  0.430300  0.702500  1.0  0.7478
  C  C329  1  0.677500  0.113200  0.322500  1.0  -0.1797
  C  C330  1  0.702500  0.069700  0.297500  1.0  0.7477
  C  C331  1  0.677500  0.613200  0.822500  1.0  -0.1797
  C  C332  1  0.702500  0.569700  0.797500  1.0  0.7477
  C  C333  1  0.177500  0.113200  0.822500  1.0  -0.1797
  C  C334  1  0.202500  0.069700  0.797500  1.0  0.7477
  C  C335  1  0.177500  0.613200  0.322500  1.0  -0.1797
  C  C336  1  0.202500  0.569700  0.297500  1.0  0.7477
  C  C337  1  0.635200  0.864800  0.301700  1.0  0.017
  C  C338  1  0.635200  0.364800  0.801700  1.0  0.017
  C  C339  1  0.364800  0.135200  0.301700  1.0  0.017
  C  C340  1  0.364800  0.635200  0.801700  1.0  0.017
  C  C341  1  0.864800  0.635200  0.301700  1.0  0.017
  C  C342  1  0.364800  0.864800  0.698300  1.0  0.0163
  C  C343  1  0.364800  0.364800  0.198300  1.0  0.0163
  C  C344  1  0.864800  0.864800  0.198300  1.0  0.0163
  C  C345  1  0.635200  0.135200  0.698300  1.0  0.0175
  C  C346  1  0.635200  0.635200  0.198300  1.0  0.0175
  C  C347  1  0.301700  0.635200  0.864800  1.0  0.0174
  C  C348  1  0.801700  0.635200  0.364800  1.0  0.0174
  C  C349  1  0.301700  0.364800  0.135200  1.0  0.0163
  C  C350  1  0.301700  0.864800  0.635200  1.0  0.0163
  C  C351  1  0.801700  0.364800  0.635200  1.0  0.0163
  C  C352  1  0.698300  0.364800  0.864800  1.0  0.0164
  C  C353  1  0.198300  0.364800  0.364800  1.0  0.0164
  C  C354  1  0.198300  0.864800  0.864800  1.0  0.0164
  C  C355  1  0.698300  0.635200  0.135200  1.0  0.0168
  C  C356  1  0.198300  0.635200  0.635200  1.0  0.0168
  C  C357  1  0.864800  0.301700  0.635200  1.0  0.0159
  C  C358  1  0.864800  0.801700  0.135200  1.0  0.0159
  C  C359  1  0.135200  0.301700  0.364800  1.0  0.017
  C  C360  1  0.135200  0.801700  0.864800  1.0  0.017
  C  C361  1  0.635200  0.301700  0.864800  1.0  0.017
  C  C362  1  0.864800  0.698300  0.364800  1.0  0.0161
  C  C363  1  0.864800  0.198300  0.864800  1.0  0.0161
  C  C364  1  0.135200  0.698300  0.635200  1.0  0.0167
  C  C365  1  0.135200  0.198300  0.135200  1.0  0.0167
  C  C366  1  0.635200  0.198300  0.635200  1.0  0.0167
  C  C367  1  0.864800  0.635200  0.698300  1.0  0.0171
  C  C368  1  0.864800  0.135200  0.198300  1.0  0.0171
  C  C369  1  0.135200  0.364800  0.698300  1.0  0.0169
  C  C370  1  0.135200  0.864800  0.198300  1.0  0.0169
  C  C371  1  0.635200  0.864800  0.698300  1.0  0.0169
  C  C372  1  0.864800  0.364800  0.301700  1.0  0.0165
  C  C373  1  0.864800  0.864800  0.801700  1.0  0.0165
  C  C374  1  0.135200  0.635200  0.301700  1.0  0.0171
  C  C375  1  0.135200  0.135200  0.801700  1.0  0.0171
  C  C376  1  0.635200  0.635200  0.801700  1.0  0.0171
  C  C377  1  0.635200  0.301700  0.135200  1.0  0.0162
  C  C378  1  0.635200  0.801700  0.635200  1.0  0.0162
  C  C379  1  0.364800  0.301700  0.864800  1.0  0.0168
  C  C380  1  0.364800  0.801700  0.364800  1.0  0.0168
  C  C381  1  0.864800  0.801700  0.864800  1.0  0.0168
  C  C382  1  0.364800  0.698300  0.135200  1.0  0.016
  C  C383  1  0.364800  0.198300  0.635200  1.0  0.016
  C  C384  1  0.864800  0.698300  0.635200  1.0  0.016
  C  C385  1  0.635200  0.698300  0.864800  1.0  0.0166
  C  C386  1  0.635200  0.198300  0.364800  1.0  0.0166
  C  C387  1  0.301700  0.864800  0.364800  1.0  0.0169
  C  C388  1  0.801700  0.864800  0.864800  1.0  0.0169
  C  C389  1  0.301700  0.135200  0.635200  1.0  0.0165
  C  C390  1  0.801700  0.135200  0.135200  1.0  0.0165
  C  C391  1  0.801700  0.635200  0.635200  1.0  0.0165
  C  C392  1  0.698300  0.864800  0.635200  1.0  0.0162
  C  C393  1  0.198300  0.864800  0.135200  1.0  0.0162
  C  C394  1  0.698300  0.135200  0.364800  1.0  0.0175
  C  C395  1  0.698300  0.635200  0.864800  1.0  0.0175
  C  C396  1  0.198300  0.135200  0.864800  1.0  0.0175
  C  C397  1  0.364800  0.135200  0.698300  1.0  0.0171
  C  C398  1  0.364800  0.635200  0.198300  1.0  0.0171
  C  C399  1  0.635200  0.364800  0.198300  1.0  0.0169
  C  C400  1  0.635200  0.135200  0.301700  1.0  0.0171
  C  C401  1  0.364800  0.864800  0.301700  1.0  0.0165
  C  C402  1  0.364800  0.364800  0.801700  1.0  0.0165
  C  C403  1  0.698300  0.364800  0.135200  1.0  0.0162
  C  C404  1  0.198300  0.364800  0.635200  1.0  0.0162
  C  C405  1  0.198300  0.635200  0.364800  1.0  0.0175
  C  C406  1  0.301700  0.635200  0.135200  1.0  0.0165
  C  C407  1  0.301700  0.364800  0.864800  1.0  0.0169
  C  C408  1  0.801700  0.364800  0.364800  1.0  0.0169
  C  C409  1  0.135200  0.698300  0.364800  1.0  0.0166
  C  C410  1  0.135200  0.198300  0.864800  1.0  0.0166
  C  C411  1  0.864800  0.198300  0.135200  1.0  0.016
  C  C412  1  0.135200  0.301700  0.635200  1.0  0.0162
  C  C413  1  0.135200  0.801700  0.135200  1.0  0.0162
  C  C414  1  0.864800  0.301700  0.364800  1.0  0.0168
  C  C415  1  0.135200  0.364800  0.301700  1.0  0.017
  C  C416  1  0.135200  0.864800  0.801700  1.0  0.017
  C  C417  1  0.864800  0.135200  0.801700  1.0  0.017
  C  C418  1  0.135200  0.635200  0.698300  1.0  0.0175
  C  C419  1  0.135200  0.135200  0.198300  1.0  0.0175
  C  C420  1  0.864800  0.364800  0.698300  1.0  0.0163
  C  C421  1  0.364800  0.698300  0.864800  1.0  0.0161
  C  C422  1  0.364800  0.198300  0.364800  1.0  0.0161
  C  C423  1  0.635200  0.698300  0.135200  1.0  0.0167
  C  C424  1  0.635200  0.801700  0.364800  1.0  0.017
  C  C425  1  0.364800  0.301700  0.135200  1.0  0.0159
  C  C426  1  0.364800  0.801700  0.635200  1.0  0.0159
  C  C427  1  0.698300  0.135200  0.635200  1.0  0.0168
  C  C428  1  0.198300  0.135200  0.135200  1.0  0.0168
  C  C429  1  0.698300  0.864800  0.364800  1.0  0.0164
  C  C430  1  0.301700  0.135200  0.364800  1.0  0.0174
  C  C431  1  0.801700  0.135200  0.864800  1.0  0.0174
  C  C432  1  0.801700  0.864800  0.135200  1.0  0.0163
  O  O433  1  0.682900  0.946300  0.258100  1.0  -0.6137
  O  O434  1  0.682900  0.446300  0.758100  1.0  -0.6137
  O  O435  1  0.182900  0.946300  0.758100  1.0  -0.6137
  O  O436  1  0.182900  0.446300  0.258100  1.0  -0.6137
  O  O437  1  0.317100  0.053700  0.258100  1.0  -0.6132
  O  O438  1  0.317100  0.553700  0.758100  1.0  -0.6132
  O  O439  1  0.817100  0.053700  0.758100  1.0  -0.6132
  O  O440  1  0.817100  0.553700  0.258100  1.0  -0.6132
  O  O441  1  0.317100  0.946300  0.741900  1.0  -0.613
  O  O442  1  0.317100  0.446300  0.241900  1.0  -0.6132
  O  O443  1  0.817100  0.946300  0.241900  1.0  -0.6135
  O  O444  1  0.817100  0.446300  0.741900  1.0  -0.613
  O  O445  1  0.682900  0.053700  0.741900  1.0  -0.6121
  O  O446  1  0.682900  0.553700  0.241900  1.0  -0.6121
  O  O447  1  0.182900  0.053700  0.241900  1.0  -0.6121
  O  O448  1  0.182900  0.553700  0.741900  1.0  -0.6121
  O  O449  1  0.258100  0.682900  0.946300  1.0  -0.6144
  O  O450  1  0.258100  0.182900  0.446300  1.0  -0.6144
  O  O451  1  0.758100  0.682900  0.446300  1.0  -0.6144
  O  O452  1  0.758100  0.182900  0.946300  1.0  -0.6144
  O  O453  1  0.258100  0.317100  0.053700  1.0  -0.615
  O  O454  1  0.258100  0.817100  0.553700  1.0  -0.615
  O  O455  1  0.758100  0.317100  0.553700  1.0  -0.615
  O  O456  1  0.758100  0.817100  0.053700  1.0  -0.615
  O  O457  1  0.741900  0.317100  0.946300  1.0  -0.6154
  O  O458  1  0.741900  0.817100  0.446300  1.0  -0.6154
  O  O459  1  0.241900  0.317100  0.446300  1.0  -0.6154
  O  O460  1  0.241900  0.817100  0.946300  1.0  -0.6154
  O  O461  1  0.741900  0.682900  0.053700  1.0  -0.6154
  O  O462  1  0.741900  0.182900  0.553700  1.0  -0.6154
  O  O463  1  0.241900  0.682900  0.553700  1.0  -0.6154
  O  O464  1  0.241900  0.182900  0.053700  1.0  -0.6154
  O  O465  1  0.946300  0.258100  0.682900  1.0  -0.614
  O  O466  1  0.946300  0.758100  0.182900  1.0  -0.614
  O  O467  1  0.446300  0.258100  0.182900  1.0  -0.614
  O  O468  1  0.446300  0.758100  0.682900  1.0  -0.614
  O  O469  1  0.053700  0.258100  0.317100  1.0  -0.615
  O  O470  1  0.053700  0.758100  0.817100  1.0  -0.615
  O  O471  1  0.553700  0.258100  0.817100  1.0  -0.615
  O  O472  1  0.553700  0.758100  0.317100  1.0  -0.615
  O  O473  1  0.946300  0.741900  0.317100  1.0  -0.6143
  O  O474  1  0.946300  0.241900  0.817100  1.0  -0.6143
  O  O475  1  0.446300  0.741900  0.817100  1.0  -0.6143
  O  O476  1  0.446300  0.241900  0.317100  1.0  -0.6143
  O  O477  1  0.053700  0.741900  0.682900  1.0  -0.615
  O  O478  1  0.053700  0.241900  0.182900  1.0  -0.615
  O  O479  1  0.553700  0.741900  0.182900  1.0  -0.615
  O  O480  1  0.553700  0.241900  0.682900  1.0  -0.615
  O  O481  1  0.946300  0.682900  0.741900  1.0  -0.6125
  O  O482  1  0.946300  0.182900  0.241900  1.0  -0.6125
  O  O483  1  0.446300  0.682900  0.241900  1.0  -0.6125
  O  O484  1  0.446300  0.182900  0.741900  1.0  -0.6125
  O  O485  1  0.053700  0.317100  0.741900  1.0  -0.6125
  O  O486  1  0.053700  0.817100  0.241900  1.0  -0.6125
  O  O487  1  0.553700  0.317100  0.241900  1.0  -0.6122
  O  O488  1  0.553700  0.817100  0.741900  1.0  -0.6125
  O  O489  1  0.946300  0.317100  0.258100  1.0  -0.6128
  O  O490  1  0.946300  0.817100  0.758100  1.0  -0.6128
  O  O491  1  0.446300  0.317100  0.758100  1.0  -0.6128
  O  O492  1  0.446300  0.817100  0.258100  1.0  -0.6128
  O  O493  1  0.053700  0.682900  0.258100  1.0  -0.6123
  O  O494  1  0.053700  0.182900  0.758100  1.0  -0.6123
  O  O495  1  0.553700  0.682900  0.758100  1.0  -0.6123
  O  O496  1  0.553700  0.182900  0.258100  1.0  -0.6123
  O  O497  1  0.682900  0.258100  0.053700  1.0  -0.615
  O  O498  1  0.682900  0.758100  0.553700  1.0  -0.615
  O  O499  1  0.182900  0.258100  0.553700  1.0  -0.615
  O  O500  1  0.182900  0.758100  0.053700  1.0  -0.615
  O  O501  1  0.317100  0.258100  0.946300  1.0  -0.616
  O  O502  1  0.317100  0.758100  0.446300  1.0  -0.616
  O  O503  1  0.817100  0.258100  0.446300  1.0  -0.616
  O  O504  1  0.817100  0.758100  0.946300  1.0  -0.616
  O  O505  1  0.317100  0.741900  0.053700  1.0  -0.6164
  O  O506  1  0.317100  0.241900  0.553700  1.0  -0.6164
  O  O507  1  0.817100  0.741900  0.553700  1.0  -0.6164
  O  O508  1  0.817100  0.241900  0.053700  1.0  -0.6164
  O  O509  1  0.682900  0.741900  0.946300  1.0  -0.616
  O  O510  1  0.682900  0.241900  0.446300  1.0  -0.616
  O  O511  1  0.182900  0.741900  0.446300  1.0  -0.616
  O  O512  1  0.182900  0.241900  0.946300  1.0  -0.616
  O  O513  1  0.258100  0.946300  0.317100  1.0  -0.6142
  O  O514  1  0.258100  0.446300  0.817100  1.0  -0.6142
  O  O515  1  0.758100  0.946300  0.817100  1.0  -0.6142
  O  O516  1  0.758100  0.446300  0.317100  1.0  -0.6142
  O  O517  1  0.258100  0.053700  0.682900  1.0  -0.6142
  O  O518  1  0.258100  0.553700  0.182900  1.0  -0.6142
  O  O519  1  0.758100  0.053700  0.182900  1.0  -0.6142
  O  O520  1  0.758100  0.553700  0.682900  1.0  -0.6142
  O  O521  1  0.741900  0.946300  0.682900  1.0  -0.6155
  O  O522  1  0.741900  0.446300  0.182900  1.0  -0.6155
  O  O523  1  0.241900  0.946300  0.182900  1.0  -0.6155
  O  O524  1  0.241900  0.446300  0.682900  1.0  -0.6155
  O  O525  1  0.741900  0.053700  0.317100  1.0  -0.6153
  O  O526  1  0.741900  0.553700  0.817100  1.0  -0.6153
  O  O527  1  0.241900  0.053700  0.817100  1.0  -0.6153
  O  O528  1  0.241900  0.553700  0.317100  1.0  -0.6153
  O  O529  1  0.317100  0.053700  0.741900  1.0  -0.6135
  O  O530  1  0.317100  0.553700  0.241900  1.0  -0.6136
  O  O531  1  0.817100  0.053700  0.241900  1.0  -0.6135
  O  O532  1  0.817100  0.553700  0.741900  1.0  -0.6135
  O  O533  1  0.682900  0.946300  0.741900  1.0  -0.6121
  O  O534  1  0.682900  0.446300  0.241900  1.0  -0.6121
  O  O535  1  0.182900  0.946300  0.241900  1.0  -0.6121
  O  O536  1  0.182900  0.446300  0.741900  1.0  -0.6121
  O  O537  1  0.682900  0.053700  0.258100  1.0  -0.6142
  O  O538  1  0.682900  0.553700  0.758100  1.0  -0.6142
  O  O539  1  0.182900  0.053700  0.758100  1.0  -0.6142
  O  O540  1  0.182900  0.553700  0.258100  1.0  -0.6142
  O  O541  1  0.317100  0.946300  0.258100  1.0  -0.6128
  O  O542  1  0.317100  0.446300  0.758100  1.0  -0.6131
  O  O543  1  0.817100  0.946300  0.758100  1.0  -0.6131
  O  O544  1  0.817100  0.446300  0.258100  1.0  -0.6131
  O  O545  1  0.741900  0.317100  0.053700  1.0  -0.6158
  O  O546  1  0.741900  0.817100  0.553700  1.0  -0.6158
  O  O547  1  0.241900  0.317100  0.553700  1.0  -0.6158
  O  O548  1  0.241900  0.817100  0.053700  1.0  -0.6158
  O  O549  1  0.741900  0.682900  0.946300  1.0  -0.6153
  O  O550  1  0.741900  0.182900  0.446300  1.0  -0.6153
  O  O551  1  0.241900  0.682900  0.446300  1.0  -0.6153
  O  O552  1  0.241900  0.182900  0.946300  1.0  -0.6153
  O  O553  1  0.258100  0.682900  0.053700  1.0  -0.6147
  O  O554  1  0.258100  0.182900  0.553700  1.0  -0.6147
  O  O555  1  0.758100  0.682900  0.553700  1.0  -0.6147
  O  O556  1  0.758100  0.182900  0.053700  1.0  -0.6147
  O  O557  1  0.258100  0.317100  0.946300  1.0  -0.6145
  O  O558  1  0.258100  0.817100  0.446300  1.0  -0.6145
  O  O559  1  0.758100  0.317100  0.446300  1.0  -0.6145
  O  O560  1  0.758100  0.817100  0.946300  1.0  -0.6145
  O  O561  1  0.053700  0.741900  0.317100  1.0  -0.6146
  O  O562  1  0.053700  0.241900  0.817100  1.0  -0.6146
  O  O563  1  0.553700  0.741900  0.817100  1.0  -0.6146
  O  O564  1  0.553700  0.241900  0.317100  1.0  -0.6146
  O  O565  1  0.946300  0.741900  0.682900  1.0  -0.6149
  O  O566  1  0.946300  0.241900  0.182900  1.0  -0.6149
  O  O567  1  0.446300  0.741900  0.182900  1.0  -0.6149
  O  O568  1  0.446300  0.241900  0.682900  1.0  -0.6149
  O  O569  1  0.053700  0.258100  0.682900  1.0  -0.6146
  O  O570  1  0.053700  0.758100  0.182900  1.0  -0.6146
  O  O571  1  0.553700  0.258100  0.182900  1.0  -0.6146
  O  O572  1  0.553700  0.758100  0.682900  1.0  -0.6146
  O  O573  1  0.946300  0.258100  0.317100  1.0  -0.6146
  O  O574  1  0.946300  0.758100  0.817100  1.0  -0.6146
  O  O575  1  0.446300  0.258100  0.817100  1.0  -0.6146
  O  O576  1  0.446300  0.758100  0.317100  1.0  -0.6146
  O  O577  1  0.053700  0.317100  0.258100  1.0  -0.6132
  O  O578  1  0.053700  0.817100  0.758100  1.0  -0.6132
  O  O579  1  0.553700  0.317100  0.758100  1.0  -0.6132
  O  O580  1  0.553700  0.817100  0.258100  1.0  -0.6132
  O  O581  1  0.946300  0.682900  0.258100  1.0  -0.612
  O  O582  1  0.946300  0.182900  0.758100  1.0  -0.612
  O  O583  1  0.446300  0.682900  0.758100  1.0  -0.612
  O  O584  1  0.446300  0.182900  0.258100  1.0  -0.612
  O  O585  1  0.053700  0.682900  0.741900  1.0  -0.6124
  O  O586  1  0.053700  0.182900  0.241900  1.0  -0.6124
  O  O587  1  0.553700  0.682900  0.241900  1.0  -0.6124
  O  O588  1  0.553700  0.182900  0.741900  1.0  -0.6124
  O  O589  1  0.946300  0.317100  0.741900  1.0  -0.6122
  O  O590  1  0.946300  0.817100  0.241900  1.0  -0.6122
  O  O591  1  0.446300  0.317100  0.241900  1.0  -0.6122
  O  O592  1  0.446300  0.817100  0.741900  1.0  -0.6122
  O  O593  1  0.317100  0.741900  0.946300  1.0  -0.6164
  O  O594  1  0.317100  0.241900  0.446300  1.0  -0.6158
  O  O595  1  0.817100  0.741900  0.446300  1.0  -0.6158
  O  O596  1  0.817100  0.241900  0.946300  1.0  -0.6163
  O  O597  1  0.682900  0.741900  0.053700  1.0  -0.6165
  O  O598  1  0.682900  0.241900  0.553700  1.0  -0.6165
  O  O599  1  0.182900  0.741900  0.553700  1.0  -0.6165
  O  O600  1  0.182900  0.241900  0.053700  1.0  -0.6165
  O  O601  1  0.682900  0.258100  0.946300  1.0  -0.6147
  O  O602  1  0.682900  0.758100  0.446300  1.0  -0.6147
  O  O603  1  0.182900  0.258100  0.446300  1.0  -0.6147
  O  O604  1  0.182900  0.758100  0.946300  1.0  -0.6147
  O  O605  1  0.317100  0.258100  0.053700  1.0  -0.616
  O  O606  1  0.317100  0.758100  0.553700  1.0  -0.616
  O  O607  1  0.817100  0.258100  0.553700  1.0  -0.616
  O  O608  1  0.817100  0.758100  0.053700  1.0  -0.616
  O  O609  1  0.741900  0.053700  0.682900  1.0  -0.6156
  O  O610  1  0.741900  0.553700  0.182900  1.0  -0.6156
  O  O611  1  0.241900  0.053700  0.182900  1.0  -0.6156
  O  O612  1  0.241900  0.553700  0.682900  1.0  -0.6156
  O  O613  1  0.741900  0.946300  0.317100  1.0  -0.615
  O  O614  1  0.741900  0.446300  0.817100  1.0  -0.615
  O  O615  1  0.241900  0.946300  0.817100  1.0  -0.615
  O  O616  1  0.241900  0.446300  0.317100  1.0  -0.615
  O  O617  1  0.258100  0.053700  0.317100  1.0  -0.6144
  O  O618  1  0.258100  0.553700  0.817100  1.0  -0.6144
  O  O619  1  0.758100  0.053700  0.817100  1.0  -0.6144
  O  O620  1  0.758100  0.553700  0.317100  1.0  -0.6144
  O  O621  1  0.258100  0.946300  0.682900  1.0  -0.6143
  O  O622  1  0.258100  0.446300  0.182900  1.0  -0.6143
  O  O623  1  0.758100  0.946300  0.182900  1.0  -0.6143
  O  O624  1  0.758100  0.446300  0.682900  1.0  -0.6143
