# generated using pymatgen
data_CoH2(CO)6
_symmetry_space_group_name_H-M   'P 1'
_cell_length_a   18.68830000
_cell_length_b   18.68830000
_cell_length_c   18.68830000
_cell_angle_alpha   60.00000000
_cell_angle_beta   60.00000000
_cell_angle_gamma   60.00000000
_symmetry_Int_Tables_number   1
_chemical_formula_structural   CoH2(CO)6
_chemical_formula_sum   'Co12 H24 C72 O72'
_cell_volume   4615.24110119
_cell_formula_units_Z   12
loop_
 _symmetry_equiv_pos_site_id
 _symmetry_equiv_pos_as_xyz
  1  'x, y, z'
loop_
 _atom_site_type_symbol
 _atom_site_label
 _atom_site_symmetry_multiplicity
 _atom_site_fract_x
 _atom_site_fract_y
 _atom_site_fract_z
 _atom_site_occupancy
 _atom_site_charge
  Co  Co1  1  0.079040  0.500000  0.920960  1.0  0.9391
  Co  Co2  1  0.500000  0.079040  0.500000  1.0  0.9395
  Co  Co3  1  0.920960  0.500000  0.079040  1.0  0.9409
  Co  Co4  1  0.500000  0.920960  0.500000  1.0  0.94
  Co  Co5  1  0.079040  0.920960  0.500000  1.0  0.9399
  Co  Co6  1  0.500000  0.500000  0.920960  1.0  0.9374
  Co  Co7  1  0.920960  0.079040  0.500000  1.0  0.9391
  Co  Co8  1  0.500000  0.500000  0.079040  1.0  0.9365
  Co  Co9  1  0.079040  0.500000  0.500000  1.0  0.9396
  Co  Co10  1  0.500000  0.920960  0.079040  1.0  0.9414
  Co  Co11  1  0.920960  0.500000  0.500000  1.0  0.9404
  Co  Co12  1  0.500000  0.079040  0.920960  1.0  0.9404
  H  H13  1  0.229400  0.229400  0.010600  1.0  0.1306
  H  H14  1  0.229400  0.229400  0.530600  1.0  0.1306
  H  H15  1  0.010600  0.530600  0.229400  1.0  0.1305
  H  H16  1  0.530600  0.010600  0.229400  1.0  0.1316
  H  H17  1  0.229400  0.010600  0.530600  1.0  0.1314
  H  H18  1  0.229400  0.530600  0.010600  1.0  0.1314
  H  H19  1  0.010600  0.229400  0.229400  1.0  0.1306
  H  H20  1  0.530600  0.229400  0.229400  1.0  0.1315
  H  H21  1  0.229400  0.530600  0.229400  1.0  0.1316
  H  H22  1  0.229400  0.010600  0.229400  1.0  0.1313
  H  H23  1  0.010600  0.229400  0.530600  1.0  0.1306
  H  H24  1  0.530600  0.229400  0.010600  1.0  0.1313
  H  H25  1  0.770600  0.770600  0.989400  1.0  0.1306
  H  H26  1  0.770600  0.770600  0.469400  1.0  0.1305
  H  H27  1  0.469400  0.989400  0.770600  1.0  0.1312
  H  H28  1  0.989400  0.469400  0.770600  1.0  0.131
  H  H29  1  0.989400  0.770600  0.469400  1.0  0.1306
  H  H30  1  0.469400  0.770600  0.989400  1.0  0.1316
  H  H31  1  0.770600  0.989400  0.770600  1.0  0.1313
  H  H32  1  0.770600  0.469400  0.770600  1.0  0.1314
  H  H33  1  0.469400  0.770600  0.770600  1.0  0.1312
  H  H34  1  0.989400  0.770600  0.770600  1.0  0.1306
  H  H35  1  0.770600  0.989400  0.469400  1.0  0.1314
  H  H36  1  0.770600  0.469400  0.989400  1.0  0.1317
  C  C37  1  0.112100  0.243300  0.112100  1.0  -0.147
  C  C38  1  0.069300  0.335900  0.069300  1.0  0.7226
  C  C39  1  0.243300  0.112100  0.532500  1.0  -0.1469
  C  C40  1  0.335900  0.069300  0.525500  1.0  0.7225
  C  C41  1  0.112100  0.532500  0.112100  1.0  -0.1473
  C  C42  1  0.069300  0.525500  0.069300  1.0  0.7235
  C  C43  1  0.532500  0.112100  0.243300  1.0  -0.1473
  C  C44  1  0.525500  0.069300  0.335900  1.0  0.7237
  C  C45  1  0.112100  0.112100  0.532500  1.0  -0.1469
  C  C46  1  0.069300  0.069300  0.525500  1.0  0.7218
  C  C47  1  0.243300  0.532500  0.112100  1.0  -0.1472
  C  C48  1  0.335900  0.525500  0.069300  1.0  0.7226
  C  C49  1  0.112100  0.112100  0.243300  1.0  -0.1473
  C  C50  1  0.069300  0.069300  0.335900  1.0  0.7225
  C  C51  1  0.532500  0.243300  0.112100  1.0  -0.1463
  C  C52  1  0.525500  0.335900  0.069300  1.0  0.7227
  C  C53  1  0.112100  0.532500  0.243300  1.0  -0.1474
  C  C54  1  0.069300  0.525500  0.335900  1.0  0.7238
  C  C55  1  0.243300  0.112100  0.112100  1.0  -0.147
  C  C56  1  0.335900  0.069300  0.069300  1.0  0.7221
  C  C57  1  0.112100  0.243300  0.532500  1.0  -0.147
  C  C58  1  0.069300  0.335900  0.525500  1.0  0.7228
  C  C59  1  0.532500  0.112100  0.112100  1.0  -0.1473
  C  C60  1  0.525500  0.069300  0.069300  1.0  0.7233
  C  C61  1  0.756700  0.887900  0.887900  1.0  -0.1471
  C  C62  1  0.664100  0.930700  0.930700  1.0  0.7233
  C  C63  1  0.887900  0.756700  0.467500  1.0  -0.1469
  C  C64  1  0.930700  0.664100  0.474500  1.0  0.7223
  C  C65  1  0.467500  0.887900  0.887900  1.0  -0.147
  C  C66  1  0.474500  0.930700  0.930700  1.0  0.7235
  C  C67  1  0.887900  0.467500  0.756700  1.0  -0.147
  C  C68  1  0.930700  0.474500  0.664100  1.0  0.7227
  C  C69  1  0.887900  0.887900  0.467500  1.0  -0.1466
  C  C70  1  0.930700  0.930700  0.474500  1.0  0.7222
  C  C71  1  0.467500  0.756700  0.887900  1.0  -0.1466
  C  C72  1  0.474500  0.664100  0.930700  1.0  0.7228
  C  C73  1  0.887900  0.887900  0.756700  1.0  -0.1462
  C  C74  1  0.930700  0.930700  0.664100  1.0  0.7215
  C  C75  1  0.756700  0.467500  0.887900  1.0  -0.1466
  C  C76  1  0.664100  0.474500  0.930700  1.0  0.7235
  C  C77  1  0.467500  0.887900  0.756700  1.0  -0.1468
  C  C78  1  0.474500  0.930700  0.664100  1.0  0.7237
  C  C79  1  0.887900  0.756700  0.887900  1.0  -0.1469
  C  C80  1  0.930700  0.664100  0.930700  1.0  0.7226
  C  C81  1  0.756700  0.887900  0.467500  1.0  -0.147
  C  C82  1  0.664100  0.930700  0.474500  1.0  0.7232
  C  C83  1  0.887900  0.467500  0.887900  1.0  -0.1466
  C  C84  1  0.930700  0.474500  0.930700  1.0  0.7227
  C  C85  1  0.199700  0.199700  0.068900  1.0  0.0146
  C  C86  1  0.199700  0.199700  0.531700  1.0  0.0145
  C  C87  1  0.068900  0.531700  0.199700  1.0  0.0136
  C  C88  1  0.531700  0.068900  0.199700  1.0  0.0163
  C  C89  1  0.199700  0.068900  0.531700  1.0  0.0159
  C  C90  1  0.199700  0.531700  0.068900  1.0  0.0121
  C  C91  1  0.068900  0.199700  0.199700  1.0  0.0151
  C  C92  1  0.531700  0.199700  0.199700  1.0  0.0129
  C  C93  1  0.199700  0.531700  0.199700  1.0  0.0119
  C  C94  1  0.199700  0.068900  0.199700  1.0  0.0157
  C  C95  1  0.068900  0.199700  0.531700  1.0  0.0153
  C  C96  1  0.531700  0.199700  0.068900  1.0  0.0131
  C  C97  1  0.800300  0.800300  0.931100  1.0  0.0161
  C  C98  1  0.800300  0.800300  0.468300  1.0  0.0165
  C  C99  1  0.468300  0.931100  0.800300  1.0  0.0137
  C  C100  1  0.931100  0.468300  0.800300  1.0  0.015
  C  C101  1  0.931100  0.800300  0.468300  1.0  0.0144
  C  C102  1  0.468300  0.800300  0.931100  1.0  0.0133
  C  C103  1  0.800300  0.931100  0.800300  1.0  0.0141
  C  C104  1  0.800300  0.468300  0.800300  1.0  0.0134
  C  C105  1  0.468300  0.800300  0.800300  1.0  0.0134
  C  C106  1  0.931100  0.800300  0.800300  1.0  0.0143
  C  C107  1  0.800300  0.931100  0.468300  1.0  0.0137
  C  C108  1  0.800300  0.468300  0.931100  1.0  0.0135
  O  O109  1  0.113300  0.371500  0.993100  1.0  -0.5437
  O  O110  1  0.371500  0.113300  0.522100  1.0  -0.545
  O  O111  1  0.993100  0.522100  0.113300  1.0  -0.5436
  O  O112  1  0.522100  0.993100  0.371500  1.0  -0.5447
  O  O113  1  0.113300  0.993100  0.522100  1.0  -0.5442
  O  O114  1  0.371500  0.522100  0.993100  1.0  -0.545
  O  O115  1  0.993100  0.113300  0.371500  1.0  -0.5445
  O  O116  1  0.522100  0.371500  0.113300  1.0  -0.5426
  O  O117  1  0.113300  0.522100  0.371500  1.0  -0.5441
  O  O118  1  0.371500  0.993100  0.113300  1.0  -0.5448
  O  O119  1  0.993100  0.371500  0.522100  1.0  -0.5441
  O  O120  1  0.522100  0.113300  0.993100  1.0  -0.5431
  O  O121  1  0.628500  0.886700  0.006900  1.0  -0.5446
  O  O122  1  0.886700  0.628500  0.477900  1.0  -0.5431
  O  O123  1  0.477900  0.006900  0.886700  1.0  -0.5445
  O  O124  1  0.006900  0.477900  0.628500  1.0  -0.5437
  O  O125  1  0.006900  0.886700  0.477900  1.0  -0.5449
  O  O126  1  0.477900  0.628500  0.006900  1.0  -0.5432
  O  O127  1  0.886700  0.006900  0.628500  1.0  -0.545
  O  O128  1  0.628500  0.477900  0.886700  1.0  -0.5449
  O  O129  1  0.477900  0.886700  0.628500  1.0  -0.5433
  O  O130  1  0.006900  0.628500  0.886700  1.0  -0.5445
  O  O131  1  0.628500  0.006900  0.477900  1.0  -0.545
  O  O132  1  0.886700  0.477900  0.006900  1.0  -0.5435
  O  O133  1  0.886700  0.628500  0.006900  1.0  -0.544
  O  O134  1  0.628500  0.886700  0.477900  1.0  -0.5442
  O  O135  1  0.006900  0.477900  0.886700  1.0  -0.5446
  O  O136  1  0.477900  0.006900  0.628500  1.0  -0.5446
  O  O137  1  0.886700  0.006900  0.477900  1.0  -0.545
  O  O138  1  0.628500  0.477900  0.006900  1.0  -0.5437
  O  O139  1  0.006900  0.886700  0.628500  1.0  -0.5449
  O  O140  1  0.477900  0.628500  0.886700  1.0  -0.544
  O  O141  1  0.886700  0.477900  0.628500  1.0  -0.5434
  O  O142  1  0.628500  0.006900  0.886700  1.0  -0.5442
  O  O143  1  0.006900  0.628500  0.477900  1.0  -0.5452
  O  O144  1  0.477900  0.886700  0.006900  1.0  -0.5433
  O  O145  1  0.371500  0.113300  0.993100  1.0  -0.5444
  O  O146  1  0.113300  0.371500  0.522100  1.0  -0.5438
  O  O147  1  0.522100  0.993100  0.113300  1.0  -0.5443
  O  O148  1  0.993100  0.522100  0.371500  1.0  -0.5434
  O  O149  1  0.993100  0.113300  0.522100  1.0  -0.5445
  O  O150  1  0.522100  0.371500  0.993100  1.0  -0.5438
  O  O151  1  0.113300  0.993100  0.371500  1.0  -0.5442
  O  O152  1  0.371500  0.522100  0.113300  1.0  -0.5444
  O  O153  1  0.522100  0.113300  0.371500  1.0  -0.5435
  O  O154  1  0.993100  0.371500  0.113300  1.0  -0.5441
  O  O155  1  0.371500  0.993100  0.522100  1.0  -0.5446
  O  O156  1  0.113300  0.522100  0.993100  1.0  -0.5438
  O  O157  1  0.171800  0.523200  0.781800  1.0  -0.105
  O  O158  1  0.523200  0.171800  0.523200  1.0  -0.1038
  O  O159  1  0.781800  0.523200  0.171800  1.0  -0.1028
  O  O160  1  0.523200  0.781800  0.523200  1.0  -0.1016
  O  O161  1  0.171800  0.781800  0.523200  1.0  -0.0994
  O  O162  1  0.523200  0.523200  0.781800  1.0  -0.1026
  O  O163  1  0.781800  0.171800  0.523200  1.0  -0.1014
  O  O164  1  0.523200  0.523200  0.171800  1.0  -0.1036
  O  O165  1  0.171800  0.523200  0.523200  1.0  -0.1062
  O  O166  1  0.523200  0.781800  0.171800  1.0  -0.1018
  O  O167  1  0.781800  0.523200  0.523200  1.0  -0.1034
  O  O168  1  0.523200  0.171800  0.781800  1.0  -0.1034
  O  O169  1  0.476800  0.828200  0.218200  1.0  -0.101
  O  O170  1  0.828200  0.476800  0.476800  1.0  -0.1066
  O  O171  1  0.476800  0.218200  0.828200  1.0  -0.1021
  O  O172  1  0.218200  0.476800  0.476800  1.0  -0.1031
  O  O173  1  0.218200  0.828200  0.476800  1.0  -0.1004
  O  O174  1  0.476800  0.476800  0.218200  1.0  -0.1019
  O  O175  1  0.828200  0.218200  0.476800  1.0  -0.1001
  O  O176  1  0.476800  0.476800  0.828200  1.0  -0.1023
  O  O177  1  0.476800  0.828200  0.476800  1.0  -0.102
  O  O178  1  0.218200  0.476800  0.828200  1.0  -0.1031
  O  O179  1  0.476800  0.218200  0.476800  1.0  -0.1016
  O  O180  1  0.828200  0.476800  0.218200  1.0  -0.1051
