# generated using pymatgen
data_AgP2H38(C10N)4
_symmetry_space_group_name_H-M   'P 1'
_cell_length_a   27.51400000
_cell_length_b   14.25200000
_cell_length_c   24.00400000
_cell_angle_alpha   90.00000000
_cell_angle_beta   113.52100000
_cell_angle_gamma   90.00000000
_symmetry_Int_Tables_number   1
_chemical_formula_structural   AgP2H38(C10N)4
_chemical_formula_sum   'Ag8 P16 H304 C320 N32'
_cell_volume   8630.61420943
_cell_formula_units_Z   8
loop_
 _symmetry_equiv_pos_site_id
 _symmetry_equiv_pos_as_xyz
  1  'x, y, z'
loop_
 _atom_site_type_symbol
 _atom_site_label
 _atom_site_symmetry_multiplicity
 _atom_site_fract_x
 _atom_site_fract_y
 _atom_site_fract_z
 _atom_site_occupancy
 _atom_site_charge
  Ag  Ag1  1  0.250690  0.781350  0.219210  1.0  0.3134
  Ag  Ag2  1  0.750690  0.281350  0.219210  1.0  0.3134
  Ag  Ag3  1  0.749300  0.781350  0.280790  1.0  0.3127
  Ag  Ag4  1  0.249300  0.281350  0.280790  1.0  0.3127
  Ag  Ag5  1  0.749300  0.218650  0.780790  1.0  0.3127
  Ag  Ag6  1  0.249300  0.718650  0.780790  1.0  0.3127
  Ag  Ag7  1  0.250690  0.218650  0.719210  1.0  0.3134
  Ag  Ag8  1  0.750690  0.718650  0.719210  1.0  0.3134
  P  P9  1  0.251910  0.628580  0.173240  1.0  0.6964
  P  P10  1  0.246660  0.939490  0.178010  1.0  0.7424
  P  P11  1  0.751910  0.128580  0.173240  1.0  0.6964
  P  P12  1  0.746660  0.439490  0.178010  1.0  0.7424
  P  P13  1  0.748090  0.628580  0.326760  1.0  0.697
  P  P14  1  0.753340  0.939490  0.321990  1.0  0.7438
  P  P15  1  0.248090  0.128580  0.326760  1.0  0.697
  P  P16  1  0.253340  0.439490  0.321990  1.0  0.7438
  P  P17  1  0.748090  0.371420  0.826760  1.0  0.6755
  P  P18  1  0.753340  0.060510  0.821990  1.0  0.7682
  P  P19  1  0.248090  0.871420  0.826760  1.0  0.6755
  P  P20  1  0.253340  0.560510  0.821990  1.0  0.7682
  P  P21  1  0.251910  0.371420  0.673240  1.0  0.6747
  P  P22  1  0.246660  0.060510  0.678010  1.0  0.767
  P  P23  1  0.751910  0.871420  0.673240  1.0  0.6747
  P  P24  1  0.746660  0.560510  0.678010  1.0  0.767
  H  H25  1  0.272500  0.475600  0.211900  1.0  0.1231
  H  H26  1  0.310300  0.547500  0.259100  1.0  0.1074
  H  H27  1  0.298500  0.028700  0.263000  1.0  0.1247
  H  H28  1  0.258700  0.094500  0.213400  1.0  0.1294
  H  H29  1  0.155700  0.712200  0.099200  1.0  0.0708
  H  H30  1  0.074500  0.663800  0.027800  1.0  0.0896
  H  H31  1  0.060700  0.502900  0.005100  1.0  0.0954
  H  H32  1  0.126500  0.401000  0.049200  1.0  0.0863
  H  H33  1  0.204700  0.449400  0.120700  1.0  0.0713
  H  H34  1  0.245200  0.602800  0.050200  1.0  0.0698
  H  H35  1  0.305600  0.601000  0.006000  1.0  0.0694
  H  H36  1  0.394400  0.613600  0.064500  1.0  0.088
  H  H37  1  0.423300  0.630100  0.167800  1.0  0.0956
  H  H38  1  0.361900  0.636500  0.210500  1.0  0.0576
  H  H39  1  0.140400  0.880400  0.134400  1.0  0.0673
  H  H40  1  0.060400  0.922000  0.056200  1.0  0.0996
  H  H41  1  0.057600  0.048800  0.996600  1.0  0.0804
  H  H42  1  0.132900  0.129200  0.009100  1.0  0.0812
  H  H43  1  0.214100  0.082000  0.082600  1.0  0.0746
  H  H44  1  0.330800  0.075900  0.187100  1.0  0.0735
  H  H45  1  0.397100  0.079100  0.152300  1.0  0.0795
  H  H46  1  0.402700  0.965500  0.087600  1.0  0.0872
  H  H47  1  0.341100  0.841900  0.059400  1.0  0.0729
  H  H48  1  0.276300  0.835100  0.097100  1.0  0.0728
  H  H49  1  0.370800  0.887600  0.262300  1.0  0.0564
  H  H50  1  0.346700  0.703200  0.366400  1.0  0.0702
  H  H51  1  0.438200  0.752900  0.415100  1.0  0.1144
  H  H52  1  0.498100  0.861200  0.388600  1.0  0.0899
  H  H53  1  0.464900  0.952900  0.364200  1.0  0.0907
  H  H54  1  0.486900  0.750200  0.288100  1.0  0.0679
  H  H55  1  0.485100  0.027100  0.288900  1.0  0.085
  H  H56  1  0.174600  0.663100  0.450000  1.0  0.0863
  H  H57  1  0.255200  0.902400  0.471200  1.0  0.0735
  H  H58  1  0.129000  0.815400  0.400600  1.0  0.0875
  H  H59  1  0.165300  0.901100  0.401800  1.0  0.0801
  H  H60  1  0.242000  0.804200  0.357100  1.0  0.0781
  H  H61  1  0.086500  0.776500  0.283100  1.0  0.1019
  H  H62  1  0.120700  0.744100  0.206700  1.0  0.073
  H  H63  1  0.772500  0.975600  0.211900  1.0  0.1231
  H  H64  1  0.810300  0.047500  0.259100  1.0  0.1074
  H  H65  1  0.798500  0.528700  0.263000  1.0  0.1247
  H  H66  1  0.758700  0.594500  0.213400  1.0  0.1294
  H  H67  1  0.655700  0.212200  0.099200  1.0  0.0708
  H  H68  1  0.574500  0.163800  0.027800  1.0  0.0896
  H  H69  1  0.560700  0.002900  0.005100  1.0  0.0954
  H  H70  1  0.626500  0.901000  0.049200  1.0  0.0863
  H  H71  1  0.704700  0.949400  0.120700  1.0  0.0713
  H  H72  1  0.745200  0.102800  0.050200  1.0  0.0698
  H  H73  1  0.805600  0.101000  0.006000  1.0  0.0694
  H  H74  1  0.894400  0.113600  0.064500  1.0  0.088
  H  H75  1  0.923300  0.130100  0.167800  1.0  0.0956
  H  H76  1  0.861900  0.136500  0.210500  1.0  0.0576
  H  H77  1  0.640400  0.380400  0.134400  1.0  0.0673
  H  H78  1  0.560400  0.422000  0.056200  1.0  0.0996
  H  H79  1  0.557600  0.548800  0.996600  1.0  0.0804
  H  H80  1  0.632900  0.629200  0.009100  1.0  0.0812
  H  H81  1  0.714100  0.582000  0.082600  1.0  0.0746
  H  H82  1  0.830800  0.575900  0.187100  1.0  0.0735
  H  H83  1  0.897100  0.579100  0.152300  1.0  0.0796
  H  H84  1  0.902700  0.465500  0.087600  1.0  0.0872
  H  H85  1  0.841100  0.341900  0.059400  1.0  0.0729
  H  H86  1  0.776300  0.335100  0.097100  1.0  0.0728
  H  H87  1  0.870800  0.387600  0.262300  1.0  0.0564
  H  H88  1  0.846700  0.203200  0.366400  1.0  0.0702
  H  H89  1  0.938200  0.252900  0.415100  1.0  0.1144
  H  H90  1  0.998100  0.361200  0.388600  1.0  0.0899
  H  H91  1  0.964900  0.452900  0.364200  1.0  0.0907
  H  H92  1  0.986900  0.250200  0.288100  1.0  0.0679
  H  H93  1  0.985100  0.527100  0.288900  1.0  0.085
  H  H94  1  0.674600  0.163100  0.450000  1.0  0.0863
  H  H95  1  0.755200  0.402400  0.471200  1.0  0.0735
  H  H96  1  0.629000  0.315400  0.400600  1.0  0.0875
  H  H97  1  0.665300  0.401100  0.401800  1.0  0.0801
  H  H98  1  0.742000  0.304200  0.357100  1.0  0.0781
  H  H99  1  0.586500  0.276500  0.283100  1.0  0.1019
  H  H100  1  0.620700  0.244100  0.206700  1.0  0.073
  H  H101  1  0.727500  0.475600  0.288100  1.0  0.1236
  H  H102  1  0.689700  0.547500  0.240900  1.0  0.108
  H  H103  1  0.701500  0.028700  0.237000  1.0  0.123
  H  H104  1  0.741300  0.094500  0.286600  1.0  0.1296
  H  H105  1  0.844300  0.712200  0.400800  1.0  0.0707
  H  H106  1  0.925500  0.663800  0.472200  1.0  0.0895
  H  H107  1  0.939300  0.502900  0.494900  1.0  0.096
  H  H108  1  0.873500  0.401000  0.450800  1.0  0.0867
  H  H109  1  0.795300  0.449400  0.379300  1.0  0.0709
  H  H110  1  0.754800  0.602800  0.449800  1.0  0.0692
  H  H111  1  0.694400  0.601000  0.494000  1.0  0.0684
  H  H112  1  0.605600  0.613600  0.435500  1.0  0.0884
  H  H113  1  0.576700  0.630100  0.332200  1.0  0.0955
  H  H114  1  0.638100  0.636500  0.289500  1.0  0.0584
  H  H115  1  0.859600  0.880400  0.365600  1.0  0.0668
  H  H116  1  0.939600  0.922000  0.443800  1.0  0.0989
  H  H117  1  0.942400  0.048800  0.503400  1.0  0.0807
  H  H118  1  0.867100  0.129200  0.490900  1.0  0.081
  H  H119  1  0.785900  0.082000  0.417400  1.0  0.0747
  H  H120  1  0.669200  0.075900  0.312900  1.0  0.0726
  H  H121  1  0.602900  0.079100  0.347700  1.0  0.0798
  H  H122  1  0.597300  0.965500  0.412400  1.0  0.0876
  H  H123  1  0.658900  0.841900  0.440600  1.0  0.073
  H  H124  1  0.723700  0.835100  0.402900  1.0  0.0731
  H  H125  1  0.629200  0.887600  0.237700  1.0  0.0568
  H  H126  1  0.653300  0.703200  0.133600  1.0  0.0713
  H  H127  1  0.561800  0.752900  0.084900  1.0  0.1142
  H  H128  1  0.501900  0.861200  0.111400  1.0  0.09
  H  H129  1  0.535100  0.952900  0.135800  1.0  0.0921
  H  H130  1  0.513100  0.750200  0.211900  1.0  0.0684
  H  H131  1  0.514900  0.027100  0.211100  1.0  0.0851
  H  H132  1  0.825400  0.663100  0.050000  1.0  0.0863
  H  H133  1  0.744800  0.902400  0.028800  1.0  0.0733
  H  H134  1  0.871000  0.815400  0.099400  1.0  0.0884
  H  H135  1  0.834700  0.901100  0.098200  1.0  0.0796
  H  H136  1  0.758000  0.804200  0.142900  1.0  0.0782
  H  H137  1  0.913500  0.776500  0.216900  1.0  0.102
  H  H138  1  0.879300  0.744100  0.293300  1.0  0.0737
  H  H139  1  0.227500  0.975600  0.288100  1.0  0.1236
  H  H140  1  0.189700  0.047500  0.240900  1.0  0.108
  H  H141  1  0.201500  0.528700  0.237000  1.0  0.123
  H  H142  1  0.241300  0.594500  0.286600  1.0  0.1296
  H  H143  1  0.344300  0.212200  0.400800  1.0  0.0707
  H  H144  1  0.425500  0.163800  0.472200  1.0  0.0895
  H  H145  1  0.439300  0.002900  0.494900  1.0  0.096
  H  H146  1  0.373500  0.901000  0.450800  1.0  0.0867
  H  H147  1  0.295300  0.949400  0.379300  1.0  0.0709
  H  H148  1  0.254800  0.102800  0.449800  1.0  0.0692
  H  H149  1  0.194400  0.101000  0.494000  1.0  0.0684
  H  H150  1  0.105600  0.113600  0.435500  1.0  0.0884
  H  H151  1  0.076700  0.130100  0.332200  1.0  0.0955
  H  H152  1  0.138100  0.136500  0.289500  1.0  0.0584
  H  H153  1  0.359600  0.380400  0.365600  1.0  0.0668
  H  H154  1  0.439600  0.422000  0.443800  1.0  0.0989
  H  H155  1  0.442400  0.548800  0.503400  1.0  0.0807
  H  H156  1  0.367100  0.629200  0.490900  1.0  0.081
  H  H157  1  0.285900  0.582000  0.417400  1.0  0.0747
  H  H158  1  0.169200  0.575900  0.312900  1.0  0.0726
  H  H159  1  0.102900  0.579100  0.347700  1.0  0.0798
  H  H160  1  0.097300  0.465500  0.412400  1.0  0.0876
  H  H161  1  0.158900  0.341900  0.440600  1.0  0.073
  H  H162  1  0.223700  0.335100  0.402900  1.0  0.0731
  H  H163  1  0.129200  0.387600  0.237700  1.0  0.0568
  H  H164  1  0.153300  0.203200  0.133600  1.0  0.0713
  H  H165  1  0.061800  0.252900  0.084900  1.0  0.1142
  H  H166  1  0.001900  0.361200  0.111400  1.0  0.09
  H  H167  1  0.035100  0.452900  0.135800  1.0  0.0921
  H  H168  1  0.013100  0.250200  0.211900  1.0  0.0684
  H  H169  1  0.014900  0.527100  0.211100  1.0  0.0851
  H  H170  1  0.325400  0.163100  0.050000  1.0  0.0863
  H  H171  1  0.244800  0.402400  0.028800  1.0  0.0733
  H  H172  1  0.371000  0.315400  0.099400  1.0  0.0884
  H  H173  1  0.334700  0.401100  0.098200  1.0  0.0796
  H  H174  1  0.258000  0.304200  0.142900  1.0  0.0782
  H  H175  1  0.413500  0.276500  0.216900  1.0  0.102
  H  H176  1  0.379300  0.244100  0.293300  1.0  0.0737
  H  H177  1  0.727500  0.524400  0.788100  1.0  0.1233
  H  H178  1  0.689700  0.452500  0.740900  1.0  0.1079
  H  H179  1  0.701500  0.971300  0.737000  1.0  0.1229
  H  H180  1  0.741300  0.905500  0.786600  1.0  0.1307
  H  H181  1  0.844300  0.287800  0.900800  1.0  0.0709
  H  H182  1  0.925500  0.336200  0.972200  1.0  0.0893
  H  H183  1  0.939300  0.497100  0.994900  1.0  0.0958
  H  H184  1  0.873500  0.599000  0.950800  1.0  0.0858
  H  H185  1  0.795300  0.550600  0.879300  1.0  0.0713
  H  H186  1  0.754800  0.397200  0.949800  1.0  0.0692
  H  H187  1  0.694400  0.399000  0.994000  1.0  0.0696
  H  H188  1  0.605600  0.386400  0.935500  1.0  0.0884
  H  H189  1  0.576700  0.369900  0.832200  1.0  0.0958
  H  H190  1  0.638100  0.363500  0.789500  1.0  0.0585
  H  H191  1  0.859600  0.119600  0.865600  1.0  0.0671
  H  H192  1  0.939600  0.078000  0.943800  1.0  0.0996
  H  H193  1  0.942400  0.951200  0.003400  1.0  0.0808
  H  H194  1  0.867100  0.870800  0.990900  1.0  0.081
  H  H195  1  0.785900  0.918000  0.917400  1.0  0.0748
  H  H196  1  0.669200  0.924100  0.812900  1.0  0.072
  H  H197  1  0.602900  0.920900  0.847700  1.0  0.0794
  H  H198  1  0.597300  0.034500  0.912400  1.0  0.0878
  H  H199  1  0.658900  0.158100  0.940600  1.0  0.0739
  H  H200  1  0.723700  0.164900  0.902900  1.0  0.0728
  H  H201  1  0.629200  0.112400  0.737700  1.0  0.0568
  H  H202  1  0.653300  0.296800  0.633600  1.0  0.0717
  H  H203  1  0.561800  0.247100  0.584900  1.0  0.1145
  H  H204  1  0.501900  0.138800  0.611400  1.0  0.0904
  H  H205  1  0.535100  0.047100  0.635800  1.0  0.0925
  H  H206  1  0.513100  0.249800  0.711900  1.0  0.0682
  H  H207  1  0.514900  0.972900  0.711100  1.0  0.086
  H  H208  1  0.825400  0.336900  0.550000  1.0  0.0858
  H  H209  1  0.744800  0.097600  0.528800  1.0  0.0734
  H  H210  1  0.871000  0.184600  0.599400  1.0  0.0884
  H  H211  1  0.834700  0.098900  0.598200  1.0  0.0818
  H  H212  1  0.758000  0.195800  0.642900  1.0  0.0781
  H  H213  1  0.913500  0.223500  0.716900  1.0  0.1023
  H  H214  1  0.879300  0.255900  0.793300  1.0  0.0733
  H  H215  1  0.227500  0.024400  0.788100  1.0  0.1233
  H  H216  1  0.189700  0.952500  0.740900  1.0  0.1079
  H  H217  1  0.201500  0.471300  0.737000  1.0  0.1229
  H  H218  1  0.241300  0.405500  0.786600  1.0  0.1307
  H  H219  1  0.344300  0.787800  0.900800  1.0  0.0709
  H  H220  1  0.425500  0.836200  0.972200  1.0  0.0893
  H  H221  1  0.439300  0.997100  0.994900  1.0  0.0958
  H  H222  1  0.373500  0.099000  0.950800  1.0  0.0858
  H  H223  1  0.295300  0.050600  0.879300  1.0  0.0713
  H  H224  1  0.254800  0.897200  0.949800  1.0  0.0692
  H  H225  1  0.194400  0.899000  0.994000  1.0  0.0696
  H  H226  1  0.105600  0.886400  0.935500  1.0  0.0884
  H  H227  1  0.076700  0.869900  0.832200  1.0  0.0958
  H  H228  1  0.138100  0.863500  0.789500  1.0  0.0585
  H  H229  1  0.359600  0.619600  0.865600  1.0  0.0671
  H  H230  1  0.439600  0.578000  0.943800  1.0  0.0996
  H  H231  1  0.442400  0.451200  0.003400  1.0  0.0808
  H  H232  1  0.367100  0.370800  0.990900  1.0  0.081
  H  H233  1  0.285900  0.418000  0.917400  1.0  0.0748
  H  H234  1  0.169200  0.424100  0.812900  1.0  0.072
  H  H235  1  0.102900  0.420900  0.847700  1.0  0.0795
  H  H236  1  0.097300  0.534500  0.912400  1.0  0.0878
  H  H237  1  0.158900  0.658100  0.940600  1.0  0.0739
  H  H238  1  0.223700  0.664900  0.902900  1.0  0.0728
  H  H239  1  0.129200  0.612400  0.737700  1.0  0.0568
  H  H240  1  0.153300  0.796800  0.633600  1.0  0.0717
  H  H241  1  0.061800  0.747100  0.584900  1.0  0.1145
  H  H242  1  0.001900  0.638800  0.611400  1.0  0.0904
  H  H243  1  0.035100  0.547100  0.635800  1.0  0.0925
  H  H244  1  0.013100  0.749800  0.711900  1.0  0.0682
  H  H245  1  0.014900  0.472900  0.711100  1.0  0.086
  H  H246  1  0.325400  0.836900  0.550000  1.0  0.0858
  H  H247  1  0.244800  0.597600  0.528800  1.0  0.0734
  H  H248  1  0.371000  0.684600  0.599400  1.0  0.0884
  H  H249  1  0.334700  0.598900  0.598200  1.0  0.0818
  H  H250  1  0.258000  0.695800  0.642900  1.0  0.0781
  H  H251  1  0.413500  0.723500  0.716900  1.0  0.1023
  H  H252  1  0.379300  0.755900  0.793300  1.0  0.0733
  H  H253  1  0.272500  0.524400  0.711900  1.0  0.1233
  H  H254  1  0.310300  0.452500  0.759100  1.0  0.1074
  H  H255  1  0.298500  0.971300  0.763000  1.0  0.1245
  H  H256  1  0.258700  0.905500  0.713400  1.0  0.1299
  H  H257  1  0.155700  0.287800  0.599200  1.0  0.0709
  H  H258  1  0.074500  0.336200  0.527800  1.0  0.0894
  H  H259  1  0.060700  0.497100  0.505100  1.0  0.0956
  H  H260  1  0.126500  0.599000  0.549200  1.0  0.0859
  H  H261  1  0.204700  0.550600  0.620700  1.0  0.0713
  H  H262  1  0.245200  0.397200  0.550200  1.0  0.0693
  H  H263  1  0.305600  0.399000  0.506000  1.0  0.0703
  H  H264  1  0.394400  0.386400  0.564500  1.0  0.0882
  H  H265  1  0.423300  0.369900  0.667800  1.0  0.0954
  H  H266  1  0.361900  0.363500  0.710500  1.0  0.0574
  H  H267  1  0.140400  0.119600  0.634400  1.0  0.0672
  H  H268  1  0.060400  0.078000  0.556200  1.0  0.0995
  H  H269  1  0.057600  0.951200  0.496600  1.0  0.0803
  H  H270  1  0.132900  0.870800  0.509100  1.0  0.0806
  H  H271  1  0.214100  0.918000  0.582600  1.0  0.0747
  H  H272  1  0.330800  0.924100  0.687100  1.0  0.0734
  H  H273  1  0.397100  0.920900  0.652300  1.0  0.0793
  H  H274  1  0.402700  0.034500  0.587600  1.0  0.0872
  H  H275  1  0.341100  0.158100  0.559400  1.0  0.0742
  H  H276  1  0.276300  0.164900  0.597100  1.0  0.0726
  H  H277  1  0.370800  0.112400  0.762300  1.0  0.0565
  H  H278  1  0.346700  0.296800  0.866400  1.0  0.0708
  H  H279  1  0.438200  0.247100  0.915100  1.0  0.1147
  H  H280  1  0.498100  0.138800  0.888600  1.0  0.0892
  H  H281  1  0.464900  0.047100  0.864200  1.0  0.0923
  H  H282  1  0.486900  0.249800  0.788100  1.0  0.0677
  H  H283  1  0.485100  0.972900  0.788900  1.0  0.0864
  H  H284  1  0.174600  0.336900  0.950000  1.0  0.0859
  H  H285  1  0.255200  0.097600  0.971200  1.0  0.0735
  H  H286  1  0.129000  0.184600  0.900600  1.0  0.0875
  H  H287  1  0.165300  0.098900  0.901800  1.0  0.0804
  H  H288  1  0.242000  0.195800  0.857100  1.0  0.078
  H  H289  1  0.086500  0.223500  0.783100  1.0  0.1017
  H  H290  1  0.120700  0.255900  0.706700  1.0  0.0725
  H  H291  1  0.772500  0.024400  0.711900  1.0  0.1233
  H  H292  1  0.810300  0.952500  0.759100  1.0  0.1074
  H  H293  1  0.798500  0.471300  0.763000  1.0  0.1245
  H  H294  1  0.758700  0.405500  0.713400  1.0  0.1299
  H  H295  1  0.655700  0.787800  0.599200  1.0  0.0709
  H  H296  1  0.574500  0.836200  0.527800  1.0  0.0894
  H  H297  1  0.560700  0.997100  0.505100  1.0  0.0956
  H  H298  1  0.626500  0.099000  0.549200  1.0  0.0859
  H  H299  1  0.704700  0.050600  0.620700  1.0  0.0713
  H  H300  1  0.745200  0.897200  0.550200  1.0  0.0693
  H  H301  1  0.805600  0.899000  0.506000  1.0  0.0703
  H  H302  1  0.894400  0.886400  0.564500  1.0  0.0882
  H  H303  1  0.923300  0.869900  0.667800  1.0  0.0954
  H  H304  1  0.861900  0.863500  0.710500  1.0  0.0574
  H  H305  1  0.640400  0.619600  0.634400  1.0  0.0672
  H  H306  1  0.560400  0.578000  0.556200  1.0  0.0995
  H  H307  1  0.557600  0.451200  0.496600  1.0  0.0803
  H  H308  1  0.632900  0.370800  0.509100  1.0  0.0806
  H  H309  1  0.714100  0.418000  0.582600  1.0  0.0747
  H  H310  1  0.830800  0.424100  0.687100  1.0  0.0734
  H  H311  1  0.897100  0.420900  0.652300  1.0  0.0794
  H  H312  1  0.902700  0.534500  0.587600  1.0  0.0872
  H  H313  1  0.841100  0.658100  0.559400  1.0  0.0742
  H  H314  1  0.776300  0.664900  0.597100  1.0  0.0726
  H  H315  1  0.870800  0.612400  0.762300  1.0  0.0565
  H  H316  1  0.846700  0.796800  0.866400  1.0  0.0708
  H  H317  1  0.938200  0.747100  0.915100  1.0  0.1147
  H  H318  1  0.998100  0.638800  0.888600  1.0  0.0892
  H  H319  1  0.964900  0.547100  0.864200  1.0  0.0923
  H  H320  1  0.986900  0.749800  0.788100  1.0  0.0677
  H  H321  1  0.985100  0.472900  0.788900  1.0  0.0864
  H  H322  1  0.674600  0.836900  0.950000  1.0  0.0859
  H  H323  1  0.755200  0.597600  0.971200  1.0  0.0735
  H  H324  1  0.629000  0.684600  0.900600  1.0  0.0875
  H  H325  1  0.665300  0.598900  0.901800  1.0  0.0804
  H  H326  1  0.742000  0.695800  0.857100  1.0  0.078
  H  H327  1  0.586500  0.723500  0.783100  1.0  0.1017
  H  H328  1  0.620700  0.755900  0.706700  1.0  0.0725
  C  C329  1  0.273900  0.536000  0.231200  1.0  -0.3662
  C  C330  1  0.262000  0.035000  0.234200  1.0  -0.3674
  C  C331  1  0.189900  0.586200  0.117800  1.0  -0.0821
  C  C332  1  0.149900  0.648800  0.089500  1.0  -0.0243
  C  C333  1  0.101300  0.620500  0.046900  1.0  -0.1083
  C  C334  1  0.093300  0.524000  0.033000  1.0  -0.1462
  C  C335  1  0.131600  0.464300  0.059400  1.0  -0.0884
  C  C336  1  0.178700  0.494000  0.101700  1.0  -0.1023
  C  C337  1  0.297500  0.618000  0.135900  1.0  -0.1368
  C  C338  1  0.281200  0.608500  0.074500  1.0  -0.1035
  C  C339  1  0.317400  0.607300  0.047900  1.0  -0.0795
  C  C340  1  0.370200  0.615100  0.082600  1.0  -0.0976
  C  C341  1  0.387400  0.625100  0.143500  1.0  -0.1487
  C  C342  1  0.350100  0.627700  0.168700  1.0  -0.0849
  C  C343  1  0.185700  0.977000  0.117700  1.0  -0.2572
  C  C344  1  0.139500  0.930100  0.108900  1.0  -0.0342
  C  C345  1  0.091100  0.955600  0.062400  1.0  -0.1659
  C  C346  1  0.089800  0.030200  0.026600  1.0  -0.1201
  C  C347  1  0.134600  0.078100  0.034000  1.0  -0.1241
  C  C348  1  0.183300  0.050700  0.078800  1.0  -0.0713
  C  C349  1  0.296300  0.954100  0.147000  1.0  -0.286
  C  C350  1  0.333100  0.027900  0.162100  1.0  -0.1125
  C  C351  1  0.372500  0.030400  0.140600  1.0  -0.1068
  C  C352  1  0.376200  0.962800  0.102400  1.0  -0.1507
  C  C353  1  0.339200  0.888400  0.085600  1.0  -0.1012
  C  C354  1  0.300300  0.884700  0.108100  1.0  -0.0468
  C  C355  1  0.375800  0.846500  0.294200  1.0  0.1474
  C  C356  1  0.362900  0.746900  0.350600  1.0  -0.0093
  C  C357  1  0.413500  0.774100  0.378000  1.0  -0.1552
  C  C358  1  0.469600  0.888700  0.353900  1.0  -0.0865
  C  C359  1  0.485300  0.888800  0.299500  1.0  0.1112
  C  C360  1  0.492600  0.807400  0.273000  1.0  -0.1636
  C  C361  1  0.491700  0.970400  0.274100  1.0  -0.1621
  C  C362  1  0.205000  0.698300  0.470100  1.0  -0.1409
  C  C363  1  0.253000  0.840800  0.482700  1.0  -0.1541
  C  C364  1  0.207700  0.789800  0.452300  1.0  0.0413
  C  C365  1  0.162500  0.833200  0.399300  1.0  -0.1151
  C  C366  1  0.207600  0.793600  0.329000  1.0  0.1387
  C  C367  1  0.121900  0.778500  0.288600  1.0  -0.1815
  C  C368  1  0.141000  0.760500  0.246800  1.0  -0.0147
  C  C369  1  0.773900  0.036000  0.231200  1.0  -0.3662
  C  C370  1  0.762000  0.535000  0.234200  1.0  -0.3674
  C  C371  1  0.689900  0.086200  0.117800  1.0  -0.0821
  C  C372  1  0.649900  0.148800  0.089500  1.0  -0.0243
  C  C373  1  0.601300  0.120500  0.046900  1.0  -0.1083
  C  C374  1  0.593300  0.024000  0.033000  1.0  -0.1462
  C  C375  1  0.631600  0.964300  0.059400  1.0  -0.0884
  C  C376  1  0.678700  0.994000  0.101700  1.0  -0.1023
  C  C377  1  0.797500  0.118000  0.135900  1.0  -0.1368
  C  C378  1  0.781200  0.108500  0.074500  1.0  -0.1035
  C  C379  1  0.817400  0.107300  0.047900  1.0  -0.0795
  C  C380  1  0.870200  0.115100  0.082600  1.0  -0.0976
  C  C381  1  0.887400  0.125100  0.143500  1.0  -0.1487
  C  C382  1  0.850100  0.127700  0.168700  1.0  -0.0849
  C  C383  1  0.685700  0.477000  0.117700  1.0  -0.2572
  C  C384  1  0.639500  0.430100  0.108900  1.0  -0.0342
  C  C385  1  0.591100  0.455600  0.062400  1.0  -0.1659
  C  C386  1  0.589800  0.530200  0.026600  1.0  -0.1201
  C  C387  1  0.634600  0.578100  0.034000  1.0  -0.1241
  C  C388  1  0.683300  0.550700  0.078800  1.0  -0.0713
  C  C389  1  0.796300  0.454100  0.147000  1.0  -0.286
  C  C390  1  0.833100  0.527900  0.162100  1.0  -0.1125
  C  C391  1  0.872500  0.530400  0.140600  1.0  -0.1068
  C  C392  1  0.876200  0.462800  0.102400  1.0  -0.1507
  C  C393  1  0.839200  0.388400  0.085600  1.0  -0.1012
  C  C394  1  0.800300  0.384700  0.108100  1.0  -0.0468
  C  C395  1  0.875800  0.346500  0.294200  1.0  0.1474
  C  C396  1  0.862900  0.246900  0.350600  1.0  -0.0093
  C  C397  1  0.913500  0.274100  0.378000  1.0  -0.1552
  C  C398  1  0.969600  0.388700  0.353900  1.0  -0.0865
  C  C399  1  0.985300  0.388800  0.299500  1.0  0.1112
  C  C400  1  0.992600  0.307400  0.273000  1.0  -0.1636
  C  C401  1  0.991700  0.470400  0.274100  1.0  -0.1621
  C  C402  1  0.705000  0.198300  0.470100  1.0  -0.1409
  C  C403  1  0.753000  0.340800  0.482700  1.0  -0.1541
  C  C404  1  0.707700  0.289800  0.452300  1.0  0.0413
  C  C405  1  0.662500  0.333200  0.399300  1.0  -0.1151
  C  C406  1  0.707600  0.293600  0.329000  1.0  0.1387
  C  C407  1  0.621900  0.278500  0.288600  1.0  -0.1815
  C  C408  1  0.641000  0.260500  0.246800  1.0  -0.0147
  C  C409  1  0.726100  0.536000  0.268800  1.0  -0.3684
  C  C410  1  0.738000  0.035000  0.265800  1.0  -0.3682
  C  C411  1  0.810100  0.586200  0.382200  1.0  -0.0813
  C  C412  1  0.850100  0.648800  0.410500  1.0  -0.0222
  C  C413  1  0.898700  0.620500  0.453100  1.0  -0.1082
  C  C414  1  0.906700  0.524000  0.467000  1.0  -0.1469
  C  C415  1  0.868400  0.464300  0.440600  1.0  -0.0875
  C  C416  1  0.821300  0.494000  0.398300  1.0  -0.1017
  C  C417  1  0.702500  0.618000  0.364100  1.0  -0.136
  C  C418  1  0.718800  0.608500  0.425500  1.0  -0.1046
  C  C419  1  0.682600  0.607300  0.452100  1.0  -0.0793
  C  C420  1  0.629800  0.615100  0.417400  1.0  -0.0981
  C  C421  1  0.612600  0.625100  0.356500  1.0  -0.152
  C  C422  1  0.649900  0.627700  0.331300  1.0  -0.0835
  C  C423  1  0.814300  0.977000  0.382300  1.0  -0.2563
  C  C424  1  0.860500  0.930100  0.391100  1.0  -0.0341
  C  C425  1  0.908900  0.955600  0.437600  1.0  -0.165
  C  C426  1  0.910200  0.030200  0.473400  1.0  -0.1182
  C  C427  1  0.865400  0.078100  0.466000  1.0  -0.1238
  C  C428  1  0.816700  0.050700  0.421200  1.0  -0.0703
  C  C429  1  0.703700  0.954100  0.353000  1.0  -0.285
  C  C430  1  0.666900  0.027900  0.337900  1.0  -0.1123
  C  C431  1  0.627500  0.030400  0.359400  1.0  -0.1065
  C  C432  1  0.623800  0.962800  0.397600  1.0  -0.1503
  C  C433  1  0.660800  0.888400  0.414400  1.0  -0.1009
  C  C434  1  0.699700  0.884700  0.391900  1.0  -0.0472
  C  C435  1  0.624200  0.846500  0.205800  1.0  0.1493
  C  C436  1  0.637100  0.746900  0.149400  1.0  -0.0092
  C  C437  1  0.586500  0.774100  0.122000  1.0  -0.1568
  C  C438  1  0.530400  0.888700  0.146100  1.0  -0.087
  C  C439  1  0.514700  0.888800  0.200500  1.0  0.1099
  C  C440  1  0.507400  0.807400  0.227000  1.0  -0.1635
  C  C441  1  0.508300  0.970400  0.225900  1.0  -0.1617
  C  C442  1  0.795000  0.698300  0.029900  1.0  -0.1423
  C  C443  1  0.747000  0.840800  0.017300  1.0  -0.154
  C  C444  1  0.792300  0.789800  0.047700  1.0  0.0426
  C  C445  1  0.837500  0.833200  0.100700  1.0  -0.1145
  C  C446  1  0.792400  0.793600  0.171000  1.0  0.1393
  C  C447  1  0.878100  0.778500  0.211400  1.0  -0.1803
  C  C448  1  0.859000  0.760500  0.253200  1.0  -0.014
  C  C449  1  0.226100  0.036000  0.268800  1.0  -0.3684
  C  C450  1  0.238000  0.535000  0.265800  1.0  -0.3682
  C  C451  1  0.310100  0.086200  0.382200  1.0  -0.0813
  C  C452  1  0.350100  0.148800  0.410500  1.0  -0.0222
  C  C453  1  0.398700  0.120500  0.453100  1.0  -0.1082
  C  C454  1  0.406700  0.024000  0.467000  1.0  -0.1469
  C  C455  1  0.368400  0.964300  0.440600  1.0  -0.0875
  C  C456  1  0.321300  0.994000  0.398300  1.0  -0.1017
  C  C457  1  0.202500  0.118000  0.364100  1.0  -0.136
  C  C458  1  0.218800  0.108500  0.425500  1.0  -0.1046
  C  C459  1  0.182600  0.107300  0.452100  1.0  -0.0793
  C  C460  1  0.129800  0.115100  0.417400  1.0  -0.0981
  C  C461  1  0.112600  0.125100  0.356500  1.0  -0.152
  C  C462  1  0.149900  0.127700  0.331300  1.0  -0.0835
  C  C463  1  0.314300  0.477000  0.382300  1.0  -0.2563
  C  C464  1  0.360500  0.430100  0.391100  1.0  -0.0341
  C  C465  1  0.408900  0.455600  0.437600  1.0  -0.165
  C  C466  1  0.410200  0.530200  0.473400  1.0  -0.1182
  C  C467  1  0.365400  0.578100  0.466000  1.0  -0.1238
  C  C468  1  0.316700  0.550700  0.421200  1.0  -0.0703
  C  C469  1  0.203700  0.454100  0.353000  1.0  -0.285
  C  C470  1  0.166900  0.527900  0.337900  1.0  -0.1123
  C  C471  1  0.127500  0.530400  0.359400  1.0  -0.1065
  C  C472  1  0.123800  0.462800  0.397600  1.0  -0.1503
  C  C473  1  0.160800  0.388400  0.414400  1.0  -0.1009
  C  C474  1  0.199700  0.384700  0.391900  1.0  -0.0472
  C  C475  1  0.124200  0.346500  0.205800  1.0  0.1493
  C  C476  1  0.137100  0.246900  0.149400  1.0  -0.0092
  C  C477  1  0.086500  0.274100  0.122000  1.0  -0.1568
  C  C478  1  0.030400  0.388700  0.146100  1.0  -0.087
  C  C479  1  0.014700  0.388800  0.200500  1.0  0.1099
  C  C480  1  0.007400  0.307400  0.227000  1.0  -0.1635
  C  C481  1  0.008300  0.470400  0.225900  1.0  -0.1617
  C  C482  1  0.295000  0.198300  0.029900  1.0  -0.1423
  C  C483  1  0.247000  0.340800  0.017300  1.0  -0.154
  C  C484  1  0.292300  0.289800  0.047700  1.0  0.0426
  C  C485  1  0.337500  0.333200  0.100700  1.0  -0.1145
  C  C486  1  0.292400  0.293600  0.171000  1.0  0.1393
  C  C487  1  0.378100  0.278500  0.211400  1.0  -0.1803
  C  C488  1  0.359000  0.260500  0.253200  1.0  -0.014
  C  C489  1  0.726100  0.464000  0.768800  1.0  -0.3679
  C  C490  1  0.738000  0.965000  0.765800  1.0  -0.3679
  C  C491  1  0.810100  0.413800  0.882200  1.0  -0.081
  C  C492  1  0.850100  0.351200  0.910500  1.0  -0.0243
  C  C493  1  0.898700  0.379500  0.953100  1.0  -0.1102
  C  C494  1  0.906700  0.476000  0.967000  1.0  -0.1468
  C  C495  1  0.868400  0.535700  0.940600  1.0  -0.0867
  C  C496  1  0.821300  0.506000  0.898300  1.0  -0.102
  C  C497  1  0.702500  0.382000  0.864100  1.0  -0.1356
  C  C498  1  0.718800  0.391500  0.925500  1.0  -0.1042
  C  C499  1  0.682600  0.392700  0.952100  1.0  -0.0797
  C  C500  1  0.629800  0.384900  0.917400  1.0  -0.098
  C  C501  1  0.612600  0.374900  0.856500  1.0  -0.1526
  C  C502  1  0.649900  0.372300  0.831300  1.0  -0.0836
  C  C503  1  0.814300  0.023000  0.882300  1.0  -0.2561
  C  C504  1  0.860500  0.069900  0.891100  1.0  -0.0347
  C  C505  1  0.908900  0.044400  0.937600  1.0  -0.1644
  C  C506  1  0.910200  0.969800  0.973400  1.0  -0.1184
  C  C507  1  0.865400  0.921900  0.966000  1.0  -0.1255
  C  C508  1  0.816700  0.949300  0.921200  1.0  -0.0701
  C  C509  1  0.703700  0.045900  0.853000  1.0  -0.2853
  C  C510  1  0.666900  0.972100  0.837900  1.0  -0.1122
  C  C511  1  0.627500  0.969600  0.859400  1.0  -0.1064
  C  C512  1  0.623800  0.037200  0.897600  1.0  -0.1502
  C  C513  1  0.660800  0.111600  0.914400  1.0  -0.1012
  C  C514  1  0.699700  0.115300  0.891900  1.0  -0.0487
  C  C515  1  0.624200  0.153500  0.705800  1.0  0.1496
  C  C516  1  0.637100  0.253100  0.649400  1.0  -0.0091
  C  C517  1  0.586500  0.225900  0.622000  1.0  -0.1562
  C  C518  1  0.530400  0.111300  0.646100  1.0  -0.087
  C  C519  1  0.514700  0.111200  0.700500  1.0  0.11
  C  C520  1  0.507400  0.192600  0.727000  1.0  -0.1651
  C  C521  1  0.508300  0.029600  0.725900  1.0  -0.16
  C  C522  1  0.795000  0.301700  0.529900  1.0  -0.1435
  C  C523  1  0.747000  0.159200  0.517300  1.0  -0.153
  C  C524  1  0.792300  0.210200  0.547700  1.0  0.0429
  C  C525  1  0.837500  0.166800  0.600700  1.0  -0.1147
  C  C526  1  0.792400  0.206400  0.671000  1.0  0.1392
  C  C527  1  0.878100  0.221500  0.711400  1.0  -0.1804
  C  C528  1  0.859000  0.239500  0.753200  1.0  -0.0135
  C  C529  1  0.226100  0.964000  0.768800  1.0  -0.3679
  C  C530  1  0.238000  0.465000  0.765800  1.0  -0.3679
  C  C531  1  0.310100  0.913800  0.882200  1.0  -0.081
  C  C532  1  0.350100  0.851200  0.910500  1.0  -0.0243
  C  C533  1  0.398700  0.879500  0.953100  1.0  -0.1102
  C  C534  1  0.406700  0.976000  0.967000  1.0  -0.1468
  C  C535  1  0.368400  0.035700  0.940600  1.0  -0.0867
  C  C536  1  0.321300  0.006000  0.898300  1.0  -0.102
  C  C537  1  0.202500  0.882000  0.864100  1.0  -0.1356
  C  C538  1  0.218800  0.891500  0.925500  1.0  -0.1042
  C  C539  1  0.182600  0.892700  0.952100  1.0  -0.0797
  C  C540  1  0.129800  0.884900  0.917400  1.0  -0.098
  C  C541  1  0.112600  0.874900  0.856500  1.0  -0.1526
  C  C542  1  0.149900  0.872300  0.831300  1.0  -0.0836
  C  C543  1  0.314300  0.523000  0.882300  1.0  -0.2561
  C  C544  1  0.360500  0.569900  0.891100  1.0  -0.0347
  C  C545  1  0.408900  0.544400  0.937600  1.0  -0.1644
  C  C546  1  0.410200  0.469800  0.973400  1.0  -0.1184
  C  C547  1  0.365400  0.421900  0.966000  1.0  -0.1255
  C  C548  1  0.316700  0.449300  0.921200  1.0  -0.0701
  C  C549  1  0.203700  0.545900  0.853000  1.0  -0.2853
  C  C550  1  0.166900  0.472100  0.837900  1.0  -0.1122
  C  C551  1  0.127500  0.469600  0.859400  1.0  -0.1064
  C  C552  1  0.123800  0.537200  0.897600  1.0  -0.1502
  C  C553  1  0.160800  0.611600  0.914400  1.0  -0.1012
  C  C554  1  0.199700  0.615300  0.891900  1.0  -0.0487
  C  C555  1  0.124200  0.653500  0.705800  1.0  0.1496
  C  C556  1  0.137100  0.753100  0.649400  1.0  -0.0091
  C  C557  1  0.086500  0.725900  0.622000  1.0  -0.1562
  C  C558  1  0.030400  0.611300  0.646100  1.0  -0.087
  C  C559  1  0.014700  0.611200  0.700500  1.0  0.11
  C  C560  1  0.007400  0.692600  0.727000  1.0  -0.1651
  C  C561  1  0.008300  0.529600  0.725900  1.0  -0.16
  C  C562  1  0.295000  0.801700  0.529900  1.0  -0.1435
  C  C563  1  0.247000  0.659200  0.517300  1.0  -0.153
  C  C564  1  0.292300  0.710200  0.547700  1.0  0.0429
  C  C565  1  0.337500  0.666800  0.600700  1.0  -0.1147
  C  C566  1  0.292400  0.706400  0.671000  1.0  0.1392
  C  C567  1  0.378100  0.721500  0.711400  1.0  -0.1804
  C  C568  1  0.359000  0.739500  0.753200  1.0  -0.0135
  C  C569  1  0.273900  0.464000  0.731200  1.0  -0.3666
  C  C570  1  0.262000  0.965000  0.734200  1.0  -0.3667
  C  C571  1  0.189900  0.413800  0.617800  1.0  -0.0814
  C  C572  1  0.149900  0.351200  0.589500  1.0  -0.0258
  C  C573  1  0.101300  0.379500  0.546900  1.0  -0.1096
  C  C574  1  0.093300  0.476000  0.533000  1.0  -0.1461
  C  C575  1  0.131600  0.535700  0.559400  1.0  -0.0875
  C  C576  1  0.178700  0.506000  0.601700  1.0  -0.1023
  C  C577  1  0.297500  0.382000  0.635900  1.0  -0.1364
  C  C578  1  0.281200  0.391500  0.574500  1.0  -0.1034
  C  C579  1  0.317400  0.392700  0.547900  1.0  -0.0792
  C  C580  1  0.370200  0.384900  0.582600  1.0  -0.0976
  C  C581  1  0.387400  0.374900  0.643500  1.0  -0.1488
  C  C582  1  0.350100  0.372300  0.668700  1.0  -0.0848
  C  C583  1  0.185700  0.023000  0.617700  1.0  -0.2572
  C  C584  1  0.139500  0.069900  0.608900  1.0  -0.0354
  C  C585  1  0.091100  0.044400  0.562400  1.0  -0.167
  C  C586  1  0.089800  0.969800  0.526600  1.0  -0.1202
  C  C587  1  0.134600  0.921900  0.534000  1.0  -0.1244
  C  C588  1  0.183300  0.949300  0.578800  1.0  -0.0712
  C  C589  1  0.296300  0.045900  0.647000  1.0  -0.2862
  C  C590  1  0.333100  0.972100  0.662100  1.0  -0.112
  C  C591  1  0.372500  0.969600  0.640600  1.0  -0.1063
  C  C592  1  0.376200  0.037200  0.602400  1.0  -0.1506
  C  C593  1  0.339200  0.111600  0.585600  1.0  -0.1006
  C  C594  1  0.300300  0.115300  0.608100  1.0  -0.048
  C  C595  1  0.375800  0.153500  0.794200  1.0  0.1484
  C  C596  1  0.362900  0.253100  0.850600  1.0  -0.0097
  C  C597  1  0.413500  0.225900  0.878000  1.0  -0.1551
  C  C598  1  0.469600  0.111300  0.853900  1.0  -0.0871
  C  C599  1  0.485300  0.111200  0.799500  1.0  0.1113
  C  C600  1  0.492600  0.192600  0.773000  1.0  -0.165
  C  C601  1  0.491700  0.029600  0.774100  1.0  -0.1621
  C  C602  1  0.205000  0.301700  0.970100  1.0  -0.1415
  C  C603  1  0.253000  0.159200  0.982700  1.0  -0.1533
  C  C604  1  0.207700  0.210200  0.952300  1.0  0.0412
  C  C605  1  0.162500  0.166800  0.899300  1.0  -0.115
  C  C606  1  0.207600  0.206400  0.829000  1.0  0.1387
  C  C607  1  0.121900  0.221500  0.788600  1.0  -0.1819
  C  C608  1  0.141000  0.239500  0.746800  1.0  -0.0147
  C  C609  1  0.773900  0.964000  0.731200  1.0  -0.3666
  C  C610  1  0.762000  0.465000  0.734200  1.0  -0.3667
  C  C611  1  0.689900  0.913800  0.617800  1.0  -0.0814
  C  C612  1  0.649900  0.851200  0.589500  1.0  -0.0258
  C  C613  1  0.601300  0.879500  0.546900  1.0  -0.1096
  C  C614  1  0.593300  0.976000  0.533000  1.0  -0.1461
  C  C615  1  0.631600  0.035700  0.559400  1.0  -0.0875
  C  C616  1  0.678700  0.006000  0.601700  1.0  -0.1023
  C  C617  1  0.797500  0.882000  0.635900  1.0  -0.1364
  C  C618  1  0.781200  0.891500  0.574500  1.0  -0.1034
  C  C619  1  0.817400  0.892700  0.547900  1.0  -0.0792
  C  C620  1  0.870200  0.884900  0.582600  1.0  -0.0976
  C  C621  1  0.887400  0.874900  0.643500  1.0  -0.1488
  C  C622  1  0.850100  0.872300  0.668700  1.0  -0.0848
  C  C623  1  0.685700  0.523000  0.617700  1.0  -0.2572
  C  C624  1  0.639500  0.569900  0.608900  1.0  -0.0354
  C  C625  1  0.591100  0.544400  0.562400  1.0  -0.167
  C  C626  1  0.589800  0.469800  0.526600  1.0  -0.1202
  C  C627  1  0.634600  0.421900  0.534000  1.0  -0.1244
  C  C628  1  0.683300  0.449300  0.578800  1.0  -0.0712
  C  C629  1  0.796300  0.545900  0.647000  1.0  -0.2862
  C  C630  1  0.833100  0.472100  0.662100  1.0  -0.112
  C  C631  1  0.872500  0.469600  0.640600  1.0  -0.1063
  C  C632  1  0.876200  0.537200  0.602400  1.0  -0.1506
  C  C633  1  0.839200  0.611600  0.585600  1.0  -0.1006
  C  C634  1  0.800300  0.615300  0.608100  1.0  -0.048
  C  C635  1  0.875800  0.653500  0.794200  1.0  0.1484
  C  C636  1  0.862900  0.753100  0.850600  1.0  -0.0097
  C  C637  1  0.913500  0.725900  0.878000  1.0  -0.1551
  C  C638  1  0.969600  0.611300  0.853900  1.0  -0.0871
  C  C639  1  0.985300  0.611200  0.799500  1.0  0.1113
  C  C640  1  0.992600  0.692600  0.773000  1.0  -0.165
  C  C641  1  0.991700  0.529600  0.774100  1.0  -0.1621
  C  C642  1  0.705000  0.801700  0.970100  1.0  -0.1415
  C  C643  1  0.753000  0.659200  0.982700  1.0  -0.1533
  C  C644  1  0.707700  0.710200  0.952300  1.0  0.0412
  C  C645  1  0.662500  0.666800  0.899300  1.0  -0.115
  C  C646  1  0.707600  0.706400  0.829000  1.0  0.1387
  C  C647  1  0.621900  0.721500  0.788600  1.0  -0.1819
  C  C648  1  0.641000  0.739500  0.746800  1.0  -0.0147
  N  N649  1  0.338640  0.791600  0.296900  1.0  -0.4255
  N  N650  1  0.421390  0.836900  0.341900  1.0  0.0485
  N  N651  1  0.164260  0.800800  0.341300  1.0  0.0157
  N  N652  1  0.195110  0.769800  0.271810  1.0  -0.3663
  N  N653  1  0.838640  0.291600  0.296900  1.0  -0.4255
  N  N654  1  0.921390  0.336900  0.341900  1.0  0.0485
  N  N655  1  0.664260  0.300800  0.341300  1.0  0.0157
  N  N656  1  0.695110  0.269800  0.271810  1.0  -0.3663
  N  N657  1  0.661360  0.791600  0.203100  1.0  -0.4185
  N  N658  1  0.578610  0.836900  0.158100  1.0  0.0487
  N  N659  1  0.835740  0.800800  0.158700  1.0  0.014
  N  N660  1  0.804890  0.769800  0.228190  1.0  -0.3665
  N  N661  1  0.161360  0.291600  0.203100  1.0  -0.4185
  N  N662  1  0.078610  0.336900  0.158100  1.0  0.0487
  N  N663  1  0.335740  0.300800  0.158700  1.0  0.014
  N  N664  1  0.304890  0.269800  0.228190  1.0  -0.3665
  N  N665  1  0.661360  0.208400  0.703100  1.0  -0.4195
  N  N666  1  0.578610  0.163100  0.658100  1.0  0.0486
  N  N667  1  0.835740  0.199200  0.658700  1.0  0.0142
  N  N668  1  0.804890  0.230200  0.728190  1.0  -0.3667
  N  N669  1  0.161360  0.708400  0.703100  1.0  -0.4195
  N  N670  1  0.078610  0.663100  0.658100  1.0  0.0486
  N  N671  1  0.335740  0.699200  0.658700  1.0  0.0142
  N  N672  1  0.304890  0.730200  0.728190  1.0  -0.3667
  N  N673  1  0.338640  0.208400  0.796900  1.0  -0.4241
  N  N674  1  0.421390  0.163100  0.841900  1.0  0.0485
  N  N675  1  0.164260  0.199200  0.841300  1.0  0.0158
  N  N676  1  0.195110  0.230200  0.771810  1.0  -0.3658
  N  N677  1  0.838640  0.708400  0.796900  1.0  -0.4241
  N  N678  1  0.921390  0.663100  0.841900  1.0  0.0485
  N  N679  1  0.664260  0.699200  0.841300  1.0  0.0158
  N  N680  1  0.695110  0.730200  0.771810  1.0  -0.3658
