# generated using pymatgen
data_AgP2H38(C10N)4
_symmetry_space_group_name_H-M   'P 1'
_cell_length_a   27.88100000
_cell_length_b   14.25200000
_cell_length_c   24.05900000
_cell_angle_alpha   90.00000000
_cell_angle_beta   111.79900000
_cell_angle_gamma   90.00000000
_symmetry_Int_Tables_number   1
_chemical_formula_structural   AgP2H38(C10N)4
_chemical_formula_sum   'Ag8 P16 H304 C320 N32'
_cell_volume   8876.46495190
_cell_formula_units_Z   8
loop_
 _symmetry_equiv_pos_site_id
 _symmetry_equiv_pos_as_xyz
  1  'x, y, z'
loop_
 _atom_site_type_symbol
 _atom_site_label
 _atom_site_symmetry_multiplicity
 _atom_site_fract_x
 _atom_site_fract_y
 _atom_site_fract_z
 _atom_site_occupancy
 _atom_site_charge
  Ag  Ag1  1  0.253840  0.717010  0.220630  1.0  0.3159
  Ag  Ag2  1  0.753840  0.217010  0.220630  1.0  0.3159
  Ag  Ag3  1  0.746150  0.717010  0.279370  1.0  0.3151
  Ag  Ag4  1  0.246160  0.217010  0.279370  1.0  0.3151
  Ag  Ag5  1  0.746150  0.282990  0.779370  1.0  0.3152
  Ag  Ag6  1  0.246160  0.782990  0.779370  1.0  0.3152
  Ag  Ag7  1  0.253840  0.282990  0.720630  1.0  0.3159
  Ag  Ag8  1  0.753840  0.782990  0.720630  1.0  0.3159
  P  P9  1  0.249170  0.558830  0.179850  1.0  0.7193
  P  P10  1  0.245570  0.369460  0.325640  1.0  0.6756
  P  P11  1  0.749170  0.058830  0.179850  1.0  0.7193
  P  P12  1  0.745570  0.869460  0.325640  1.0  0.6756
  P  P13  1  0.750830  0.558830  0.320150  1.0  0.7195
  P  P14  1  0.754430  0.369460  0.174360  1.0  0.6751
  P  P15  1  0.250830  0.058830  0.320150  1.0  0.7195
  P  P16  1  0.254430  0.869460  0.174360  1.0  0.6751
  P  P17  1  0.750830  0.441170  0.820150  1.0  0.6957
  P  P18  1  0.754430  0.630540  0.674360  1.0  0.7013
  P  P19  1  0.250830  0.941170  0.820150  1.0  0.6957
  P  P20  1  0.254430  0.130540  0.674360  1.0  0.7013
  P  P21  1  0.249170  0.441170  0.679850  1.0  0.695
  P  P22  1  0.245570  0.630540  0.825640  1.0  0.7018
  P  P23  1  0.749170  0.941170  0.679850  1.0  0.695
  P  P24  1  0.745570  0.130540  0.825640  1.0  0.7017
  H  H25  1  0.260600  0.404600  0.215400  1.0  0.1329
  H  H26  1  0.298000  0.471300  0.264000  1.0  0.1325
  H  H27  1  0.191600  0.452400  0.241600  1.0  0.1144
  H  H28  1  0.227900  0.522900  0.288800  1.0  0.1149
  H  H29  1  0.332800  0.424400  0.191000  1.0  0.085
  H  H30  1  0.398700  0.422000  0.154800  1.0  0.0786
  H  H31  1  0.401600  0.530600  0.085800  1.0  0.0894
  H  H32  1  0.343400  0.650700  0.059500  1.0  0.0736
  H  H33  1  0.279300  0.659900  0.098200  1.0  0.0844
  H  H34  1  0.146400  0.619400  0.138800  1.0  0.0681
  H  H35  1  0.068900  0.577900  0.064500  1.0  0.0851
  H  H36  1  0.066100  0.451100  0.003800  1.0  0.0834
  H  H37  1  0.139700  0.371400  0.013900  1.0  0.0856
  H  H38  1  0.217100  0.416100  0.086200  1.0  0.0737
  H  H39  1  0.137600  0.366000  0.289300  1.0  0.0706
  H  H40  1  0.077400  0.368700  0.333500  1.0  0.0965
  H  H41  1  0.104300  0.388000  0.435100  1.0  0.0787
  H  H42  1  0.191400  0.397600  0.493000  1.0  0.0718
  H  H43  1  0.251300  0.395100  0.448500  1.0  0.0851
  H  H44  1  0.334600  0.279400  0.401300  1.0  0.0717
  H  H45  1  0.414200  0.322400  0.471400  1.0  0.0948
  H  H46  1  0.432400  0.480200  0.492600  1.0  0.0863
  H  H47  1  0.374200  0.591200  0.444900  1.0  0.0986
  H  H48  1  0.295300  0.548300  0.374300  1.0  0.0659
  H  H49  1  0.371900  0.612900  0.262600  1.0  0.0625
  H  H50  1  0.342900  0.800900  0.361600  1.0  0.0708
  H  H51  1  0.432700  0.755700  0.411300  1.0  0.1186
  H  H52  1  0.463600  0.551800  0.363600  1.0  0.1084
  H  H53  1  0.494400  0.645300  0.385900  1.0  0.1054
  H  H54  1  0.489100  0.755100  0.290600  1.0  0.086
  H  H55  1  0.488200  0.477700  0.290000  1.0  0.0862
  H  H56  1  0.178100  0.838000  0.449400  1.0  0.083
  H  H57  1  0.253800  0.597200  0.471900  1.0  0.0817
  H  H58  1  0.167200  0.601000  0.404700  1.0  0.0919
  H  H59  1  0.132500  0.688200  0.403800  1.0  0.09
  H  H60  1  0.243700  0.698900  0.359600  1.0  0.0815
  H  H61  1  0.091900  0.718000  0.286600  1.0  0.1013
  H  H62  1  0.127500  0.751000  0.211300  1.0  0.0749
  H  H63  1  0.760600  0.904600  0.215400  1.0  0.1329
  H  H64  1  0.798000  0.971300  0.264000  1.0  0.1325
  H  H65  1  0.691600  0.952400  0.241600  1.0  0.1144
  H  H66  1  0.727900  0.022900  0.288800  1.0  0.1149
  H  H67  1  0.832800  0.924400  0.191000  1.0  0.085
  H  H68  1  0.898700  0.922000  0.154800  1.0  0.0786
  H  H69  1  0.901600  0.030600  0.085800  1.0  0.0894
  H  H70  1  0.843400  0.150700  0.059500  1.0  0.0736
  H  H71  1  0.779300  0.159900  0.098200  1.0  0.0844
  H  H72  1  0.646400  0.119400  0.138800  1.0  0.0681
  H  H73  1  0.568900  0.077900  0.064500  1.0  0.0851
  H  H74  1  0.566100  0.951100  0.003800  1.0  0.0834
  H  H75  1  0.639700  0.871400  0.013900  1.0  0.0856
  H  H76  1  0.717100  0.916100  0.086200  1.0  0.0737
  H  H77  1  0.637600  0.866000  0.289300  1.0  0.0706
  H  H78  1  0.577400  0.868700  0.333500  1.0  0.0965
  H  H79  1  0.604300  0.888000  0.435100  1.0  0.0787
  H  H80  1  0.691400  0.897600  0.493000  1.0  0.0718
  H  H81  1  0.751300  0.895100  0.448500  1.0  0.0851
  H  H82  1  0.834600  0.779400  0.401300  1.0  0.0717
  H  H83  1  0.914200  0.822400  0.471400  1.0  0.0948
  H  H84  1  0.932400  0.980200  0.492600  1.0  0.0863
  H  H85  1  0.874200  0.091200  0.444900  1.0  0.0986
  H  H86  1  0.795300  0.048300  0.374300  1.0  0.0659
  H  H87  1  0.871900  0.112900  0.262600  1.0  0.0625
  H  H88  1  0.842900  0.300900  0.361600  1.0  0.0708
  H  H89  1  0.932700  0.255700  0.411300  1.0  0.1186
  H  H90  1  0.963600  0.051800  0.363600  1.0  0.1084
  H  H91  1  0.994400  0.145300  0.385900  1.0  0.1054
  H  H92  1  0.989100  0.255100  0.290600  1.0  0.086
  H  H93  1  0.988200  0.977700  0.290000  1.0  0.0862
  H  H94  1  0.678100  0.338000  0.449400  1.0  0.083
  H  H95  1  0.753800  0.097200  0.471900  1.0  0.0817
  H  H96  1  0.667200  0.101000  0.404700  1.0  0.0919
  H  H97  1  0.632500  0.188200  0.403800  1.0  0.09
  H  H98  1  0.743700  0.198900  0.359600  1.0  0.0815
  H  H99  1  0.591900  0.218000  0.286600  1.0  0.1013
  H  H100  1  0.627500  0.251000  0.211300  1.0  0.0749
  H  H101  1  0.739400  0.404600  0.284600  1.0  0.1331
  H  H102  1  0.702000  0.471300  0.236000  1.0  0.131
  H  H103  1  0.808400  0.452400  0.258400  1.0  0.1133
  H  H104  1  0.772100  0.522900  0.211200  1.0  0.1153
  H  H105  1  0.667200  0.424400  0.309000  1.0  0.0842
  H  H106  1  0.601300  0.422000  0.345200  1.0  0.078
  H  H107  1  0.598400  0.530600  0.414200  1.0  0.0897
  H  H108  1  0.656600  0.650700  0.440500  1.0  0.0733
  H  H109  1  0.720700  0.659900  0.401800  1.0  0.0844
  H  H110  1  0.853600  0.619400  0.361200  1.0  0.0682
  H  H111  1  0.931100  0.577900  0.435500  1.0  0.0862
  H  H112  1  0.933900  0.451100  0.496200  1.0  0.0833
  H  H113  1  0.860300  0.371400  0.486100  1.0  0.0865
  H  H114  1  0.782900  0.416100  0.413800  1.0  0.0742
  H  H115  1  0.862400  0.366000  0.210700  1.0  0.07
  H  H116  1  0.922600  0.368700  0.166500  1.0  0.0962
  H  H117  1  0.895700  0.388000  0.064900  1.0  0.0799
  H  H118  1  0.808600  0.397600  0.007000  1.0  0.072
  H  H119  1  0.748700  0.395100  0.051500  1.0  0.085
  H  H120  1  0.665400  0.279400  0.098700  1.0  0.0717
  H  H121  1  0.585800  0.322400  0.028600  1.0  0.0947
  H  H122  1  0.567600  0.480200  0.007400  1.0  0.0849
  H  H123  1  0.625800  0.591200  0.055100  1.0  0.0993
  H  H124  1  0.704700  0.548300  0.125700  1.0  0.066
  H  H125  1  0.628100  0.612900  0.237400  1.0  0.0627
  H  H126  1  0.657100  0.800900  0.138400  1.0  0.0706
  H  H127  1  0.567300  0.755700  0.088700  1.0  0.1186
  H  H128  1  0.536400  0.551800  0.136400  1.0  0.1078
  H  H129  1  0.505600  0.645300  0.114100  1.0  0.1054
  H  H130  1  0.510900  0.755100  0.209400  1.0  0.0864
  H  H131  1  0.511800  0.477700  0.210000  1.0  0.0858
  H  H132  1  0.821900  0.838000  0.050600  1.0  0.083
  H  H133  1  0.746200  0.597200  0.028100  1.0  0.0816
  H  H134  1  0.832800  0.601000  0.095300  1.0  0.0938
  H  H135  1  0.867500  0.688200  0.096200  1.0  0.0885
  H  H136  1  0.756300  0.698900  0.140400  1.0  0.0807
  H  H137  1  0.908100  0.718000  0.213400  1.0  0.1012
  H  H138  1  0.872500  0.751000  0.288700  1.0  0.0748
  H  H139  1  0.239400  0.904600  0.284600  1.0  0.1331
  H  H140  1  0.202000  0.971300  0.236000  1.0  0.131
  H  H141  1  0.308400  0.952400  0.258400  1.0  0.1133
  H  H142  1  0.272100  0.022900  0.211200  1.0  0.1153
  H  H143  1  0.167200  0.924400  0.309000  1.0  0.0842
  H  H144  1  0.101300  0.922000  0.345200  1.0  0.078
  H  H145  1  0.098400  0.030600  0.414200  1.0  0.0897
  H  H146  1  0.156600  0.150700  0.440500  1.0  0.0733
  H  H147  1  0.220700  0.159900  0.401800  1.0  0.0844
  H  H148  1  0.353600  0.119400  0.361200  1.0  0.0682
  H  H149  1  0.431100  0.077900  0.435500  1.0  0.0862
  H  H150  1  0.433900  0.951100  0.496200  1.0  0.0833
  H  H151  1  0.360300  0.871400  0.486100  1.0  0.0865
  H  H152  1  0.282900  0.916100  0.413800  1.0  0.0742
  H  H153  1  0.362400  0.866000  0.210700  1.0  0.07
  H  H154  1  0.422600  0.868700  0.166500  1.0  0.0962
  H  H155  1  0.395700  0.888000  0.064900  1.0  0.0799
  H  H156  1  0.308600  0.897600  0.007000  1.0  0.072
  H  H157  1  0.248700  0.895100  0.051500  1.0  0.085
  H  H158  1  0.165400  0.779400  0.098700  1.0  0.0717
  H  H159  1  0.085800  0.822400  0.028600  1.0  0.0947
  H  H160  1  0.067600  0.980200  0.007400  1.0  0.0849
  H  H161  1  0.125800  0.091200  0.055100  1.0  0.0993
  H  H162  1  0.204700  0.048300  0.125700  1.0  0.066
  H  H163  1  0.128100  0.112900  0.237400  1.0  0.0627
  H  H164  1  0.157100  0.300900  0.138400  1.0  0.0706
  H  H165  1  0.067300  0.255700  0.088700  1.0  0.1186
  H  H166  1  0.036400  0.051800  0.136400  1.0  0.1078
  H  H167  1  0.005600  0.145300  0.114100  1.0  0.1054
  H  H168  1  0.010900  0.255100  0.209400  1.0  0.0864
  H  H169  1  0.011800  0.977700  0.210000  1.0  0.0858
  H  H170  1  0.321900  0.338000  0.050600  1.0  0.083
  H  H171  1  0.246200  0.097200  0.028100  1.0  0.0816
  H  H172  1  0.332800  0.101000  0.095300  1.0  0.0938
  H  H173  1  0.367500  0.188200  0.096200  1.0  0.0885
  H  H174  1  0.256300  0.198900  0.140400  1.0  0.0809
  H  H175  1  0.408100  0.218000  0.213400  1.0  0.1012
  H  H176  1  0.372500  0.251000  0.288700  1.0  0.0748
  H  H177  1  0.739400  0.595400  0.784600  1.0  0.1316
  H  H178  1  0.702000  0.528700  0.736000  1.0  0.131
  H  H179  1  0.808400  0.547600  0.758400  1.0  0.1133
  H  H180  1  0.772100  0.477100  0.711200  1.0  0.1156
  H  H181  1  0.667200  0.575600  0.809000  1.0  0.0847
  H  H182  1  0.601300  0.578000  0.845200  1.0  0.0784
  H  H183  1  0.598400  0.469400  0.914200  1.0  0.0893
  H  H184  1  0.656600  0.349300  0.940500  1.0  0.0737
  H  H185  1  0.720700  0.340100  0.901800  1.0  0.0847
  H  H186  1  0.853600  0.380600  0.861200  1.0  0.0679
  H  H187  1  0.931100  0.422100  0.935500  1.0  0.0862
  H  H188  1  0.933900  0.548900  0.996200  1.0  0.0827
  H  H189  1  0.860300  0.628600  0.986100  1.0  0.0859
  H  H190  1  0.782900  0.583900  0.913800  1.0  0.0742
  H  H191  1  0.862400  0.634000  0.710700  1.0  0.07
  H  H192  1  0.922600  0.631300  0.666500  1.0  0.096
  H  H193  1  0.895700  0.612000  0.564900  1.0  0.0796
  H  H194  1  0.808600  0.602400  0.507000  1.0  0.0725
  H  H195  1  0.748700  0.604900  0.551500  1.0  0.0855
  H  H196  1  0.665400  0.720600  0.598700  1.0  0.0716
  H  H197  1  0.585800  0.677600  0.528600  1.0  0.0955
  H  H198  1  0.567600  0.519800  0.507400  1.0  0.0849
  H  H199  1  0.625800  0.408800  0.555100  1.0  0.0995
  H  H200  1  0.704700  0.451700  0.625700  1.0  0.0663
  H  H201  1  0.628100  0.387100  0.737400  1.0  0.0626
  H  H202  1  0.657100  0.199100  0.638400  1.0  0.0708
  H  H203  1  0.567300  0.244300  0.588700  1.0  0.1181
  H  H204  1  0.536400  0.448200  0.636400  1.0  0.1073
  H  H205  1  0.505600  0.354700  0.614100  1.0  0.1051
  H  H206  1  0.510900  0.244900  0.709400  1.0  0.0852
  H  H207  1  0.511800  0.522300  0.710000  1.0  0.0853
  H  H208  1  0.821900  0.162000  0.550600  1.0  0.083
  H  H209  1  0.746200  0.402800  0.528100  1.0  0.0812
  H  H210  1  0.832800  0.399000  0.595300  1.0  0.0918
  H  H211  1  0.867500  0.311800  0.596200  1.0  0.0885
  H  H212  1  0.756300  0.301100  0.640400  1.0  0.0807
  H  H213  1  0.908100  0.282000  0.713400  1.0  0.1012
  H  H214  1  0.872500  0.249000  0.788700  1.0  0.0748
  H  H215  1  0.239400  0.095400  0.784600  1.0  0.1316
  H  H216  1  0.202000  0.028700  0.736000  1.0  0.131
  H  H217  1  0.308400  0.047600  0.758400  1.0  0.1133
  H  H218  1  0.272100  0.977100  0.711200  1.0  0.1156
  H  H219  1  0.167200  0.075600  0.809000  1.0  0.0847
  H  H220  1  0.101300  0.078000  0.845200  1.0  0.0784
  H  H221  1  0.098400  0.969400  0.914200  1.0  0.0893
  H  H222  1  0.156600  0.849300  0.940500  1.0  0.0737
  H  H223  1  0.220700  0.840100  0.901800  1.0  0.0847
  H  H224  1  0.353600  0.880600  0.861200  1.0  0.0679
  H  H225  1  0.431100  0.922100  0.935500  1.0  0.0862
  H  H226  1  0.433900  0.048900  0.996200  1.0  0.0827
  H  H227  1  0.360300  0.128600  0.986100  1.0  0.0859
  H  H228  1  0.282900  0.083900  0.913800  1.0  0.0742
  H  H229  1  0.362400  0.134000  0.710700  1.0  0.07
  H  H230  1  0.422600  0.131300  0.666500  1.0  0.096
  H  H231  1  0.395700  0.112000  0.564900  1.0  0.0796
  H  H232  1  0.308600  0.102400  0.507000  1.0  0.0725
  H  H233  1  0.248700  0.104900  0.551500  1.0  0.0855
  H  H234  1  0.165400  0.220600  0.598700  1.0  0.0716
  H  H235  1  0.085800  0.177600  0.528600  1.0  0.0955
  H  H236  1  0.067600  0.019800  0.507400  1.0  0.0849
  H  H237  1  0.125800  0.908800  0.555100  1.0  0.0995
  H  H238  1  0.204700  0.951700  0.625700  1.0  0.0663
  H  H239  1  0.128100  0.887100  0.737400  1.0  0.0626
  H  H240  1  0.157100  0.699100  0.638400  1.0  0.0708
  H  H241  1  0.067300  0.744300  0.588700  1.0  0.1181
  H  H242  1  0.036400  0.948200  0.636400  1.0  0.1073
  H  H243  1  0.005600  0.854700  0.614100  1.0  0.1051
  H  H244  1  0.010900  0.744900  0.709400  1.0  0.0852
  H  H245  1  0.011800  0.022300  0.710000  1.0  0.0853
  H  H246  1  0.321900  0.662000  0.550600  1.0  0.083
  H  H247  1  0.246200  0.902800  0.528100  1.0  0.0812
  H  H248  1  0.332800  0.899000  0.595300  1.0  0.0918
  H  H249  1  0.367500  0.811800  0.596200  1.0  0.0885
  H  H250  1  0.256300  0.801100  0.640400  1.0  0.0809
  H  H251  1  0.408100  0.782000  0.713400  1.0  0.1012
  H  H252  1  0.372500  0.749000  0.788700  1.0  0.0748
  H  H253  1  0.260600  0.595400  0.715400  1.0  0.1319
  H  H254  1  0.298000  0.528700  0.764000  1.0  0.1327
  H  H255  1  0.191600  0.547600  0.741600  1.0  0.1144
  H  H256  1  0.227900  0.477100  0.788800  1.0  0.116
  H  H257  1  0.332800  0.575600  0.691000  1.0  0.0849
  H  H258  1  0.398700  0.578000  0.654800  1.0  0.0794
  H  H259  1  0.401600  0.469400  0.585800  1.0  0.0895
  H  H260  1  0.343400  0.349300  0.559500  1.0  0.0735
  H  H261  1  0.279300  0.340100  0.598200  1.0  0.0842
  H  H262  1  0.146400  0.380600  0.638800  1.0  0.0684
  H  H263  1  0.068900  0.422100  0.564500  1.0  0.0859
  H  H264  1  0.066100  0.548900  0.503800  1.0  0.0836
  H  H265  1  0.139700  0.628600  0.513900  1.0  0.086
  H  H266  1  0.217100  0.583900  0.586200  1.0  0.0738
  H  H267  1  0.137600  0.634000  0.789300  1.0  0.0705
  H  H268  1  0.077400  0.631300  0.833500  1.0  0.0964
  H  H269  1  0.104300  0.612000  0.935100  1.0  0.0786
  H  H270  1  0.191400  0.602400  0.993000  1.0  0.0717
  H  H271  1  0.251300  0.604900  0.948500  1.0  0.0851
  H  H272  1  0.334600  0.720600  0.901300  1.0  0.0716
  H  H273  1  0.414200  0.677600  0.971400  1.0  0.0955
  H  H274  1  0.432400  0.519800  0.992600  1.0  0.0867
  H  H275  1  0.374200  0.408800  0.944900  1.0  0.0992
  H  H276  1  0.295300  0.451700  0.874300  1.0  0.0658
  H  H277  1  0.371900  0.387100  0.762600  1.0  0.0625
  H  H278  1  0.342900  0.199100  0.861600  1.0  0.0701
  H  H279  1  0.432700  0.244300  0.911300  1.0  0.1183
  H  H280  1  0.463600  0.448200  0.863600  1.0  0.1055
  H  H281  1  0.494400  0.354700  0.885900  1.0  0.1059
  H  H282  1  0.489100  0.244900  0.790600  1.0  0.0851
  H  H283  1  0.488200  0.522300  0.790000  1.0  0.0856
  H  H284  1  0.178100  0.162000  0.949400  1.0  0.0831
  H  H285  1  0.253800  0.402800  0.971900  1.0  0.0815
  H  H286  1  0.167200  0.399000  0.904700  1.0  0.0925
  H  H287  1  0.132500  0.311800  0.903800  1.0  0.0901
  H  H288  1  0.243700  0.301100  0.859600  1.0  0.0815
  H  H289  1  0.091900  0.282000  0.786600  1.0  0.1012
  H  H290  1  0.127500  0.249000  0.711300  1.0  0.0753
  H  H291  1  0.760600  0.095400  0.715400  1.0  0.1319
  H  H292  1  0.798000  0.028700  0.764000  1.0  0.1327
  H  H293  1  0.691600  0.047600  0.741600  1.0  0.1144
  H  H294  1  0.727900  0.977100  0.788800  1.0  0.116
  H  H295  1  0.832800  0.075600  0.691000  1.0  0.0849
  H  H296  1  0.898700  0.078000  0.654800  1.0  0.0794
  H  H297  1  0.901600  0.969400  0.585800  1.0  0.0895
  H  H298  1  0.843400  0.849300  0.559500  1.0  0.0735
  H  H299  1  0.779300  0.840100  0.598200  1.0  0.0842
  H  H300  1  0.646400  0.880600  0.638800  1.0  0.0684
  H  H301  1  0.568900  0.922100  0.564500  1.0  0.0859
  H  H302  1  0.566100  0.048900  0.503800  1.0  0.0836
  H  H303  1  0.639700  0.128600  0.513900  1.0  0.086
  H  H304  1  0.717100  0.083900  0.586200  1.0  0.0738
  H  H305  1  0.637600  0.134000  0.789300  1.0  0.0705
  H  H306  1  0.577400  0.131300  0.833500  1.0  0.0964
  H  H307  1  0.604300  0.112000  0.935100  1.0  0.0786
  H  H308  1  0.691400  0.102400  0.993000  1.0  0.0717
  H  H309  1  0.751300  0.104900  0.948500  1.0  0.0851
  H  H310  1  0.834600  0.220600  0.901300  1.0  0.0716
  H  H311  1  0.914200  0.177600  0.971400  1.0  0.0955
  H  H312  1  0.932400  0.019800  0.992600  1.0  0.0867
  H  H313  1  0.874200  0.908800  0.944900  1.0  0.0992
  H  H314  1  0.795300  0.951700  0.874300  1.0  0.0658
  H  H315  1  0.871900  0.887100  0.762600  1.0  0.0625
  H  H316  1  0.842900  0.699100  0.861600  1.0  0.0701
  H  H317  1  0.932700  0.744300  0.911300  1.0  0.1183
  H  H318  1  0.963600  0.948200  0.863600  1.0  0.1055
  H  H319  1  0.994400  0.854700  0.885900  1.0  0.1059
  H  H320  1  0.989100  0.744900  0.790600  1.0  0.0851
  H  H321  1  0.988200  0.022300  0.790000  1.0  0.0856
  H  H322  1  0.678100  0.662000  0.949400  1.0  0.0831
  H  H323  1  0.753800  0.902800  0.971900  1.0  0.0815
  H  H324  1  0.667200  0.899000  0.904700  1.0  0.0925
  H  H325  1  0.632500  0.811800  0.903800  1.0  0.0901
  H  H326  1  0.743700  0.801100  0.859600  1.0  0.0815
  H  H327  1  0.591900  0.782000  0.786600  1.0  0.1012
  H  H328  1  0.627500  0.749000  0.711300  1.0  0.0753
  C  C329  1  0.262870  0.464400  0.235540  1.0  -0.4033
  C  C330  1  0.226720  0.462900  0.269360  1.0  -0.3439
  C  C331  1  0.298700  0.542200  0.148150  1.0  -0.2332
  C  C332  1  0.334800  0.470900  0.164800  1.0  -0.1265
  C  C333  1  0.373700  0.468800  0.142300  1.0  -0.1214
  C  C334  1  0.376200  0.534500  0.102100  1.0  -0.1068
  C  C335  1  0.341300  0.605100  0.086200  1.0  -0.1034
  C  C336  1  0.302600  0.610400  0.109100  1.0  -0.0434
  C  C337  1  0.189660  0.522600  0.120470  1.0  -0.1916
  C  C338  1  0.145400  0.569500  0.113500  1.0  -0.0737
  C  C339  1  0.098800  0.544400  0.069400  1.0  -0.1435
  C  C340  1  0.097400  0.469300  0.032900  1.0  -0.1286
  C  C341  1  0.140900  0.421800  0.038900  1.0  -0.1243
  C  C342  1  0.187100  0.448500  0.082400  1.0  -0.0741
  C  C343  1  0.200300  0.380300  0.363600  1.0  -0.243
  C  C344  1  0.148600  0.372700  0.330700  1.0  -0.0701
  C  C345  1  0.112400  0.374600  0.356700  1.0  -0.1455
  C  C346  1  0.128500  0.385200  0.417000  1.0  -0.0992
  C  C347  1  0.180700  0.391800  0.451600  1.0  -0.1032
  C  C348  1  0.216400  0.390000  0.425200  1.0  -0.0515
  C  C349  1  0.305700  0.408700  0.380000  1.0  -0.1426
  C  C350  1  0.342100  0.342600  0.409700  1.0  -0.0508
  C  C351  1  0.389900  0.367900  0.451800  1.0  -0.1161
  C  C352  1  0.400700  0.462600  0.464200  1.0  -0.1109
  C  C353  1  0.366400  0.528100  0.436300  1.0  -0.1261
  C  C354  1  0.318900  0.501800  0.393900  1.0  -0.0914
  C  C355  1  0.375700  0.654500  0.293800  1.0  0.1645
  C  C356  1  0.359900  0.756500  0.347400  1.0  0.0201
  C  C357  1  0.409600  0.732100  0.375200  1.0  -0.184
  C  C358  1  0.467500  0.615900  0.352400  1.0  -0.0824
  C  C359  1  0.483800  0.614900  0.298200  1.0  0.074
  C  C360  1  0.492900  0.698300  0.273700  1.0  -0.1554
  C  C361  1  0.492500  0.534800  0.273800  1.0  -0.1649
  C  C362  1  0.207000  0.801600  0.469700  1.0  -0.1489
  C  C363  1  0.251800  0.659100  0.483100  1.0  -0.1584
  C  C364  1  0.208500  0.710900  0.453200  1.0  0.0333
  C  C365  1  0.165200  0.668900  0.401900  1.0  -0.1157
  C  C366  1  0.210450  0.707100  0.331600  1.0  0.1377
  C  C367  1  0.126750  0.717700  0.292000  1.0  -0.19
  C  C368  1  0.146700  0.735600  0.250900  1.0  0.0091
  C  C369  1  0.762870  0.964400  0.235540  1.0  -0.4033
  C  C370  1  0.726720  0.962900  0.269360  1.0  -0.3439
  C  C371  1  0.798700  0.042200  0.148150  1.0  -0.2332
  C  C372  1  0.834800  0.970900  0.164800  1.0  -0.1265
  C  C373  1  0.873700  0.968800  0.142300  1.0  -0.1214
  C  C374  1  0.876200  0.034500  0.102100  1.0  -0.1068
  C  C375  1  0.841300  0.105100  0.086200  1.0  -0.1034
  C  C376  1  0.802600  0.110400  0.109100  1.0  -0.0434
  C  C377  1  0.689660  0.022600  0.120470  1.0  -0.1916
  C  C378  1  0.645400  0.069500  0.113500  1.0  -0.0737
  C  C379  1  0.598800  0.044400  0.069400  1.0  -0.1435
  C  C380  1  0.597400  0.969300  0.032900  1.0  -0.1286
  C  C381  1  0.640900  0.921800  0.038900  1.0  -0.1243
  C  C382  1  0.687100  0.948500  0.082400  1.0  -0.0741
  C  C383  1  0.700300  0.880300  0.363600  1.0  -0.243
  C  C384  1  0.648600  0.872700  0.330700  1.0  -0.0701
  C  C385  1  0.612400  0.874600  0.356700  1.0  -0.1455
  C  C386  1  0.628500  0.885200  0.417000  1.0  -0.0992
  C  C387  1  0.680700  0.891800  0.451600  1.0  -0.1032
  C  C388  1  0.716400  0.890000  0.425200  1.0  -0.0515
  C  C389  1  0.805700  0.908700  0.380000  1.0  -0.1426
  C  C390  1  0.842100  0.842600  0.409700  1.0  -0.0508
  C  C391  1  0.889900  0.867900  0.451800  1.0  -0.1161
  C  C392  1  0.900700  0.962600  0.464200  1.0  -0.1109
  C  C393  1  0.866400  0.028100  0.436300  1.0  -0.1261
  C  C394  1  0.818900  0.001800  0.393900  1.0  -0.0914
  C  C395  1  0.875700  0.154500  0.293800  1.0  0.1645
  C  C396  1  0.859900  0.256500  0.347400  1.0  0.0201
  C  C397  1  0.909600  0.232100  0.375200  1.0  -0.184
  C  C398  1  0.967500  0.115900  0.352400  1.0  -0.0824
  C  C399  1  0.983800  0.114900  0.298200  1.0  0.074
  C  C400  1  0.992900  0.198300  0.273700  1.0  -0.1554
  C  C401  1  0.992500  0.034800  0.273800  1.0  -0.1649
  C  C402  1  0.707000  0.301600  0.469700  1.0  -0.1489
  C  C403  1  0.751800  0.159100  0.483100  1.0  -0.1584
  C  C404  1  0.708500  0.210900  0.453200  1.0  0.0333
  C  C405  1  0.665200  0.168900  0.401900  1.0  -0.1157
  C  C406  1  0.710450  0.207100  0.331600  1.0  0.1377
  C  C407  1  0.626750  0.217700  0.292000  1.0  -0.19
  C  C408  1  0.646700  0.235600  0.250900  1.0  0.0091
  C  C409  1  0.737130  0.464400  0.264460  1.0  -0.4049
  C  C410  1  0.773280  0.462900  0.230640  1.0  -0.3437
  C  C411  1  0.701300  0.542200  0.351850  1.0  -0.2323
  C  C412  1  0.665200  0.470900  0.335200  1.0  -0.1264
  C  C413  1  0.626300  0.468800  0.357700  1.0  -0.1224
  C  C414  1  0.623800  0.534500  0.397900  1.0  -0.1076
  C  C415  1  0.658700  0.605100  0.413800  1.0  -0.1032
  C  C416  1  0.697400  0.610400  0.390900  1.0  -0.044
  C  C417  1  0.810340  0.522600  0.379530  1.0  -0.1909
  C  C418  1  0.854600  0.569500  0.386500  1.0  -0.0744
  C  C419  1  0.901200  0.544400  0.430600  1.0  -0.1411
  C  C420  1  0.902600  0.469300  0.467100  1.0  -0.1279
  C  C421  1  0.859100  0.421800  0.461100  1.0  -0.1255
  C  C422  1  0.812900  0.448500  0.417600  1.0  -0.0723
  C  C423  1  0.799700  0.380300  0.136400  1.0  -0.244
  C  C424  1  0.851400  0.372700  0.169300  1.0  -0.0717
  C  C425  1  0.887600  0.374600  0.143300  1.0  -0.1436
  C  C426  1  0.871500  0.385200  0.083000  1.0  -0.0992
  C  C427  1  0.819300  0.391800  0.048400  1.0  -0.1043
  C  C428  1  0.783600  0.390000  0.074800  1.0  -0.0515
  C  C429  1  0.694300  0.408700  0.120000  1.0  -0.1452
  C  C430  1  0.657900  0.342600  0.090300  1.0  -0.0515
  C  C431  1  0.610100  0.367900  0.048200  1.0  -0.1169
  C  C432  1  0.599300  0.462600  0.035800  1.0  -0.1137
  C  C433  1  0.633600  0.528100  0.063700  1.0  -0.1259
  C  C434  1  0.681100  0.501800  0.106100  1.0  -0.092
  C  C435  1  0.624300  0.654500  0.206200  1.0  0.1665
  C  C436  1  0.640100  0.756500  0.152600  1.0  0.0205
  C  C437  1  0.590400  0.732100  0.124800  1.0  -0.184
  C  C438  1  0.532500  0.615900  0.147600  1.0  -0.0846
  C  C439  1  0.516200  0.614900  0.201800  1.0  0.0729
  C  C440  1  0.507100  0.698300  0.226300  1.0  -0.1562
  C  C441  1  0.507500  0.534800  0.226200  1.0  -0.1686
  C  C442  1  0.793000  0.801600  0.030300  1.0  -0.1503
  C  C443  1  0.748200  0.659100  0.016900  1.0  -0.1582
  C  C444  1  0.791500  0.710900  0.046800  1.0  0.0336
  C  C445  1  0.834800  0.668900  0.098100  1.0  -0.1159
  C  C446  1  0.789550  0.707100  0.168400  1.0  0.1383
  C  C447  1  0.873250  0.717700  0.208000  1.0  -0.1886
  C  C448  1  0.853300  0.735600  0.249100  1.0  0.0107
  C  C449  1  0.237130  0.964400  0.264460  1.0  -0.4049
  C  C450  1  0.273280  0.962900  0.230640  1.0  -0.3437
  C  C451  1  0.201300  0.042200  0.351850  1.0  -0.2323
  C  C452  1  0.165200  0.970900  0.335200  1.0  -0.1264
  C  C453  1  0.126300  0.968800  0.357700  1.0  -0.1224
  C  C454  1  0.123800  0.034500  0.397900  1.0  -0.1076
  C  C455  1  0.158700  0.105100  0.413800  1.0  -0.1032
  C  C456  1  0.197400  0.110400  0.390900  1.0  -0.044
  C  C457  1  0.310340  0.022600  0.379530  1.0  -0.1909
  C  C458  1  0.354600  0.069500  0.386500  1.0  -0.0744
  C  C459  1  0.401200  0.044400  0.430600  1.0  -0.1411
  C  C460  1  0.402600  0.969300  0.467100  1.0  -0.1279
  C  C461  1  0.359100  0.921800  0.461100  1.0  -0.1255
  C  C462  1  0.312900  0.948500  0.417600  1.0  -0.0723
  C  C463  1  0.299700  0.880300  0.136400  1.0  -0.244
  C  C464  1  0.351400  0.872700  0.169300  1.0  -0.0717
  C  C465  1  0.387600  0.874600  0.143300  1.0  -0.1436
  C  C466  1  0.371500  0.885200  0.083000  1.0  -0.0992
  C  C467  1  0.319300  0.891800  0.048400  1.0  -0.1043
  C  C468  1  0.283600  0.890000  0.074800  1.0  -0.0515
  C  C469  1  0.194300  0.908700  0.120000  1.0  -0.1452
  C  C470  1  0.157900  0.842600  0.090300  1.0  -0.0515
  C  C471  1  0.110100  0.867900  0.048200  1.0  -0.1169
  C  C472  1  0.099300  0.962600  0.035800  1.0  -0.1137
  C  C473  1  0.133600  0.028100  0.063700  1.0  -0.1259
  C  C474  1  0.181100  0.001800  0.106100  1.0  -0.092
  C  C475  1  0.124300  0.154500  0.206200  1.0  0.1665
  C  C476  1  0.140100  0.256500  0.152600  1.0  0.0206
  C  C477  1  0.090400  0.232100  0.124800  1.0  -0.184
  C  C478  1  0.032500  0.115900  0.147600  1.0  -0.0846
  C  C479  1  0.016200  0.114900  0.201800  1.0  0.0729
  C  C480  1  0.007100  0.198300  0.226300  1.0  -0.1562
  C  C481  1  0.007500  0.034800  0.226200  1.0  -0.1686
  C  C482  1  0.293000  0.301600  0.030300  1.0  -0.1503
  C  C483  1  0.248200  0.159100  0.016900  1.0  -0.1582
  C  C484  1  0.291500  0.210900  0.046800  1.0  0.0336
  C  C485  1  0.334800  0.168900  0.098100  1.0  -0.1159
  C  C486  1  0.289550  0.207100  0.168400  1.0  0.1383
  C  C487  1  0.373250  0.217700  0.208000  1.0  -0.1886
  C  C488  1  0.353300  0.235600  0.249100  1.0  0.0107
  C  C489  1  0.737130  0.535600  0.764460  1.0  -0.4051
  C  C490  1  0.773280  0.537100  0.730640  1.0  -0.343
  C  C491  1  0.701300  0.457800  0.851850  1.0  -0.2322
  C  C492  1  0.665200  0.529100  0.835200  1.0  -0.1268
  C  C493  1  0.626300  0.531200  0.857700  1.0  -0.1223
  C  C494  1  0.623800  0.465500  0.897900  1.0  -0.1074
  C  C495  1  0.658700  0.394900  0.913800  1.0  -0.1039
  C  C496  1  0.697400  0.389600  0.890900  1.0  -0.0428
  C  C497  1  0.810340  0.477400  0.879530  1.0  -0.1911
  C  C498  1  0.854600  0.430500  0.886500  1.0  -0.073
  C  C499  1  0.901200  0.455600  0.930600  1.0  -0.1416
  C  C500  1  0.902600  0.530700  0.967100  1.0  -0.1273
  C  C501  1  0.859100  0.578200  0.961100  1.0  -0.1234
  C  C502  1  0.812900  0.551500  0.917600  1.0  -0.0726
  C  C503  1  0.799700  0.619700  0.636400  1.0  -0.2439
  C  C504  1  0.851400  0.627300  0.669300  1.0  -0.0715
  C  C505  1  0.887600  0.625400  0.643300  1.0  -0.1427
  C  C506  1  0.871500  0.614800  0.583000  1.0  -0.0992
  C  C507  1  0.819300  0.608200  0.548400  1.0  -0.1047
  C  C508  1  0.783600  0.610000  0.574800  1.0  -0.0519
  C  C509  1  0.694300  0.591300  0.620000  1.0  -0.1451
  C  C510  1  0.657900  0.657400  0.590300  1.0  -0.051
  C  C511  1  0.610100  0.632100  0.548200  1.0  -0.1153
  C  C512  1  0.599300  0.537400  0.535800  1.0  -0.1134
  C  C513  1  0.633600  0.471900  0.563700  1.0  -0.1263
  C  C514  1  0.681100  0.498200  0.606100  1.0  -0.0928
  C  C515  1  0.624300  0.345500  0.706200  1.0  0.1663
  C  C516  1  0.640100  0.243500  0.652600  1.0  0.0209
  C  C517  1  0.590400  0.267900  0.624800  1.0  -0.1854
  C  C518  1  0.532500  0.384100  0.647600  1.0  -0.0851
  C  C519  1  0.516200  0.385100  0.701800  1.0  0.0731
  C  C520  1  0.507100  0.301700  0.726300  1.0  -0.1556
  C  C521  1  0.507500  0.465200  0.726200  1.0  -0.1646
  C  C522  1  0.793000  0.198400  0.530300  1.0  -0.1496
  C  C523  1  0.748200  0.340900  0.516900  1.0  -0.1615
  C  C524  1  0.791500  0.289100  0.546800  1.0  0.0334
  C  C525  1  0.834800  0.331100  0.598100  1.0  -0.1158
  C  C526  1  0.789550  0.292900  0.668400  1.0  0.1383
  C  C527  1  0.873250  0.282300  0.708000  1.0  -0.1888
  C  C528  1  0.853300  0.264400  0.749100  1.0  0.0102
  C  C529  1  0.237130  0.035600  0.764460  1.0  -0.4051
  C  C530  1  0.273280  0.037100  0.730640  1.0  -0.343
  C  C531  1  0.201300  0.957800  0.851850  1.0  -0.2322
  C  C532  1  0.165200  0.029100  0.835200  1.0  -0.1268
  C  C533  1  0.126300  0.031200  0.857700  1.0  -0.1223
  C  C534  1  0.123800  0.965500  0.897900  1.0  -0.1074
  C  C535  1  0.158700  0.894900  0.913800  1.0  -0.1039
  C  C536  1  0.197400  0.889600  0.890900  1.0  -0.0428
  C  C537  1  0.310340  0.977400  0.879530  1.0  -0.1911
  C  C538  1  0.354600  0.930500  0.886500  1.0  -0.073
  C  C539  1  0.401200  0.955600  0.930600  1.0  -0.1416
  C  C540  1  0.402600  0.030700  0.967100  1.0  -0.1273
  C  C541  1  0.359100  0.078200  0.961100  1.0  -0.1234
  C  C542  1  0.312900  0.051500  0.917600  1.0  -0.0726
  C  C543  1  0.299700  0.119700  0.636400  1.0  -0.2439
  C  C544  1  0.351400  0.127300  0.669300  1.0  -0.0715
  C  C545  1  0.387600  0.125400  0.643300  1.0  -0.1427
  C  C546  1  0.371500  0.114800  0.583000  1.0  -0.0992
  C  C547  1  0.319300  0.108200  0.548400  1.0  -0.1047
  C  C548  1  0.283600  0.110000  0.574800  1.0  -0.0519
  C  C549  1  0.194300  0.091300  0.620000  1.0  -0.1451
  C  C550  1  0.157900  0.157400  0.590300  1.0  -0.051
  C  C551  1  0.110100  0.132100  0.548200  1.0  -0.1153
  C  C552  1  0.099300  0.037400  0.535800  1.0  -0.1134
  C  C553  1  0.133600  0.971900  0.563700  1.0  -0.1263
  C  C554  1  0.181100  0.998200  0.606100  1.0  -0.0928
  C  C555  1  0.124300  0.845500  0.706200  1.0  0.1663
  C  C556  1  0.140100  0.743500  0.652600  1.0  0.021
  C  C557  1  0.090400  0.767900  0.624800  1.0  -0.1854
  C  C558  1  0.032500  0.884100  0.647600  1.0  -0.0851
  C  C559  1  0.016200  0.885100  0.701800  1.0  0.0731
  C  C560  1  0.007100  0.801700  0.726300  1.0  -0.1556
  C  C561  1  0.007500  0.965200  0.726200  1.0  -0.1646
  C  C562  1  0.293000  0.698400  0.530300  1.0  -0.1496
  C  C563  1  0.248200  0.840900  0.516900  1.0  -0.1615
  C  C564  1  0.291500  0.789100  0.546800  1.0  0.0334
  C  C565  1  0.334800  0.831100  0.598100  1.0  -0.1158
  C  C566  1  0.289550  0.792900  0.668400  1.0  0.1383
  C  C567  1  0.373250  0.782300  0.708000  1.0  -0.1888
  C  C568  1  0.353300  0.764400  0.749100  1.0  0.0102
  C  C569  1  0.262870  0.535600  0.735540  1.0  -0.4035
  C  C570  1  0.226720  0.537100  0.769360  1.0  -0.3444
  C  C571  1  0.298700  0.457800  0.648150  1.0  -0.2333
  C  C572  1  0.334800  0.529100  0.664800  1.0  -0.127
  C  C573  1  0.373700  0.531200  0.642300  1.0  -0.122
  C  C574  1  0.376200  0.465500  0.602100  1.0  -0.1068
  C  C575  1  0.341300  0.394900  0.586200  1.0  -0.1049
  C  C576  1  0.302600  0.389600  0.609100  1.0  -0.0424
  C  C577  1  0.189660  0.477400  0.620470  1.0  -0.1911
  C  C578  1  0.145400  0.430500  0.613500  1.0  -0.0715
  C  C579  1  0.098800  0.455600  0.569400  1.0  -0.143
  C  C580  1  0.097400  0.530700  0.532900  1.0  -0.1285
  C  C581  1  0.140900  0.578200  0.538900  1.0  -0.1227
  C  C582  1  0.187100  0.551500  0.582400  1.0  -0.074
  C  C583  1  0.200300  0.619700  0.863600  1.0  -0.2431
  C  C584  1  0.148600  0.627300  0.830700  1.0  -0.0693
  C  C585  1  0.112400  0.625400  0.856700  1.0  -0.1448
  C  C586  1  0.128500  0.614800  0.917000  1.0  -0.0993
  C  C587  1  0.180700  0.608200  0.951600  1.0  -0.1027
  C  C588  1  0.216400  0.610000  0.925200  1.0  -0.0519
  C  C589  1  0.305700  0.591300  0.880000  1.0  -0.1421
  C  C590  1  0.342100  0.657400  0.909700  1.0  -0.0503
  C  C591  1  0.389900  0.632100  0.951800  1.0  -0.1138
  C  C592  1  0.400700  0.537400  0.964200  1.0  -0.111
  C  C593  1  0.366400  0.471900  0.936300  1.0  -0.1262
  C  C594  1  0.318900  0.498200  0.893900  1.0  -0.0918
  C  C595  1  0.375700  0.345500  0.793800  1.0  0.1636
  C  C596  1  0.359900  0.243500  0.847400  1.0  0.0212
  C  C597  1  0.409600  0.267900  0.875200  1.0  -0.1851
  C  C598  1  0.467500  0.384100  0.852400  1.0  -0.0821
  C  C599  1  0.483800  0.385100  0.798200  1.0  0.0741
  C  C600  1  0.492900  0.301700  0.773700  1.0  -0.1559
  C  C601  1  0.492500  0.465200  0.773800  1.0  -0.1679
  C  C602  1  0.207000  0.198400  0.969700  1.0  -0.1486
  C  C603  1  0.251800  0.340900  0.983100  1.0  -0.1612
  C  C604  1  0.208500  0.289100  0.953200  1.0  0.0333
  C  C605  1  0.165200  0.331100  0.901900  1.0  -0.1155
  C  C606  1  0.210450  0.292900  0.831600  1.0  0.1376
  C  C607  1  0.126750  0.282300  0.792000  1.0  -0.19
  C  C608  1  0.146700  0.264400  0.750900  1.0  0.0091
  C  C609  1  0.762870  0.035600  0.735540  1.0  -0.4035
  C  C610  1  0.726720  0.037100  0.769360  1.0  -0.3444
  C  C611  1  0.798700  0.957800  0.648150  1.0  -0.2333
  C  C612  1  0.834800  0.029100  0.664800  1.0  -0.127
  C  C613  1  0.873700  0.031200  0.642300  1.0  -0.122
  C  C614  1  0.876200  0.965500  0.602100  1.0  -0.1068
  C  C615  1  0.841300  0.894900  0.586200  1.0  -0.1049
  C  C616  1  0.802600  0.889600  0.609100  1.0  -0.0424
  C  C617  1  0.689660  0.977400  0.620470  1.0  -0.1911
  C  C618  1  0.645400  0.930500  0.613500  1.0  -0.0715
  C  C619  1  0.598800  0.955600  0.569400  1.0  -0.143
  C  C620  1  0.597400  0.030700  0.532900  1.0  -0.1285
  C  C621  1  0.640900  0.078200  0.538900  1.0  -0.1227
  C  C622  1  0.687100  0.051500  0.582400  1.0  -0.074
  C  C623  1  0.700300  0.119700  0.863600  1.0  -0.2431
  C  C624  1  0.648600  0.127300  0.830700  1.0  -0.0693
  C  C625  1  0.612400  0.125400  0.856700  1.0  -0.1448
  C  C626  1  0.628500  0.114800  0.917000  1.0  -0.0993
  C  C627  1  0.680700  0.108200  0.951600  1.0  -0.1027
  C  C628  1  0.716400  0.110000  0.925200  1.0  -0.0519
  C  C629  1  0.805700  0.091300  0.880000  1.0  -0.1421
  C  C630  1  0.842100  0.157400  0.909700  1.0  -0.0503
  C  C631  1  0.889900  0.132100  0.951800  1.0  -0.1138
  C  C632  1  0.900700  0.037400  0.964200  1.0  -0.111
  C  C633  1  0.866400  0.971900  0.936300  1.0  -0.1262
  C  C634  1  0.818900  0.998200  0.893900  1.0  -0.0918
  C  C635  1  0.875700  0.845500  0.793800  1.0  0.1636
  C  C636  1  0.859900  0.743500  0.847400  1.0  0.0212
  C  C637  1  0.909600  0.767900  0.875200  1.0  -0.1851
  C  C638  1  0.967500  0.884100  0.852400  1.0  -0.0821
  C  C639  1  0.983800  0.885100  0.798200  1.0  0.0741
  C  C640  1  0.992900  0.801700  0.773700  1.0  -0.1559
  C  C641  1  0.992500  0.965200  0.773800  1.0  -0.1679
  C  C642  1  0.707000  0.698400  0.969700  1.0  -0.1486
  C  C643  1  0.751800  0.840900  0.983100  1.0  -0.1612
  C  C644  1  0.708500  0.789100  0.953200  1.0  0.0333
  C  C645  1  0.665200  0.831100  0.901900  1.0  -0.1155
  C  C646  1  0.710450  0.792900  0.831600  1.0  0.1376
  C  C647  1  0.626750  0.782300  0.792000  1.0  -0.19
  C  C648  1  0.646700  0.764400  0.750900  1.0  0.0091
  N  N649  1  0.338260  0.708400  0.296360  1.0  -0.408
  N  N650  1  0.419230  0.665900  0.340000  1.0  0.0352
  N  N651  1  0.167500  0.698900  0.343760  1.0  0.0294
  N  N652  1  0.199530  0.728200  0.274880  1.0  -0.3976
  N  N653  1  0.838260  0.208400  0.296360  1.0  -0.408
  N  N654  1  0.919230  0.165900  0.340000  1.0  0.0352
  N  N655  1  0.667500  0.198900  0.343760  1.0  0.0294
  N  N656  1  0.699530  0.228200  0.274880  1.0  -0.3976
  N  N657  1  0.661740  0.708400  0.203640  1.0  -0.4036
  N  N658  1  0.580770  0.665900  0.160000  1.0  0.0339
  N  N659  1  0.832500  0.698900  0.156240  1.0  0.0294
  N  N660  1  0.800470  0.728200  0.225120  1.0  -0.3973
  N  N661  1  0.161740  0.208400  0.203640  1.0  -0.4036
  N  N662  1  0.080770  0.165900  0.160000  1.0  0.0339
  N  N663  1  0.332500  0.198900  0.156240  1.0  0.0294
  N  N664  1  0.300470  0.228200  0.225120  1.0  -0.3972
  N  N665  1  0.661740  0.291600  0.703640  1.0  -0.4028
  N  N666  1  0.580770  0.334100  0.660000  1.0  0.0339
  N  N667  1  0.832500  0.301100  0.656240  1.0  0.029
  N  N668  1  0.800470  0.271800  0.725120  1.0  -0.3972
  N  N669  1  0.161740  0.791600  0.703640  1.0  -0.4028
  N  N670  1  0.080770  0.834100  0.660000  1.0  0.0339
  N  N671  1  0.332500  0.801100  0.656240  1.0  0.029
  N  N672  1  0.300470  0.771800  0.725120  1.0  -0.3971
  N  N673  1  0.338260  0.291600  0.796360  1.0  -0.409
  N  N674  1  0.419230  0.334100  0.840000  1.0  0.0353
  N  N675  1  0.167500  0.301100  0.843760  1.0  0.0292
  N  N676  1  0.199530  0.271800  0.774880  1.0  -0.3982
  N  N677  1  0.838260  0.791600  0.796360  1.0  -0.409
  N  N678  1  0.919230  0.834100  0.840000  1.0  0.0353
  N  N679  1  0.667500  0.801100  0.843760  1.0  0.0292
  N  N680  1  0.699530  0.771800  0.774880  1.0  -0.3982
