# generated using pymatgen
data_Na4Mn2Cu3H12C30(NO3)6
_symmetry_space_group_name_H-M   'P 1'
_cell_length_a   36.35100000
_cell_length_b   36.35100000
_cell_length_c   14.94300000
_cell_angle_alpha   90.00000000
_cell_angle_beta   90.00000000
_cell_angle_gamma   90.00000000
_symmetry_Int_Tables_number   1
_chemical_formula_structural   Na4Mn2Cu3H12C30(NO3)6
_chemical_formula_sum   'Na32 Mn16 Cu24 H96 C240 N48 O144'
_cell_volume   19745.60848854
_cell_formula_units_Z   8
loop_
 _symmetry_equiv_pos_site_id
 _symmetry_equiv_pos_as_xyz
  1  'x, y, z'
loop_
 _atom_site_type_symbol
 _atom_site_label
 _atom_site_symmetry_multiplicity
 _atom_site_fract_x
 _atom_site_fract_y
 _atom_site_fract_z
 _atom_site_occupancy
 _atom_site_charge
  Na  Na1  1  0.467200  0.124800  0.937700  1.0  0.8444
  Na  Na2  1  0.532800  0.875200  0.937700  1.0  0.8443
  Na  Na3  1  0.375200  0.967200  0.437700  1.0  0.8447
  Na  Na4  1  0.624800  0.032800  0.437700  1.0  0.8451
  Na  Na5  1  0.032800  0.624800  0.562300  1.0  0.8442
  Na  Na6  1  0.967200  0.375200  0.562300  1.0  0.8428
  Na  Na7  1  0.124800  0.467200  0.062300  1.0  0.8436
  Na  Na8  1  0.875200  0.532800  0.062300  1.0  0.8446
  Na  Na9  1  0.532800  0.875200  0.062300  1.0  0.8448
  Na  Na10  1  0.467200  0.124800  0.062300  1.0  0.8446
  Na  Na11  1  0.624800  0.032800  0.562300  1.0  0.8433
  Na  Na12  1  0.375200  0.967200  0.562300  1.0  0.8429
  Na  Na13  1  0.967200  0.375200  0.437700  1.0  0.8447
  Na  Na14  1  0.032800  0.624800  0.437700  1.0  0.8466
  Na  Na15  1  0.875200  0.532800  0.937700  1.0  0.8445
  Na  Na16  1  0.124800  0.467200  0.937700  1.0  0.8432
  Na  Na17  1  0.299730  0.163480  0.000000  1.0  0.8746
  Na  Na18  1  0.700270  0.836520  0.000000  1.0  0.876
  Na  Na19  1  0.336520  0.799730  0.500000  1.0  0.8752
  Na  Na20  1  0.663480  0.200270  0.500000  1.0  0.8757
  Na  Na21  1  0.200270  0.663480  0.500000  1.0  0.8764
  Na  Na22  1  0.799730  0.336520  0.500000  1.0  0.8746
  Na  Na23  1  0.163480  0.299730  0.000000  1.0  0.8756
  Na  Na24  1  0.836520  0.700270  0.000000  1.0  0.8749
  Na  Na25  1  0.241740  0.241740  0.071400  1.0  0.932
  Na  Na26  1  0.758260  0.758260  0.071400  1.0  0.9315
  Na  Na27  1  0.258260  0.741740  0.571400  1.0  0.931
  Na  Na28  1  0.741740  0.258260  0.571400  1.0  0.9325
  Na  Na29  1  0.258260  0.741740  0.428600  1.0  0.9316
  Na  Na30  1  0.741740  0.258260  0.428600  1.0  0.9331
  Na  Na31  1  0.241740  0.241740  0.928600  1.0  0.9326
  Na  Na32  1  0.758260  0.758260  0.928600  1.0  0.9321
  Mn  Mn33  1  0.326140  0.116880  0.253930  1.0  1.0233
  Mn  Mn34  1  0.673860  0.883120  0.253930  1.0  1.0229
  Mn  Mn35  1  0.383120  0.826140  0.753930  1.0  1.0231
  Mn  Mn36  1  0.616880  0.173860  0.753930  1.0  1.023
  Mn  Mn37  1  0.173860  0.616880  0.246070  1.0  1.0231
  Mn  Mn38  1  0.826140  0.383120  0.246070  1.0  1.0229
  Mn  Mn39  1  0.116880  0.326140  0.746070  1.0  1.0226
  Mn  Mn40  1  0.883120  0.673860  0.746070  1.0  1.0227
  Mn  Mn41  1  0.673860  0.883120  0.746070  1.0  1.0226
  Mn  Mn42  1  0.326140  0.116880  0.746070  1.0  1.0228
  Mn  Mn43  1  0.616880  0.173860  0.246070  1.0  1.023
  Mn  Mn44  1  0.383120  0.826140  0.246070  1.0  1.0229
  Mn  Mn45  1  0.826140  0.383120  0.753930  1.0  1.0232
  Mn  Mn46  1  0.173860  0.616880  0.753930  1.0  1.0231
  Mn  Mn47  1  0.883120  0.673860  0.253930  1.0  1.0232
  Mn  Mn48  1  0.116880  0.326140  0.253930  1.0  1.0229
  Cu  Cu49  1  0.335380  0.967790  0.233220  1.0  0.6563
  Cu  Cu50  1  0.664620  0.032210  0.233220  1.0  0.6564
  Cu  Cu51  1  0.532210  0.835380  0.733220  1.0  0.6574
  Cu  Cu52  1  0.467790  0.164620  0.733220  1.0  0.6564
  Cu  Cu53  1  0.164620  0.467790  0.266780  1.0  0.6548
  Cu  Cu54  1  0.835380  0.532210  0.266780  1.0  0.6543
  Cu  Cu55  1  0.967790  0.335380  0.766780  1.0  0.6551
  Cu  Cu56  1  0.032210  0.664620  0.766780  1.0  0.6558
  Cu  Cu57  1  0.664620  0.032210  0.766780  1.0  0.655
  Cu  Cu58  1  0.335380  0.967790  0.766780  1.0  0.6539
  Cu  Cu59  1  0.467790  0.164620  0.266780  1.0  0.6552
  Cu  Cu60  1  0.532210  0.835380  0.266780  1.0  0.6557
  Cu  Cu61  1  0.835380  0.532210  0.733220  1.0  0.6562
  Cu  Cu62  1  0.164620  0.467790  0.733220  1.0  0.6564
  Cu  Cu63  1  0.032210  0.664620  0.233220  1.0  0.6569
  Cu  Cu64  1  0.967790  0.335380  0.233220  1.0  0.6567
  Cu  Cu65  1  0.208030  0.208030  0.266710  1.0  0.6649
  Cu  Cu66  1  0.791970  0.791970  0.266710  1.0  0.6637
  Cu  Cu67  1  0.291970  0.708030  0.766710  1.0  0.6632
  Cu  Cu68  1  0.708030  0.291970  0.766710  1.0  0.6636
  Cu  Cu69  1  0.291970  0.708030  0.233290  1.0  0.6633
  Cu  Cu70  1  0.708030  0.291970  0.233290  1.0  0.6635
  Cu  Cu71  1  0.208030  0.208030  0.733290  1.0  0.6648
  Cu  Cu72  1  0.791970  0.791970  0.733290  1.0  0.6641
  H  H73  1  0.240100  0.008900  0.135400  1.0  0.0747
  H  H74  1  0.183800  0.111900  0.365800  1.0  0.0707
  H  H75  1  0.411700  0.241900  0.364800  1.0  0.0816
  H  H76  1  0.759900  0.991100  0.135400  1.0  0.0739
  H  H77  1  0.816200  0.888100  0.365800  1.0  0.071
  H  H78  1  0.588300  0.758100  0.364800  1.0  0.0818
  H  H79  1  0.491100  0.740100  0.635400  1.0  0.0742
  H  H80  1  0.388100  0.683800  0.865800  1.0  0.0703
  H  H81  1  0.258100  0.911700  0.864800  1.0  0.0825
  H  H82  1  0.508900  0.259900  0.635400  1.0  0.0737
  H  H83  1  0.611900  0.316200  0.865800  1.0  0.0703
  H  H84  1  0.741900  0.088300  0.864800  1.0  0.0822
  H  H85  1  0.259900  0.508900  0.364600  1.0  0.0746
  H  H86  1  0.316200  0.611900  0.134200  1.0  0.0707
  H  H87  1  0.088300  0.741900  0.135200  1.0  0.0814
  H  H88  1  0.740100  0.491100  0.364600  1.0  0.0745
  H  H89  1  0.683800  0.388100  0.134200  1.0  0.0706
  H  H90  1  0.911700  0.258100  0.135200  1.0  0.0828
  H  H91  1  0.008900  0.240100  0.864600  1.0  0.073
  H  H92  1  0.111900  0.183800  0.634200  1.0  0.0706
  H  H93  1  0.241900  0.411700  0.635200  1.0  0.0816
  H  H94  1  0.991100  0.759900  0.864600  1.0  0.0736
  H  H95  1  0.888100  0.816200  0.634200  1.0  0.07
  H  H96  1  0.758100  0.588300  0.635200  1.0  0.0832
  H  H97  1  0.759900  0.991100  0.864600  1.0  0.0735
  H  H98  1  0.816200  0.888100  0.634200  1.0  0.0705
  H  H99  1  0.588300  0.758100  0.635200  1.0  0.081
  H  H100  1  0.240100  0.008900  0.864600  1.0  0.0735
  H  H101  1  0.183800  0.111900  0.634200  1.0  0.0709
  H  H102  1  0.411700  0.241900  0.635200  1.0  0.0827
  H  H103  1  0.508900  0.259900  0.364600  1.0  0.0736
  H  H104  1  0.611900  0.316200  0.134200  1.0  0.0704
  H  H105  1  0.741900  0.088300  0.135200  1.0  0.0815
  H  H106  1  0.491100  0.740100  0.364600  1.0  0.0738
  H  H107  1  0.388100  0.683800  0.134200  1.0  0.0698
  H  H108  1  0.258100  0.911700  0.135200  1.0  0.0832
  H  H109  1  0.740100  0.491100  0.635400  1.0  0.0749
  H  H110  1  0.683800  0.388100  0.865800  1.0  0.071
  H  H111  1  0.911700  0.258100  0.864800  1.0  0.0822
  H  H112  1  0.259900  0.508900  0.635400  1.0  0.0741
  H  H113  1  0.316200  0.611900  0.865800  1.0  0.0708
  H  H114  1  0.088300  0.741900  0.864800  1.0  0.0818
  H  H115  1  0.991100  0.759900  0.135400  1.0  0.074
  H  H116  1  0.888100  0.816200  0.365800  1.0  0.0706
  H  H117  1  0.758100  0.588300  0.364800  1.0  0.0825
  H  H118  1  0.008900  0.240100  0.135400  1.0  0.0735
  H  H119  1  0.111900  0.183800  0.365800  1.0  0.0701
  H  H120  1  0.241900  0.411700  0.364800  1.0  0.0823
  H  H121  1  0.208700  0.009800  0.000000  1.0  0.0487
  H  H122  1  0.335500  0.006900  0.000000  1.0  0.0584
  H  H123  1  0.791300  0.990200  0.000000  1.0  0.0483
  H  H124  1  0.664500  0.993100  0.000000  1.0  0.0593
  H  H125  1  0.490200  0.708700  0.500000  1.0  0.0496
  H  H126  1  0.493100  0.835500  0.500000  1.0  0.059
  H  H127  1  0.509800  0.291300  0.500000  1.0  0.0496
  H  H128  1  0.506900  0.164500  0.500000  1.0  0.0587
  H  H129  1  0.291300  0.509800  0.500000  1.0  0.0483
  H  H130  1  0.164500  0.506900  0.500000  1.0  0.0595
  H  H131  1  0.708700  0.490200  0.500000  1.0  0.0489
  H  H132  1  0.835500  0.493100  0.500000  1.0  0.0583
  H  H133  1  0.009800  0.208700  0.000000  1.0  0.0498
  H  H134  1  0.006900  0.335500  0.000000  1.0  0.0593
  H  H135  1  0.990200  0.791300  0.000000  1.0  0.0497
  H  H136  1  0.993100  0.664500  0.000000  1.0  0.0582
  H  H137  1  0.166300  0.085800  0.500000  1.0  0.0467
  H  H138  1  0.244900  0.185400  0.500000  1.0  0.0705
  H  H139  1  0.410500  0.272400  0.500000  1.0  0.0467
  H  H140  1  0.421600  0.147100  0.500000  1.0  0.0558
  H  H141  1  0.833700  0.914200  0.500000  1.0  0.0468
  H  H142  1  0.755100  0.814600  0.500000  1.0  0.0706
  H  H143  1  0.589500  0.727600  0.500000  1.0  0.05
  H  H144  1  0.578400  0.852900  0.500000  1.0  0.0566
  H  H145  1  0.414200  0.666300  0.000000  1.0  0.0441
  H  H146  1  0.314600  0.744900  0.000000  1.0  0.0721
  H  H147  1  0.227600  0.910500  0.000000  1.0  0.0478
  H  H148  1  0.352900  0.921600  0.000000  1.0  0.0583
  H  H149  1  0.585800  0.333700  0.000000  1.0  0.0453
  H  H150  1  0.685400  0.255100  0.000000  1.0  0.0715
  H  H151  1  0.772400  0.089500  0.000000  1.0  0.0507
  H  H152  1  0.647100  0.078400  0.000000  1.0  0.0588
  H  H153  1  0.333700  0.585800  0.000000  1.0  0.0462
  H  H154  1  0.255100  0.685400  0.000000  1.0  0.0714
  H  H155  1  0.089500  0.772400  0.000000  1.0  0.0472
  H  H156  1  0.078400  0.647100  0.000000  1.0  0.0566
  H  H157  1  0.666300  0.414200  0.000000  1.0  0.0461
  H  H158  1  0.744900  0.314600  0.000000  1.0  0.0707
  H  H159  1  0.910500  0.227600  0.000000  1.0  0.0491
  H  H160  1  0.921600  0.352900  0.000000  1.0  0.0577
  H  H161  1  0.085800  0.166300  0.500000  1.0  0.046
  H  H162  1  0.185400  0.244900  0.500000  1.0  0.0714
  H  H163  1  0.272400  0.410500  0.500000  1.0  0.0501
  H  H164  1  0.147100  0.421600  0.500000  1.0  0.0577
  H  H165  1  0.914200  0.833700  0.500000  1.0  0.0456
  H  H166  1  0.814600  0.755100  0.500000  1.0  0.0708
  H  H167  1  0.727600  0.589500  0.500000  1.0  0.0474
  H  H168  1  0.852900  0.578400  0.500000  1.0  0.0578
  C  C169  1  0.337250  0.038480  0.289400  1.0  0.5735
  C  C170  1  0.315880  0.039920  0.200600  1.0  0.5689
  C  C171  1  0.290720  0.007750  0.080000  1.0  0.12
  C  C172  1  0.252900  0.008620  0.081500  1.0  -0.2666
  C  C173  1  0.268960  0.170370  0.212600  1.0  0.5726
  C  C174  1  0.258020  0.152980  0.302300  1.0  0.5773
  C  C175  1  0.216070  0.150850  0.419800  1.0  0.16
  C  C176  1  0.192360  0.121500  0.419500  1.0  -0.2457
  C  C177  1  0.402660  0.134300  0.214900  1.0  0.5797
  C  C178  1  0.394080  0.154510  0.302800  1.0  0.5583
  C  C179  1  0.417310  0.191270  0.418700  1.0  0.1778
  C  C180  1  0.413440  0.228910  0.418300  1.0  -0.267
  C  C181  1  0.662750  0.961520  0.289400  1.0  0.5707
  C  C182  1  0.684120  0.960080  0.200600  1.0  0.5709
  C  C183  1  0.709280  0.992250  0.080000  1.0  0.1208
  C  C184  1  0.747100  0.991380  0.081500  1.0  -0.2632
  C  C185  1  0.731040  0.829630  0.212600  1.0  0.5723
  C  C186  1  0.741980  0.847020  0.302300  1.0  0.5777
  C  C187  1  0.783930  0.849150  0.419800  1.0  0.1583
  C  C188  1  0.807640  0.878500  0.419500  1.0  -0.2452
  C  C189  1  0.597340  0.865700  0.214900  1.0  0.5813
  C  C190  1  0.605920  0.845490  0.302800  1.0  0.5584
  C  C191  1  0.582690  0.808730  0.418700  1.0  0.1791
  C  C192  1  0.586560  0.771090  0.418300  1.0  -0.2686
  C  C193  1  0.461520  0.837250  0.789400  1.0  0.5722
  C  C194  1  0.460080  0.815880  0.700600  1.0  0.5685
  C  C195  1  0.492250  0.790720  0.580000  1.0  0.1198
  C  C196  1  0.491380  0.752900  0.581500  1.0  -0.2605
  C  C197  1  0.329630  0.768960  0.712600  1.0  0.5722
  C  C198  1  0.347020  0.758020  0.802300  1.0  0.5785
  C  C199  1  0.349150  0.716070  0.919800  1.0  0.1602
  C  C200  1  0.378500  0.692360  0.919500  1.0  -0.2468
  C  C201  1  0.365700  0.902660  0.714900  1.0  0.5808
  C  C202  1  0.345490  0.894080  0.802800  1.0  0.5582
  C  C203  1  0.308730  0.917310  0.918700  1.0  0.1804
  C  C204  1  0.271090  0.913440  0.918300  1.0  -0.2693
  C  C205  1  0.538480  0.162750  0.789400  1.0  0.5728
  C  C206  1  0.539920  0.184120  0.700600  1.0  0.5684
  C  C207  1  0.507750  0.209280  0.580000  1.0  0.1208
  C  C208  1  0.508620  0.247100  0.581500  1.0  -0.2609
  C  C209  1  0.670370  0.231040  0.712600  1.0  0.572
  C  C210  1  0.652980  0.241980  0.802300  1.0  0.5792
  C  C211  1  0.650850  0.283930  0.919800  1.0  0.1587
  C  C212  1  0.621500  0.307640  0.919500  1.0  -0.2466
  C  C213  1  0.634300  0.097340  0.714900  1.0  0.5815
  C  C214  1  0.654510  0.105920  0.802800  1.0  0.5584
  C  C215  1  0.691270  0.082690  0.918700  1.0  0.1812
  C  C216  1  0.728910  0.086560  0.918300  1.0  -0.2708
  C  C217  1  0.162750  0.538480  0.210600  1.0  0.5695
  C  C218  1  0.184120  0.539920  0.299400  1.0  0.57
  C  C219  1  0.209280  0.507750  0.420000  1.0  0.1206
  C  C220  1  0.247100  0.508620  0.418500  1.0  -0.2634
  C  C221  1  0.231040  0.670370  0.287400  1.0  0.574
  C  C222  1  0.241980  0.652980  0.197700  1.0  0.5769
  C  C223  1  0.283930  0.650850  0.080200  1.0  0.1589
  C  C224  1  0.307640  0.621500  0.080500  1.0  -0.2454
  C  C225  1  0.097340  0.634300  0.285100  1.0  0.581
  C  C226  1  0.105920  0.654510  0.197200  1.0  0.5584
  C  C227  1  0.082690  0.691270  0.081300  1.0  0.1792
  C  C228  1  0.086560  0.728910  0.081700  1.0  -0.2679
  C  C229  1  0.837250  0.461520  0.210600  1.0  0.5699
  C  C230  1  0.815880  0.460080  0.299400  1.0  0.5701
  C  C231  1  0.790720  0.492250  0.420000  1.0  0.1208
  C  C232  1  0.752900  0.491380  0.418500  1.0  -0.2652
  C  C233  1  0.768960  0.329630  0.287400  1.0  0.5746
  C  C234  1  0.758020  0.347020  0.197700  1.0  0.5767
  C  C235  1  0.716070  0.349150  0.080200  1.0  0.1595
  C  C236  1  0.692360  0.378500  0.080500  1.0  -0.2475
  C  C237  1  0.902660  0.365700  0.285100  1.0  0.5808
  C  C238  1  0.894080  0.345490  0.197200  1.0  0.5582
  C  C239  1  0.917310  0.308730  0.081300  1.0  0.1786
  C  C240  1  0.913440  0.271090  0.081700  1.0  -0.2668
  C  C241  1  0.038480  0.337250  0.710600  1.0  0.57
  C  C242  1  0.039920  0.315880  0.799400  1.0  0.5686
  C  C243  1  0.007750  0.290720  0.920000  1.0  0.1215
  C  C244  1  0.008620  0.252900  0.918500  1.0  -0.2602
  C  C245  1  0.170370  0.268960  0.787400  1.0  0.5745
  C  C246  1  0.152980  0.258020  0.697700  1.0  0.5782
  C  C247  1  0.150850  0.216070  0.580200  1.0  0.1592
  C  C248  1  0.121500  0.192360  0.580500  1.0  -0.2472
  C  C249  1  0.134300  0.402660  0.785100  1.0  0.5802
  C  C250  1  0.154510  0.394080  0.697200  1.0  0.5619
  C  C251  1  0.191270  0.417310  0.581300  1.0  0.1805
  C  C252  1  0.228910  0.413440  0.581700  1.0  -0.2708
  C  C253  1  0.961520  0.662750  0.710600  1.0  0.5701
  C  C254  1  0.960080  0.684120  0.799400  1.0  0.5686
  C  C255  1  0.992250  0.709280  0.920000  1.0  0.1199
  C  C256  1  0.991380  0.747100  0.918500  1.0  -0.26
  C  C257  1  0.829630  0.731040  0.787400  1.0  0.5733
  C  C258  1  0.847020  0.741980  0.697700  1.0  0.5788
  C  C259  1  0.849150  0.783930  0.580200  1.0  0.1591
  C  C260  1  0.878500  0.807640  0.580500  1.0  -0.2461
  C  C261  1  0.865700  0.597340  0.785100  1.0  0.5817
  C  C262  1  0.845490  0.605920  0.697200  1.0  0.5616
  C  C263  1  0.808730  0.582690  0.581300  1.0  0.1808
  C  C264  1  0.771090  0.586560  0.581700  1.0  -0.2705
  C  C265  1  0.662750  0.961520  0.710600  1.0  0.5697
  C  C266  1  0.684120  0.960080  0.799400  1.0  0.5713
  C  C267  1  0.709280  0.992250  0.920000  1.0  0.1205
  C  C268  1  0.747100  0.991380  0.918500  1.0  -0.2629
  C  C269  1  0.731040  0.829630  0.787400  1.0  0.5739
  C  C270  1  0.741980  0.847020  0.697700  1.0  0.5772
  C  C271  1  0.783930  0.849150  0.580200  1.0  0.1591
  C  C272  1  0.807640  0.878500  0.580500  1.0  -0.2463
  C  C273  1  0.597340  0.865700  0.785100  1.0  0.5809
  C  C274  1  0.605920  0.845490  0.697200  1.0  0.5615
  C  C275  1  0.582690  0.808730  0.581300  1.0  0.179
  C  C276  1  0.586560  0.771090  0.581700  1.0  -0.2696
  C  C277  1  0.337250  0.038480  0.710600  1.0  0.5697
  C  C278  1  0.315880  0.039920  0.799400  1.0  0.5689
  C  C279  1  0.290720  0.007750  0.920000  1.0  0.1197
  C  C280  1  0.252900  0.008620  0.918500  1.0  -0.2642
  C  C281  1  0.268960  0.170370  0.787400  1.0  0.5747
  C  C282  1  0.258020  0.152980  0.697700  1.0  0.5767
  C  C283  1  0.216070  0.150850  0.580200  1.0  0.1594
  C  C284  1  0.192360  0.121500  0.580500  1.0  -0.2485
  C  C285  1  0.402660  0.134300  0.785100  1.0  0.5808
  C  C286  1  0.394080  0.154510  0.697200  1.0  0.5611
  C  C287  1  0.417310  0.191270  0.581300  1.0  0.1787
  C  C288  1  0.413440  0.228910  0.581700  1.0  -0.2682
  C  C289  1  0.538480  0.162750  0.210600  1.0  0.57
  C  C290  1  0.539920  0.184120  0.299400  1.0  0.5686
  C  C291  1  0.507750  0.209280  0.420000  1.0  0.1205
  C  C292  1  0.508620  0.247100  0.418500  1.0  -0.2595
  C  C293  1  0.670370  0.231040  0.287400  1.0  0.5749
  C  C294  1  0.652980  0.241980  0.197700  1.0  0.5789
  C  C295  1  0.650850  0.283930  0.080200  1.0  0.159
  C  C296  1  0.621500  0.307640  0.080500  1.0  -0.2483
  C  C297  1  0.634300  0.097340  0.285100  1.0  0.5804
  C  C298  1  0.654510  0.105920  0.197200  1.0  0.5585
  C  C299  1  0.691270  0.082690  0.081300  1.0  0.1809
  C  C300  1  0.728910  0.086560  0.081700  1.0  -0.2711
  C  C301  1  0.461520  0.837250  0.210600  1.0  0.5699
  C  C302  1  0.460080  0.815880  0.299400  1.0  0.5686
  C  C303  1  0.492250  0.790720  0.420000  1.0  0.1201
  C  C304  1  0.491380  0.752900  0.418500  1.0  -0.2592
  C  C305  1  0.329630  0.768960  0.287400  1.0  0.5729
  C  C306  1  0.347020  0.758020  0.197700  1.0  0.5781
  C  C307  1  0.349150  0.716070  0.080200  1.0  0.1596
  C  C308  1  0.378500  0.692360  0.080500  1.0  -0.2472
  C  C309  1  0.365700  0.902660  0.285100  1.0  0.5815
  C  C310  1  0.345490  0.894080  0.197200  1.0  0.558
  C  C311  1  0.308730  0.917310  0.081300  1.0  0.1807
  C  C312  1  0.271090  0.913440  0.081700  1.0  -0.2706
  C  C313  1  0.837250  0.461520  0.789400  1.0  0.5736
  C  C314  1  0.815880  0.460080  0.700600  1.0  0.57
  C  C315  1  0.790720  0.492250  0.580000  1.0  0.1201
  C  C316  1  0.752900  0.491380  0.581500  1.0  -0.2649
  C  C317  1  0.768960  0.329630  0.712600  1.0  0.5717
  C  C318  1  0.758020  0.347020  0.802300  1.0  0.5772
  C  C319  1  0.716070  0.349150  0.919800  1.0  0.1596
  C  C320  1  0.692360  0.378500  0.919500  1.0  -0.2475
  C  C321  1  0.902660  0.365700  0.714900  1.0  0.5809
  C  C322  1  0.894080  0.345490  0.802800  1.0  0.5584
  C  C323  1  0.917310  0.308730  0.918700  1.0  0.1784
  C  C324  1  0.913440  0.271090  0.918300  1.0  -0.2667
  C  C325  1  0.162750  0.538480  0.789400  1.0  0.5705
  C  C326  1  0.184120  0.539920  0.700600  1.0  0.5697
  C  C327  1  0.209280  0.507750  0.580000  1.0  0.1197
  C  C328  1  0.247100  0.508620  0.581500  1.0  -0.2633
  C  C329  1  0.231040  0.670370  0.712600  1.0  0.5732
  C  C330  1  0.241980  0.652980  0.802300  1.0  0.5774
  C  C331  1  0.283930  0.650850  0.919800  1.0  0.1586
  C  C332  1  0.307640  0.621500  0.919500  1.0  -0.2471
  C  C333  1  0.097340  0.634300  0.714900  1.0  0.5803
  C  C334  1  0.105920  0.654510  0.802800  1.0  0.5585
  C  C335  1  0.082690  0.691270  0.918700  1.0  0.1785
  C  C336  1  0.086560  0.728910  0.918300  1.0  -0.2687
  C  C337  1  0.961520  0.662750  0.289400  1.0  0.5729
  C  C338  1  0.960080  0.684120  0.200600  1.0  0.5686
  C  C339  1  0.992250  0.709280  0.080000  1.0  0.1193
  C  C340  1  0.991380  0.747100  0.081500  1.0  -0.2611
  C  C341  1  0.829630  0.731040  0.212600  1.0  0.5722
  C  C342  1  0.847020  0.741980  0.302300  1.0  0.5793
  C  C343  1  0.849150  0.783930  0.419800  1.0  0.1592
  C  C344  1  0.878500  0.807640  0.419500  1.0  -0.2487
  C  C345  1  0.865700  0.597340  0.214900  1.0  0.5807
  C  C346  1  0.845490  0.605920  0.302800  1.0  0.5584
  C  C347  1  0.808730  0.582690  0.418700  1.0  0.1811
  C  C348  1  0.771090  0.586560  0.418300  1.0  -0.2707
  C  C349  1  0.038480  0.337250  0.289400  1.0  0.572
  C  C350  1  0.039920  0.315880  0.200600  1.0  0.5684
  C  C351  1  0.007750  0.290720  0.080000  1.0  0.1199
  C  C352  1  0.008620  0.252900  0.081500  1.0  -0.2594
  C  C353  1  0.170370  0.268960  0.212600  1.0  0.5719
  C  C354  1  0.152980  0.258020  0.302300  1.0  0.5784
  C  C355  1  0.150850  0.216070  0.419800  1.0  0.1594
  C  C356  1  0.121500  0.192360  0.419500  1.0  -0.2476
  C  C357  1  0.134300  0.402660  0.214900  1.0  0.5815
  C  C358  1  0.154510  0.394080  0.302800  1.0  0.5583
  C  C359  1  0.191270  0.417310  0.418700  1.0  0.1803
  C  C360  1  0.228910  0.413440  0.418300  1.0  -0.271
  C  C361  1  0.234290  0.009100  0.000000  1.0  -0.1717
  C  C362  1  0.309950  0.007360  0.000000  1.0  -0.1986
  C  C363  1  0.765710  0.990900  0.000000  1.0  -0.1704
  C  C364  1  0.690050  0.992640  0.000000  1.0  -0.197
  C  C365  1  0.490900  0.734290  0.500000  1.0  -0.1648
  C  C366  1  0.492640  0.809950  0.500000  1.0  -0.1969
  C  C367  1  0.509100  0.265710  0.500000  1.0  -0.1638
  C  C368  1  0.507360  0.190050  0.500000  1.0  -0.1973
  C  C369  1  0.265710  0.509100  0.500000  1.0  -0.1705
  C  C370  1  0.190050  0.507360  0.500000  1.0  -0.198
  C  C371  1  0.734290  0.490900  0.500000  1.0  -0.1715
  C  C372  1  0.809950  0.492640  0.500000  1.0  -0.1982
  C  C373  1  0.009100  0.234290  0.000000  1.0  -0.1648
  C  C374  1  0.007360  0.309950  0.000000  1.0  -0.1981
  C  C375  1  0.990900  0.765710  0.000000  1.0  -0.1617
  C  C376  1  0.992640  0.690050  0.000000  1.0  -0.1979
  C  C377  1  0.181400  0.106500  0.500000  1.0  -0.1632
  C  C378  1  0.228540  0.165790  0.500000  1.0  -0.1977
  C  C379  1  0.412200  0.246900  0.500000  1.0  -0.2177
  C  C380  1  0.419120  0.172560  0.500000  1.0  -0.1817
  C  C381  1  0.818600  0.893500  0.500000  1.0  -0.1614
  C  C382  1  0.771460  0.834210  0.500000  1.0  -0.1995
  C  C383  1  0.587800  0.753100  0.500000  1.0  -0.218
  C  C384  1  0.580880  0.827440  0.500000  1.0  -0.1818
  C  C385  1  0.393500  0.681400  0.000000  1.0  -0.1666
  C  C386  1  0.334210  0.728540  0.000000  1.0  -0.2006
  C  C387  1  0.253100  0.912200  0.000000  1.0  -0.2232
  C  C388  1  0.327440  0.919120  0.000000  1.0  -0.1854
  C  C389  1  0.606500  0.318600  0.000000  1.0  -0.168
  C  C390  1  0.665790  0.271460  0.000000  1.0  -0.2024
  C  C391  1  0.746900  0.087800  0.000000  1.0  -0.2226
  C  C392  1  0.672560  0.080880  0.000000  1.0  -0.1865
  C  C393  1  0.318600  0.606500  0.000000  1.0  -0.1639
  C  C394  1  0.271460  0.665790  0.000000  1.0  -0.1992
  C  C395  1  0.087800  0.746900  0.000000  1.0  -0.2166
  C  C396  1  0.080880  0.672560  0.000000  1.0  -0.1821
  C  C397  1  0.681400  0.393500  0.000000  1.0  -0.1626
  C  C398  1  0.728540  0.334210  0.000000  1.0  -0.1976
  C  C399  1  0.912200  0.253100  0.000000  1.0  -0.2188
  C  C400  1  0.919120  0.327440  0.000000  1.0  -0.1837
  C  C401  1  0.106500  0.181400  0.500000  1.0  -0.1676
  C  C402  1  0.165790  0.228540  0.500000  1.0  -0.2002
  C  C403  1  0.246900  0.412200  0.500000  1.0  -0.2221
  C  C404  1  0.172560  0.419120  0.500000  1.0  -0.1845
  C  C405  1  0.893500  0.818600  0.500000  1.0  -0.167
  C  C406  1  0.834210  0.771460  0.500000  1.0  -0.2015
  C  C407  1  0.753100  0.587800  0.500000  1.0  -0.2226
  C  C408  1  0.827440  0.580880  0.500000  1.0  -0.1833
  N  N409  1  0.310290  0.008070  0.163800  1.0  -0.4134
  N  N410  1  0.228110  0.166660  0.336970  1.0  -0.3631
  N  N411  1  0.422120  0.172290  0.336600  1.0  -0.4009
  N  N412  1  0.689710  0.991930  0.163800  1.0  -0.4132
  N  N413  1  0.771890  0.833340  0.336970  1.0  -0.3635
  N  N414  1  0.577880  0.827710  0.336600  1.0  -0.4018
  N  N415  1  0.491930  0.810290  0.663800  1.0  -0.4141
  N  N416  1  0.333333  0.728110  0.836970  1.0  -0.3623
  N  N417  1  0.327710  0.922120  0.836600  1.0  -0.4026
  N  N418  1  0.508070  0.189710  0.663800  1.0  -0.4133
  N  N419  1  0.666667  0.271890  0.836970  1.0  -0.3635
  N  N420  1  0.672290  0.077880  0.836600  1.0  -0.4008
  N  N421  1  0.189710  0.508070  0.336200  1.0  -0.4132
  N  N422  1  0.271890  0.666667  0.163030  1.0  -0.3633
  N  N423  1  0.077880  0.672290  0.163400  1.0  -0.4016
  N  N424  1  0.810290  0.491930  0.336200  1.0  -0.4128
  N  N425  1  0.728110  0.333333  0.163030  1.0  -0.363
  N  N426  1  0.922120  0.327710  0.163400  1.0  -0.4009
  N  N427  1  0.008070  0.310290  0.836200  1.0  -0.4122
  N  N428  1  0.166660  0.228110  0.663030  1.0  -0.3626
  N  N429  1  0.172290  0.422120  0.663400  1.0  -0.401
  N  N430  1  0.991930  0.689710  0.836200  1.0  -0.4133
  N  N431  1  0.833340  0.771890  0.663030  1.0  -0.3619
  N  N432  1  0.827710  0.577880  0.663400  1.0  -0.4018
  N  N433  1  0.689710  0.991930  0.836200  1.0  -0.4124
  N  N434  1  0.771890  0.833340  0.663030  1.0  -0.3626
  N  N435  1  0.577880  0.827710  0.663400  1.0  -0.4016
  N  N436  1  0.310290  0.008070  0.836200  1.0  -0.4136
  N  N437  1  0.228110  0.166660  0.663030  1.0  -0.3632
  N  N438  1  0.422120  0.172290  0.663400  1.0  -0.4006
  N  N439  1  0.508070  0.189710  0.336200  1.0  -0.4129
  N  N440  1  0.666667  0.271890  0.163030  1.0  -0.3627
  N  N441  1  0.672290  0.077880  0.163400  1.0  -0.4008
  N  N442  1  0.491930  0.810290  0.336200  1.0  -0.4127
  N  N443  1  0.333333  0.728110  0.163030  1.0  -0.3619
  N  N444  1  0.327710  0.922120  0.163400  1.0  -0.4019
  N  N445  1  0.810290  0.491930  0.663800  1.0  -0.4136
  N  N446  1  0.728110  0.333333  0.836970  1.0  -0.3634
  N  N447  1  0.922120  0.327710  0.836600  1.0  -0.4015
  N  N448  1  0.189710  0.508070  0.663800  1.0  -0.413
  N  N449  1  0.271890  0.666667  0.836970  1.0  -0.3636
  N  N450  1  0.077880  0.672290  0.836600  1.0  -0.4016
  N  N451  1  0.991930  0.689710  0.163800  1.0  -0.4139
  N  N452  1  0.833340  0.771890  0.336970  1.0  -0.3623
  N  N453  1  0.827710  0.577880  0.336600  1.0  -0.4022
  N  N454  1  0.008070  0.310290  0.163800  1.0  -0.4134
  N  N455  1  0.166660  0.228110  0.336970  1.0  -0.3634
  N  N456  1  0.172290  0.422120  0.336600  1.0  -0.4013
  O  O457  1  0.342540  0.068140  0.328940  1.0  -0.5908
  O  O458  1  0.306500  0.071500  0.170420  1.0  -0.5881
  O  O459  1  0.348750  0.007810  0.316600  1.0  -0.6549
  O  O460  1  0.296890  0.158330  0.174590  1.0  -0.6205
  O  O461  1  0.278350  0.127610  0.332320  1.0  -0.5851
  O  O462  1  0.249110  0.195800  0.183370  1.0  -0.6603
  O  O463  1  0.377180  0.117420  0.178400  1.0  -0.5584
  O  O464  1  0.361520  0.152470  0.333290  1.0  -0.59
  O  O465  1  0.434970  0.136610  0.185400  1.0  -0.6694
  O  O466  1  0.657460  0.931860  0.328940  1.0  -0.5912
  O  O467  1  0.693500  0.928500  0.170420  1.0  -0.5894
  O  O468  1  0.651250  0.992190  0.316600  1.0  -0.6551
  O  O469  1  0.703110  0.841670  0.174590  1.0  -0.6223
  O  O470  1  0.721650  0.872390  0.332320  1.0  -0.584
  O  O471  1  0.750890  0.804200  0.183370  1.0  -0.6607
  O  O472  1  0.622820  0.882580  0.178400  1.0  -0.5595
  O  O473  1  0.638480  0.847530  0.333290  1.0  -0.5902
  O  O474  1  0.565030  0.863390  0.185400  1.0  -0.6688
  O  O475  1  0.431860  0.842540  0.828940  1.0  -0.5945
  O  O476  1  0.428500  0.806500  0.670420  1.0  -0.5906
  O  O477  1  0.492190  0.848750  0.816600  1.0  -0.6529
  O  O478  1  0.341670  0.796890  0.674590  1.0  -0.6232
  O  O479  1  0.372390  0.778350  0.832320  1.0  -0.5831
  O  O480  1  0.304200  0.749110  0.683370  1.0  -0.6604
  O  O481  1  0.382580  0.877180  0.678400  1.0  -0.5568
  O  O482  1  0.347530  0.861520  0.833290  1.0  -0.5864
  O  O483  1  0.363390  0.934970  0.685400  1.0  -0.6708
  O  O484  1  0.568140  0.157460  0.828940  1.0  -0.5937
  O  O485  1  0.571500  0.193500  0.670420  1.0  -0.5905
  O  O486  1  0.507810  0.151250  0.816600  1.0  -0.6544
  O  O487  1  0.658330  0.203110  0.674590  1.0  -0.6201
  O  O488  1  0.627610  0.221650  0.832320  1.0  -0.5821
  O  O489  1  0.695800  0.250890  0.683370  1.0  -0.6589
  O  O490  1  0.617420  0.122820  0.678400  1.0  -0.5571
  O  O491  1  0.652470  0.138480  0.833290  1.0  -0.5863
  O  O492  1  0.636610  0.065030  0.685400  1.0  -0.6692
  O  O493  1  0.157460  0.568140  0.171060  1.0  -0.5945
  O  O494  1  0.193500  0.571500  0.329580  1.0  -0.5887
  O  O495  1  0.151250  0.507810  0.183400  1.0  -0.6548
  O  O496  1  0.203110  0.658330  0.325410  1.0  -0.6213
  O  O497  1  0.221650  0.627610  0.167680  1.0  -0.5843
  O  O498  1  0.250890  0.695800  0.316630  1.0  -0.6592
  O  O499  1  0.122820  0.617420  0.321600  1.0  -0.5594
  O  O500  1  0.138480  0.652470  0.166710  1.0  -0.5885
  O  O501  1  0.065030  0.636610  0.314600  1.0  -0.6701
  O  O502  1  0.842540  0.431860  0.171060  1.0  -0.5931
  O  O503  1  0.806500  0.428500  0.329580  1.0  -0.5883
  O  O504  1  0.848750  0.492190  0.183400  1.0  -0.6545
  O  O505  1  0.796890  0.341670  0.325410  1.0  -0.6194
  O  O506  1  0.778350  0.372390  0.167680  1.0  -0.5842
  O  O507  1  0.749110  0.304200  0.316630  1.0  -0.6587
  O  O508  1  0.877180  0.382580  0.321600  1.0  -0.5582
  O  O509  1  0.861520  0.347530  0.166710  1.0  -0.5903
  O  O510  1  0.934970  0.363390  0.314600  1.0  -0.6697
  O  O511  1  0.068140  0.342540  0.671060  1.0  -0.5931
  O  O512  1  0.071500  0.306500  0.829580  1.0  -0.5894
  O  O513  1  0.007810  0.348750  0.683400  1.0  -0.6534
  O  O514  1  0.158330  0.296890  0.825410  1.0  -0.6214
  O  O515  1  0.127610  0.278350  0.667680  1.0  -0.5829
  O  O516  1  0.195800  0.249110  0.816630  1.0  -0.6575
  O  O517  1  0.117420  0.377180  0.821600  1.0  -0.5576
  O  O518  1  0.152470  0.361520  0.666667  1.0  -0.5926
  O  O519  1  0.136610  0.434970  0.814600  1.0  -0.6698
  O  O520  1  0.931860  0.657460  0.671060  1.0  -0.5939
  O  O521  1  0.928500  0.693500  0.829580  1.0  -0.5904
  O  O522  1  0.992190  0.651250  0.683400  1.0  -0.6518
  O  O523  1  0.841670  0.703110  0.825410  1.0  -0.6198
  O  O524  1  0.872390  0.721650  0.667680  1.0  -0.5852
  O  O525  1  0.804200  0.750890  0.816630  1.0  -0.6586
  O  O526  1  0.882580  0.622820  0.821600  1.0  -0.5575
  O  O527  1  0.847530  0.638480  0.666667  1.0  -0.5936
  O  O528  1  0.863390  0.565030  0.814600  1.0  -0.671
  O  O529  1  0.657460  0.931860  0.671060  1.0  -0.5943
  O  O530  1  0.693500  0.928500  0.829580  1.0  -0.589
  O  O531  1  0.651250  0.992190  0.683400  1.0  -0.6545
  O  O532  1  0.703110  0.841670  0.825410  1.0  -0.6208
  O  O533  1  0.721650  0.872390  0.667680  1.0  -0.5838
  O  O534  1  0.750890  0.804200  0.816630  1.0  -0.659
  O  O535  1  0.622820  0.882580  0.821600  1.0  -0.5596
  O  O536  1  0.638480  0.847530  0.666667  1.0  -0.5956
  O  O537  1  0.565030  0.863390  0.814600  1.0  -0.6704
  O  O538  1  0.342540  0.068140  0.671060  1.0  -0.5934
  O  O539  1  0.306500  0.071500  0.829580  1.0  -0.588
  O  O540  1  0.348750  0.007810  0.683400  1.0  -0.655
  O  O541  1  0.296890  0.158330  0.825410  1.0  -0.6197
  O  O542  1  0.278350  0.127610  0.667680  1.0  -0.5848
  O  O543  1  0.249110  0.195800  0.816630  1.0  -0.6584
  O  O544  1  0.377180  0.117420  0.821600  1.0  -0.5587
  O  O545  1  0.361520  0.152470  0.666667  1.0  -0.596
  O  O546  1  0.434970  0.136610  0.814600  1.0  -0.67
  O  O547  1  0.568140  0.157460  0.171060  1.0  -0.593
  O  O548  1  0.571500  0.193500  0.329580  1.0  -0.5901
  O  O549  1  0.507810  0.151250  0.183400  1.0  -0.6534
  O  O550  1  0.658330  0.203110  0.325410  1.0  -0.62
  O  O551  1  0.627610  0.221650  0.167680  1.0  -0.5842
  O  O552  1  0.695800  0.250890  0.316630  1.0  -0.6572
  O  O553  1  0.617420  0.122820  0.321600  1.0  -0.5576
  O  O554  1  0.652470  0.138480  0.166710  1.0  -0.5859
  O  O555  1  0.636610  0.065030  0.314600  1.0  -0.671
  O  O556  1  0.431860  0.842540  0.171060  1.0  -0.5937
  O  O557  1  0.428500  0.806500  0.329580  1.0  -0.59
  O  O558  1  0.492190  0.848750  0.183400  1.0  -0.6523
  O  O559  1  0.341670  0.796890  0.325410  1.0  -0.6217
  O  O560  1  0.372390  0.778350  0.167680  1.0  -0.5844
  O  O561  1  0.304200  0.749110  0.316630  1.0  -0.6586
  O  O562  1  0.382580  0.877180  0.321600  1.0  -0.5575
  O  O563  1  0.347530  0.861520  0.166710  1.0  -0.5865
  O  O564  1  0.363390  0.934970  0.314600  1.0  -0.6708
  O  O565  1  0.842540  0.431860  0.828940  1.0  -0.5935
  O  O566  1  0.806500  0.428500  0.670420  1.0  -0.5885
  O  O567  1  0.848750  0.492190  0.816600  1.0  -0.6541
  O  O568  1  0.796890  0.341670  0.674590  1.0  -0.6213
  O  O569  1  0.778350  0.372390  0.832320  1.0  -0.5826
  O  O570  1  0.749110  0.304200  0.683370  1.0  -0.6609
  O  O571  1  0.877180  0.382580  0.678400  1.0  -0.5586
  O  O572  1  0.861520  0.347530  0.833290  1.0  -0.5905
  O  O573  1  0.934970  0.363390  0.685400  1.0  -0.6702
  O  O574  1  0.157460  0.568140  0.828940  1.0  -0.5953
  O  O575  1  0.193500  0.571500  0.670420  1.0  -0.5893
  O  O576  1  0.151250  0.507810  0.816600  1.0  -0.6556
  O  O577  1  0.203110  0.658330  0.674590  1.0  -0.6215
  O  O578  1  0.221650  0.627610  0.832320  1.0  -0.5825
  O  O579  1  0.250890  0.695800  0.683370  1.0  -0.6612
  O  O580  1  0.122820  0.617420  0.678400  1.0  -0.5587
  O  O581  1  0.138480  0.652470  0.833290  1.0  -0.5895
  O  O582  1  0.065030  0.636610  0.685400  1.0  -0.6693
  O  O583  1  0.931860  0.657460  0.328940  1.0  -0.5908
  O  O584  1  0.928500  0.693500  0.170420  1.0  -0.591
  O  O585  1  0.992190  0.651250  0.316600  1.0  -0.6523
  O  O586  1  0.841670  0.703110  0.174590  1.0  -0.6207
  O  O587  1  0.872390  0.721650  0.332320  1.0  -0.5856
  O  O588  1  0.804200  0.750890  0.183370  1.0  -0.6597
  O  O589  1  0.882580  0.622820  0.178400  1.0  -0.557
  O  O590  1  0.847530  0.638480  0.333290  1.0  -0.587
  O  O591  1  0.863390  0.565030  0.185400  1.0  -0.6706
  O  O592  1  0.068140  0.342540  0.328940  1.0  -0.5898
  O  O593  1  0.071500  0.306500  0.170420  1.0  -0.5898
  O  O594  1  0.007810  0.348750  0.316600  1.0  -0.6547
  O  O595  1  0.158330  0.296890  0.174590  1.0  -0.6225
  O  O596  1  0.127610  0.278350  0.332320  1.0  -0.5832
  O  O597  1  0.195800  0.249110  0.183370  1.0  -0.6598
  O  O598  1  0.117420  0.377180  0.178400  1.0  -0.5572
  O  O599  1  0.152470  0.361520  0.333290  1.0  -0.5861
  O  O600  1  0.136610  0.434970  0.185400  1.0  -0.6703
