# generated using pymatgen
data_NiGe7H8C4(NO8)2
_symmetry_space_group_name_H-M   'P 1'
_cell_length_a   9.87070000
_cell_length_b   16.50870000
_cell_length_c   16.47220000
_cell_angle_alpha   90.00000000
_cell_angle_beta   90.00000000
_cell_angle_gamma   90.00000000
_symmetry_Int_Tables_number   1
_chemical_formula_structural   NiGe7H8C4(NO8)2
_chemical_formula_sum   'Ni4 Ge28 H32 C16 N8 O64'
_cell_volume   2684.18493657
_cell_formula_units_Z   4
loop_
 _symmetry_equiv_pos_site_id
 _symmetry_equiv_pos_as_xyz
  1  'x, y, z'
loop_
 _atom_site_type_symbol
 _atom_site_label
 _atom_site_symmetry_multiplicity
 _atom_site_fract_x
 _atom_site_fract_y
 _atom_site_fract_z
 _atom_site_occupancy
 _atom_site_charge
  Ni  Ni1  1  0.371160  0.552040  0.035550  1.0  0.6982
  Ni  Ni2  1  0.628840  0.447960  0.535550  1.0  0.6937
  Ni  Ni3  1  0.628840  0.052040  0.035550  1.0  0.6999
  Ni  Ni4  1  0.371160  0.947960  0.535550  1.0  0.6926
  Ge  Ge5  1  0.090540  0.474980  0.052260  1.0  1.6616
  Ge  Ge6  1  0.954520  0.572920  0.914240  1.0  1.7799
  Ge  Ge7  1  0.063770  0.663180  0.060080  1.0  1.7176
  Ge  Ge8  1  0.867590  0.348750  0.077430  1.0  1.7305
  Ge  Ge9  1  0.975650  0.441860  0.222440  1.0  1.7553
  Ge  Ge10  1  0.729580  0.505210  0.022020  1.0  1.609
  Ge  Ge11  1  0.826670  0.595440  0.163940  1.0  1.3597
  Ge  Ge12  1  0.909460  0.525020  0.552260  1.0  1.6604
  Ge  Ge13  1  0.045480  0.427080  0.414240  1.0  1.7805
  Ge  Ge14  1  0.936230  0.336820  0.560080  1.0  1.7176
  Ge  Ge15  1  0.132410  0.651250  0.577430  1.0  1.7312
  Ge  Ge16  1  0.024350  0.558140  0.722440  1.0  1.7549
  Ge  Ge17  1  0.270420  0.494790  0.522020  1.0  1.6086
  Ge  Ge18  1  0.173330  0.404560  0.663940  1.0  1.3609
  Ge  Ge19  1  0.909460  0.974980  0.052260  1.0  1.6611
  Ge  Ge20  1  0.045480  0.072920  0.914240  1.0  1.7806
  Ge  Ge21  1  0.936230  0.163180  0.060080  1.0  1.7175
  Ge  Ge22  1  0.132410  0.848750  0.077430  1.0  1.7313
  Ge  Ge23  1  0.024350  0.941860  0.222440  1.0  1.755
  Ge  Ge24  1  0.270420  0.005210  0.022020  1.0  1.6086
  Ge  Ge25  1  0.173330  0.095440  0.163940  1.0  1.3629
  Ge  Ge26  1  0.090540  0.025020  0.552260  1.0  1.6611
  Ge  Ge27  1  0.954520  0.927080  0.414240  1.0  1.7798
  Ge  Ge28  1  0.063770  0.836820  0.560080  1.0  1.7176
  Ge  Ge29  1  0.867590  0.151250  0.577430  1.0  1.7306
  Ge  Ge30  1  0.975650  0.058140  0.722440  1.0  1.7552
  Ge  Ge31  1  0.729580  0.994790  0.522020  1.0  1.6088
  Ge  Ge32  1  0.826670  0.904560  0.663940  1.0  1.3582
  H  H33  1  0.515400  0.403100  0.129200  1.0  0.1565
  H  H34  1  0.399300  0.387400  0.192300  1.0  0.148
  H  H35  1  0.387300  0.346200  0.038900  1.0  0.1266
  H  H36  1  0.262900  0.345800  0.098000  1.0  0.1064
  H  H37  1  0.412800  0.520800  0.811100  1.0  0.1276
  H  H38  1  0.512900  0.584300  0.849300  1.0  0.129
  H  H39  1  0.457100  0.429300  0.912000  1.0  0.1191
  H  H40  1  0.598400  0.459200  0.879600  1.0  0.1246
  H  H41  1  0.484600  0.596900  0.629200  1.0  0.1587
  H  H42  1  0.600700  0.612600  0.692300  1.0  0.1477
  H  H43  1  0.612700  0.653800  0.538900  1.0  0.1255
  H  H44  1  0.737100  0.654200  0.598000  1.0  0.1052
  H  H45  1  0.587200  0.479200  0.311100  1.0  0.1276
  H  H46  1  0.487100  0.415700  0.349300  1.0  0.13
  H  H47  1  0.542900  0.570700  0.412000  1.0  0.1177
  H  H48  1  0.401600  0.540800  0.379600  1.0  0.1244
  H  H49  1  0.484600  0.903100  0.129200  1.0  0.159
  H  H50  1  0.600700  0.887400  0.192300  1.0  0.1478
  H  H51  1  0.612700  0.846200  0.038900  1.0  0.126
  H  H52  1  0.737100  0.845800  0.098000  1.0  0.1067
  H  H53  1  0.587200  0.020800  0.811100  1.0  0.1278
  H  H54  1  0.487100  0.084300  0.849300  1.0  0.1297
  H  H55  1  0.542900  0.929300  0.912000  1.0  0.1187
  H  H56  1  0.401600  0.959200  0.879600  1.0  0.1248
  H  H57  1  0.515400  0.096900  0.629200  1.0  0.1565
  H  H58  1  0.399300  0.112600  0.692300  1.0  0.1481
  H  H59  1  0.387300  0.153800  0.538900  1.0  0.1259
  H  H60  1  0.262900  0.154200  0.598000  1.0  0.1051
  H  H61  1  0.412800  0.979200  0.311100  1.0  0.1272
  H  H62  1  0.512900  0.915700  0.349300  1.0  0.1299
  H  H63  1  0.457100  0.070700  0.412000  1.0  0.1182
  H  H64  1  0.598400  0.040800  0.379600  1.0  0.1251
  C  C65  1  0.421200  0.414300  0.141600  1.0  -0.2046
  C  C66  1  0.332200  0.379900  0.074100  1.0  -0.0633
  C  C67  1  0.448300  0.541900  0.861800  1.0  -0.0456
  C  C68  1  0.516700  0.475800  0.907800  1.0  0.0851
  C  C69  1  0.578800  0.585700  0.641600  1.0  -0.2067
  C  C70  1  0.667800  0.620100  0.574100  1.0  -0.0624
  C  C71  1  0.551700  0.458100  0.361800  1.0  -0.0465
  C  C72  1  0.483300  0.524200  0.407800  1.0  0.0848
  C  C73  1  0.578800  0.914300  0.141600  1.0  -0.2067
  C  C74  1  0.667800  0.879900  0.074100  1.0  -0.0618
  C  C75  1  0.551700  0.041900  0.861800  1.0  -0.0469
  C  C76  1  0.483300  0.975800  0.907800  1.0  0.0855
  C  C77  1  0.421200  0.085700  0.641600  1.0  -0.2048
  C  C78  1  0.332200  0.120100  0.574100  1.0  -0.0643
  C  C79  1  0.448300  0.958100  0.361800  1.0  -0.0445
  C  C80  1  0.516700  0.024200  0.407800  1.0  0.0847
  N  N81  1  0.402300  0.507500  0.152400  1.0  -0.344
  N  N82  1  0.334800  0.575600  0.912300  1.0  -0.3594
  N  N83  1  0.597700  0.492500  0.652400  1.0  -0.3455
  N  N84  1  0.665200  0.424400  0.412300  1.0  -0.3592
  N  N85  1  0.597700  0.007500  0.152400  1.0  -0.3444
  N  N86  1  0.665200  0.075600  0.912300  1.0  -0.3589
  N  N87  1  0.402300  0.992500  0.652400  1.0  -0.3451
  N  N88  1  0.334800  0.924400  0.412300  1.0  -0.3597
  O  O89  1  0.268600  0.441600  0.026600  1.0  -0.6191
  O  O90  1  0.167500  0.579500  0.068400  1.0  -0.9627
  O  O91  1  0.068300  0.497700  0.940200  1.0  -0.7204
  O  O92  1  0.117300  0.455700  0.162500  1.0  -0.8251
  O  O93  1  0.023400  0.371100  0.034600  1.0  -0.798
  O  O94  1  0.171400  0.746400  0.066800  1.0  -0.7958
  O  O95  1  0.972000  0.600100  0.814000  1.0  -0.8681
  O  O96  1  0.986100  0.665300  0.965000  1.0  -0.7536
  O  O97  1  0.910900  0.517700  0.073500  1.0  -0.8605
  O  O98  1  0.884700  0.531200  0.242600  1.0  -0.738
  O  O99  1  0.864300  0.368500  0.181300  1.0  -0.7587
  O  O100  1  0.943500  0.671200  0.136400  1.0  -0.7584
  O  O101  1  0.786700  0.547100  0.928100  1.0  -0.8109
  O  O102  1  0.733800  0.397700  0.029200  1.0  -0.804
  O  O103  1  0.682700  0.568300  0.104100  1.0  -0.7485
  O  O104  1  0.550600  0.505100  0.988100  1.0  -0.5923
  O  O105  1  0.731400  0.558400  0.526600  1.0  -0.6187
  O  O106  1  0.832500  0.420500  0.568400  1.0  -0.9641
  O  O107  1  0.931700  0.502300  0.440200  1.0  -0.7204
  O  O108  1  0.882700  0.544300  0.662500  1.0  -0.8246
  O  O109  1  0.976600  0.628900  0.534600  1.0  -0.7995
  O  O110  1  0.828600  0.253600  0.566800  1.0  -0.7955
  O  O111  1  0.028000  0.399900  0.314000  1.0  -0.8678
  O  O112  1  0.013900  0.334700  0.465000  1.0  -0.7531
  O  O113  1  0.089100  0.482300  0.573500  1.0  -0.8613
  O  O114  1  0.115300  0.468800  0.742600  1.0  -0.7386
  O  O115  1  0.135700  0.631500  0.681300  1.0  -0.7558
  O  O116  1  0.056500  0.328800  0.636400  1.0  -0.7579
  O  O117  1  0.213300  0.452900  0.428100  1.0  -0.8117
  O  O118  1  0.266200  0.602300  0.529200  1.0  -0.8036
  O  O119  1  0.317300  0.431700  0.604100  1.0  -0.7488
  O  O120  1  0.449400  0.494900  0.488100  1.0  -0.592
  O  O121  1  0.731400  0.941600  0.026600  1.0  -0.6185
  O  O122  1  0.832500  0.079500  0.068400  1.0  -0.9628
  O  O123  1  0.931700  0.997700  0.940200  1.0  -0.721
  O  O124  1  0.882700  0.955700  0.162500  1.0  -0.8245
  O  O125  1  0.976600  0.871100  0.034600  1.0  -0.7983
  O  O126  1  0.828600  0.246400  0.066800  1.0  -0.796
  O  O127  1  0.028000  0.100100  0.814000  1.0  -0.8681
  O  O128  1  0.013900  0.165300  0.965000  1.0  -0.7534
  O  O129  1  0.089100  0.017700  0.073500  1.0  -0.8608
  O  O130  1  0.115300  0.031200  0.242600  1.0  -0.7381
  O  O131  1  0.135700  0.868500  0.181300  1.0  -0.7567
  O  O132  1  0.056500  0.171200  0.136400  1.0  -0.7579
  O  O133  1  0.213300  0.047100  0.928100  1.0  -0.8112
  O  O134  1  0.266200  0.897700  0.029200  1.0  -0.8035
  O  O135  1  0.317300  0.068300  0.104100  1.0  -0.7476
  O  O136  1  0.449400  0.005100  0.988100  1.0  -0.5927
  O  O137  1  0.268600  0.058400  0.526600  1.0  -0.6192
  O  O138  1  0.167500  0.920500  0.568400  1.0  -0.964
  O  O139  1  0.068300  0.002300  0.440200  1.0  -0.7202
  O  O140  1  0.117300  0.044300  0.662500  1.0  -0.8252
  O  O141  1  0.023400  0.128900  0.534600  1.0  -0.8
  O  O142  1  0.171400  0.753600  0.566800  1.0  -0.7953
  O  O143  1  0.972000  0.899900  0.314000  1.0  -0.8679
  O  O144  1  0.986100  0.834700  0.465000  1.0  -0.7537
  O  O145  1  0.910900  0.982300  0.573500  1.0  -0.861
  O  O146  1  0.884700  0.968800  0.742600  1.0  -0.7385
  O  O147  1  0.864300  0.131500  0.681300  1.0  -0.7576
  O  O148  1  0.943500  0.828800  0.636400  1.0  -0.7584
  O  O149  1  0.786700  0.952900  0.428100  1.0  -0.8117
  O  O150  1  0.733800  0.102300  0.529200  1.0  -0.8041
  O  O151  1  0.682700  0.931700  0.604100  1.0  -0.7494
  O  O152  1  0.550600  0.994900  0.488100  1.0  -0.5916
