# generated using pymatgen
data_Cd5H60(C9O2)12
_symmetry_space_group_name_H-M   'P 1'
_cell_length_a   17.02000000
_cell_length_b   19.84660000
_cell_length_c   25.07200000
_cell_angle_alpha   75.55110000
_cell_angle_beta   70.15820000
_cell_angle_gamma   64.60930000
_symmetry_Int_Tables_number   1
_chemical_formula_structural   Cd5H60(C9O2)12
_chemical_formula_sum   'Cd10 H120 C216 O48'
_cell_volume   7142.69277932
_cell_formula_units_Z   2
loop_
 _symmetry_equiv_pos_site_id
 _symmetry_equiv_pos_as_xyz
  1  'x, y, z'
loop_
 _atom_site_type_symbol
 _atom_site_label
 _atom_site_symmetry_multiplicity
 _atom_site_fract_x
 _atom_site_fract_y
 _atom_site_fract_z
 _atom_site_occupancy
 _atom_site_charge
  Cd  Cd1  1  0.436600  0.177210  0.547930  1.0  1.0391
  Cd  Cd2  1  0.340400  0.334750  0.629530  1.0  0.984
  Cd  Cd3  1  0.161740  0.322790  0.952070  1.0  1.0399
  Cd  Cd4  1  0.304680  0.165250  0.870470  1.0  0.9831
  Cd  Cd5  1  0.563400  0.822790  0.452070  1.0  1.0391
  Cd  Cd6  1  0.659600  0.665250  0.370470  1.0  0.9827
  Cd  Cd7  1  0.838260  0.677210  0.047930  1.0  1.0403
  Cd  Cd8  1  0.695320  0.834750  0.129530  1.0  0.9854
  Cd  Cd9  1  0.500000  0.000000  0.500000  1.0  1.1289
  Cd  Cd10  1  0.000000  0.500000  0.000000  1.0  1.1289
  H  H11  1  0.957400  0.120200  0.467200  1.0  0.1199
  H  H12  1  0.115200  0.135200  0.306800  1.0  0.1128
  H  H13  1  0.846800  0.249500  0.340900  1.0  0.098
  H  H14  1  0.835900  0.215600  0.517800  1.0  0.1241
  H  H15  1  0.694600  0.245100  0.583700  1.0  0.116
  H  H16  1  0.588700  0.239400  0.465000  1.0  0.1047
  H  H17  1  0.727400  0.209900  0.400900  1.0  0.1118
  H  H18  1  0.183400  0.994000  0.352600  1.0  0.1227
  H  H19  1  0.314100  0.920300  0.380100  1.0  0.1067
  H  H20  1  0.246600  0.055200  0.495200  1.0  0.1048
  H  H21  1  0.110400  0.128500  0.472700  1.0  0.1376
  H  H22  1  0.095300  0.141100  0.217100  1.0  0.1286
  H  H23  1  0.122400  0.199700  0.124900  1.0  0.106
  H  H24  1  0.925100  0.392300  0.173500  1.0  0.1095
  H  H25  1  0.900200  0.335800  0.267200  1.0  0.1103
  H  H26  1  0.172900  0.687600  0.845400  1.0  0.1164
  H  H27  1  0.329900  0.761700  0.706100  1.0  0.1045
  H  H28  1  0.154100  0.899400  0.821800  1.0  0.1129
  H  H29  1  0.005500  0.915300  0.873500  1.0  0.129
  H  H30  1  0.884900  0.930700  0.954900  1.0  0.116
  H  H31  1  0.010500  0.718900  0.020100  1.0  0.1099
  H  H32  1  0.129200  0.703900  0.938500  1.0  0.1182
  H  H33  1  0.264400  0.576800  0.823400  1.0  0.1094
  H  H34  1  0.295200  0.467800  0.788800  1.0  0.1267
  H  H35  1  0.354600  0.568600  0.629000  1.0  0.113
  H  H36  1  0.324100  0.677000  0.662800  1.0  0.1214
  H  H37  1  0.269700  0.949600  0.786800  1.0  0.1141
  H  H38  1  0.320400  0.041900  0.731300  1.0  0.1217
  H  H39  1  0.332200  0.972500  0.591300  1.0  0.1044
  H  H40  1  0.288600  0.876800  0.646000  1.0  0.1269
  H  H41  1  0.544800  0.379800  0.032800  1.0  0.12
  H  H42  1  0.557200  0.364800  0.193200  1.0  0.1133
  H  H43  1  0.437200  0.250500  0.159100  1.0  0.0979
  H  H44  1  0.569300  0.284400  0.982200  1.0  0.124
  H  H45  1  0.523400  0.254900  0.916300  1.0  0.1167
  H  H46  1  0.293100  0.260600  0.035000  1.0  0.1066
  H  H47  1  0.338200  0.290100  0.099100  1.0  0.1105
  H  H48  1  0.530000  0.506000  0.147400  1.0  0.1222
  H  H49  1  0.614500  0.579700  0.119900  1.0  0.1072
  H  H50  1  0.797000  0.444800  0.004800  1.0  0.1053
  H  H51  1  0.711600  0.371500  0.027300  1.0  0.1367
  H  H52  1  0.453500  0.358900  0.282900  1.0  0.128
  H  H53  1  0.447000  0.300300  0.375100  1.0  0.1071
  H  H54  1  0.490900  0.107700  0.326500  1.0  0.1089
  H  H55  1  0.503200  0.164200  0.232800  1.0  0.1134
  H  H56  1  0.705900  0.812400  0.654600  1.0  0.1144
  H  H57  1  0.797700  0.738300  0.793900  1.0  0.1066
  H  H58  1  0.875300  0.600600  0.678200  1.0  0.1125
  H  H59  1  0.794300  0.584700  0.626500  1.0  0.1268
  H  H60  1  0.770500  0.569300  0.545100  1.0  0.1155
  H  H61  1  0.749500  0.781100  0.479900  1.0  0.109
  H  H62  1  0.771600  0.796100  0.561500  1.0  0.1178
  H  H63  1  0.664600  0.923200  0.676600  1.0  0.1099
  H  H64  1  0.551800  0.032200  0.711200  1.0  0.1267
  H  H65  1  0.552200  0.931400  0.871000  1.0  0.1125
  H  H66  1  0.663900  0.823000  0.837200  1.0  0.1221
  H  H67  1  0.006100  0.550400  0.713200  1.0  0.1132
  H  H68  1  0.093600  0.458100  0.768700  1.0  0.1215
  H  H69  1  0.896000  0.527500  0.908700  1.0  0.104
  H  H70  1  0.811400  0.623200  0.854000  1.0  0.1276
  H  H71  1  0.042600  0.879800  0.532800  1.0  0.1194
  H  H72  1  0.884800  0.864800  0.693200  1.0  0.1126
  H  H73  1  0.153200  0.750500  0.659100  1.0  0.0981
  H  H74  1  0.164100  0.784400  0.482200  1.0  0.1233
  H  H75  1  0.305400  0.754900  0.416300  1.0  0.1153
  H  H76  1  0.411300  0.760600  0.535000  1.0  0.1048
  H  H77  1  0.272600  0.790100  0.599100  1.0  0.1112
  H  H78  1  0.816600  0.006000  0.647400  1.0  0.1217
  H  H79  1  0.685900  0.079700  0.619900  1.0  0.1073
  H  H80  1  0.753400  0.944800  0.504800  1.0  0.1046
  H  H81  1  0.889600  0.871500  0.527300  1.0  0.1374
  H  H82  1  0.904700  0.858900  0.782900  1.0  0.1286
  H  H83  1  0.877600  0.800300  0.875100  1.0  0.1062
  H  H84  1  0.074900  0.607700  0.826500  1.0  0.109
  H  H85  1  0.099800  0.664200  0.732800  1.0  0.1103
  H  H86  1  0.827100  0.312400  0.154600  1.0  0.1163
  H  H87  1  0.670100  0.238300  0.293900  1.0  0.1049
  H  H88  1  0.845900  0.100600  0.178200  1.0  0.1121
  H  H89  1  0.994500  0.084700  0.126500  1.0  0.128
  H  H90  1  0.115100  0.069300  0.045100  1.0  0.1156
  H  H91  1  0.989500  0.281100  0.979900  1.0  0.11
  H  H92  1  0.870800  0.296100  0.061500  1.0  0.1176
  H  H93  1  0.735600  0.423200  0.176600  1.0  0.1095
  H  H94  1  0.704800  0.532200  0.211200  1.0  0.127
  H  H95  1  0.645400  0.431400  0.371000  1.0  0.1131
  H  H96  1  0.675900  0.323000  0.337200  1.0  0.1219
  H  H97  1  0.730300  0.050400  0.213200  1.0  0.1138
  H  H98  1  0.679600  0.958100  0.268700  1.0  0.1212
  H  H99  1  0.667800  0.027500  0.408700  1.0  0.1038
  H  H100  1  0.711400  0.123200  0.354000  1.0  0.1271
  H  H101  1  0.455200  0.620200  0.967200  1.0  0.1212
  H  H102  1  0.442800  0.635200  0.806800  1.0  0.114
  H  H103  1  0.562800  0.749500  0.840900  1.0  0.0978
  H  H104  1  0.430700  0.715600  0.017800  1.0  0.1247
  H  H105  1  0.476600  0.745100  0.083700  1.0  0.1169
  H  H106  1  0.706900  0.739400  0.965000  1.0  0.1081
  H  H107  1  0.661800  0.709900  0.900900  1.0  0.1108
  H  H108  1  0.470000  0.494000  0.852600  1.0  0.1221
  H  H109  1  0.385500  0.420300  0.880100  1.0  0.1071
  H  H110  1  0.203000  0.555200  0.995200  1.0  0.1052
  H  H111  1  0.288400  0.628500  0.972700  1.0  0.1373
  H  H112  1  0.546500  0.641100  0.717100  1.0  0.1283
  H  H113  1  0.553000  0.699700  0.624900  1.0  0.1076
  H  H114  1  0.509100  0.892300  0.673500  1.0  0.1095
  H  H115  1  0.496800  0.835800  0.767200  1.0  0.1118
  H  H116  1  0.294100  0.187600  0.345400  1.0  0.115
  H  H117  1  0.202300  0.261700  0.206100  1.0  0.1065
  H  H118  1  0.124700  0.399400  0.321800  1.0  0.1138
  H  H119  1  0.205700  0.415300  0.373500  1.0  0.1279
  H  H120  1  0.229500  0.430700  0.454900  1.0  0.1167
  H  H121  1  0.250500  0.218900  0.520100  1.0  0.1098
  H  H122  1  0.228400  0.203900  0.438500  1.0  0.1174
  H  H123  1  0.335400  0.076800  0.323400  1.0  0.1099
  H  H124  1  0.448200  0.967800  0.288800  1.0  0.1265
  H  H125  1  0.447800  0.068600  0.129000  1.0  0.1126
  H  H126  1  0.336100  0.177000  0.162800  1.0  0.1214
  H  H127  1  0.993900  0.449600  0.286800  1.0  0.1134
  H  H128  1  0.906400  0.541900  0.231300  1.0  0.1226
  H  H129  1  0.104000  0.472500  0.091300  1.0  0.1039
  H  H130  1  0.188600  0.376800  0.146000  1.0  0.1272
  C  C131  1  0.888200  0.187300  0.410700  1.0  0.0128
  C  C132  1  0.963700  0.139200  0.428800  1.0  -0.0643
  C  C133  1  0.051000  0.118000  0.390200  1.0  0.0332
  C  C134  1  0.058600  0.148300  0.332900  1.0  -0.0673
  C  C135  1  0.983700  0.197700  0.313900  1.0  -0.0186
  C  C136  1  0.897600  0.216900  0.353300  1.0  -0.0702
  C  C137  1  0.797800  0.207000  0.452400  1.0  0.0753
  C  C138  1  0.786500  0.219700  0.507300  1.0  -0.1119
  C  C139  1  0.701200  0.238700  0.546700  1.0  -0.0328
  C  C140  1  0.625900  0.247600  0.530000  1.0  -0.1187
  C  C141  1  0.637800  0.235300  0.475900  1.0  -0.0334
  C  C142  1  0.721500  0.216500  0.437700  1.0  -0.1207
  C  C143  1  0.131700  0.069500  0.409500  1.0  0.0574
  C  C144  1  0.194900  0.006700  0.381700  1.0  -0.1139
  C  C145  1  0.274400  0.963200  0.397400  1.0  -0.0376
  C  C146  1  0.295000  0.983000  0.438000  1.0  -0.1355
  C  C147  1  0.233400  0.043400  0.466400  1.0  0.002
  C  C148  1  0.151400  0.087700  0.453100  1.0  -0.139
  C  C149  1  0.995200  0.233300  0.253300  1.0  0.0411
  C  C150  1  0.061900  0.192000  0.209000  1.0  -0.148
  C  C151  1  0.077400  0.227300  0.153500  1.0  -0.0074
  C  C152  1  0.028600  0.301400  0.139600  1.0  -0.1421
  C  C153  1  0.960400  0.342200  0.182400  1.0  -0.0456
  C  C154  1  0.945100  0.307800  0.238800  1.0  -0.0709
  C  C155  1  0.535600  0.270500  0.572300  1.0  0.71
  C  C156  1  0.385000  0.941400  0.451800  1.0  0.6713
  C  C157  1  0.048000  0.338500  0.078100  1.0  0.6741
  C  C158  1  0.153000  0.794800  0.843800  1.0  0.0227
  C  C159  1  0.191200  0.726300  0.823500  1.0  -0.0973
  C  C160  1  0.256500  0.712300  0.771300  1.0  0.0065
  C  C161  1  0.285400  0.770000  0.740400  1.0  -0.0936
  C  C162  1  0.248800  0.839900  0.759900  1.0  -0.0092
  C  C163  1  0.181600  0.851800  0.810000  1.0  -0.0828
  C  C164  1  0.079100  0.807600  0.898200  1.0  0.0417
  C  C165  1  0.005900  0.876000  0.902800  1.0  -0.0997
  C  C166  1  0.933700  0.885000  0.951400  1.0  -0.0261
  C  C167  1  0.934610  0.825180  0.995000  1.0  -0.1069
  C  C168  1  0.008700  0.758200  0.990400  1.0  -0.0592
  C  C169  1  0.080090  0.749420  0.941800  1.0  -0.1212
  C  C170  1  0.289500  0.638500  0.749100  1.0  0.066
  C  C171  1  0.282400  0.575700  0.784100  1.0  -0.1021
  C  C172  1  0.300800  0.509800  0.763800  1.0  -0.0875
  C  C173  1  0.328200  0.508500  0.704100  1.0  -0.1283
  C  C174  1  0.336200  0.570300  0.668300  1.0  -0.0128
  C  C175  1  0.318100  0.635300  0.688300  1.0  -0.1513
  C  C176  1  0.276300  0.902400  0.724000  1.0  0.0752
  C  C177  1  0.284200  0.952800  0.747200  1.0  -0.1028
  C  C178  1  0.313200  0.009100  0.714100  1.0  -0.049
  C  C179  1  0.331600  0.017000  0.654400  1.0  -0.1628
  C  C180  1  0.321100  0.967300  0.630700  1.0  -0.0082
  C  C181  1  0.294600  0.910200  0.663200  1.0  -0.1568
  C  C182  1  0.851000  0.832800  0.043800  1.0  0.695
  C  C183  1  0.342200  0.439100  0.680500  1.0  0.6496
  C  C184  1  0.363700  0.075700  0.618900  1.0  0.7109
  C  C185  1  0.486200  0.312700  0.089300  1.0  0.0112
  C  C186  1  0.531700  0.360800  0.071200  1.0  -0.0647
  C  C187  1  0.559200  0.382000  0.109800  1.0  0.0342
  C  C188  1  0.539800  0.351700  0.167100  1.0  -0.0675
  C  C189  1  0.495300  0.302300  0.186100  1.0  -0.0171
  C  C190  1  0.467800  0.283100  0.146700  1.0  -0.0722
  C  C191  1  0.457200  0.293000  0.047600  1.0  0.075
  C  C192  1  0.513500  0.280300  0.992700  1.0  -0.1118
  C  C193  1  0.486600  0.261300  0.953300  1.0  -0.042
  C  C194  1  0.403500  0.252400  0.970000  1.0  -0.1242
  C  C195  1  0.349000  0.264700  0.024100  1.0  -0.0376
  C  C196  1  0.375700  0.283500  0.062300  1.0  -0.1185
  C  C197  1  0.610700  0.430500  0.090500  1.0  0.0558
  C  C198  1  0.583300  0.493300  0.118300  1.0  -0.1135
  C  C199  1  0.635000  0.536800  0.102600  1.0  -0.0376
  C  C200  1  0.716000  0.517000  0.062000  1.0  -0.1343
  C  C201  1  0.743200  0.456600  0.033600  1.0  0.0036
  C  C202  1  0.692200  0.412300  0.046900  1.0  -0.1333
  C  C203  1  0.481800  0.266700  0.246700  1.0  0.041
  C  C204  1  0.462900  0.308000  0.291000  1.0  -0.1469
  C  C205  1  0.458200  0.272700  0.346500  1.0  -0.0079
  C  C206  1  0.469600  0.198600  0.360400  1.0  -0.139
  C  C207  1  0.485000  0.157800  0.317600  1.0  -0.0457
  C  C208  1  0.491700  0.192200  0.261200  1.0  -0.0736
  C  C209  1  0.378400  0.229500  0.927700  1.0  0.7151
  C  C210  1  0.778200  0.558600  0.048200  1.0  0.6704
  C  C211  1  0.464600  0.161500  0.421900  1.0  0.6736
  C  C212  1  0.791600  0.705200  0.656200  1.0  0.0225
  C  C213  1  0.741000  0.773700  0.676500  1.0  -0.0988
  C  C214  1  0.740100  0.787700  0.728700  1.0  0.0066
  C  C215  1  0.795800  0.730000  0.759600  1.0  -0.0926
  C  C216  1  0.848600  0.660100  0.740100  1.0  -0.0105
  C  C217  1  0.843400  0.648200  0.690000  1.0  -0.0878
  C  C218  1  0.784900  0.692400  0.601800  1.0  0.0436
  C  C219  1  0.784700  0.624000  0.597200  1.0  -0.1035
  C  C220  1  0.770100  0.615000  0.548600  1.0  -0.0292
  C  C221  1  0.754790  0.674820  0.505000  1.0  -0.1127
  C  C222  1  0.757300  0.741800  0.509600  1.0  -0.0583
  C  C223  1  0.771310  0.750580  0.558200  1.0  -0.1177
  C  C224  1  0.677100  0.861500  0.750900  1.0  0.0677
  C  C225  1  0.642200  0.924300  0.715900  1.0  -0.0984
  C  C226  1  0.574400  0.990200  0.736200  1.0  -0.0853
  C  C227  1  0.540800  0.991500  0.795900  1.0  -0.1292
  C  C228  1  0.574800  0.929700  0.831700  1.0  -0.0156
  C  C229  1  0.641700  0.864700  0.811700  1.0  -0.1483
  C  C230  1  0.902700  0.597600  0.776000  1.0  0.0739
  C  C231  1  0.984200  0.547200  0.752800  1.0  -0.1015
  C  C232  1  0.036400  0.490900  0.785900  1.0  -0.0491
  C  C233  1  0.003000  0.483000  0.845600  1.0  -0.1624
  C  C234  1  0.919100  0.532700  0.869300  1.0  -0.008
  C  C235  1  0.868000  0.589800  0.836800  1.0  -0.1523
  C  C236  1  0.727600  0.667200  0.456200  1.0  0.6995
  C  C237  1  0.461800  0.060900  0.819500  1.0  0.6514
  C  C238  1  0.058300  0.424300  0.881100  1.0  0.7097
  C  C239  1  0.111800  0.812700  0.589300  1.0  0.0125
  C  C240  1  0.036300  0.860800  0.571200  1.0  -0.0647
  C  C241  1  0.949000  0.882000  0.609800  1.0  0.0346
  C  C242  1  0.941400  0.851700  0.667100  1.0  -0.0672
  C  C243  1  0.016300  0.802300  0.686100  1.0  -0.0183
  C  C244  1  0.102400  0.783100  0.646700  1.0  -0.0694
  C  C245  1  0.202200  0.793000  0.547600  1.0  0.0735
  C  C246  1  0.213500  0.780300  0.492700  1.0  -0.1112
  C  C247  1  0.298800  0.761300  0.453300  1.0  -0.0341
  C  C248  1  0.374100  0.752400  0.470000  1.0  -0.1202
  C  C249  1  0.362200  0.764700  0.524100  1.0  -0.0338
  C  C250  1  0.278500  0.783500  0.562300  1.0  -0.1203
  C  C251  1  0.868300  0.930500  0.590500  1.0  0.0579
  C  C252  1  0.805100  0.993300  0.618300  1.0  -0.1138
  C  C253  1  0.725600  0.036800  0.602600  1.0  -0.0379
  C  C254  1  0.705000  0.017000  0.562000  1.0  -0.1341
  C  C255  1  0.766600  0.956600  0.533600  1.0  0.0013
  C  C256  1  0.848600  0.912300  0.546900  1.0  -0.1376
  C  C257  1  0.004800  0.766700  0.746700  1.0  0.0409
  C  C258  1  0.938100  0.808000  0.791000  1.0  -0.1487
  C  C259  1  0.922600  0.772700  0.846500  1.0  -0.0061
  C  C260  1  0.971400  0.698600  0.860400  1.0  -0.1427
  C  C261  1  0.039600  0.657800  0.817600  1.0  -0.0455
  C  C262  1  0.054900  0.692200  0.761200  1.0  -0.0715
  C  C263  1  0.464400  0.729500  0.427700  1.0  0.7107
  C  C264  1  0.615000  0.058600  0.548200  1.0  0.671
  C  C265  1  0.952000  0.661500  0.921900  1.0  0.6731
  C  C266  1  0.847000  0.205200  0.156200  1.0  0.0221
  C  C267  1  0.808800  0.273700  0.176500  1.0  -0.0976
  C  C268  1  0.743500  0.287700  0.228700  1.0  0.0053
  C  C269  1  0.714600  0.230000  0.259600  1.0  -0.0931
  C  C270  1  0.751200  0.160100  0.240100  1.0  -0.0093
  C  C271  1  0.818400  0.148200  0.190000  1.0  -0.0867
  C  C272  1  0.920900  0.192400  0.101800  1.0  0.0407
  C  C273  1  0.994100  0.124000  0.097200  1.0  -0.1016
  C  C274  1  0.066300  0.115000  0.048600  1.0  -0.0307
  C  C275  1  0.065390  0.174820  0.005000  1.0  -0.1076
  C  C276  1  0.991300  0.241800  0.009600  1.0  -0.0572
  C  C277  1  0.919910  0.250580  0.058200  1.0  -0.1185
  C  C278  1  0.710500  0.361500  0.250900  1.0  0.0674
  C  C279  1  0.717600  0.424300  0.215900  1.0  -0.0986
  C  C280  1  0.699200  0.490200  0.236200  1.0  -0.0867
  C  C281  1  0.671800  0.491500  0.295900  1.0  -0.1293
  C  C282  1  0.663800  0.429700  0.331700  1.0  -0.0119
  C  C283  1  0.681900  0.364700  0.311700  1.0  -0.1523
  C  C284  1  0.723700  0.097600  0.276000  1.0  0.0759
  C  C285  1  0.715800  0.047200  0.252800  1.0  -0.1035
  C  C286  1  0.686800  0.990900  0.285900  1.0  -0.0497
  C  C287  1  0.668400  0.983000  0.345600  1.0  -0.164
  C  C288  1  0.678900  0.032700  0.369300  1.0  -0.0103
  C  C289  1  0.705400  0.089800  0.336800  1.0  -0.1553
  C  C290  1  0.149000  0.167200  0.956200  1.0  0.6955
  C  C291  1  0.657800  0.560900  0.319500  1.0  0.6507
  C  C292  1  0.636300  0.924300  0.381100  1.0  0.7114
  C  C293  1  0.513800  0.687300  0.910700  1.0  0.0097
  C  C294  1  0.468300  0.639200  0.928800  1.0  -0.0649
  C  C295  1  0.440800  0.618000  0.890200  1.0  0.0338
  C  C296  1  0.460200  0.648300  0.832900  1.0  -0.0672
  C  C297  1  0.504700  0.697700  0.813900  1.0  -0.0164
  C  C298  1  0.532200  0.716900  0.853300  1.0  -0.0729
  C  C299  1  0.542800  0.707000  0.952400  1.0  0.0739
  C  C300  1  0.486500  0.719700  0.007300  1.0  -0.114
  C  C301  1  0.513400  0.738700  0.046700  1.0  -0.0427
  C  C302  1  0.596500  0.747600  0.030000  1.0  -0.1231
  C  C303  1  0.651000  0.735300  0.975900  1.0  -0.0372
  C  C304  1  0.624300  0.716500  0.937700  1.0  -0.121
  C  C305  1  0.389300  0.569500  0.909500  1.0  0.057
  C  C306  1  0.416700  0.506700  0.881700  1.0  -0.1114
  C  C307  1  0.365000  0.463200  0.897400  1.0  -0.039
  C  C308  1  0.284000  0.483000  0.938000  1.0  -0.1346
  C  C309  1  0.256800  0.543400  0.966400  1.0  0.0029
  C  C310  1  0.307800  0.587700  0.953100  1.0  -0.1373
  C  C311  1  0.518200  0.733300  0.753300  1.0  0.041
  C  C312  1  0.537100  0.692000  0.709000  1.0  -0.1479
  C  C313  1  0.541800  0.727300  0.653500  1.0  -0.0064
  C  C314  1  0.530400  0.801400  0.639600  1.0  -0.1396
  C  C315  1  0.515000  0.842200  0.682400  1.0  -0.045
  C  C316  1  0.508300  0.807800  0.738800  1.0  -0.0728
  C  C317  1  0.621600  0.770500  0.072300  1.0  0.7131
  C  C318  1  0.221800  0.441400  0.951800  1.0  0.6703
  C  C319  1  0.535400  0.838500  0.578100  1.0  0.674
  C  C320  1  0.208400  0.294800  0.343800  1.0  0.0199
  C  C321  1  0.259000  0.226300  0.323500  1.0  -0.0975
  C  C322  1  0.259900  0.212300  0.271300  1.0  0.0075
  C  C323  1  0.204200  0.270000  0.240400  1.0  -0.0932
  C  C324  1  0.151400  0.339900  0.259900  1.0  -0.0092
  C  C325  1  0.156600  0.351800  0.310000  1.0  -0.0853
  C  C326  1  0.215100  0.307600  0.398200  1.0  0.0437
  C  C327  1  0.215300  0.376000  0.402800  1.0  -0.101
  C  C328  1  0.229900  0.385000  0.451400  1.0  -0.0259
  C  C329  1  0.245210  0.325180  0.495000  1.0  -0.1125
  C  C330  1  0.242700  0.258200  0.490400  1.0  -0.0595
  C  C331  1  0.228690  0.249420  0.441800  1.0  -0.1181
  C  C332  1  0.322900  0.138500  0.249100  1.0  0.0679
  C  C333  1  0.357800  0.075700  0.284100  1.0  -0.1002
  C  C334  1  0.425600  0.009800  0.263800  1.0  -0.0864
  C  C335  1  0.459200  0.008500  0.204100  1.0  -0.1277
  C  C336  1  0.425200  0.070300  0.168300  1.0  -0.0134
  C  C337  1  0.358300  0.135300  0.188300  1.0  -0.1473
  C  C338  1  0.097300  0.402400  0.224000  1.0  0.0762
  C  C339  1  0.015800  0.452800  0.247200  1.0  -0.1021
  C  C340  1  0.963600  0.509100  0.214100  1.0  -0.0503
  C  C341  1  0.997000  0.517000  0.154400  1.0  -0.1599
  C  C342  1  0.080900  0.467300  0.130700  1.0  -0.0079
  C  C343  1  0.132000  0.410200  0.163200  1.0  -0.153
  C  C344  1  0.272400  0.332800  0.543800  1.0  0.6999
  C  C345  1  0.538200  0.939100  0.180500  1.0  0.6499
  C  C346  1  0.941700  0.575700  0.118900  1.0  0.7097
  O  O347  1  0.467790  0.278420  0.558000  1.0  -0.6895
  O  O348  1  0.526500  0.283900  0.619700  1.0  -0.5192
  O  O349  1  0.440940  0.887520  0.422800  1.0  -0.5838
  O  O350  1  0.400520  0.960360  0.490600  1.0  -0.6464
  O  O351  1  0.117490  0.299530  0.044890  1.0  -0.5784
  O  O352  1  0.992510  0.403100  0.067480  1.0  -0.6366
  O  O353  1  0.786410  0.894080  0.051300  1.0  -0.6104
  O  O354  1  0.849950  0.771560  0.077740  1.0  -0.6879
  O  O355  1  0.354000  0.376300  0.712900  1.0  -0.6219
  O  O356  1  0.341700  0.448400  0.629400  1.0  -0.5248
  O  O357  1  0.366000  0.124100  0.641300  1.0  -0.6634
  O  O358  1  0.387390  0.078730  0.564290  1.0  -0.6974
  O  O359  1  0.304210  0.221580  0.942000  1.0  -0.687
  O  O360  1  0.430100  0.216100  0.880300  1.0  -0.5148
  O  O361  1  0.751260  0.612480  0.077200  1.0  -0.5838
  O  O362  1  0.851480  0.539640  0.009400  1.0  -0.6446
  O  O363  1  0.461910  0.200470  0.455110  1.0  -0.5778
  O  O364  1  0.463090  0.096900  0.432520  1.0  -0.6372
  O  O365  1  0.731790  0.605920  0.448700  1.0  -0.6114
  O  O366  1  0.699250  0.728440  0.422260  1.0  -0.6885
  O  O367  1  0.443200  0.123700  0.787100  1.0  -0.6222
  O  O368  1  0.419500  0.051600  0.870600  1.0  -0.5319
  O  O369  1  0.131400  0.375900  0.858700  1.0  -0.6567
  O  O370  1  0.030410  0.421270  0.935710  1.0  -0.6979
  O  O371  1  0.532210  0.721580  0.442000  1.0  -0.6885
  O  O372  1  0.473500  0.716100  0.380300  1.0  -0.5214
  O  O373  1  0.559060  0.112480  0.577200  1.0  -0.5842
  O  O374  1  0.599480  0.039640  0.509400  1.0  -0.6461
  O  O375  1  0.882510  0.700470  0.955110  1.0  -0.5788
  O  O376  1  0.007490  0.596900  0.932520  1.0  -0.6372
  O  O377  1  0.213590  0.105920  0.948700  1.0  -0.605
  O  O378  1  0.150050  0.228440  0.922260  1.0  -0.686
  O  O379  1  0.646000  0.623700  0.287100  1.0  -0.6214
  O  O380  1  0.658300  0.551600  0.370600  1.0  -0.5219
  O  O381  1  0.634000  0.875900  0.358700  1.0  -0.6627
  O  O382  1  0.612610  0.921270  0.435710  1.0  -0.6974
  O  O383  1  0.695790  0.778420  0.058000  1.0  -0.6876
  O  O384  1  0.569900  0.783900  0.119700  1.0  -0.5163
  O  O385  1  0.248740  0.387520  0.922800  1.0  -0.5831
  O  O386  1  0.148520  0.460360  0.990600  1.0  -0.6444
  O  O387  1  0.538090  0.799530  0.544890  1.0  -0.5779
  O  O388  1  0.536910  0.903100  0.567480  1.0  -0.6375
  O  O389  1  0.268210  0.394080  0.551300  1.0  -0.6109
  O  O390  1  0.300750  0.271560  0.577740  1.0  -0.6879
  O  O391  1  0.556800  0.876300  0.212900  1.0  -0.6209
  O  O392  1  0.580500  0.948400  0.129400  1.0  -0.5305
  O  O393  1  0.868600  0.624100  0.141300  1.0  -0.654
  O  O394  1  0.969590  0.578730  0.064290  1.0  -0.6966
