# generated using pymatgen
data_Cu4C5N5Cl
_symmetry_space_group_name_H-M   'P 1'
_cell_length_a   12.05760000
_cell_length_b   17.80730000
_cell_length_c   9.78550000
_cell_angle_alpha   90.00000000
_cell_angle_beta   95.30600000
_cell_angle_gamma   90.00000000
_symmetry_Int_Tables_number   1
_chemical_formula_structural   Cu4C5N5Cl
_chemical_formula_sum   'Cu16 C20 N20 Cl4'
_cell_volume   2092.07392828
_cell_formula_units_Z   4
loop_
 _symmetry_equiv_pos_site_id
 _symmetry_equiv_pos_as_xyz
  1  'x, y, z'
loop_
 _atom_site_type_symbol
 _atom_site_label
 _atom_site_symmetry_multiplicity
 _atom_site_fract_x
 _atom_site_fract_y
 _atom_site_fract_z
 _atom_site_occupancy
 _atom_site_charge
  Cu  Cu1  1  0.003290  0.625100  0.623450  1.0  0.4182
  Cu  Cu2  1  0.394690  0.652850  0.831650  1.0  0.5054
  Cu  Cu3  1  0.503290  0.125100  0.623450  1.0  0.4182
  Cu  Cu4  1  0.894690  0.152850  0.831650  1.0  0.5054
  Cu  Cu5  1  0.996710  0.625100  0.876550  1.0  0.4175
  Cu  Cu6  1  0.605310  0.652850  0.668350  1.0  0.5062
  Cu  Cu7  1  0.496710  0.125100  0.876550  1.0  0.4175
  Cu  Cu8  1  0.105310  0.152850  0.668350  1.0  0.5062
  Cu  Cu9  1  0.996710  0.374900  0.376550  1.0  0.4177
  Cu  Cu10  1  0.605310  0.347150  0.168350  1.0  0.5071
  Cu  Cu11  1  0.496710  0.874900  0.376550  1.0  0.4177
  Cu  Cu12  1  0.105310  0.847150  0.168350  1.0  0.5071
  Cu  Cu13  1  0.003290  0.374900  0.123450  1.0  0.4185
  Cu  Cu14  1  0.394690  0.347150  0.331650  1.0  0.5057
  Cu  Cu15  1  0.503290  0.874900  0.123450  1.0  0.4185
  Cu  Cu16  1  0.894690  0.847150  0.331650  1.0  0.5057
  C  C17  1  0.954800  0.768510  0.444700  1.0  0.0613
  C  C18  1  0.001690  0.470770  0.473600  1.0  0.1098
  C  C19  1  0.145060  0.631470  0.754030  1.0  0.035
  C  C20  1  0.454800  0.268510  0.444700  1.0  0.0613
  C  C21  1  0.501690  0.970770  0.473600  1.0  0.1098
  C  C22  1  0.645060  0.131470  0.754030  1.0  0.035
  C  C23  1  0.045200  0.768510  0.055300  1.0  0.0604
  C  C24  1  0.998310  0.470770  0.026400  1.0  0.1098
  C  C25  1  0.854940  0.631470  0.745970  1.0  0.0331
  C  C26  1  0.545200  0.268510  0.055300  1.0  0.0604
  C  C27  1  0.498310  0.970770  0.026400  1.0  0.1098
  C  C28  1  0.354940  0.131470  0.745970  1.0  0.0331
  C  C29  1  0.045200  0.231490  0.555300  1.0  0.0607
  C  C30  1  0.854940  0.368530  0.245970  1.0  0.0332
  C  C31  1  0.545200  0.731490  0.555300  1.0  0.0607
  C  C32  1  0.354940  0.868530  0.245970  1.0  0.0332
  C  C33  1  0.954800  0.231490  0.944700  1.0  0.0618
  C  C34  1  0.145060  0.368530  0.254030  1.0  0.0352
  C  C35  1  0.454800  0.731490  0.944700  1.0  0.0618
  C  C36  1  0.645060  0.868530  0.254030  1.0  0.0352
  N  N37  1  0.978890  0.717310  0.512450  1.0  -0.3259
  N  N38  1  0.998310  0.529230  0.526400  1.0  -0.3502
  N  N39  1  0.238820  0.635160  0.774640  1.0  -0.3597
  N  N40  1  0.478890  0.217310  0.512450  1.0  -0.3259
  N  N41  1  0.498310  0.029230  0.526400  1.0  -0.3502
  N  N42  1  0.738820  0.135160  0.774640  1.0  -0.3597
  N  N43  1  0.021110  0.717310  0.987550  1.0  -0.3264
  N  N44  1  0.001690  0.529230  0.973600  1.0  -0.3504
  N  N45  1  0.761180  0.635160  0.725360  1.0  -0.3593
  N  N46  1  0.521110  0.217310  0.987550  1.0  -0.3264
  N  N47  1  0.501690  0.029230  0.973600  1.0  -0.3504
  N  N48  1  0.261180  0.135160  0.725360  1.0  -0.3593
  N  N49  1  0.021110  0.282690  0.487550  1.0  -0.3303
  N  N50  1  0.761180  0.364840  0.225360  1.0  -0.3595
  N  N51  1  0.521110  0.782690  0.487550  1.0  -0.3303
  N  N52  1  0.261180  0.864840  0.225360  1.0  -0.3595
  N  N53  1  0.978890  0.282690  0.012450  1.0  -0.33
  N  N54  1  0.238820  0.364840  0.274640  1.0  -0.36
  N  N55  1  0.478890  0.782690  0.012450  1.0  -0.33
  N  N56  1  0.738820  0.864840  0.274640  1.0  -0.36
  Cl  Cl57  1  0.500000  0.556480  0.750000  1.0  -0.4223
  Cl  Cl58  1  0.000000  0.056480  0.750000  1.0  -0.4223
  Cl  Cl59  1  0.500000  0.443520  0.250000  1.0  -0.4226
  Cl  Cl60  1  0.000000  0.943520  0.250000  1.0  -0.4226
