# generated using pymatgen
data_AlCo(PO4)2
_symmetry_space_group_name_H-M   'P 1'
_cell_length_a   8.90240000
_cell_length_b   14.27960000
_cell_length_c   15.06370000
_cell_angle_alpha   90.00000000
_cell_angle_beta   95.06800000
_cell_angle_gamma   90.00000000
_symmetry_Int_Tables_number   1
_chemical_formula_structural   AlCo(PO4)2
_chemical_formula_sum   'Al8 Co8 P16 O64'
_cell_volume   1907.45204176
_cell_formula_units_Z   8
loop_
 _symmetry_equiv_pos_site_id
 _symmetry_equiv_pos_as_xyz
  1  'x, y, z'
loop_
 _atom_site_type_symbol
 _atom_site_label
 _atom_site_symmetry_multiplicity
 _atom_site_fract_x
 _atom_site_fract_y
 _atom_site_fract_z
 _atom_site_occupancy
 _atom_site_charge
  Al  Al1  1  0.822570  0.058860  0.243230  1.0  1.9022
  Al  Al2  1  0.619170  0.939800  0.909320  1.0  2.0524
  Al  Al3  1  0.177430  0.558860  0.256770  1.0  1.901
  Al  Al4  1  0.380830  0.439800  0.590680  1.0  2.0511
  Al  Al5  1  0.177430  0.941140  0.756770  1.0  1.9009
  Al  Al6  1  0.380830  0.060200  0.090680  1.0  2.0513
  Al  Al7  1  0.822570  0.441140  0.743230  1.0  1.9025
  Al  Al8  1  0.619170  0.560200  0.409320  1.0  2.0525
  Co  Co9  1  0.639580  0.070440  0.614680  1.0  1.0011
  Co  Co10  1  0.425980  0.213850  0.335840  1.0  0.9995
  Co  Co11  1  0.360420  0.570440  0.885320  1.0  0.9994
  Co  Co12  1  0.574020  0.713850  0.164160  1.0  1.0001
  Co  Co13  1  0.360420  0.929560  0.385320  1.0  1.0007
  Co  Co14  1  0.574020  0.786150  0.664160  1.0  1.001
  Co  Co15  1  0.639580  0.429560  0.114680  1.0  0.9971
  Co  Co16  1  0.425980  0.286150  0.835840  1.0  1.0001
  P  P17  1  0.600910  0.218340  0.162170  1.0  2.1726
  P  P18  1  0.640940  0.055390  0.412930  1.0  2.0841
  P  P19  1  0.649510  0.919490  0.111250  1.0  2.0818
  P  P20  1  0.187940  0.066280  0.254150  1.0  2.1489
  P  P21  1  0.399090  0.718340  0.337830  1.0  2.1727
  P  P22  1  0.359060  0.555390  0.087070  1.0  2.078
  P  P23  1  0.350490  0.419490  0.388750  1.0  2.0795
  P  P24  1  0.812060  0.566280  0.245850  1.0  2.1565
  P  P25  1  0.399090  0.781660  0.837830  1.0  2.1728
  P  P26  1  0.359060  0.944610  0.587070  1.0  2.0764
  P  P27  1  0.350490  0.080510  0.888750  1.0  2.0794
  P  P28  1  0.812060  0.933720  0.745850  1.0  2.1565
  P  P29  1  0.600910  0.281660  0.662170  1.0  2.1732
  P  P30  1  0.640940  0.444610  0.912930  1.0  2.0826
  P  P31  1  0.649510  0.580510  0.611250  1.0  2.0813
  P  P32  1  0.187940  0.433720  0.754150  1.0  2.149
  O  O33  1  0.700600  0.945300  0.020010  1.0  -0.8437
  O  O34  1  0.699700  0.038700  0.509590  1.0  -0.8678
  O  O35  1  0.496900  0.962800  0.121600  1.0  -0.9681
  O  O36  1  0.230600  0.063800  0.159480  1.0  -0.9559
  O  O37  1  0.765700  0.952300  0.183600  1.0  -0.822
  O  O38  1  0.235200  0.975400  0.301160  1.0  -0.939
  O  O39  1  0.775300  0.064800  0.359300  1.0  -0.8055
  O  O40  1  0.546400  0.144900  0.408800  1.0  -0.907
  O  O41  1  0.635800  0.813520  0.114900  1.0  -0.9152
  O  O42  1  0.544900  0.973500  0.377300  1.0  -0.9211
  O  O43  1  0.645100  0.307740  0.117500  1.0  -0.9248
  O  O44  1  0.530400  0.244300  0.246600  1.0  -0.9762
  O  O45  1  0.742000  0.161700  0.182200  1.0  -0.836
  O  O46  1  0.489300  0.165200  0.100400  1.0  -0.9487
  O  O47  1  0.021600  0.079800  0.252000  1.0  -0.8724
  O  O48  1  0.266400  0.147700  0.302900  1.0  -0.9379
  O  O49  1  0.299400  0.445300  0.479990  1.0  -0.8451
  O  O50  1  0.300300  0.538700  0.990410  1.0  -0.8663
  O  O51  1  0.503100  0.462800  0.378400  1.0  -0.9687
  O  O52  1  0.769400  0.563800  0.340520  1.0  -0.9541
  O  O53  1  0.234300  0.452300  0.316400  1.0  -0.8223
  O  O54  1  0.764800  0.475400  0.198840  1.0  -0.9373
  O  O55  1  0.224700  0.564800  0.140700  1.0  -0.8059
  O  O56  1  0.453600  0.644900  0.091200  1.0  -0.9053
  O  O57  1  0.364200  0.313520  0.385100  1.0  -0.9143
  O  O58  1  0.455100  0.473500  0.122700  1.0  -0.9209
  O  O59  1  0.354900  0.807740  0.382500  1.0  -0.9277
  O  O60  1  0.469600  0.744300  0.253400  1.0  -0.9761
  O  O61  1  0.258000  0.661700  0.317800  1.0  -0.8369
  O  O62  1  0.510700  0.665200  0.399600  1.0  -0.9494
  O  O63  1  0.978400  0.579800  0.248000  1.0  -0.8756
  O  O64  1  0.733600  0.647700  0.197100  1.0  -0.9349
  O  O65  1  0.299400  0.054700  0.979990  1.0  -0.8451
  O  O66  1  0.300300  0.961300  0.490410  1.0  -0.8667
  O  O67  1  0.503100  0.037200  0.878400  1.0  -0.968
  O  O68  1  0.769400  0.936200  0.840520  1.0  -0.9538
  O  O69  1  0.234300  0.047700  0.816400  1.0  -0.8223
  O  O70  1  0.764800  0.024600  0.698840  1.0  -0.9385
  O  O71  1  0.224700  0.935200  0.640700  1.0  -0.8057
  O  O72  1  0.453600  0.855100  0.591200  1.0  -0.9072
  O  O73  1  0.364200  0.186480  0.885100  1.0  -0.9155
  O  O74  1  0.455100  0.026500  0.622700  1.0  -0.9224
  O  O75  1  0.354900  0.692260  0.882500  1.0  -0.9246
  O  O76  1  0.469600  0.755700  0.753400  1.0  -0.9753
  O  O77  1  0.258000  0.838300  0.817800  1.0  -0.8359
  O  O78  1  0.510700  0.834800  0.899600  1.0  -0.9501
  O  O79  1  0.978400  0.920200  0.748000  1.0  -0.8751
  O  O80  1  0.733600  0.852300  0.697100  1.0  -0.9347
  O  O81  1  0.700600  0.554700  0.520010  1.0  -0.8442
  O  O82  1  0.699700  0.461300  0.009590  1.0  -0.8676
  O  O83  1  0.496900  0.537200  0.621600  1.0  -0.9676
  O  O84  1  0.230600  0.436200  0.659480  1.0  -0.9559
  O  O85  1  0.765700  0.547700  0.683600  1.0  -0.8221
  O  O86  1  0.235200  0.524600  0.801160  1.0  -0.9382
  O  O87  1  0.775300  0.435200  0.859300  1.0  -0.8057
  O  O88  1  0.546400  0.355100  0.908800  1.0  -0.9048
  O  O89  1  0.635800  0.686480  0.614900  1.0  -0.9145
  O  O90  1  0.544900  0.526500  0.877300  1.0  -0.9221
  O  O91  1  0.645100  0.192260  0.617500  1.0  -0.9255
  O  O92  1  0.530400  0.255700  0.746600  1.0  -0.9738
  O  O93  1  0.742000  0.338300  0.682200  1.0  -0.8355
  O  O94  1  0.489300  0.334800  0.600400  1.0  -0.9497
  O  O95  1  0.021600  0.420200  0.752000  1.0  -0.8721
  O  O96  1  0.266400  0.352300  0.802900  1.0  -0.936
