# generated using pymatgen
data_Al7Zn(PO4)8
_symmetry_space_group_name_H-M   'P 1'
_cell_length_a   8.88500000
_cell_length_b   14.23100000
_cell_length_c   15.04900000
_cell_angle_alpha   90.00000000
_cell_angle_beta   94.95700000
_cell_angle_gamma   90.00000000
_symmetry_Int_Tables_number   1
_chemical_formula_structural   Al7Zn(PO4)8
_chemical_formula_sum   'Al14 Zn2 P16 O64'
_cell_volume   1895.71528304
_cell_formula_units_Z   2
loop_
 _symmetry_equiv_pos_site_id
 _symmetry_equiv_pos_as_xyz
  1  'x, y, z'
loop_
 _atom_site_type_symbol
 _atom_site_label
 _atom_site_symmetry_multiplicity
 _atom_site_fract_x
 _atom_site_fract_y
 _atom_site_fract_z
 _atom_site_occupancy
 _atom_site_charge
  Al  Al1  1  0.321240  0.940970  0.243640  1.0  1.9018
  Al  Al2  1  0.878860  0.940290  0.090080  1.0  1.9724
  Al  Al3  1  0.140670  0.570510  0.115070  1.0  1.9728
  Al  Al4  1  0.924110  0.785800  0.335710  1.0  1.9741
  Al  Al5  1  0.678760  0.440970  0.256360  1.0  1.901
  Al  Al6  1  0.121140  0.440290  0.409920  1.0  1.9742
  Al  Al7  1  0.859330  0.070510  0.384930  1.0  1.9722
  Al  Al8  1  0.075890  0.285800  0.164290  1.0  1.9743
  Al  Al9  1  0.678760  0.059030  0.756360  1.0  1.9008
  Al  Al10  1  0.121140  0.059710  0.909920  1.0  1.9744
  Al  Al11  1  0.859330  0.429490  0.884930  1.0  1.9722
  Al  Al12  1  0.321240  0.559030  0.743640  1.0  1.9015
  Al  Al13  1  0.878860  0.559710  0.590080  1.0  1.9727
  Al  Al14  1  0.140670  0.929490  0.615070  1.0  1.9733
  Zn  Zn15  1  0.924110  0.714200  0.835710  1.0  1.1229
  Zn  Zn16  1  0.075890  0.214200  0.664290  1.0  1.1246
  P  P17  1  0.099250  0.781820  0.162270  1.0  2.1119
  P  P18  1  0.149550  0.079820  0.112190  1.0  2.0162
  P  P19  1  0.140320  0.944200  0.412830  1.0  2.014
  P  P20  1  0.685610  0.933840  0.253610  1.0  2.076
  P  P21  1  0.900750  0.281820  0.337730  1.0  2.1118
  P  P22  1  0.850450  0.579820  0.387810  1.0  2.0303
  P  P23  1  0.859680  0.444200  0.087170  1.0  2.0042
  P  P24  1  0.314390  0.433840  0.246390  1.0  2.0872
  P  P25  1  0.900750  0.218180  0.837730  1.0  2.1117
  P  P26  1  0.850450  0.920180  0.887810  1.0  2.0108
  P  P27  1  0.859680  0.055800  0.587170  1.0  2.0105
  P  P28  1  0.314390  0.066160  0.746390  1.0  2.0868
  P  P29  1  0.099250  0.718180  0.662270  1.0  2.1113
  P  P30  1  0.149550  0.420180  0.612190  1.0  2.0131
  P  P31  1  0.140320  0.555800  0.912830  1.0  2.0166
  P  P32  1  0.685610  0.566160  0.753610  1.0  2.0759
  O  O33  1  0.996300  0.037900  0.122400  1.0  -1.0105
  O  O34  1  0.200300  0.960700  0.509300  1.0  -0.93
  O  O35  1  0.201300  0.053100  0.021500  1.0  -0.8934
  O  O36  1  0.265400  0.046700  0.185100  1.0  -0.9572
  O  O37  1  0.734200  0.024600  0.300900  1.0  -1.0098
  O  O38  1  0.146000  0.692700  0.117800  1.0  -0.9829
  O  O39  1  0.045700  0.855000  0.408600  1.0  -0.9934
  O  O40  1  0.726500  0.936300  0.158400  1.0  -1.0107
  O  O41  1  0.044200  0.026400  0.377600  1.0  -0.979
  O  O42  1  0.274500  0.934400  0.358700  1.0  -0.8949
  O  O43  1  0.987000  0.834500  0.099800  1.0  -1.0128
  O  O44  1  0.764700  0.852700  0.303100  1.0  -1.0209
  O  O45  1  0.519100  0.920400  0.251700  1.0  -0.9612
  O  O46  1  0.028200  0.755900  0.246100  1.0  -1.0485
  O  O47  1  0.138600  0.185900  0.115500  1.0  -0.9869
  O  O48  1  0.238900  0.839500  0.182900  1.0  -0.9238
  O  O49  1  0.003700  0.537900  0.377600  1.0  -1.012
  O  O50  1  0.799700  0.460700  0.990700  1.0  -0.929
  O  O51  1  0.798700  0.553100  0.478500  1.0  -0.8943
  O  O52  1  0.734600  0.546700  0.314900  1.0  -0.9577
  O  O53  1  0.265800  0.524600  0.199100  1.0  -1.0078
  O  O54  1  0.854000  0.192700  0.382200  1.0  -0.9847
  O  O55  1  0.954300  0.355000  0.091400  1.0  -0.9904
  O  O56  1  0.273500  0.436300  0.341600  1.0  -1.0107
  O  O57  1  0.955800  0.526400  0.122400  1.0  -0.9803
  O  O58  1  0.725500  0.434400  0.141300  1.0  -0.8961
  O  O59  1  0.013000  0.334500  0.400200  1.0  -1.0121
  O  O60  1  0.235300  0.352700  0.196900  1.0  -1.0189
  O  O61  1  0.480900  0.420400  0.248300  1.0  -0.9668
  O  O62  1  0.971800  0.255900  0.253900  1.0  -1.0495
  O  O63  1  0.861400  0.685900  0.384500  1.0  -0.9856
  O  O64  1  0.761100  0.339500  0.317100  1.0  -0.9236
  O  O65  1  0.003700  0.962100  0.877600  1.0  -1.0119
  O  O66  1  0.799700  0.039300  0.490700  1.0  -0.9288
  O  O67  1  0.798700  0.946900  0.978500  1.0  -0.8944
  O  O68  1  0.734600  0.953300  0.814900  1.0  -0.958
  O  O69  1  0.265800  0.975400  0.699100  1.0  -1.0079
  O  O70  1  0.854000  0.307300  0.882200  1.0  -0.9836
  O  O71  1  0.954300  0.145000  0.591400  1.0  -0.9926
  O  O72  1  0.273500  0.063700  0.841600  1.0  -1.0107
  O  O73  1  0.955800  0.973600  0.622400  1.0  -0.9788
  O  O74  1  0.725500  0.065600  0.641300  1.0  -0.8963
  O  O75  1  0.013000  0.165500  0.900200  1.0  -1.0113
  O  O76  1  0.235300  0.147300  0.696900  1.0  -1.0189
  O  O77  1  0.480900  0.079600  0.748300  1.0  -0.9674
  O  O78  1  0.971800  0.244100  0.753900  1.0  -1.0503
  O  O79  1  0.861400  0.814100  0.884500  1.0  -0.9863
  O  O80  1  0.761100  0.160500  0.817100  1.0  -0.9245
  O  O81  1  0.996300  0.462100  0.622400  1.0  -1.0101
  O  O82  1  0.200300  0.539300  0.009300  1.0  -0.9306
  O  O83  1  0.201300  0.446900  0.521500  1.0  -0.8934
  O  O84  1  0.265400  0.453300  0.685100  1.0  -0.9569
  O  O85  1  0.734200  0.475400  0.800900  1.0  -1.0102
  O  O86  1  0.146000  0.807300  0.617800  1.0  -0.9826
  O  O87  1  0.045700  0.645000  0.908600  1.0  -0.9918
  O  O88  1  0.726500  0.563700  0.658400  1.0  -1.0106
  O  O89  1  0.044200  0.473600  0.877600  1.0  -0.9786
  O  O90  1  0.274500  0.565600  0.858700  1.0  -0.8949
  O  O91  1  0.987000  0.665500  0.599800  1.0  -1.0117
  O  O92  1  0.764700  0.647300  0.803100  1.0  -1.0237
  O  O93  1  0.519100  0.579600  0.751700  1.0  -0.9619
  O  O94  1  0.028200  0.744100  0.746100  1.0  -1.05
  O  O95  1  0.138600  0.314100  0.615500  1.0  -0.9861
  O  O96  1  0.238900  0.660500  0.682900  1.0  -0.9238
