# generated using pymatgen
data_PrZn4H16C32(NO)16
_symmetry_space_group_name_H-M   'P 1'
_cell_length_a   10.64140000
_cell_length_b   12.38680000
_cell_length_c   18.84330000
_cell_angle_alpha   90.00000000
_cell_angle_beta   90.00000000
_cell_angle_gamma   90.00000000
_symmetry_Int_Tables_number   1
_chemical_formula_structural   PrZn4H16C32(NO)16
_chemical_formula_sum   'Pr2 Zn8 H32 C64 N32 O32'
_cell_volume   2483.78989647
_cell_formula_units_Z   2
loop_
 _symmetry_equiv_pos_site_id
 _symmetry_equiv_pos_as_xyz
  1  'x, y, z'
loop_
 _atom_site_type_symbol
 _atom_site_label
 _atom_site_symmetry_multiplicity
 _atom_site_fract_x
 _atom_site_fract_y
 _atom_site_fract_z
 _atom_site_occupancy
 _atom_site_charge
  Pr  Pr1  1  0.261700  0.500000  0.000000  1.0  2.2436
  Pr  Pr2  1  0.738300  0.000000  0.500000  1.0  2.2437
  Zn  Zn3  1  0.001940  0.662870  0.713420  1.0  0.9717
  Zn  Zn4  1  0.501390  0.875530  0.803170  1.0  0.9368
  Zn  Zn5  1  0.001940  0.337130  0.286580  1.0  0.9716
  Zn  Zn6  1  0.501390  0.124470  0.196830  1.0  0.9369
  Zn  Zn7  1  0.998060  0.837130  0.213420  1.0  0.9714
  Zn  Zn8  1  0.498610  0.624470  0.303170  1.0  0.9369
  Zn  Zn9  1  0.998060  0.162870  0.786580  1.0  0.9713
  Zn  Zn10  1  0.498610  0.375530  0.696830  1.0  0.9371
  H  H11  1  0.260100  0.823000  0.692700  1.0  0.1052
  H  H12  1  0.240500  0.213900  0.675900  1.0  0.1078
  H  H13  1  0.520200  0.949200  0.958700  1.0  0.2713
  H  H14  1  0.474200  0.140400  0.796400  1.0  0.1054
  H  H15  1  0.474800  0.254400  0.902700  1.0  0.1442
  H  H16  1  0.824400  0.512600  0.625100  1.0  0.1073
  H  H17  1  0.108500  0.336300  0.573000  1.0  0.1264
  H  H18  1  0.188700  0.477400  0.648700  1.0  0.1368
  H  H19  1  0.260100  0.177000  0.307300  1.0  0.1064
  H  H20  1  0.240500  0.786100  0.324100  1.0  0.1091
  H  H21  1  0.520200  0.050800  0.041300  1.0  0.2704
  H  H22  1  0.474200  0.859600  0.203600  1.0  0.1055
  H  H23  1  0.474800  0.745600  0.097300  1.0  0.1447
  H  H24  1  0.824400  0.487400  0.374900  1.0  0.107
  H  H25  1  0.108500  0.663700  0.427000  1.0  0.127
  H  H26  1  0.188700  0.522600  0.351300  1.0  0.1367
  H  H27  1  0.739900  0.677000  0.192700  1.0  0.1051
  H  H28  1  0.759500  0.286100  0.175900  1.0  0.1073
  H  H29  1  0.479800  0.550800  0.458700  1.0  0.2698
  H  H30  1  0.525800  0.359600  0.296400  1.0  0.1052
  H  H31  1  0.525200  0.245600  0.402700  1.0  0.1442
  H  H32  1  0.175600  0.987400  0.125100  1.0  0.1071
  H  H33  1  0.891500  0.163700  0.073000  1.0  0.1271
  H  H34  1  0.811300  0.022600  0.148700  1.0  0.1377
  H  H35  1  0.739900  0.323000  0.807300  1.0  0.1065
  H  H36  1  0.759500  0.713900  0.824100  1.0  0.1072
  H  H37  1  0.479800  0.449200  0.541300  1.0  0.2705
  H  H38  1  0.525800  0.640400  0.703600  1.0  0.1052
  H  H39  1  0.525200  0.754400  0.597300  1.0  0.1447
  H  H40  1  0.175600  0.012600  0.874900  1.0  0.1075
  H  H41  1  0.891500  0.836300  0.927000  1.0  0.1262
  H  H42  1  0.811300  0.977400  0.851300  1.0  0.1372
  C  C43  1  0.389300  0.721300  0.903200  1.0  0.67
  C  C44  1  0.305900  0.724700  0.839000  1.0  -0.0022
  C  C45  1  0.257200  0.784800  0.735100  1.0  0.3327
  C  C46  1  0.197200  0.676200  0.818100  1.0  0.0148
  C  C47  1  0.103700  0.604700  0.851200  1.0  0.6899
  C  C48  1  0.117500  0.307600  0.887000  1.0  0.7298
  C  C49  1  0.197900  0.304700  0.823500  1.0  0.0021
  C  C50  1  0.245000  0.250500  0.718900  1.0  0.3042
  C  C51  1  0.309500  0.353500  0.803100  1.0  -0.0195
  C  C52  1  0.404900  0.424300  0.838700  1.0  0.6995
  C  C53  1  0.508800  0.010900  0.931300  1.0  0.1418
  C  C54  1  0.484000  0.114800  0.842500  1.0  0.0965
  C  C55  1  0.484000  0.179700  0.901400  1.0  -0.0124
  C  C56  1  0.905000  0.485000  0.620900  1.0  0.2823
  C  C57  1  0.059000  0.390000  0.593000  1.0  0.085
  C  C58  1  0.105000  0.468500  0.635300  1.0  -0.0137
  C  C59  1  0.389300  0.278700  0.096800  1.0  0.67
  C  C60  1  0.305900  0.275300  0.161000  1.0  -0.0028
  C  C61  1  0.257200  0.215200  0.264900  1.0  0.3331
  C  C62  1  0.197200  0.323800  0.181900  1.0  0.0151
  C  C63  1  0.103700  0.395300  0.148800  1.0  0.6884
  C  C64  1  0.117500  0.692400  0.113000  1.0  0.7306
  C  C65  1  0.197900  0.695300  0.176500  1.0  0.0026
  C  C66  1  0.245000  0.749500  0.281100  1.0  0.3044
  C  C67  1  0.309500  0.646500  0.196900  1.0  -0.0204
  C  C68  1  0.404900  0.575700  0.161300  1.0  0.6968
  C  C69  1  0.508800  0.989100  0.068700  1.0  0.1404
  C  C70  1  0.484000  0.885200  0.157500  1.0  0.097
  C  C71  1  0.484000  0.820300  0.098600  1.0  -0.0118
  C  C72  1  0.905000  0.515000  0.379100  1.0  0.2824
  C  C73  1  0.059000  0.610000  0.407000  1.0  0.0853
  C  C74  1  0.105000  0.531500  0.364700  1.0  -0.0151
  C  C75  1  0.610700  0.778700  0.403200  1.0  0.6689
  C  C76  1  0.694100  0.775300  0.339000  1.0  -0.0022
  C  C77  1  0.742800  0.715200  0.235100  1.0  0.3316
  C  C78  1  0.802800  0.823800  0.318100  1.0  0.0153
  C  C79  1  0.896300  0.895300  0.351200  1.0  0.6892
  C  C80  1  0.882500  0.192400  0.387000  1.0  0.7313
  C  C81  1  0.802100  0.195300  0.323500  1.0  0.0027
  C  C82  1  0.755000  0.249500  0.218900  1.0  0.3047
  C  C83  1  0.690500  0.146500  0.303100  1.0  -0.02
  C  C84  1  0.595100  0.075700  0.338700  1.0  0.6978
  C  C85  1  0.491200  0.489100  0.431300  1.0  0.1415
  C  C86  1  0.516000  0.385200  0.342500  1.0  0.0963
  C  C87  1  0.516000  0.320300  0.401400  1.0  -0.0115
  C  C88  1  0.095000  0.015000  0.120900  1.0  0.2836
  C  C89  1  0.941000  0.110000  0.093000  1.0  0.0855
  C  C90  1  0.895000  0.031500  0.135300  1.0  -0.0149
  C  C91  1  0.610700  0.221300  0.596800  1.0  0.6698
  C  C92  1  0.694100  0.224700  0.661000  1.0  -0.0032
  C  C93  1  0.742800  0.284800  0.764900  1.0  0.3323
  C  C94  1  0.802800  0.176200  0.681900  1.0  0.0157
  C  C95  1  0.896300  0.104700  0.648800  1.0  0.6896
  C  C96  1  0.882500  0.807600  0.613000  1.0  0.7301
  C  C97  1  0.802100  0.804700  0.676500  1.0  0.0032
  C  C98  1  0.755000  0.750500  0.781100  1.0  0.3049
  C  C99  1  0.690500  0.853500  0.696900  1.0  -0.0194
  C  C100  1  0.595100  0.924300  0.661300  1.0  0.7002
  C  C101  1  0.491200  0.510900  0.568700  1.0  0.1395
  C  C102  1  0.516000  0.614800  0.657500  1.0  0.0971
  C  C103  1  0.516000  0.679700  0.598600  1.0  -0.0121
  C  C104  1  0.095000  0.985000  0.879100  1.0  0.2833
  C  C105  1  0.941000  0.890000  0.907000  1.0  0.086
  C  C106  1  0.895000  0.968500  0.864700  1.0  -0.0155
  N  N107  1  0.342900  0.794600  0.786200  1.0  -0.4078
  N  N108  1  0.165800  0.713800  0.751300  1.0  -0.4485
  N  N109  1  0.160600  0.239900  0.769200  1.0  -0.3179
  N  N110  1  0.337900  0.318600  0.735100  1.0  -0.4163
  N  N111  1  0.008300  0.530900  0.654200  1.0  -0.4047
  N  N112  1  0.498200  0.011600  0.858800  1.0  -0.3737
  N  N113  1  0.500400  0.112300  0.957700  1.0  -0.2671
  N  N114  1  0.932000  0.397000  0.582100  1.0  -0.4087
  N  N115  1  0.342900  0.205400  0.213800  1.0  -0.4065
  N  N116  1  0.165800  0.286200  0.248700  1.0  -0.4485
  N  N117  1  0.160600  0.760100  0.230800  1.0  -0.3184
  N  N118  1  0.337900  0.681400  0.264900  1.0  -0.4181
  N  N119  1  0.008300  0.469100  0.345800  1.0  -0.4052
  N  N120  1  0.498200  0.988400  0.141200  1.0  -0.3727
  N  N121  1  0.500400  0.887700  0.042300  1.0  -0.2659
  N  N122  1  0.932000  0.603000  0.417900  1.0  -0.4103
  N  N123  1  0.657100  0.705400  0.286200  1.0  -0.4078
  N  N124  1  0.834200  0.786200  0.251300  1.0  -0.4468
  N  N125  1  0.839400  0.260100  0.269200  1.0  -0.3179
  N  N126  1  0.662100  0.181400  0.235100  1.0  -0.4175
  N  N127  1  0.991700  0.969100  0.154200  1.0  -0.4052
  N  N128  1  0.501800  0.488400  0.358800  1.0  -0.3734
  N  N129  1  0.499600  0.387700  0.457700  1.0  -0.2666
  N  N130  1  0.068000  0.103000  0.082100  1.0  -0.4091
  N  N131  1  0.657100  0.294600  0.713800  1.0  -0.4085
  N  N132  1  0.834200  0.213800  0.748700  1.0  -0.4474
  N  N133  1  0.839400  0.739900  0.730800  1.0  -0.3168
  N  N134  1  0.662100  0.818600  0.764900  1.0  -0.417
  N  N135  1  0.991700  0.030900  0.845800  1.0  -0.4046
  N  N136  1  0.501800  0.511600  0.641200  1.0  -0.3722
  N  N137  1  0.499600  0.612300  0.542300  1.0  -0.267
  N  N138  1  0.068000  0.897000  0.917900  1.0  -0.4082
  O  O139  1  0.362700  0.665600  0.954900  1.0  -0.7086
  O  O140  1  0.489500  0.777700  0.899300  1.0  -0.5651
  O  O141  1  0.118300  0.568200  0.911800  1.0  -0.6675
  O  O142  1  0.005900  0.583400  0.814700  1.0  -0.5738
  O  O143  1  0.009500  0.264500  0.879700  1.0  -0.6048
  O  O144  1  0.151700  0.349200  0.943600  1.0  -0.696
  O  O145  1  0.392800  0.451100  0.901400  1.0  -0.7002
  O  O146  1  0.496800  0.450700  0.800500  1.0  -0.5726
  O  O147  1  0.362700  0.334400  0.045100  1.0  -0.7091
  O  O148  1  0.489500  0.222300  0.100700  1.0  -0.5646
  O  O149  1  0.118300  0.431800  0.088200  1.0  -0.669
  O  O150  1  0.005900  0.416600  0.185300  1.0  -0.5735
  O  O151  1  0.009500  0.735500  0.120300  1.0  -0.6045
  O  O152  1  0.151700  0.650800  0.056400  1.0  -0.6974
  O  O153  1  0.392800  0.548900  0.098600  1.0  -0.6988
  O  O154  1  0.496800  0.549300  0.199500  1.0  -0.5719
  O  O155  1  0.637300  0.834400  0.454900  1.0  -0.7091
  O  O156  1  0.510500  0.722300  0.399300  1.0  -0.5654
  O  O157  1  0.881700  0.931800  0.411800  1.0  -0.6684
  O  O158  1  0.994100  0.916600  0.314700  1.0  -0.5748
  O  O159  1  0.990500  0.235500  0.379700  1.0  -0.6064
  O  O160  1  0.848300  0.150800  0.443600  1.0  -0.6961
  O  O161  1  0.607200  0.048900  0.401400  1.0  -0.6995
  O  O162  1  0.503200  0.049300  0.300500  1.0  -0.573
  O  O163  1  0.637300  0.165600  0.545100  1.0  -0.7095
  O  O164  1  0.510500  0.277700  0.600700  1.0  -0.5652
  O  O165  1  0.881700  0.068200  0.588200  1.0  -0.6684
  O  O166  1  0.994100  0.083400  0.685300  1.0  -0.5742
  O  O167  1  0.990500  0.764500  0.620300  1.0  -0.6046
  O  O168  1  0.848300  0.849200  0.556400  1.0  -0.696
  O  O169  1  0.607200  0.951100  0.598600  1.0  -0.7011
  O  O170  1  0.503200  0.950700  0.699500  1.0  -0.5731
