# generated using pymatgen
data_CdH18C30N2(Cl2O)2
_symmetry_space_group_name_H-M   'P 1'
_cell_length_a   10.23430000
_cell_length_b   19.11800000
_cell_length_c   20.92870000
_cell_angle_alpha   67.55300000
_cell_angle_beta   86.75300000
_cell_angle_gamma   83.63000000
_symmetry_Int_Tables_number   1
_chemical_formula_structural   CdH18C30N2(Cl2O)2
_chemical_formula_sum   'Cd3 H54 C90 N6 Cl12 O6'
_cell_volume   3760.81815263
_cell_formula_units_Z   3
loop_
 _symmetry_equiv_pos_site_id
 _symmetry_equiv_pos_as_xyz
  1  'x, y, z'
loop_
 _atom_site_type_symbol
 _atom_site_label
 _atom_site_symmetry_multiplicity
 _atom_site_fract_x
 _atom_site_fract_y
 _atom_site_fract_z
 _atom_site_occupancy
 _atom_site_charge
  Cd  Cd1  1  0.990750  0.164580  0.094150  1.0  0.7728
  Cd  Cd2  1  0.720890  0.099360  0.008320  1.0  0.7819
  Cd  Cd3  1  0.355360  0.127750  0.052730  1.0  0.7446
  H  H4  1  0.454800  0.234600  0.123400  1.0  0.1374
  H  H5  1  0.515600  0.228800  0.230300  1.0  0.1056
  H  H6  1  0.529200  0.999800  0.307700  1.0  0.1429
  H  H7  1  0.455500  0.010900  0.200500  1.0  0.0869
  H  H8  1  0.758700  0.031300  0.319600  1.0  0.1206
  H  H9  1  0.964000  0.973800  0.494100  1.0  0.1094
  H  H10  1  0.812300  0.039600  0.538700  1.0  0.1309
  H  H11  1  0.408100  0.200300  0.343000  1.0  0.1121
  H  H12  1  0.651400  0.261800  0.450500  1.0  0.122
  H  H13  1  0.682500  0.374300  0.456000  1.0  0.1274
  H  H14  1  0.677200  0.279000  0.666300  1.0  0.1206
  H  H15  1  0.588100  0.030400  0.717500  1.0  0.1099
  H  H16  1  0.527700  0.069000  0.908800  1.0  0.0983
  H  H17  1  0.487000  0.081800  0.795700  1.0  0.1242
  H  H18  1  0.828100  0.176800  0.736800  1.0  0.1151
  H  H19  1  0.858200  0.163000  0.849700  1.0  0.0971
  H  H20  1  0.240600  0.238400  0.903300  1.0  0.1123
  H  H21  1  0.189400  0.238400  0.798200  1.0  0.1355
  H  H22  1  0.225100  0.007900  0.879500  1.0  0.1277
  H  H23  1  0.282700  0.016600  0.982100  1.0  0.0974
  H  H24  1  0.029500  0.025300  0.838800  1.0  0.1014
  H  H25  1  0.866800  0.968200  0.699400  1.0  0.1183
  H  H26  1  0.979600  0.047400  0.614000  1.0  0.1042
  H  H27  1  0.319000  0.199900  0.713000  1.0  0.1216
  H  H28  1  0.045700  0.275300  0.559900  1.0  0.1322
  H  H29  1  0.972900  0.386600  0.480500  1.0  0.1032
  H  H30  1  0.986900  0.296400  0.333333  1.0  0.0987
  H  H31  1  0.177500  0.051000  0.440900  1.0  0.1246
  H  H32  1  0.201000  0.108200  0.215100  1.0  0.1019
  H  H33  1  0.246600  0.110100  0.323000  1.0  0.1127
  H  H34  1  0.870100  0.201100  0.331100  1.0  0.1277
  H  H35  1  0.836400  0.196800  0.224500  1.0  0.0891
  H  H36  1  0.710800  0.253700  0.043200  1.0  0.0907
  H  H37  1  0.564100  0.358100  0.033900  1.0  0.1365
  H  H38  1  0.856100  0.435400  0.112000  1.0  0.1388
  H  H39  1  0.983400  0.326100  0.118000  1.0  0.0924
  H  H40  1  0.630100  0.472200  0.160500  1.0  0.1242
  H  H41  1  0.639000  0.473100  0.940800  1.0  0.1186
  H  H42  1  0.373400  0.647100  0.834800  1.0  0.1335
  H  H43  1  0.326900  0.674000  0.934300  1.0  0.1211
  H  H44  1  0.014500  0.033300  0.003300  1.0  0.0853
  H  H45  1  0.156300  0.929000  0.024400  1.0  0.1333
  H  H46  1  0.866000  0.810800  0.032000  1.0  0.1611
  H  H47  1  0.721400  0.924500  0.013700  1.0  0.0838
  H  H48  1  0.274400  0.853600  0.995200  1.0  0.1267
  H  H49  1  0.222700  0.537900  0.111400  1.0  0.1231
  H  H50  1  0.010800  0.512700  0.156400  1.0  0.1164
  H  H51  1  0.905100  0.738800  0.097800  1.0  0.1414
  H  H52  1  0.451520  0.250980  0.473840  1.0  0.1889
  H  H53  1  0.461320  0.995270  0.610040  1.0  0.2553
  H  H54  1  0.321550  0.282200  0.587780  1.0  0.1753
  H  H55  1  0.312530  0.040100  0.597760  1.0  0.1958
  H  H56  1  0.553110  0.585880  0.197970  1.0  0.2596
  H  H57  1  0.503890  0.804600  0.003570  1.0  0.2149
  C  C58  1  0.466500  0.187300  0.161300  1.0  0.1457
  C  C59  1  0.503500  0.182900  0.224800  1.0  -0.127
  C  C60  1  0.524500  0.113900  0.282200  1.0  0.1342
  C  C61  1  0.510900  0.048400  0.272100  1.0  -0.2212
  C  C62  1  0.468900  0.056100  0.207000  1.0  0.1723
  C  C63  1  0.554600  0.114300  0.350000  1.0  -0.0063
  C  C64  1  0.671100  0.075000  0.389200  1.0  -0.0344
  C  C65  1  0.767200  0.032700  0.364000  1.0  -0.1125
  C  C66  1  0.870200  0.994800  0.403000  1.0  0.0474
  C  C67  1  0.888000  0.999600  0.468400  1.0  -0.0179
  C  C68  1  0.800700  0.038900  0.494200  1.0  -0.1158
  C  C69  1  0.688600  0.080400  0.453600  1.0  0.0233
  C  C70  1  0.591300  0.119700  0.482900  1.0  -0.0139
  C  C71  1  0.485300  0.168200  0.438300  1.0  0.3113
  C  C72  1  0.473000  0.166100  0.373200  1.0  -0.1214
  C  C73  1  0.609200  0.126800  0.551000  1.0  0.0034
  C  C74  1  0.640900  0.199400  0.553700  1.0  -0.0535
  C  C75  1  0.655700  0.265000  0.494500  1.0  -0.0873
  C  C76  1  0.675200  0.330400  0.497000  1.0  -0.1572
  C  C77  1  0.685200  0.333000  0.563300  1.0  -0.0058
  C  C78  1  0.672000  0.273200  0.623400  1.0  -0.0605
  C  C79  1  0.650500  0.201800  0.622100  1.0  0.0127
  C  C80  1  0.631500  0.137900  0.680900  1.0  0.0584
  C  C81  1  0.602900  0.072800  0.676300  1.0  -0.1246
  C  C82  1  0.593900  0.065700  0.608100  1.0  0.332
  C  C83  1  0.588600  0.092000  0.872900  1.0  0.1593
  C  C84  1  0.563900  0.099600  0.805200  1.0  -0.2002
  C  C85  1  0.652300  0.133300  0.751800  1.0  0.0794
  C  C86  1  0.763200  0.155300  0.770900  1.0  -0.1895
  C  C87  1  0.781400  0.146600  0.838500  1.0  0.1718
  C  C88  1  0.241300  0.191300  0.897700  1.0  0.146
  C  C89  1  0.208400  0.191500  0.835900  1.0  -0.1942
  C  C90  1  0.202500  0.124300  0.827400  1.0  0.0753
  C  C91  1  0.229800  0.055800  0.882800  1.0  -0.1865
  C  C92  1  0.264500  0.062300  0.943000  1.0  0.1752
  C  C93  1  0.184000  0.124200  0.755400  1.0  -0.0748
  C  C94  1  0.099500  0.081400  0.740600  1.0  -0.0319
  C  C95  1  0.020700  0.031200  0.792100  1.0  -0.0782
  C  C96  1  0.933500  0.991200  0.777300  1.0  -0.0136
  C  C97  1  0.925000  0.997900  0.709800  1.0  -0.0566
  C  C98  1  0.992500  0.043700  0.659800  1.0  -0.1131
  C  C99  1  0.083000  0.087300  0.670200  1.0  0.1135
  C  C100  1  0.152600  0.132400  0.619500  1.0  0.0129
  C  C101  1  0.245600  0.181500  0.631700  1.0  0.1615
  C  C102  1  0.258000  0.172300  0.702100  1.0  -0.1269
  C  C103  1  0.134600  0.146000  0.545300  1.0  0.003
  C  C104  1  0.075000  0.218900  0.493300  1.0  -0.053
  C  C105  1  0.038500  0.280700  0.513100  1.0  -0.131
  C  C106  1  0.995000  0.344300  0.467400  1.0  -0.0748
  C  C107  1  0.980000  0.353800  0.395000  1.0  -0.0652
  C  C108  1  0.005800  0.292200  0.378600  1.0  -0.0517
  C  C109  1  0.060600  0.221100  0.426400  1.0  0.051
  C  C110  1  0.091900  0.159000  0.406800  1.0  -0.0404
  C  C111  1  0.153100  0.093400  0.453700  1.0  -0.118
  C  C112  1  0.180600  0.088500  0.521900  1.0  0.1871
  C  C113  1  0.134800  0.128800  0.238400  1.0  0.1722
  C  C114  1  0.162700  0.130100  0.303200  1.0  -0.1596
  C  C115  1  0.067500  0.160600  0.338100  1.0  0.0835
  C  C116  1  0.940700  0.183700  0.307700  1.0  -0.1844
  C  C117  1  0.921200  0.180700  0.244200  1.0  0.1753
  C  C118  1  0.738700  0.292400  0.055700  1.0  0.1724
  C  C119  1  0.650800  0.353700  0.049900  1.0  -0.1341
  C  C120  1  0.698000  0.413900  0.070100  1.0  0.0368
  C  C121  1  0.822800  0.400400  0.096300  1.0  -0.1561
  C  C122  1  0.898000  0.335100  0.099200  1.0  0.176
  C  C123  1  0.613200  0.486100  0.059700  1.0  -0.0517
  C  C124  1  0.585600  0.502000  0.118700  1.0  -0.132
  C  C125  1  0.492900  0.561700  0.116800  1.0  0.2431
  C  C126  1  0.427800  0.605400  0.055800  1.0  -0.0125
  C  C127  1  0.455400  0.589500  0.996700  1.0  0.0485
  C  C128  1  0.548100  0.529800  0.998600  1.0  0.043
  C  C129  1  0.575700  0.513900  0.939500  1.0  -0.0556
  C  C130  1  0.511000  0.557600  0.878500  1.0  -0.0174
  C  C131  1  0.417900  0.617300  0.876500  1.0  -0.0764
  C  C132  1  0.390300  0.633200  0.935600  1.0  -0.0969
  C  C133  1  0.979000  0.986200  0.014800  1.0  0.1612
  C  C134  1  0.065000  0.922600  0.026200  1.0  -0.1293
  C  C135  1  0.036000  0.860100  0.038300  1.0  0.1574
  C  C136  1  0.899000  0.856100  0.030400  1.0  -0.1768
  C  C137  1  0.812000  0.925200  0.019900  1.0  0.1565
  C  C138  1  0.315600  0.668300  0.051100  1.0  -0.0207
  C  C139  1  0.347200  0.742900  0.020300  1.0  0.2294
  C  C140  1  0.252900  0.802600  0.016300  1.0  -0.1463
  C  C141  1  0.127000  0.787600  0.043000  1.0  -0.0251
  C  C142  1  0.095500  0.713000  0.073800  1.0  0.0586
  C  C143  1  0.189800  0.653300  0.077900  1.0  0.0429
  C  C144  1  0.158300  0.578700  0.108600  1.0  -0.1139
  C  C145  1  0.032400  0.563700  0.135400  1.0  -0.0721
  C  C146  1  0.938100  0.623400  0.131300  1.0  0.0405
  C  C147  1  0.969600  0.698000  0.100600  1.0  -0.148
  N  N148  1  0.446900  0.120000  0.154900  1.0  -0.3532
  N  N149  1  0.695000  0.116000  0.887900  1.0  -0.3487
  N  N150  1  0.274200  0.127600  0.950200  1.0  -0.3202
  N  N151  1  0.016700  0.156100  0.208800  1.0  -0.3432
  N  N152  1  0.860300  0.283800  0.077800  1.0  -0.328
  N  N153  1  0.852300  0.986900  0.018500  1.0  -0.279
  Cl  Cl154  1  0.536600  0.214500  0.980400  1.0  -0.4663
  Cl  Cl155  1  0.923300  0.180400  0.970200  1.0  -0.5286
  Cl  Cl156  1  0.833200  0.932400  0.841800  1.0  -0.0886
  Cl  Cl157  1  0.784400  0.089100  0.133200  1.0  -0.5072
  Cl  Cl158  1  0.991300  0.944200  0.372300  1.0  -0.0916
  Cl  Cl159  1  0.166800  0.044900  0.121100  1.0  -0.5006
  Cl  Cl160  1  0.701600  0.424000  0.566900  1.0  -0.1668
  Cl  Cl161  1  0.527300  0.011700  0.056900  1.0  -0.5144
  Cl  Cl162  1  0.919300  0.443300  0.335300  1.0  -0.1061
  Cl  Cl163  1  0.192400  0.246000  0.049400  1.0  -0.4823
  Cl  Cl164  1  0.573600  0.558100  0.798200  1.0  -0.1721
  Cl  Cl165  1  0.787100  0.596800  0.166900  1.0  -0.2175
  O  O166  1  0.399200  0.214300  0.455700  1.0  -0.5076
  O  O167  1  0.569000  0.999500  0.605700  1.0  -0.4607
  O  O168  1  0.320300  0.227400  0.581100  1.0  -0.49
  O  O169  1  0.242500  0.024700  0.567800  1.0  -0.5291
  O  O170  1  0.462100  0.576300  0.177300  1.0  -0.5001
  O  O171  1  0.469000  0.758600  0.990800  1.0  -0.4891
