# generated using pymatgen
data_CoH4C4(NO)4
_symmetry_space_group_name_H-M   'P 1'
_cell_length_a   9.13320000
_cell_length_b   13.83970000
_cell_length_c   9.08470000
_cell_angle_alpha   90.00000000
_cell_angle_beta   117.39200000
_cell_angle_gamma   90.00000000
_symmetry_Int_Tables_number   1
_chemical_formula_structural   CoH4C4(NO)4
_chemical_formula_sum   'Co4 H16 C16 N16 O16'
_cell_volume   1019.56361408
_cell_formula_units_Z   4
loop_
 _symmetry_equiv_pos_site_id
 _symmetry_equiv_pos_as_xyz
  1  'x, y, z'
loop_
 _atom_site_type_symbol
 _atom_site_label
 _atom_site_symmetry_multiplicity
 _atom_site_fract_x
 _atom_site_fract_y
 _atom_site_fract_z
 _atom_site_occupancy
 _atom_site_charge
  Co  Co1  1  0.277590  0.595840  0.221920  1.0  1.0933
  Co  Co2  1  0.722410  0.095840  0.278080  1.0  1.0879
  Co  Co3  1  0.722410  0.404160  0.778080  1.0  1.0878
  Co  Co4  1  0.277590  0.904160  0.721920  1.0  1.0933
  H  H5  1  0.495800  0.789500  0.334600  1.0  0.2219
  H  H6  1  0.160300  0.719200  0.460500  1.0  0.0978
  H  H7  1  0.610300  0.932900  0.496800  1.0  0.2399
  H  H8  1  0.544300  0.968800  0.613600  1.0  0.1449
  H  H9  1  0.504200  0.289500  0.165400  1.0  0.221
  H  H10  1  0.839700  0.219200  0.039500  1.0  0.0971
  H  H11  1  0.389700  0.432900  0.003200  1.0  0.237
  H  H12  1  0.455700  0.468800  0.886400  1.0  0.1474
  H  H13  1  0.504200  0.210500  0.665400  1.0  0.2215
  H  H14  1  0.839700  0.280800  0.539500  1.0  0.0975
  H  H15  1  0.389700  0.067100  0.503200  1.0  0.236
  H  H16  1  0.455700  0.031200  0.386400  1.0  0.1478
  H  H17  1  0.495800  0.710500  0.834600  1.0  0.2224
  H  H18  1  0.160300  0.780800  0.960500  1.0  0.0974
  H  H19  1  0.610300  0.567100  0.996800  1.0  0.2391
  H  H20  1  0.544300  0.531200  0.113600  1.0  0.145
  C  C21  1  0.945500  0.539900  0.009000  1.0  0.5934
  C  C22  1  0.570700  0.511400  0.476200  1.0  0.5985
  C  C23  1  0.248000  0.752200  0.453500  1.0  0.2537
  C  C24  1  0.437100  0.854200  0.495000  1.0  0.448
  C  C25  1  0.054500  0.039900  0.491000  1.0  0.5942
  C  C26  1  0.429300  0.011400  0.023800  1.0  0.5972
  C  C27  1  0.752000  0.252200  0.046500  1.0  0.2533
  C  C28  1  0.562900  0.354200  0.005000  1.0  0.4484
  C  C29  1  0.054500  0.460100  0.991000  1.0  0.5943
  C  C30  1  0.429300  0.488600  0.523800  1.0  0.5969
  C  C31  1  0.752000  0.247800  0.546500  1.0  0.253
  C  C32  1  0.562900  0.145800  0.505000  1.0  0.4486
  C  C33  1  0.945500  0.960100  0.509000  1.0  0.5942
  C  C34  1  0.570700  0.988600  0.976200  1.0  0.5985
  C  C35  1  0.248000  0.747800  0.953500  1.0  0.2533
  C  C36  1  0.437100  0.645800  0.995000  1.0  0.4482
  N  N37  1  0.313100  0.723600  0.357900  1.0  -0.3057
  N  N38  1  0.432000  0.789400  0.383500  1.0  -0.1068
  N  N39  1  0.317300  0.832100  0.539400  1.0  -0.4445
  N  N40  1  0.542000  0.926600  0.540000  1.0  -0.582
  N  N41  1  0.686900  0.223600  0.142100  1.0  -0.3053
  N  N42  1  0.568000  0.289400  0.116500  1.0  -0.1048
  N  N43  1  0.682700  0.332100  0.960600  1.0  -0.4448
  N  N44  1  0.458000  0.426600  0.960000  1.0  -0.5787
  N  N45  1  0.686900  0.276400  0.642100  1.0  -0.3054
  N  N46  1  0.568000  0.210600  0.616500  1.0  -0.1058
  N  N47  1  0.682700  0.167900  0.460600  1.0  -0.4456
  N  N48  1  0.458000  0.073400  0.460000  1.0  -0.5798
  N  N49  1  0.313100  0.776400  0.857900  1.0  -0.3049
  N  N50  1  0.432000  0.710600  0.883500  1.0  -0.1071
  N  N51  1  0.317300  0.667900  0.039400  1.0  -0.4451
  N  N52  1  0.542000  0.573400  0.040000  1.0  -0.5846
  O  O53  1  0.020800  0.608700  0.106400  1.0  -0.5526
  O  O54  1  0.793700  0.533000  0.923700  1.0  -0.5865
  O  O55  1  0.526100  0.555500  0.340800  1.0  -0.5699
  O  O56  1  0.712000  0.484400  0.572700  1.0  -0.5399
  O  O57  1  0.979200  0.108700  0.393600  1.0  -0.5524
  O  O58  1  0.206300  0.033000  0.576300  1.0  -0.5887
  O  O59  1  0.473900  0.055500  0.159200  1.0  -0.5704
  O  O60  1  0.288000  0.984400  0.927300  1.0  -0.5407
  O  O61  1  0.979200  0.391300  0.893600  1.0  -0.5521
  O  O62  1  0.206300  0.467000  0.076300  1.0  -0.5875
  O  O63  1  0.473900  0.444500  0.659200  1.0  -0.5703
  O  O64  1  0.288000  0.515600  0.427300  1.0  -0.5405
  O  O65  1  0.020800  0.891300  0.606400  1.0  -0.5508
  O  O66  1  0.793700  0.967000  0.423700  1.0  -0.586
  O  O67  1  0.526100  0.944500  0.840800  1.0  -0.5701
  O  O68  1  0.712000  0.015600  0.072700  1.0  -0.5406
