# generated using pymatgen
data_Nd3H17C21(N2O9)2
_symmetry_space_group_name_H-M   'P 1'
_cell_length_a   12.60960000
_cell_length_b   13.00790000
_cell_length_c   22.50140000
_cell_angle_alpha   90.00000000
_cell_angle_beta   90.00000000
_cell_angle_gamma   90.00000000
_symmetry_Int_Tables_number   1
_chemical_formula_structural   Nd3H17C21(N2O9)2
_chemical_formula_sum   'Nd12 H68 C84 N16 O72'
_cell_volume   3690.77899058
_cell_formula_units_Z   4
loop_
 _symmetry_equiv_pos_site_id
 _symmetry_equiv_pos_as_xyz
  1  'x, y, z'
loop_
 _atom_site_type_symbol
 _atom_site_label
 _atom_site_symmetry_multiplicity
 _atom_site_fract_x
 _atom_site_fract_y
 _atom_site_fract_z
 _atom_site_occupancy
 _atom_site_charge
  Nd  Nd1  1  0.011420  0.839030  0.507320  1.0  2.2509
  Nd  Nd2  1  0.511420  0.660970  0.492680  1.0  2.2497
  Nd  Nd3  1  0.988580  0.160970  0.007320  1.0  2.2513
  Nd  Nd4  1  0.488580  0.339030  0.992680  1.0  2.2498
  Nd  Nd5  1  0.988580  0.160970  0.492680  1.0  2.2515
  Nd  Nd6  1  0.488580  0.339030  0.507320  1.0  2.2527
  Nd  Nd7  1  0.011420  0.839030  0.992680  1.0  2.2515
  Nd  Nd8  1  0.511420  0.660970  0.007320  1.0  2.253
  Nd  Nd9  1  0.836550  0.708160  0.250000  1.0  2.2347
  Nd  Nd10  1  0.336550  0.791840  0.750000  1.0  2.2347
  Nd  Nd11  1  0.163450  0.291840  0.750000  1.0  2.2346
  Nd  Nd12  1  0.663450  0.208160  0.250000  1.0  2.2346
  H  H13  1  0.153700  0.477400  0.610000  1.0  0.3032
  H  H14  1  0.991000  0.559000  0.660300  1.0  0.113
  H  H15  1  0.946500  0.659400  0.630600  1.0  0.119
  H  H16  1  0.930700  0.464400  0.574300  1.0  0.0618
  H  H17  1  0.875600  0.565300  0.551800  1.0  0.0689
  H  H18  1  0.758200  0.562900  0.629700  1.0  0.1101
  H  H19  1  0.757000  0.452200  0.602300  1.0  0.1117
  H  H20  1  0.820300  0.473600  0.660900  1.0  0.0882
  H  H21  1  0.653700  0.022600  0.390000  1.0  0.3041
  H  H22  1  0.491000  0.941000  0.339700  1.0  0.1126
  H  H23  1  0.446500  0.840600  0.369400  1.0  0.119
  H  H24  1  0.430700  0.035600  0.425700  1.0  0.0616
  H  H25  1  0.375600  0.934700  0.448200  1.0  0.0682
  H  H26  1  0.258200  0.937100  0.370300  1.0  0.109
  H  H27  1  0.257000  0.047800  0.397700  1.0  0.1105
  H  H28  1  0.320300  0.026400  0.339100  1.0  0.0883
  H  H29  1  0.846300  0.522600  0.110000  1.0  0.304
  H  H30  1  0.009000  0.441000  0.160300  1.0  0.1135
  H  H31  1  0.053500  0.340600  0.130600  1.0  0.1194
  H  H32  1  0.069300  0.535600  0.074300  1.0  0.0618
  H  H33  1  0.124400  0.434700  0.051800  1.0  0.0691
  H  H34  1  0.241800  0.437100  0.129700  1.0  0.1089
  H  H35  1  0.243000  0.547800  0.102300  1.0  0.1091
  H  H36  1  0.179700  0.526400  0.160900  1.0  0.0874
  H  H37  1  0.346300  0.977400  0.890000  1.0  0.3031
  H  H38  1  0.509000  0.059000  0.839700  1.0  0.1138
  H  H39  1  0.553500  0.159400  0.869400  1.0  0.1185
  H  H40  1  0.569300  0.964400  0.925700  1.0  0.0627
  H  H41  1  0.624400  0.065300  0.948200  1.0  0.0685
  H  H42  1  0.741800  0.062900  0.870300  1.0  0.1095
  H  H43  1  0.743000  0.952200  0.897700  1.0  0.1091
  H  H44  1  0.679700  0.973600  0.839100  1.0  0.0872
  H  H45  1  0.846300  0.522600  0.390000  1.0  0.3039
  H  H46  1  0.009000  0.441000  0.339700  1.0  0.1129
  H  H47  1  0.053500  0.340600  0.369400  1.0  0.1189
  H  H48  1  0.069300  0.535600  0.425700  1.0  0.0618
  H  H49  1  0.124400  0.434700  0.448200  1.0  0.0684
  H  H50  1  0.241800  0.437100  0.370300  1.0  0.1095
  H  H51  1  0.243000  0.547800  0.397700  1.0  0.1093
  H  H52  1  0.179700  0.526400  0.339100  1.0  0.0881
  H  H53  1  0.346300  0.977400  0.610000  1.0  0.3037
  H  H54  1  0.509000  0.059000  0.660300  1.0  0.1131
  H  H55  1  0.553500  0.159400  0.630600  1.0  0.1185
  H  H56  1  0.569300  0.964400  0.574300  1.0  0.062
  H  H57  1  0.624400  0.065300  0.551800  1.0  0.0691
  H  H58  1  0.741800  0.062900  0.629700  1.0  0.1085
  H  H59  1  0.743000  0.952200  0.602300  1.0  0.1097
  H  H60  1  0.679700  0.973600  0.660900  1.0  0.0875
  H  H61  1  0.153700  0.477400  0.890000  1.0  0.3031
  H  H62  1  0.991000  0.559000  0.839700  1.0  0.1131
  H  H63  1  0.946500  0.659400  0.869400  1.0  0.1188
  H  H64  1  0.930700  0.464400  0.925700  1.0  0.0625
  H  H65  1  0.875600  0.565300  0.948200  1.0  0.0681
  H  H66  1  0.758200  0.562900  0.870300  1.0  0.1091
  H  H67  1  0.757000  0.452200  0.897700  1.0  0.11
  H  H68  1  0.820300  0.473600  0.839100  1.0  0.0877
  H  H69  1  0.653700  0.022600  0.110000  1.0  0.3038
  H  H70  1  0.491000  0.941000  0.160300  1.0  0.1135
  H  H71  1  0.446500  0.840600  0.130600  1.0  0.1199
  H  H72  1  0.430700  0.035600  0.074300  1.0  0.0614
  H  H73  1  0.375600  0.934700  0.051800  1.0  0.0687
  H  H74  1  0.258200  0.937100  0.129700  1.0  0.1104
  H  H75  1  0.257000  0.047800  0.102300  1.0  0.1115
  H  H76  1  0.320300  0.026400  0.160900  1.0  0.0878
  H  H77  1  0.702500  0.474700  0.250000  1.0  -0.0305
  H  H78  1  0.202500  0.025300  0.750000  1.0  -0.0299
  H  H79  1  0.297500  0.525300  0.750000  1.0  -0.0277
  H  H80  1  0.797500  0.974700  0.250000  1.0  -0.0275
  C  C81  1  0.199000  0.653600  0.525990  1.0  0.0481
  C  C82  1  0.231800  0.560400  0.548950  1.0  -0.0684
  C  C83  1  0.077600  0.604200  0.588630  1.0  0.4391
  C  C84  1  0.241300  0.720700  0.477420  1.0  0.7272
  C  C85  1  0.318300  0.487300  0.537140  1.0  0.7011
  C  C86  1  0.976600  0.592200  0.622560  1.0  -0.2939
  C  C87  1  0.896800  0.527600  0.587100  1.0  -0.0354
  C  C88  1  0.799100  0.501700  0.623300  1.0  -0.3077
  C  C89  1  0.945200  0.829300  0.365650  1.0  0.5454
  C  C90  1  0.926200  0.718800  0.389300  1.0  0.5784
  C  C91  1  0.699000  0.846400  0.474010  1.0  0.048
  C  C92  1  0.731800  0.939600  0.451050  1.0  -0.0687
  C  C93  1  0.577600  0.895800  0.411370  1.0  0.4398
  C  C94  1  0.741300  0.779300  0.522580  1.0  0.7275
  C  C95  1  0.818300  0.012700  0.462860  1.0  0.6995
  C  C96  1  0.476600  0.907800  0.377440  1.0  -0.2915
  C  C97  1  0.396800  0.972400  0.412900  1.0  -0.0341
  C  C98  1  0.299100  0.998300  0.376700  1.0  -0.308
  C  C99  1  0.445200  0.670700  0.634350  1.0  0.5472
  C  C100  1  0.426200  0.781200  0.610700  1.0  0.5779
  C  C101  1  0.801000  0.346400  0.025990  1.0  0.0482
  C  C102  1  0.768200  0.439600  0.048950  1.0  -0.0689
  C  C103  1  0.922400  0.395800  0.088630  1.0  0.4389
  C  C104  1  0.758700  0.279300  0.977420  1.0  0.7288
  C  C105  1  0.681700  0.512700  0.037140  1.0  0.7009
  C  C106  1  0.023400  0.407800  0.122560  1.0  -0.2913
  C  C107  1  0.103200  0.472400  0.087100  1.0  -0.0339
  C  C108  1  0.200900  0.498300  0.123300  1.0  -0.3071
  C  C109  1  0.054800  0.170700  0.865650  1.0  0.5457
  C  C110  1  0.073800  0.281200  0.889300  1.0  0.5784
  C  C111  1  0.301000  0.153600  0.974010  1.0  0.0482
  C  C112  1  0.268200  0.060400  0.951050  1.0  -0.0683
  C  C113  1  0.422400  0.104200  0.911370  1.0  0.4391
  C  C114  1  0.258700  0.220700  0.022580  1.0  0.7272
  C  C115  1  0.181700  0.987300  0.962860  1.0  0.7006
  C  C116  1  0.523400  0.092200  0.877440  1.0  -0.2925
  C  C117  1  0.603200  0.027600  0.912900  1.0  -0.0337
  C  C118  1  0.700900  0.001700  0.876700  1.0  -0.3077
  C  C119  1  0.554800  0.329300  0.134350  1.0  0.5442
  C  C120  1  0.573800  0.218800  0.110700  1.0  0.5773
  C  C121  1  0.801000  0.346400  0.474010  1.0  0.0478
  C  C122  1  0.768200  0.439600  0.451050  1.0  -0.0687
  C  C123  1  0.922400  0.395800  0.411370  1.0  0.4392
  C  C124  1  0.758700  0.279300  0.522580  1.0  0.7283
  C  C125  1  0.681700  0.512700  0.462860  1.0  0.7006
  C  C126  1  0.023400  0.407800  0.377440  1.0  -0.2924
  C  C127  1  0.103200  0.472400  0.412900  1.0  -0.0334
  C  C128  1  0.200900  0.498300  0.376700  1.0  -0.3074
  C  C129  1  0.054800  0.170700  0.634350  1.0  0.5455
  C  C130  1  0.073800  0.281200  0.610700  1.0  0.5776
  C  C131  1  0.301000  0.153600  0.525990  1.0  0.0483
  C  C132  1  0.268200  0.060400  0.548950  1.0  -0.0686
  C  C133  1  0.422400  0.104200  0.588630  1.0  0.4387
  C  C134  1  0.258700  0.220700  0.477420  1.0  0.7286
  C  C135  1  0.181700  0.987300  0.537140  1.0  0.7011
  C  C136  1  0.523400  0.092200  0.622560  1.0  -0.2926
  C  C137  1  0.603200  0.027600  0.587100  1.0  -0.0343
  C  C138  1  0.700900  0.001700  0.623300  1.0  -0.3076
  C  C139  1  0.554800  0.329300  0.365650  1.0  0.5452
  C  C140  1  0.573800  0.218800  0.389300  1.0  0.5784
  C  C141  1  0.199000  0.653600  0.974010  1.0  0.0482
  C  C142  1  0.231800  0.560400  0.951050  1.0  -0.0684
  C  C143  1  0.077600  0.604200  0.911370  1.0  0.4396
  C  C144  1  0.241300  0.720700  0.022580  1.0  0.7265
  C  C145  1  0.318300  0.487300  0.962860  1.0  0.7004
  C  C146  1  0.976600  0.592200  0.877440  1.0  -0.2914
  C  C147  1  0.896800  0.527600  0.912900  1.0  -0.0346
  C  C148  1  0.799100  0.501700  0.876700  1.0  -0.3081
  C  C149  1  0.945200  0.829300  0.134350  1.0  0.5455
  C  C150  1  0.926200  0.718800  0.110700  1.0  0.5777
  C  C151  1  0.699000  0.846400  0.025990  1.0  0.0482
  C  C152  1  0.731800  0.939600  0.048950  1.0  -0.0685
  C  C153  1  0.577600  0.895800  0.088630  1.0  0.4394
  C  C154  1  0.741300  0.779300  0.977420  1.0  0.7274
  C  C155  1  0.818300  0.012700  0.037140  1.0  0.7001
  C  C156  1  0.476600  0.907800  0.122560  1.0  -0.2923
  C  C157  1  0.396800  0.972400  0.087100  1.0  -0.0349
  C  C158  1  0.299100  0.998300  0.123300  1.0  -0.3078
  C  C159  1  0.445200  0.670700  0.865650  1.0  0.5463
  C  C160  1  0.426200  0.781200  0.889300  1.0  0.5785
  C  C161  1  0.772600  0.452300  0.250000  1.0  0.7818
  C  C162  1  0.272600  0.047700  0.750000  1.0  0.781
  C  C163  1  0.227400  0.547700  0.750000  1.0  0.7815
  C  C164  1  0.727400  0.952300  0.250000  1.0  0.782
  N  N165  1  0.102500  0.679700  0.551050  1.0  -0.6315
  N  N166  1  0.153600  0.532200  0.588690  1.0  -0.2322
  N  N167  1  0.602500  0.820300  0.448950  1.0  -0.6282
  N  N168  1  0.653600  0.967800  0.411310  1.0  -0.2322
  N  N169  1  0.897500  0.320300  0.051050  1.0  -0.6236
  N  N170  1  0.846400  0.467800  0.088690  1.0  -0.2318
  N  N171  1  0.397500  0.179700  0.948950  1.0  -0.631
  N  N172  1  0.346400  0.032200  0.911310  1.0  -0.2317
  N  N173  1  0.897500  0.320300  0.448950  1.0  -0.6261
  N  N174  1  0.846400  0.467800  0.411310  1.0  -0.2317
  N  N175  1  0.397500  0.179700  0.551050  1.0  -0.6305
  N  N176  1  0.346400  0.032200  0.588690  1.0  -0.2321
  N  N177  1  0.102500  0.679700  0.948950  1.0  -0.6314
  N  N178  1  0.153600  0.532200  0.911310  1.0  -0.2315
  N  N179  1  0.602500  0.820300  0.051050  1.0  -0.6262
  N  N180  1  0.653600  0.967800  0.088690  1.0  -0.2323
  O  O181  1  0.174950  0.782530  0.455240  1.0  -0.6686
  O  O182  1  0.335070  0.711440  0.460370  1.0  -0.7412
  O  O183  1  0.389980  0.508720  0.498840  1.0  -0.8221
  O  O184  1  0.319090  0.403500  0.564510  1.0  -0.6599
  O  O185  1  0.920900  0.846550  0.313120  1.0  -0.6303
  O  O186  1  0.983950  0.892480  0.402290  1.0  -0.6286
  O  O187  1  0.948100  0.701470  0.442160  1.0  -0.6099
  O  O188  1  0.891300  0.654630  0.352310  1.0  -0.707
  O  O189  1  0.674950  0.717470  0.544760  1.0  -0.6687
  O  O190  1  0.835070  0.788560  0.539630  1.0  -0.7424
  O  O191  1  0.889980  0.991280  0.501160  1.0  -0.8216
  O  O192  1  0.819090  0.096500  0.435490  1.0  -0.6597
  O  O193  1  0.420900  0.653450  0.686880  1.0  -0.631
  O  O194  1  0.483950  0.607520  0.597710  1.0  -0.6291
  O  O195  1  0.448100  0.798530  0.557840  1.0  -0.6108
  O  O196  1  0.391300  0.845370  0.647690  1.0  -0.7041
  O  O197  1  0.825050  0.217470  0.955240  1.0  -0.6685
  O  O198  1  0.664930  0.288560  0.960370  1.0  -0.7417
  O  O199  1  0.610020  0.491280  0.998840  1.0  -0.8226
  O  O200  1  0.680910  0.596500  0.064510  1.0  -0.662
  O  O201  1  0.079100  0.153450  0.813120  1.0  -0.6308
  O  O202  1  0.016050  0.107520  0.902290  1.0  -0.6282
  O  O203  1  0.051900  0.298530  0.942160  1.0  -0.6096
  O  O204  1  0.108700  0.345370  0.852310  1.0  -0.7064
  O  O205  1  0.325050  0.282530  0.044760  1.0  -0.6693
  O  O206  1  0.164930  0.211440  0.039630  1.0  -0.7424
  O  O207  1  0.110020  0.008720  0.001160  1.0  -0.821
  O  O208  1  0.180910  0.903500  0.935490  1.0  -0.6611
  O  O209  1  0.579100  0.346550  0.186880  1.0  -0.6314
  O  O210  1  0.516050  0.392480  0.097710  1.0  -0.6289
  O  O211  1  0.551900  0.201470  0.057840  1.0  -0.6099
  O  O212  1  0.608700  0.154630  0.147690  1.0  -0.7043
  O  O213  1  0.825050  0.217470  0.544760  1.0  -0.6692
  O  O214  1  0.664930  0.288560  0.539630  1.0  -0.743
  O  O215  1  0.610020  0.491280  0.501160  1.0  -0.821
  O  O216  1  0.680910  0.596500  0.435490  1.0  -0.6609
  O  O217  1  0.079100  0.153450  0.686880  1.0  -0.6309
  O  O218  1  0.016050  0.107520  0.597710  1.0  -0.6285
  O  O219  1  0.051900  0.298530  0.557840  1.0  -0.6106
  O  O220  1  0.108700  0.345370  0.647690  1.0  -0.7041
  O  O221  1  0.325050  0.282530  0.455240  1.0  -0.6685
  O  O222  1  0.164930  0.211440  0.460370  1.0  -0.7417
  O  O223  1  0.110020  0.008720  0.498840  1.0  -0.8219
  O  O224  1  0.180910  0.903500  0.564510  1.0  -0.661
  O  O225  1  0.579100  0.346550  0.313120  1.0  -0.6306
  O  O226  1  0.516050  0.392480  0.402290  1.0  -0.629
  O  O227  1  0.551900  0.201470  0.442160  1.0  -0.6095
  O  O228  1  0.608700  0.154630  0.352310  1.0  -0.7069
  O  O229  1  0.174950  0.782530  0.044760  1.0  -0.6692
  O  O230  1  0.335070  0.711440  0.039630  1.0  -0.7417
  O  O231  1  0.389980  0.508720  0.001160  1.0  -0.8218
  O  O232  1  0.319090  0.403500  0.935490  1.0  -0.6611
  O  O233  1  0.920900  0.846550  0.186880  1.0  -0.6313
  O  O234  1  0.983950  0.892480  0.097710  1.0  -0.6286
  O  O235  1  0.948100  0.701470  0.057840  1.0  -0.6103
  O  O236  1  0.891300  0.654630  0.147690  1.0  -0.7043
  O  O237  1  0.674950  0.717470  0.955240  1.0  -0.6684
  O  O238  1  0.835070  0.788560  0.960370  1.0  -0.7412
  O  O239  1  0.889980  0.991280  0.998840  1.0  -0.8224
  O  O240  1  0.819090  0.096500  0.064510  1.0  -0.6605
  O  O241  1  0.420900  0.653450  0.813120  1.0  -0.6308
  O  O242  1  0.483950  0.607520  0.902290  1.0  -0.6284
  O  O243  1  0.448100  0.798530  0.942160  1.0  -0.6097
  O  O244  1  0.391300  0.845370  0.852310  1.0  -0.7065
  O  O245  1  0.841400  0.519300  0.250000  1.0  -0.7126
  O  O246  1  0.787200  0.357300  0.250000  1.0  -0.7525
  O  O247  1  0.341400  0.980700  0.750000  1.0  -0.7143
  O  O248  1  0.287200  0.142700  0.750000  1.0  -0.738
  O  O249  1  0.158600  0.480700  0.750000  1.0  -0.7051
  O  O250  1  0.212800  0.642700  0.750000  1.0  -0.7351
  O  O251  1  0.658600  0.019300  0.250000  1.0  -0.7025
  O  O252  1  0.712800  0.857300  0.250000  1.0  -0.7499
