# generated using pymatgen
data_EuHC5(NO2)2
_symmetry_space_group_name_H-M   'P 1'
_cell_length_a   16.17600000
_cell_length_b   16.47300000
_cell_length_c   16.47300000
_cell_angle_alpha   76.05050000
_cell_angle_beta   60.59460000
_cell_angle_gamma   60.59460000
_symmetry_Int_Tables_number   1
_chemical_formula_structural   EuHC5(NO2)2
_chemical_formula_sum   'Eu16 H16 C80 N32 O64'
_cell_volume   3331.34725990
_cell_formula_units_Z   16
loop_
 _symmetry_equiv_pos_site_id
 _symmetry_equiv_pos_as_xyz
  1  'x, y, z'
loop_
 _atom_site_type_symbol
 _atom_site_label
 _atom_site_symmetry_multiplicity
 _atom_site_fract_x
 _atom_site_fract_y
 _atom_site_fract_z
 _atom_site_occupancy
 _atom_site_charge
  Eu  Eu1  1  0.237420  0.878930  0.468730  1.0  2.1357
  Eu  Eu2  1  0.035670  0.613740  0.476880  1.0  2.1522
  Eu  Eu3  1  0.085080  0.621070  0.031270  1.0  2.1362
  Eu  Eu4  1  0.626290  0.886260  0.023120  1.0  2.1532
  Eu  Eu5  1  0.706150  0.531270  0.378930  1.0  2.1423
  Eu  Eu6  1  0.512550  0.523120  0.113740  1.0  2.1522
  Eu  Eu7  1  0.116350  0.968730  0.121070  1.0  2.1407
  Eu  Eu8  1  0.649410  0.976880  0.386260  1.0  2.1525
  Eu  Eu9  1  0.762580  0.121070  0.531270  1.0  2.1339
  Eu  Eu10  1  0.964330  0.386260  0.523120  1.0  2.1525
  Eu  Eu11  1  0.914920  0.378930  0.968730  1.0  2.1367
  Eu  Eu12  1  0.373710  0.113740  0.976880  1.0  2.1523
  Eu  Eu13  1  0.293850  0.468730  0.621070  1.0  2.1386
  Eu  Eu14  1  0.487450  0.476880  0.886260  1.0  2.1526
  Eu  Eu15  1  0.883650  0.031270  0.878930  1.0  2.1417
  Eu  Eu16  1  0.350590  0.023120  0.613740  1.0  2.1527
  H  H17  1  0.057100  0.753000  0.248600  1.0  0.0591
  H  H18  1  0.362700  0.902900  0.218900  1.0  0.0559
  H  H19  1  0.558700  0.747000  0.251400  1.0  0.0596
  H  H20  1  0.984500  0.597100  0.281100  1.0  0.0552
  H  H21  1  0.305700  0.751400  0.253000  1.0  0.0586
  H  H22  1  0.581600  0.781100  0.402900  1.0  0.057
  H  H23  1  0.810100  0.748600  0.247000  1.0  0.0593
  H  H24  1  0.265600  0.718900  0.097100  1.0  0.0552
  H  H25  1  0.942900  0.247000  0.751400  1.0  0.0599
  H  H26  1  0.637300  0.097100  0.781100  1.0  0.0566
  H  H27  1  0.441300  0.253000  0.748600  1.0  0.0596
  H  H28  1  0.015500  0.402900  0.718900  1.0  0.0555
  H  H29  1  0.694300  0.248600  0.747000  1.0  0.0592
  H  H30  1  0.418400  0.218900  0.597100  1.0  0.0564
  H  H31  1  0.189900  0.251400  0.753000  1.0  0.0595
  H  H32  1  0.734400  0.281100  0.902900  1.0  0.0552
  C  C33  1  0.068600  0.778800  0.284200  1.0  0.4066
  C  C34  1  0.096300  0.869300  0.329900  1.0  -0.0151
  C  C35  1  0.090000  0.797600  0.395200  1.0  0.0134
  C  C36  1  0.093500  0.777100  0.486300  1.0  0.7491
  C  C37  1  0.116100  0.949700  0.320900  1.0  0.735
  C  C38  1  0.398100  0.915200  0.241400  1.0  0.3545
  C  C39  1  0.435300  0.944500  0.336300  1.0  0.0578
  C  C40  1  0.504700  0.950400  0.248600  1.0  0.0459
  C  C41  1  0.596900  0.970000  0.207400  1.0  0.707
  C  C42  1  0.419200  0.951700  0.432100  1.0  0.7161
  C  C43  1  0.631600  0.721200  0.215800  1.0  0.4053
  C  C44  1  0.795500  0.630700  0.170100  1.0  -0.0172
  C  C45  1  0.782800  0.702400  0.104800  1.0  0.0134
  C  C46  1  0.856900  0.722900  0.013700  1.0  0.7422
  C  C47  1  0.886700  0.550300  0.179100  1.0  0.7372
  C  C48  1  0.054700  0.584800  0.258600  1.0  0.3553
  C  C49  1  0.216100  0.555500  0.163700  1.0  0.061
  C  C50  1  0.203700  0.549600  0.251400  1.0  0.0439
  C  C51  1  0.274300  0.530000  0.292600  1.0  0.705
  C  C52  1  0.303000  0.548300  0.067900  1.0  0.7124
  C  C53  1  0.352800  0.715800  0.278800  1.0  0.4063
  C  C54  1  0.426200  0.670100  0.369300  1.0  -0.0172
  C  C55  1  0.485200  0.604800  0.297600  1.0  0.0133
  C  C56  1  0.579800  0.513700  0.277100  1.0  0.7457
  C  C57  1  0.437000  0.679100  0.449700  1.0  0.7444
  C  C58  1  0.639500  0.758600  0.415200  1.0  0.3557
  C  C59  1  0.771600  0.663700  0.444500  1.0  0.0601
  C  C60  1  0.753300  0.751400  0.450400  1.0  0.0456
  C  C61  1  0.804300  0.792600  0.470000  1.0  0.7141
  C  C62  1  0.851300  0.567900  0.451700  1.0  0.7146
  C  C63  1  0.847400  0.784200  0.221200  1.0  0.4055
  C  C64  1  0.965600  0.829900  0.130700  1.0  -0.0168
  C  C65  1  0.887600  0.895200  0.202400  1.0  0.0111
  C  C66  1  0.870600  0.986300  0.222900  1.0  0.7452
  C  C67  1  0.065800  0.820900  0.050300  1.0  0.7337
  C  C68  1  0.313300  0.741400  0.084800  1.0  0.3568
  C  C69  1  0.379800  0.836300  0.055500  1.0  0.0591
  C  C70  1  0.455100  0.748600  0.049600  1.0  0.0417
  C  C71  1  0.566900  0.707400  0.030000  1.0  0.7075
  C  C72  1  0.370900  0.932100  0.048300  1.0  0.715
  C  C73  1  0.931400  0.221200  0.715800  1.0  0.405
  C  C74  1  0.903700  0.130700  0.670100  1.0  -0.0172
  C  C75  1  0.910000  0.202400  0.604800  1.0  0.0123
  C  C76  1  0.906500  0.222900  0.513700  1.0  0.7475
  C  C77  1  0.883900  0.050300  0.679100  1.0  0.7365
  C  C78  1  0.601900  0.084800  0.758600  1.0  0.3556
  C  C79  1  0.564700  0.055500  0.663700  1.0  0.0591
  C  C80  1  0.495300  0.049600  0.751400  1.0  0.0442
  C  C81  1  0.403100  0.030000  0.792600  1.0  0.7064
  C  C82  1  0.580800  0.048300  0.567900  1.0  0.7152
  C  C83  1  0.368400  0.278800  0.784200  1.0  0.4046
  C  C84  1  0.204500  0.369300  0.829900  1.0  -0.0153
  C  C85  1  0.217200  0.297600  0.895200  1.0  0.0136
  C  C86  1  0.143100  0.277100  0.986300  1.0  0.7443
  C  C87  1  0.113300  0.449700  0.820900  1.0  0.7358
  C  C88  1  0.945300  0.415200  0.741400  1.0  0.356
  C  C89  1  0.783900  0.444500  0.836300  1.0  0.0597
  C  C90  1  0.796300  0.450400  0.748600  1.0  0.0461
  C  C91  1  0.725700  0.470000  0.707400  1.0  0.706
  C  C92  1  0.697000  0.451700  0.932100  1.0  0.7155
  C  C93  1  0.647200  0.284200  0.721200  1.0  0.4043
  C  C94  1  0.573800  0.329900  0.630700  1.0  -0.0177
  C  C95  1  0.514800  0.395200  0.702400  1.0  0.011
  C  C96  1  0.420200  0.486300  0.722900  1.0  0.7456
  C  C97  1  0.563000  0.320900  0.550300  1.0  0.7453
  C  C98  1  0.360500  0.241400  0.584800  1.0  0.3546
  C  C99  1  0.228400  0.336300  0.555500  1.0  0.0593
  C  C100  1  0.246700  0.248600  0.549600  1.0  0.0437
  C  C101  1  0.195700  0.207400  0.530000  1.0  0.7114
  C  C102  1  0.148700  0.432100  0.548300  1.0  0.7147
  C  C103  1  0.152600  0.215800  0.778800  1.0  0.4057
  C  C104  1  0.034400  0.170100  0.869300  1.0  -0.0165
  C  C105  1  0.112400  0.104800  0.797600  1.0  0.0129
  C  C106  1  0.129400  0.013700  0.777100  1.0  0.7457
  C  C107  1  0.934200  0.179100  0.949700  1.0  0.736
  C  C108  1  0.686700  0.258600  0.915200  1.0  0.3577
  C  C109  1  0.620200  0.163700  0.944500  1.0  0.0603
  C  C110  1  0.544900  0.251400  0.950400  1.0  0.0449
  C  C111  1  0.433100  0.292600  0.970000  1.0  0.7093
  C  C112  1  0.629100  0.067900  0.951700  1.0  0.7166
  N  N113  1  0.073400  0.740000  0.364600  1.0  -0.5634
  N  N114  1  0.081300  0.856800  0.258800  1.0  -0.5876
  N  N115  1  0.368300  0.917800  0.332200  1.0  -0.6296
  N  N116  1  0.482300  0.931300  0.185100  1.0  -0.6195
  N  N117  1  0.678000  0.760000  0.135400  1.0  -0.5659
  N  N118  1  0.696900  0.643200  0.241200  1.0  -0.586
  N  N119  1  0.118300  0.582200  0.167800  1.0  -0.6271
  N  N120  1  0.098700  0.568700  0.314900  1.0  -0.618
  N  N121  1  0.438000  0.635400  0.240000  1.0  -0.5634
  N  N122  1  0.340100  0.741200  0.356800  1.0  -0.5863
  N  N123  1  0.700500  0.667800  0.417800  1.0  -0.6292
  N  N124  1  0.667400  0.814900  0.431300  1.0  -0.6207
  N  N125  1  0.813400  0.864600  0.260000  1.0  -0.5653
  N  N126  1  0.938100  0.758800  0.143200  1.0  -0.5866
  N  N127  1  0.286100  0.832200  0.082200  1.0  -0.6295
  N  N128  1  0.413600  0.685100  0.068700  1.0  -0.6197
  N  N129  1  0.926600  0.260000  0.635400  1.0  -0.5642
  N  N130  1  0.918700  0.143200  0.741200  1.0  -0.5866
  N  N131  1  0.631700  0.082200  0.667800  1.0  -0.6275
  N  N132  1  0.517700  0.068700  0.814900  1.0  -0.619
  N  N133  1  0.322000  0.240000  0.864600  1.0  -0.5635
  N  N134  1  0.303100  0.356800  0.758800  1.0  -0.5872
  N  N135  1  0.881700  0.417800  0.832200  1.0  -0.6276
  N  N136  1  0.901300  0.431300  0.685100  1.0  -0.6182
  N  N137  1  0.562000  0.364600  0.760000  1.0  -0.5633
  N  N138  1  0.659900  0.258800  0.643200  1.0  -0.5868
  N  N139  1  0.299500  0.332200  0.582200  1.0  -0.6299
  N  N140  1  0.332600  0.185100  0.568700  1.0  -0.6207
  N  N141  1  0.186600  0.135400  0.740000  1.0  -0.5639
  N  N142  1  0.061900  0.241200  0.856800  1.0  -0.587
  N  N143  1  0.713900  0.167800  0.917800  1.0  -0.6257
  N  N144  1  0.586400  0.314900  0.931300  1.0  -0.6198
  O  O145  1  0.073000  0.709000  0.530600  1.0  -0.7222
  O  O146  1  0.114000  0.821300  0.519700  1.0  -0.7485
  O  O147  1  0.151700  0.954300  0.371500  1.0  -0.734
  O  O148  1  0.097700  0.009600  0.260200  1.0  -0.6671
  O  O149  1  0.653400  0.957900  0.117900  1.0  -0.6619
  O  O150  1  0.618000  0.996100  0.256700  1.0  -0.7279
  O  O151  1  0.468700  0.984200  0.444000  1.0  -0.775
  O  O152  1  0.349400  0.930100  0.500100  1.0  -0.7473
  O  O153  1  0.812600  0.791000  0.969400  1.0  -0.7224
  O  O154  1  0.955000  0.678700  0.980300  1.0  -0.7427
  O  O155  1  0.977500  0.545700  0.128500  1.0  -0.7311
  O  O156  1  0.867500  0.490400  0.239800  1.0  -0.6645
  O  O157  1  0.229200  0.542100  0.382100  1.0  -0.663
  O  O158  1  0.370800  0.503900  0.243300  1.0  -0.7274
  O  O159  1  0.396900  0.515800  0.056000  1.0  -0.7737
  O  O160  1  0.279600  0.569900  0.999900  1.0  -0.7504
  O  O161  1  0.603600  0.469400  0.209000  1.0  -0.7216
  O  O162  1  0.633700  0.480300  0.321300  1.0  -0.741
  O  O163  1  0.523200  0.628500  0.454300  1.0  -0.7342
  O  O164  1  0.357900  0.739800  0.509600  1.0  -0.668
  O  O165  1  0.771300  0.882100  0.457900  1.0  -0.6642
  O  O166  1  0.874700  0.743300  0.496100  1.0  -0.7291
  O  O167  1  0.912700  0.556000  0.484200  1.0  -0.7772
  O  O168  1  0.849500  0.499900  0.430100  1.0  -0.7466
  O  O169  1  0.782000  0.030600  0.291000  1.0  -0.7195
  O  O170  1  0.935300  0.019700  0.178700  1.0  -0.7428
  O  O171  1  0.106000  0.871500  0.045700  1.0  -0.7297
  O  O172  1  0.107300  0.760200  0.990400  1.0  -0.6677
  O  O173  1  0.611300  0.617900  0.042100  1.0  -0.6624
  O  O174  1  0.614100  0.756700  0.003900  1.0  -0.7272
  O  O175  1  0.452900  0.944000  0.015800  1.0  -0.7737
  O  O176  1  0.279500  0.000100  0.069900  1.0  -0.7453
  O  O177  1  0.927000  0.291000  0.469400  1.0  -0.7206
  O  O178  1  0.886000  0.178700  0.480300  1.0  -0.7469
  O  O179  1  0.848300  0.045700  0.628500  1.0  -0.7315
  O  O180  1  0.902300  0.990400  0.739800  1.0  -0.6648
  O  O181  1  0.346600  0.042100  0.882100  1.0  -0.6577
  O  O182  1  0.382000  0.003900  0.743300  1.0  -0.7267
  O  O183  1  0.531300  0.015800  0.556000  1.0  -0.7741
  O  O184  1  0.650600  0.069900  0.499900  1.0  -0.7471
  O  O185  1  0.187400  0.209000  0.030600  1.0  -0.725
  O  O186  1  0.045000  0.321300  0.019700  1.0  -0.742
  O  O187  1  0.022500  0.454300  0.871500  1.0  -0.7308
  O  O188  1  0.132500  0.509600  0.760200  1.0  -0.666
  O  O189  1  0.770800  0.457900  0.617900  1.0  -0.6653
  O  O190  1  0.629200  0.496100  0.756700  1.0  -0.7265
  O  O191  1  0.603100  0.484200  0.944000  1.0  -0.7742
  O  O192  1  0.720400  0.430100  0.000100  1.0  -0.7518
  O  O193  1  0.396400  0.530600  0.791000  1.0  -0.7213
  O  O194  1  0.366300  0.519700  0.678700  1.0  -0.7433
  O  O195  1  0.476800  0.371500  0.545700  1.0  -0.7324
  O  O196  1  0.642100  0.260200  0.490400  1.0  -0.667
  O  O197  1  0.228700  0.117900  0.542100  1.0  -0.6627
  O  O198  1  0.125300  0.256700  0.503900  1.0  -0.729
  O  O199  1  0.087300  0.444000  0.515800  1.0  -0.7768
  O  O200  1  0.150500  0.500100  0.569900  1.0  -0.7458
  O  O201  1  0.218000  0.969400  0.709000  1.0  -0.7201
  O  O202  1  0.064700  0.980300  0.821300  1.0  -0.7414
  O  O203  1  0.894000  0.128500  0.954300  1.0  -0.7291
  O  O204  1  0.892700  0.239800  0.009600  1.0  -0.6685
  O  O205  1  0.388700  0.382100  0.957900  1.0  -0.6625
  O  O206  1  0.385900  0.243300  0.996100  1.0  -0.726
  O  O207  1  0.547100  0.056000  0.984200  1.0  -0.774
  O  O208  1  0.720500  0.999900  0.930100  1.0  -0.7444
