# generated using pymatgen
data_NiH7C9N2O5
_symmetry_space_group_name_H-M   'P 1'
_cell_length_a   6.64000000
_cell_length_b   26.17920000
_cell_length_c   7.67020000
_cell_angle_alpha   90.00000000
_cell_angle_beta   90.00000000
_cell_angle_gamma   90.00000000
_symmetry_Int_Tables_number   1
_chemical_formula_structural   NiH7C9N2O5
_chemical_formula_sum   'Ni4 H28 C36 N8 O20'
_cell_volume   1333.31000694
_cell_formula_units_Z   4
loop_
 _symmetry_equiv_pos_site_id
 _symmetry_equiv_pos_as_xyz
  1  'x, y, z'
loop_
 _atom_site_type_symbol
 _atom_site_label
 _atom_site_symmetry_multiplicity
 _atom_site_fract_x
 _atom_site_fract_y
 _atom_site_fract_z
 _atom_site_occupancy
 _atom_site_charge
  Ni  Ni1  1  0.001940  0.716770  0.753600  1.0  0.9486
  Ni  Ni2  1  0.998060  0.283230  0.753600  1.0  0.9477
  Ni  Ni3  1  0.501940  0.783230  0.246400  1.0  0.9482
  Ni  Ni4  1  0.498060  0.216770  0.246400  1.0  0.9479
  H  H5  1  0.380800  0.611100  0.688800  1.0  0.1349
  H  H6  1  0.010800  0.851300  0.908700  1.0  0.0927
  H  H7  1  0.907000  0.863200  0.630900  1.0  0.1396
  H  H8  1  0.713300  0.856500  0.744200  1.0  0.1499
  H  H9  1  0.583800  0.681800  0.677800  1.0  0.087
  H  H10  1  0.037100  0.605600  0.865700  1.0  0.0871
  H  H11  1  0.843900  0.531600  0.878100  1.0  0.1365
  H  H12  1  0.619200  0.388900  0.688800  1.0  0.1338
  H  H13  1  0.989200  0.148700  0.908700  1.0  0.0933
  H  H14  1  0.093000  0.136800  0.630900  1.0  0.1404
  H  H15  1  0.286700  0.143500  0.744200  1.0  0.1491
  H  H16  1  0.416200  0.318200  0.677800  1.0  0.0876
  H  H17  1  0.962900  0.394400  0.865700  1.0  0.0876
  H  H18  1  0.156100  0.468400  0.878100  1.0  0.1368
  H  H19  1  0.880800  0.888900  0.311200  1.0  0.1346
  H  H20  1  0.510800  0.648700  0.091300  1.0  0.0935
  H  H21  1  0.407000  0.636800  0.369100  1.0  0.14
  H  H22  1  0.213300  0.643500  0.255800  1.0  0.1506
  H  H23  1  0.083800  0.818200  0.322200  1.0  0.0874
  H  H24  1  0.537100  0.894400  0.134300  1.0  0.0871
  H  H25  1  0.343900  0.968400  0.121900  1.0  0.1363
  H  H26  1  0.119200  0.111100  0.311200  1.0  0.1348
  H  H27  1  0.489200  0.351300  0.091300  1.0  0.0926
  H  H28  1  0.593000  0.363200  0.369100  1.0  0.1384
  H  H29  1  0.786700  0.356500  0.255800  1.0  0.1491
  H  H30  1  0.916200  0.181800  0.322200  1.0  0.0871
  H  H31  1  0.462900  0.105600  0.134300  1.0  0.0875
  H  H32  1  0.656100  0.031600  0.121900  1.0  0.1365
  C  C33  1  0.514700  0.608900  0.723400  1.0  -0.2302
  C  C34  1  0.957000  0.821100  0.849000  1.0  0.1157
  C  C35  1  0.829500  0.838600  0.697600  1.0  -0.3798
  C  C36  1  0.830100  0.790500  0.978200  1.0  0.6229
  C  C37  1  0.754000  0.797800  0.572600  1.0  0.7564
  C  C38  1  0.637700  0.651100  0.717400  1.0  0.181
  C  C39  1  0.591000  0.564200  0.780000  1.0  0.2265
  C  C40  1  0.904300  0.606500  0.827200  1.0  0.1838
  C  C41  1  0.789200  0.561900  0.836000  1.0  -0.2028
  C  C42  1  0.485300  0.391100  0.723400  1.0  -0.2311
  C  C43  1  0.043000  0.178900  0.849000  1.0  0.117
  C  C44  1  0.170500  0.161400  0.697600  1.0  -0.3789
  C  C45  1  0.169900  0.209500  0.978200  1.0  0.6226
  C  C46  1  0.246000  0.202200  0.572600  1.0  0.7556
  C  C47  1  0.362300  0.348900  0.717400  1.0  0.1801
  C  C48  1  0.409000  0.435800  0.780000  1.0  0.2249
  C  C49  1  0.095700  0.393500  0.827200  1.0  0.183
  C  C50  1  0.210800  0.438100  0.836000  1.0  -0.2046
  C  C51  1  0.014700  0.891100  0.276600  1.0  -0.232
  C  C52  1  0.457000  0.678900  0.151000  1.0  0.1164
  C  C53  1  0.329500  0.661400  0.302400  1.0  -0.3794
  C  C54  1  0.330100  0.709500  0.021800  1.0  0.6207
  C  C55  1  0.254000  0.702200  0.427400  1.0  0.7562
  C  C56  1  0.137700  0.848900  0.282600  1.0  0.1805
  C  C57  1  0.091000  0.935800  0.220000  1.0  0.2252
  C  C58  1  0.404300  0.893500  0.172800  1.0  0.1841
  C  C59  1  0.289200  0.938100  0.164000  1.0  -0.2034
  C  C60  1  0.985300  0.108900  0.276600  1.0  -0.2312
  C  C61  1  0.543000  0.321100  0.151000  1.0  0.1168
  C  C62  1  0.670500  0.338600  0.302400  1.0  -0.3814
  C  C63  1  0.669900  0.290500  0.021800  1.0  0.621
  C  C64  1  0.746000  0.297800  0.427400  1.0  0.7566
  C  C65  1  0.862300  0.151100  0.282600  1.0  0.1806
  C  C66  1  0.909000  0.064200  0.220000  1.0  0.2258
  C  C67  1  0.595700  0.106500  0.172800  1.0  0.1838
  C  C68  1  0.710800  0.061900  0.164000  1.0  -0.2031
  N  N69  1  0.830200  0.650170  0.765500  1.0  -0.2833
  N  N70  1  0.456300  0.521000  0.781200  1.0  -0.1459
  N  N71  1  0.169800  0.349830  0.765500  1.0  -0.2837
  N  N72  1  0.543700  0.479000  0.781200  1.0  -0.1456
  N  N73  1  0.330200  0.849830  0.234500  1.0  -0.2826
  N  N74  1  0.956300  0.979000  0.218800  1.0  -0.1463
  N  N75  1  0.669800  0.150170  0.234500  1.0  -0.2837
  N  N76  1  0.043700  0.021000  0.218800  1.0  -0.1448
  O  O77  1  0.716900  0.814170  0.078000  1.0  -0.537
  O  O78  1  0.793400  0.751330  0.595300  1.0  -0.5691
  O  O79  1  0.654000  0.814960  0.445700  1.0  -0.5824
  O  O80  1  0.850000  0.742240  0.972300  1.0  -0.4987
  O  O81  1  0.120600  0.792190  0.781600  1.0  -0.4267
  O  O82  1  0.283100  0.185830  0.078000  1.0  -0.5385
  O  O83  1  0.206600  0.248670  0.595300  1.0  -0.5683
  O  O84  1  0.346000  0.185040  0.445700  1.0  -0.5823
  O  O85  1  0.150000  0.257760  0.972300  1.0  -0.4997
  O  O86  1  0.879400  0.207810  0.781600  1.0  -0.4289
  O  O87  1  0.216900  0.685830  0.922000  1.0  -0.5378
  O  O88  1  0.293400  0.748670  0.404700  1.0  -0.5696
  O  O89  1  0.154000  0.685040  0.554300  1.0  -0.5825
  O  O90  1  0.350000  0.757760  0.027700  1.0  -0.4997
  O  O91  1  0.620600  0.707810  0.218400  1.0  -0.4276
  O  O92  1  0.783100  0.314170  0.922000  1.0  -0.5388
  O  O93  1  0.706600  0.251330  0.404700  1.0  -0.5697
  O  O94  1  0.846000  0.314960  0.554300  1.0  -0.5821
  O  O95  1  0.650000  0.242240  0.027700  1.0  -0.4996
  O  O96  1  0.379400  0.292190  0.218400  1.0  -0.4284
