# generated using pymatgen
data_CoH8C10NO5
_symmetry_space_group_name_H-M   'P 1'
_cell_length_a   6.70020000
_cell_length_b   27.13310000
_cell_length_c   7.68170000
_cell_angle_alpha   90.00000000
_cell_angle_beta   90.00000000
_cell_angle_gamma   90.00000000
_symmetry_Int_Tables_number   1
_chemical_formula_structural   CoH8C10NO5
_chemical_formula_sum   'Co4 H32 C40 N4 O20'
_cell_volume   1396.51152528
_cell_formula_units_Z   4
loop_
 _symmetry_equiv_pos_site_id
 _symmetry_equiv_pos_as_xyz
  1  'x, y, z'
loop_
 _atom_site_type_symbol
 _atom_site_label
 _atom_site_symmetry_multiplicity
 _atom_site_fract_x
 _atom_site_fract_y
 _atom_site_fract_z
 _atom_site_occupancy
 _atom_site_charge
  Co  Co1  1  0.995870  0.717420  0.249660  1.0  1.1051
  Co  Co2  1  0.004130  0.282580  0.249660  1.0  1.106
  Co  Co3  1  0.495870  0.782580  0.750340  1.0  1.1052
  Co  Co4  1  0.504130  0.217420  0.750340  1.0  1.1057
  H  H5  1  0.616300  0.612600  0.310500  1.0  0.138
  H  H6  1  0.989600  0.848700  0.090400  1.0  0.09
  H  H7  1  0.147900  0.537600  0.116600  1.0  0.1226
  H  H8  1  0.284400  0.854600  0.255700  1.0  0.1413
  H  H9  1  0.092900  0.860500  0.370100  1.0  0.1318
  H  H10  1  0.413000  0.681300  0.321700  1.0  0.079
  H  H11  1  0.968200  0.610700  0.116700  1.0  0.0807
  H  H12  1  0.669000  0.527800  0.216200  1.0  0.1048
  H  H13  1  0.383700  0.387400  0.310500  1.0  0.1388
  H  H14  1  0.010400  0.151300  0.090400  1.0  0.0907
  H  H15  1  0.852100  0.462400  0.116600  1.0  0.1227
  H  H16  1  0.715600  0.145400  0.255700  1.0  0.1437
  H  H17  1  0.907100  0.139500  0.370100  1.0  0.1327
  H  H18  1  0.587000  0.318700  0.321700  1.0  0.079
  H  H19  1  0.031800  0.389300  0.116700  1.0  0.0808
  H  H20  1  0.331000  0.472200  0.216200  1.0  0.1057
  H  H21  1  0.116300  0.887400  0.689500  1.0  0.1378
  H  H22  1  0.489600  0.651300  0.909600  1.0  0.0899
  H  H23  1  0.647900  0.962400  0.883400  1.0  0.1226
  H  H24  1  0.784400  0.645400  0.744300  1.0  0.142
  H  H25  1  0.592900  0.639500  0.629900  1.0  0.1324
  H  H26  1  0.913000  0.818700  0.678300  1.0  0.0788
  H  H27  1  0.468200  0.889300  0.883300  1.0  0.0806
  H  H28  1  0.169000  0.972200  0.783800  1.0  0.1048
  H  H29  1  0.883700  0.112600  0.689500  1.0  0.1387
  H  H30  1  0.510400  0.348700  0.909600  1.0  0.0897
  H  H31  1  0.352100  0.037600  0.883400  1.0  0.123
  H  H32  1  0.215600  0.354600  0.744300  1.0  0.1424
  H  H33  1  0.407100  0.360500  0.629900  1.0  0.1322
  H  H34  1  0.087000  0.181300  0.678300  1.0  0.0787
  H  H35  1  0.531800  0.110700  0.883300  1.0  0.0812
  H  H36  1  0.831000  0.027800  0.783800  1.0  0.1054
  C  C37  1  0.484000  0.610600  0.274700  1.0  -0.2207
  C  C38  1  0.042200  0.819500  0.150300  1.0  0.1013
  C  C39  1  0.246800  0.797200  0.425100  1.0  0.7567
  C  C40  1  0.406100  0.567000  0.214600  1.0  0.1313
  C  C41  1  0.205900  0.566600  0.157200  1.0  -0.2145
  C  C42  1  0.170300  0.837100  0.302400  1.0  -0.3827
  C  C43  1  0.359300  0.651900  0.280700  1.0  0.1921
  C  C44  1  0.166600  0.790100  0.020400  1.0  0.6322
  C  C45  1  0.096600  0.610400  0.162700  1.0  0.174
  C  C46  1  0.531600  0.522900  0.215500  1.0  -0.1173
  C  C47  1  0.516000  0.389400  0.274700  1.0  -0.2192
  C  C48  1  0.957800  0.180500  0.150300  1.0  0.0991
  C  C49  1  0.753200  0.202800  0.425100  1.0  0.756
  C  C50  1  0.593900  0.433000  0.214600  1.0  0.1319
  C  C51  1  0.794100  0.433400  0.157200  1.0  -0.2142
  C  C52  1  0.829700  0.162900  0.302400  1.0  -0.3791
  C  C53  1  0.640700  0.348100  0.280700  1.0  0.1915
  C  C54  1  0.833400  0.209900  0.020400  1.0  0.6315
  C  C55  1  0.903400  0.389600  0.162700  1.0  0.1745
  C  C56  1  0.468400  0.477100  0.215500  1.0  -0.1162
  C  C57  1  0.984000  0.889400  0.725300  1.0  -0.22
  C  C58  1  0.542200  0.680500  0.849700  1.0  0.101
  C  C59  1  0.746800  0.702800  0.574900  1.0  0.756
  C  C60  1  0.906100  0.933000  0.785400  1.0  0.1317
  C  C61  1  0.705900  0.933400  0.842800  1.0  -0.2151
  C  C62  1  0.670300  0.662900  0.697600  1.0  -0.379
  C  C63  1  0.859300  0.848100  0.719300  1.0  0.1909
  C  C64  1  0.666667  0.709900  0.979600  1.0  0.6329
  C  C65  1  0.596600  0.889600  0.837300  1.0  0.1744
  C  C66  1  0.031600  0.977100  0.784500  1.0  -0.1174
  C  C67  1  0.016000  0.110600  0.725300  1.0  -0.2184
  C  C68  1  0.457800  0.319500  0.849700  1.0  0.0996
  C  C69  1  0.253200  0.297200  0.574900  1.0  0.7562
  C  C70  1  0.093900  0.067000  0.785400  1.0  0.1321
  C  C71  1  0.294100  0.066600  0.842800  1.0  -0.2148
  C  C72  1  0.329700  0.337100  0.697600  1.0  -0.3809
  C  C73  1  0.140700  0.151900  0.719300  1.0  0.1911
  C  C74  1  0.333400  0.290100  0.979600  1.0  0.6328
  C  C75  1  0.403400  0.110400  0.837300  1.0  0.174
  C  C76  1  0.968400  0.022900  0.784500  1.0  -0.1161
  N  N77  1  0.169500  0.651900  0.231700  1.0  -0.3187
  N  N78  1  0.830500  0.348100  0.231700  1.0  -0.3179
  N  N79  1  0.669500  0.848100  0.768300  1.0  -0.3191
  N  N80  1  0.330500  0.151900  0.768300  1.0  -0.3185
  O  O81  1  0.277700  0.813000  0.921900  1.0  -0.5567
  O  O82  1  0.875800  0.792000  0.218400  1.0  -0.4408
  O  O83  1  0.143500  0.743600  0.024500  1.0  -0.5365
  O  O84  1  0.210300  0.752100  0.399800  1.0  -0.6047
  O  O85  1  0.341600  0.813900  0.551100  1.0  -0.5931
  O  O86  1  0.722300  0.187000  0.921900  1.0  -0.5566
  O  O87  1  0.124200  0.208000  0.218400  1.0  -0.4433
  O  O88  1  0.856500  0.256400  0.024500  1.0  -0.5359
  O  O89  1  0.789700  0.247900  0.399800  1.0  -0.6043
  O  O90  1  0.658400  0.186100  0.551100  1.0  -0.594
  O  O91  1  0.777700  0.687000  0.078100  1.0  -0.5571
  O  O92  1  0.375800  0.708000  0.781600  1.0  -0.44
  O  O93  1  0.643500  0.756400  0.975500  1.0  -0.5361
  O  O94  1  0.710300  0.747900  0.600200  1.0  -0.6042
  O  O95  1  0.841600  0.686100  0.448900  1.0  -0.5936
  O  O96  1  0.222300  0.313000  0.078100  1.0  -0.5561
  O  O97  1  0.624200  0.292000  0.781600  1.0  -0.4421
  O  O98  1  0.356500  0.243600  0.975500  1.0  -0.5355
  O  O99  1  0.289700  0.252100  0.600200  1.0  -0.6049
  O  O100  1  0.158400  0.313900  0.448900  1.0  -0.594
