# generated using pymatgen
data_CoH7C9N2O5
_symmetry_space_group_name_H-M   'P 1'
_cell_length_a   6.62000000
_cell_length_b   26.28200000
_cell_length_c   7.66700000
_cell_angle_alpha   90.00000000
_cell_angle_beta   90.00000000
_cell_angle_gamma   90.00000000
_symmetry_Int_Tables_number   1
_chemical_formula_structural   CoH7C9N2O5
_chemical_formula_sum   'Co4 H28 C36 N8 O20'
_cell_volume   1333.95710228
_cell_formula_units_Z   4
loop_
 _symmetry_equiv_pos_site_id
 _symmetry_equiv_pos_as_xyz
  1  'x, y, z'
loop_
 _atom_site_type_symbol
 _atom_site_label
 _atom_site_symmetry_multiplicity
 _atom_site_fract_x
 _atom_site_fract_y
 _atom_site_fract_z
 _atom_site_occupancy
 _atom_site_charge
  Co  Co1  1  0.985840  0.283360  0.250710  1.0  1.1106
  Co  Co2  1  0.014160  0.716640  0.250710  1.0  1.1108
  Co  Co3  1  0.485840  0.216640  0.749290  1.0  1.111
  Co  Co4  1  0.514160  0.783360  0.749290  1.0  1.1111
  H  H5  1  0.972400  0.148300  0.411700  1.0  0.0865
  H  H6  1  0.082900  0.135100  0.135200  1.0  0.1371
  H  H7  1  0.275200  0.142100  0.251000  1.0  0.1456
  H  H8  1  0.966600  0.394900  0.382900  1.0  0.0857
  H  H9  1  0.162600  0.467200  0.400000  1.0  0.1353
  H  H10  1  0.618600  0.389000  0.183400  1.0  0.137
  H  H11  1  0.403900  0.320200  0.166200  1.0  0.0771
  H  H12  1  0.027600  0.851700  0.411700  1.0  0.0853
  H  H13  1  0.917100  0.864900  0.135200  1.0  0.1346
  H  H14  1  0.724800  0.857900  0.251000  1.0  0.1458
  H  H15  1  0.033400  0.605100  0.382900  1.0  0.086
  H  H16  1  0.837400  0.532800  0.400000  1.0  0.1355
  H  H17  1  0.381400  0.611000  0.183400  1.0  0.1387
  H  H18  1  0.596100  0.679800  0.166200  1.0  0.0778
  H  H19  1  0.472400  0.351700  0.588300  1.0  0.0855
  H  H20  1  0.582900  0.364900  0.864800  1.0  0.1349
  H  H21  1  0.775200  0.357900  0.749000  1.0  0.145
  H  H22  1  0.466600  0.105100  0.617100  1.0  0.0852
  H  H23  1  0.662600  0.032800  0.600000  1.0  0.1355
  H  H24  1  0.118600  0.111000  0.816600  1.0  0.138
  H  H25  1  0.903900  0.179800  0.833800  1.0  0.0775
  H  H26  1  0.527600  0.648300  0.588300  1.0  0.0862
  H  H27  1  0.417100  0.635100  0.864800  1.0  0.1349
  H  H28  1  0.224800  0.642100  0.749000  1.0  0.147
  H  H29  1  0.533400  0.894900  0.617100  1.0  0.0852
  H  H30  1  0.337400  0.967200  0.600000  1.0  0.1356
  H  H31  1  0.881400  0.889000  0.816600  1.0  0.1381
  H  H32  1  0.096100  0.820200  0.833800  1.0  0.0769
  C  C33  1  0.149900  0.208400  0.483600  1.0  0.6276
  C  C34  1  0.027800  0.178200  0.352300  1.0  0.1004
  C  C35  1  0.159600  0.159700  0.202200  1.0  -0.3762
  C  C36  1  0.237000  0.200600  0.077400  1.0  0.7541
  C  C37  1  0.097700  0.394000  0.339400  1.0  0.1759
  C  C38  1  0.214300  0.437700  0.350100  1.0  -0.1932
  C  C39  1  0.408300  0.436500  0.285100  1.0  0.2388
  C  C40  1  0.485300  0.391600  0.220600  1.0  -0.2398
  C  C41  1  0.354200  0.350300  0.213800  1.0  0.1943
  C  C42  1  0.850100  0.791600  0.483600  1.0  0.6302
  C  C43  1  0.972200  0.821800  0.352300  1.0  0.1001
  C  C44  1  0.840400  0.840300  0.202200  1.0  -0.3779
  C  C45  1  0.763000  0.799400  0.077400  1.0  0.756
  C  C46  1  0.902300  0.606000  0.339400  1.0  0.1777
  C  C47  1  0.785700  0.562300  0.350100  1.0  -0.1942
  C  C48  1  0.591700  0.563500  0.285100  1.0  0.2292
  C  C49  1  0.514700  0.608400  0.220600  1.0  -0.2361
  C  C50  1  0.645800  0.649700  0.213800  1.0  0.1957
  C  C51  1  0.649900  0.291600  0.516400  1.0  0.6254
  C  C52  1  0.527800  0.321800  0.647700  1.0  0.1008
  C  C53  1  0.659600  0.340300  0.797800  1.0  -0.3775
  C  C54  1  0.737000  0.299400  0.922600  1.0  0.7557
  C  C55  1  0.597700  0.106000  0.660600  1.0  0.1763
  C  C56  1  0.714300  0.062300  0.649900  1.0  -0.1936
  C  C57  1  0.908300  0.063500  0.714900  1.0  0.2362
  C  C58  1  0.985300  0.108400  0.779400  1.0  -0.2377
  C  C59  1  0.854200  0.149700  0.786200  1.0  0.1959
  C  C60  1  0.350100  0.708400  0.516400  1.0  0.6273
  C  C61  1  0.472200  0.678200  0.647700  1.0  0.1003
  C  C62  1  0.340400  0.659700  0.797800  1.0  -0.3772
  C  C63  1  0.263000  0.700600  0.922600  1.0  0.7556
  C  C64  1  0.402300  0.894000  0.660600  1.0  0.1774
  C  C65  1  0.285700  0.937700  0.649900  1.0  -0.1943
  C  C66  1  0.091700  0.936500  0.714900  1.0  0.2312
  C  C67  1  0.014700  0.891600  0.779400  1.0  -0.2394
  C  C68  1  0.145800  0.850300  0.786200  1.0  0.195
  N  N69  1  0.165500  0.350000  0.269000  1.0  -0.3174
  N  N70  1  0.542100  0.479200  0.287100  1.0  -0.1541
  N  N71  1  0.834500  0.650000  0.269000  1.0  -0.3176
  N  N72  1  0.457900  0.520800  0.287100  1.0  -0.1542
  N  N73  1  0.665500  0.150000  0.731000  1.0  -0.3186
  N  N74  1  0.042100  0.020800  0.712900  1.0  -0.1534
  N  N75  1  0.334500  0.850000  0.731000  1.0  -0.316
  N  N76  1  0.957900  0.979200  0.712900  1.0  -0.155
  O  O77  1  0.126000  0.256410  0.479800  1.0  -0.5291
  O  O78  1  0.861800  0.206570  0.279300  1.0  -0.4513
  O  O79  1  0.203800  0.246960  0.101000  1.0  -0.5846
  O  O80  1  0.341000  0.183360  0.953700  1.0  -0.6033
  O  O81  1  0.267300  0.184600  0.579500  1.0  -0.5558
  O  O82  1  0.874000  0.743590  0.479800  1.0  -0.5289
  O  O83  1  0.138200  0.793430  0.279300  1.0  -0.4383
  O  O84  1  0.796200  0.753040  0.101000  1.0  -0.585
  O  O85  1  0.659000  0.816640  0.953700  1.0  -0.6033
  O  O86  1  0.732700  0.815400  0.579500  1.0  -0.5552
  O  O87  1  0.626000  0.243590  0.520200  1.0  -0.5295
  O  O88  1  0.361800  0.293430  0.720700  1.0  -0.4507
  O  O89  1  0.703800  0.253040  0.899000  1.0  -0.585
  O  O90  1  0.841000  0.316640  0.046300  1.0  -0.6023
  O  O91  1  0.767300  0.315400  0.420500  1.0  -0.5557
  O  O92  1  0.374000  0.756410  0.520200  1.0  -0.5289
  O  O93  1  0.638200  0.706570  0.720700  1.0  -0.4611
  O  O94  1  0.296200  0.746960  0.899000  1.0  -0.5848
  O  O95  1  0.159000  0.683360  0.046300  1.0  -0.6033
  O  O96  1  0.232700  0.684600  0.420500  1.0  -0.5547
