# generated using pymatgen
data_Zn4H26C44O13
_symmetry_space_group_name_H-M   'P 1'
_cell_length_a   16.74800000
_cell_length_b   24.51800000
_cell_length_c   33.29100000
_cell_angle_alpha   90.00000000
_cell_angle_beta   90.00000000
_cell_angle_gamma   90.00000000
_symmetry_Int_Tables_number   1
_chemical_formula_structural   Zn4H26C44O13
_chemical_formula_sum   'Zn32 H208 C352 O104'
_cell_volume   13670.19890402
_cell_formula_units_Z   8
loop_
 _symmetry_equiv_pos_site_id
 _symmetry_equiv_pos_as_xyz
  1  'x, y, z'
loop_
 _atom_site_type_symbol
 _atom_site_label
 _atom_site_symmetry_multiplicity
 _atom_site_fract_x
 _atom_site_fract_y
 _atom_site_fract_z
 _atom_site_occupancy
 _atom_site_charge
  Zn  Zn1  1  0.897370  0.775350  0.849270  1.0  1.0884
  Zn  Zn2  1  0.043820  0.280410  0.070380  1.0  1.063
  Zn  Zn3  1  0.043270  0.694410  0.847710  1.0  1.0498
  Zn  Zn4  1  0.931860  0.190730  0.113700  1.0  1.0641
  Zn  Zn5  1  0.397370  0.724650  0.650730  1.0  1.0894
  Zn  Zn6  1  0.543820  0.219590  0.429620  1.0  1.0634
  Zn  Zn7  1  0.543270  0.805590  0.652290  1.0  1.0495
  Zn  Zn8  1  0.431860  0.309270  0.386300  1.0  1.065
  Zn  Zn9  1  0.602630  0.775350  0.150730  1.0  1.0896
  Zn  Zn10  1  0.456180  0.280410  0.929620  1.0  1.0636
  Zn  Zn11  1  0.456730  0.694410  0.152290  1.0  1.0504
  Zn  Zn12  1  0.568140  0.190730  0.886300  1.0  1.0647
  Zn  Zn13  1  0.102630  0.724650  0.349270  1.0  1.0881
  Zn  Zn14  1  0.956180  0.219590  0.570380  1.0  1.0632
  Zn  Zn15  1  0.956730  0.805590  0.347710  1.0  1.0503
  Zn  Zn16  1  0.068140  0.309270  0.613700  1.0  1.0646
  Zn  Zn17  1  0.102630  0.224650  0.150730  1.0  1.0898
  Zn  Zn18  1  0.956180  0.719590  0.929620  1.0  1.0635
  Zn  Zn19  1  0.956730  0.305590  0.152290  1.0  1.0499
  Zn  Zn20  1  0.068140  0.809270  0.886300  1.0  1.0645
  Zn  Zn21  1  0.602630  0.275350  0.349270  1.0  1.0881
  Zn  Zn22  1  0.456180  0.780410  0.570380  1.0  1.0633
  Zn  Zn23  1  0.456730  0.194410  0.347710  1.0  1.0504
  Zn  Zn24  1  0.568140  0.690730  0.613700  1.0  1.064
  Zn  Zn25  1  0.397370  0.224650  0.849270  1.0  1.0889
  Zn  Zn26  1  0.543820  0.719590  0.070380  1.0  1.0629
  Zn  Zn27  1  0.543270  0.305590  0.847710  1.0  1.0498
  Zn  Zn28  1  0.431860  0.809270  0.113700  1.0  1.0648
  Zn  Zn29  1  0.897370  0.275350  0.650730  1.0  1.09
  Zn  Zn30  1  0.043820  0.780410  0.429620  1.0  1.0636
  Zn  Zn31  1  0.043270  0.194410  0.652290  1.0  1.05
  Zn  Zn32  1  0.931860  0.690730  0.386300  1.0  1.0651
  H  H33  1  0.832700  0.147000  0.006100  1.0  0.0991
  H  H34  1  0.787700  0.111400  0.945600  1.0  0.1113
  H  H35  1  0.975000  0.179000  0.888900  1.0  0.1044
  H  H36  1  0.020000  0.214500  0.949400  1.0  0.103
  H  H37  1  0.782900  0.118300  0.874700  1.0  0.1047
  H  H38  1  0.762800  0.031900  0.841800  1.0  0.1158
  H  H39  1  0.792900  0.939700  0.837100  1.0  0.1044
  H  H40  1  0.994900  0.964600  0.899600  1.0  0.1085
  H  H41  1  0.964900  0.056800  0.904300  1.0  0.1035
  H  H42  1  0.968500  0.093900  0.822900  1.0  0.0971
  H  H43  1  0.785000  0.197900  0.832700  1.0  0.0983
  H  H44  1  0.740500  0.663600  0.966700  1.0  0.0975
  H  H45  1  0.617700  0.624600  0.981300  1.0  0.1011
  H  H46  1  0.527000  0.687600  0.879600  1.0  0.1013
  H  H47  1  0.649900  0.726600  0.865000  1.0  0.1047
  H  H48  1  0.475300  0.624500  0.972100  1.0  0.1065
  H  H49  1  0.407600  0.605900  0.872300  1.0  0.1023
  H  H50  1  0.388300  0.701500  0.969200  1.0  0.1139
  H  H51  1  0.006200  0.133800  0.766600  1.0  0.0977
  H  H52  1  0.825500  0.238500  0.772800  1.0  0.1005
  H  H53  1  0.290100  0.641200  0.846700  1.0  0.1054
  H  H54  1  0.278500  0.741100  0.941500  1.0  0.088
  H  H55  1  0.560300  0.474400  0.868100  1.0  0.1082
  H  H56  1  0.558200  0.566600  0.884000  1.0  0.0968
  H  H57  1  0.422600  0.536500  0.979400  1.0  0.1136
  H  H58  1  0.427700  0.444400  0.965300  1.0  0.0922
  H  H59  1  0.332700  0.353000  0.493900  1.0  0.0984
  H  H60  1  0.287700  0.388600  0.554400  1.0  0.1119
  H  H61  1  0.475000  0.321000  0.611100  1.0  0.1038
  H  H62  1  0.520000  0.285500  0.550600  1.0  0.1038
  H  H63  1  0.282900  0.381700  0.625300  1.0  0.1046
  H  H64  1  0.262800  0.468100  0.658200  1.0  0.1158
  H  H65  1  0.292900  0.560300  0.662900  1.0  0.1046
  H  H66  1  0.494900  0.535400  0.600400  1.0  0.1079
  H  H67  1  0.464900  0.443200  0.595700  1.0  0.1034
  H  H68  1  0.468500  0.406100  0.677100  1.0  0.0966
  H  H69  1  0.285000  0.302100  0.667300  1.0  0.0993
  H  H70  1  0.240500  0.836400  0.533300  1.0  0.0972
  H  H71  1  0.117700  0.875400  0.518700  1.0  0.1018
  H  H72  1  0.027000  0.812400  0.620400  1.0  0.1008
  H  H73  1  0.149900  0.773400  0.635000  1.0  0.1047
  H  H74  1  0.975300  0.875500  0.527900  1.0  0.1076
  H  H75  1  0.907600  0.894100  0.627700  1.0  0.1023
  H  H76  1  0.888300  0.798500  0.530800  1.0  0.1148
  H  H77  1  0.506200  0.366200  0.733400  1.0  0.0982
  H  H78  1  0.325500  0.261500  0.727200  1.0  0.0997
  H  H79  1  0.790100  0.858800  0.653300  1.0  0.1046
  H  H80  1  0.778500  0.758900  0.558500  1.0  0.0886
  H  H81  1  0.060300  0.025600  0.631900  1.0  0.1081
  H  H82  1  0.058200  0.933400  0.616000  1.0  0.0963
  H  H83  1  0.922600  0.963500  0.520600  1.0  0.1136
  H  H84  1  0.927700  0.055600  0.534700  1.0  0.0929
  H  H85  1  0.667300  0.147000  0.993900  1.0  0.0985
  H  H86  1  0.712300  0.111400  0.054400  1.0  0.1112
  H  H87  1  0.525000  0.179000  0.111100  1.0  0.1037
  H  H88  1  0.480000  0.214500  0.050600  1.0  0.1033
  H  H89  1  0.717100  0.118300  0.125300  1.0  0.1047
  H  H90  1  0.737200  0.031900  0.158200  1.0  0.1154
  H  H91  1  0.707100  0.939700  0.162900  1.0  0.1046
  H  H92  1  0.505100  0.964600  0.100400  1.0  0.1077
  H  H93  1  0.535100  0.056800  0.095700  1.0  0.1038
  H  H94  1  0.531500  0.093900  0.177100  1.0  0.0965
  H  H95  1  0.715000  0.197900  0.167300  1.0  0.1
  H  H96  1  0.759500  0.663600  0.033300  1.0  0.0975
  H  H97  1  0.882300  0.624600  0.018700  1.0  0.1015
  H  H98  1  0.973000  0.687600  0.120400  1.0  0.1009
  H  H99  1  0.850100  0.726600  0.135000  1.0  0.1045
  H  H100  1  0.024700  0.624500  0.027900  1.0  0.1072
  H  H101  1  0.092400  0.605900  0.127700  1.0  0.1027
  H  H102  1  0.111700  0.701500  0.030800  1.0  0.1142
  H  H103  1  0.493800  0.133800  0.233400  1.0  0.0979
  H  H104  1  0.674500  0.238500  0.227200  1.0  0.0999
  H  H105  1  0.209900  0.641200  0.153300  1.0  0.1052
  H  H106  1  0.221500  0.741100  0.058500  1.0  0.0879
  H  H107  1  0.939700  0.474400  0.131900  1.0  0.1083
  H  H108  1  0.941800  0.566600  0.116000  1.0  0.0965
  H  H109  1  0.077400  0.536500  0.020600  1.0  0.1132
  H  H110  1  0.072300  0.444400  0.034700  1.0  0.0928
  H  H111  1  0.167300  0.353000  0.506100  1.0  0.0989
  H  H112  1  0.212300  0.388600  0.445600  1.0  0.1113
  H  H113  1  0.025000  0.321000  0.388900  1.0  0.1034
  H  H114  1  0.980000  0.285500  0.449400  1.0  0.1037
  H  H115  1  0.217100  0.381700  0.374700  1.0  0.1047
  H  H116  1  0.237200  0.468100  0.341800  1.0  0.1149
  H  H117  1  0.207100  0.560300  0.337100  1.0  0.1049
  H  H118  1  0.005100  0.535400  0.399600  1.0  0.1082
  H  H119  1  0.035100  0.443200  0.404300  1.0  0.1038
  H  H120  1  0.031500  0.406100  0.322900  1.0  0.0967
  H  H121  1  0.215000  0.302100  0.332700  1.0  0.0989
  H  H122  1  0.259500  0.836400  0.466700  1.0  0.0976
  H  H123  1  0.382300  0.875400  0.481300  1.0  0.1018
  H  H124  1  0.473000  0.812400  0.379600  1.0  0.1005
  H  H125  1  0.350100  0.773400  0.365000  1.0  0.1047
  H  H126  1  0.524700  0.875500  0.472100  1.0  0.106
  H  H127  1  0.592400  0.894100  0.372300  1.0  0.1022
  H  H128  1  0.611700  0.798500  0.469200  1.0  0.1132
  H  H129  1  0.993800  0.366200  0.266600  1.0  0.0977
  H  H130  1  0.174500  0.261500  0.272800  1.0  0.1002
  H  H131  1  0.709900  0.858800  0.346700  1.0  0.1052
  H  H132  1  0.721500  0.758900  0.441500  1.0  0.0885
  H  H133  1  0.439700  0.025600  0.368100  1.0  0.108
  H  H134  1  0.441800  0.933400  0.384000  1.0  0.0962
  H  H135  1  0.577400  0.963500  0.479400  1.0  0.1132
  H  H136  1  0.572300  0.055600  0.465300  1.0  0.0924
  H  H137  1  0.167300  0.853000  0.993900  1.0  0.0983
  H  H138  1  0.212300  0.888600  0.054400  1.0  0.1116
  H  H139  1  0.025000  0.821000  0.111100  1.0  0.1033
  H  H140  1  0.980000  0.785500  0.050600  1.0  0.1039
  H  H141  1  0.217100  0.881700  0.125300  1.0  0.1045
  H  H142  1  0.237200  0.968100  0.158200  1.0  0.1149
  H  H143  1  0.207100  0.060300  0.162900  1.0  0.1045
  H  H144  1  0.005100  0.035400  0.100400  1.0  0.1078
  H  H145  1  0.035100  0.943200  0.095700  1.0  0.1037
  H  H146  1  0.031500  0.906100  0.177100  1.0  0.0963
  H  H147  1  0.215000  0.802100  0.167300  1.0  0.0999
  H  H148  1  0.259500  0.336400  0.033300  1.0  0.0977
  H  H149  1  0.382300  0.375400  0.018700  1.0  0.1019
  H  H150  1  0.473000  0.312400  0.120400  1.0  0.1013
  H  H151  1  0.350100  0.273400  0.135000  1.0  0.1048
  H  H152  1  0.524700  0.375500  0.027900  1.0  0.1071
  H  H153  1  0.592400  0.394100  0.127700  1.0  0.102
  H  H154  1  0.611700  0.298500  0.030800  1.0  0.1143
  H  H155  1  0.993800  0.866200  0.233400  1.0  0.0977
  H  H156  1  0.174500  0.761500  0.227200  1.0  0.1
  H  H157  1  0.709900  0.358800  0.153300  1.0  0.1047
  H  H158  1  0.721500  0.258900  0.058500  1.0  0.0885
  H  H159  1  0.439700  0.525600  0.131900  1.0  0.1084
  H  H160  1  0.441800  0.433400  0.116000  1.0  0.0965
  H  H161  1  0.577400  0.463500  0.020600  1.0  0.1134
  H  H162  1  0.572300  0.555600  0.034700  1.0  0.0929
  H  H163  1  0.667300  0.647000  0.506100  1.0  0.0993
  H  H164  1  0.712300  0.611400  0.445600  1.0  0.111
  H  H165  1  0.525000  0.679000  0.388900  1.0  0.1038
  H  H166  1  0.480000  0.714500  0.449400  1.0  0.1031
  H  H167  1  0.717100  0.618300  0.374700  1.0  0.1048
  H  H168  1  0.737200  0.531900  0.341800  1.0  0.1152
  H  H169  1  0.707100  0.439700  0.337100  1.0  0.1046
  H  H170  1  0.505100  0.464600  0.399600  1.0  0.1083
  H  H171  1  0.535100  0.556800  0.404300  1.0  0.1039
  H  H172  1  0.531500  0.593900  0.322900  1.0  0.0961
  H  H173  1  0.715000  0.697900  0.332700  1.0  0.0993
  H  H174  1  0.759500  0.163600  0.466700  1.0  0.0977
  H  H175  1  0.882300  0.124600  0.481300  1.0  0.1017
  H  H176  1  0.973000  0.187600  0.379600  1.0  0.1006
  H  H177  1  0.850100  0.226600  0.365000  1.0  0.1046
  H  H178  1  0.024700  0.124500  0.472100  1.0  0.106
  H  H179  1  0.092400  0.105900  0.372300  1.0  0.102
  H  H180  1  0.111700  0.201500  0.469200  1.0  0.1134
  H  H181  1  0.493800  0.633800  0.266600  1.0  0.0975
  H  H182  1  0.674500  0.738500  0.272800  1.0  0.1004
  H  H183  1  0.209900  0.141200  0.346700  1.0  0.1055
  H  H184  1  0.221500  0.241100  0.441500  1.0  0.0878
  H  H185  1  0.939700  0.974400  0.368100  1.0  0.1078
  H  H186  1  0.941800  0.066600  0.384000  1.0  0.0963
  H  H187  1  0.077400  0.036500  0.479400  1.0  0.1132
  H  H188  1  0.072300  0.944400  0.465300  1.0  0.0926
  H  H189  1  0.332700  0.853000  0.006100  1.0  0.0989
  H  H190  1  0.287700  0.888600  0.945600  1.0  0.1116
  H  H191  1  0.475000  0.821000  0.888900  1.0  0.1043
  H  H192  1  0.520000  0.785500  0.949400  1.0  0.1036
  H  H193  1  0.282900  0.881700  0.874700  1.0  0.1049
  H  H194  1  0.262800  0.968100  0.841800  1.0  0.1157
  H  H195  1  0.292900  0.060300  0.837100  1.0  0.1046
  H  H196  1  0.494900  0.035400  0.899600  1.0  0.1085
  H  H197  1  0.464900  0.943200  0.904300  1.0  0.1032
  H  H198  1  0.468500  0.906100  0.822900  1.0  0.0973
  H  H199  1  0.285000  0.802100  0.832700  1.0  0.0981
  H  H200  1  0.240500  0.336400  0.966700  1.0  0.0973
  H  H201  1  0.117700  0.375400  0.981300  1.0  0.1014
  H  H202  1  0.027000  0.312400  0.879600  1.0  0.1009
  H  H203  1  0.149900  0.273400  0.865000  1.0  0.1049
  H  H204  1  0.975300  0.375500  0.972100  1.0  0.1065
  H  H205  1  0.907600  0.394100  0.872300  1.0  0.1024
  H  H206  1  0.888300  0.298500  0.969200  1.0  0.1138
  H  H207  1  0.506200  0.866200  0.766600  1.0  0.0983
  H  H208  1  0.325500  0.761500  0.772800  1.0  0.0995
  H  H209  1  0.790100  0.358800  0.846700  1.0  0.1052
  H  H210  1  0.778500  0.258900  0.941500  1.0  0.0885
  H  H211  1  0.060300  0.525600  0.868100  1.0  0.1081
  H  H212  1  0.058200  0.433400  0.884000  1.0  0.097
  H  H213  1  0.922600  0.463500  0.979400  1.0  0.1134
  H  H214  1  0.927700  0.555600  0.965300  1.0  0.0924
  H  H215  1  0.832700  0.647000  0.493900  1.0  0.0983
  H  H216  1  0.787700  0.611400  0.554400  1.0  0.1116
  H  H217  1  0.975000  0.679000  0.611100  1.0  0.1039
  H  H218  1  0.020000  0.714500  0.550600  1.0  0.1033
  H  H219  1  0.782900  0.618300  0.625300  1.0  0.1048
  H  H220  1  0.762800  0.531900  0.658200  1.0  0.116
  H  H221  1  0.792900  0.439700  0.662900  1.0  0.1048
  H  H222  1  0.994900  0.464600  0.600400  1.0  0.1078
  H  H223  1  0.964900  0.556800  0.595700  1.0  0.1037
  H  H224  1  0.968500  0.593900  0.677100  1.0  0.0972
  H  H225  1  0.785000  0.697900  0.667300  1.0  0.0995
  H  H226  1  0.740500  0.163600  0.533300  1.0  0.0972
  H  H227  1  0.617700  0.124600  0.518700  1.0  0.1014
  H  H228  1  0.527000  0.187600  0.620400  1.0  0.1008
  H  H229  1  0.649900  0.226600  0.635000  1.0  0.1045
  H  H230  1  0.475300  0.124500  0.527900  1.0  0.1077
  H  H231  1  0.407600  0.105900  0.627700  1.0  0.103
  H  H232  1  0.388300  0.201500  0.530800  1.0  0.1146
  H  H233  1  0.006200  0.633800  0.733400  1.0  0.098
  H  H234  1  0.825500  0.738500  0.727200  1.0  0.1002
  H  H235  1  0.290100  0.141200  0.653300  1.0  0.1052
  H  H236  1  0.278500  0.241100  0.558500  1.0  0.088
  H  H237  1  0.560300  0.974400  0.631900  1.0  0.1082
  H  H238  1  0.558200  0.066600  0.616000  1.0  0.0966
  H  H239  1  0.422600  0.036500  0.520600  1.0  0.1138
  H  H240  1  0.427700  0.944400  0.534700  1.0  0.0923
  C  C241  1  0.959500  0.206520  0.022340  1.0  0.7196
  C  C242  1  0.930810  0.184270  0.983730  1.0  -0.1775
  C  C243  1  0.861240  0.153390  0.982610  1.0  -0.0391
  C  C244  1  0.834280  0.132110  0.946370  1.0  -0.1454
  C  C245  1  0.876890  0.141700  0.911240  1.0  0.0781
  C  C246  1  0.946460  0.172580  0.912360  1.0  -0.1119
  C  C247  1  0.973420  0.193870  0.948600  1.0  -0.0173
  C  C248  1  0.841100  0.114060  0.873930  1.0  -0.1142
  C  C249  1  0.860880  0.053440  0.873530  1.0  0.0766
  C  C250  1  0.809360  0.018370  0.853410  1.0  -0.0762
  C  C251  1  0.827370  0.963160  0.850610  1.0  -0.054
  C  C252  1  0.896890  0.943020  0.867920  1.0  -0.1518
  C  C253  1  0.948410  0.978080  0.888040  1.0  -0.03
  C  C254  1  0.930400  0.033290  0.890840  1.0  -0.1044
  C  C255  1  0.872900  0.141570  0.835230  1.0  0.0709
  C  C256  1  0.938900  0.123100  0.813200  1.0  -0.145
  C  C257  1  0.829700  0.184600  0.819210  1.0  -0.0917
  C  C258  1  0.786700  0.721970  0.905220  1.0  0.7308
  C  C259  1  0.707360  0.698990  0.914410  1.0  -0.1447
  C  C260  1  0.697720  0.668440  0.949250  1.0  -0.073
  C  C261  1  0.624130  0.645060  0.957990  1.0  -0.0667
  C  C262  1  0.560190  0.652240  0.931910  1.0  0.0531
  C  C263  1  0.569820  0.682790  0.897070  1.0  -0.1027
  C  C264  1  0.643410  0.706170  0.888320  1.0  -0.0359
  C  C265  1  0.481500  0.622180  0.942870  1.0  -0.1034
  C  C266  1  0.409000  0.648240  0.924330  1.0  0.0767
  C  C267  1  0.379800  0.632000  0.886910  1.0  -0.134
  C  C268  1  0.369500  0.689470  0.944420  1.0  -0.141
  C  C269  1  0.937000  0.208500  0.721190  1.0  0.7342
  C  C270  1  0.916700  0.187670  0.760770  1.0  -0.1854
  C  C271  1  0.959900  0.146000  0.779150  1.0  -0.0363
  C  C272  1  0.853100  0.208400  0.782560  1.0  -0.0796
  C  C273  1  0.192500  0.717200  0.876890  1.0  0.6826
  C  C274  1  0.270800  0.695090  0.891870  1.0  -0.1569
  C  C275  1  0.310200  0.653900  0.871040  1.0  -0.0599
  C  C276  1  0.303100  0.712500  0.927990  1.0  -0.0045
  C  C277  1  0.918000  0.883230  0.865990  1.0  0.719
  C  C278  1  0.500700  0.390430  0.908680  1.0  0.7003
  C  C279  1  0.494900  0.449580  0.915780  1.0  -0.1562
  C  C280  1  0.533100  0.486480  0.890800  1.0  -0.0578
  C  C281  1  0.530400  0.542020  0.900090  1.0  -0.0976
  C  C282  1  0.488400  0.561080  0.931990  1.0  0.0636
  C  C283  1  0.450400  0.524200  0.956960  1.0  -0.1358
  C  C284  1  0.453800  0.468890  0.948490  1.0  -0.0244
  C  C285  1  0.459500  0.293480  0.477660  1.0  0.7181
  C  C286  1  0.430810  0.315730  0.516270  1.0  -0.1752
  C  C287  1  0.361240  0.346610  0.517390  1.0  -0.0406
  C  C288  1  0.334280  0.367890  0.553630  1.0  -0.1483
  C  C289  1  0.376890  0.358300  0.588760  1.0  0.0789
  C  C290  1  0.446460  0.327420  0.587640  1.0  -0.1124
  C  C291  1  0.473420  0.306130  0.551400  1.0  -0.0172
  C  C292  1  0.341100  0.385940  0.626070  1.0  -0.1144
  C  C293  1  0.360880  0.446560  0.626470  1.0  0.077
  C  C294  1  0.309360  0.481630  0.646590  1.0  -0.0767
  C  C295  1  0.327370  0.536840  0.649390  1.0  -0.0529
  C  C296  1  0.396890  0.556980  0.632080  1.0  -0.1529
  C  C297  1  0.448410  0.521920  0.611960  1.0  -0.0309
  C  C298  1  0.430400  0.466710  0.609160  1.0  -0.1037
  C  C299  1  0.372900  0.358430  0.664770  1.0  0.0716
  C  C300  1  0.438900  0.376900  0.686800  1.0  -0.1454
  C  C301  1  0.329700  0.315400  0.680790  1.0  -0.0924
  C  C302  1  0.286700  0.778030  0.594780  1.0  0.7311
  C  C303  1  0.207360  0.801010  0.585590  1.0  -0.1454
  C  C304  1  0.197720  0.831560  0.550750  1.0  -0.0732
  C  C305  1  0.124130  0.854940  0.542010  1.0  -0.0655
  C  C306  1  0.060190  0.847760  0.568090  1.0  0.0532
  C  C307  1  0.069820  0.817210  0.602930  1.0  -0.1055
  C  C308  1  0.143410  0.793830  0.611680  1.0  -0.0383
  C  C309  1  0.981500  0.877820  0.557130  1.0  -0.1028
  C  C310  1  0.909000  0.851760  0.575670  1.0  0.0764
  C  C311  1  0.879800  0.868000  0.613090  1.0  -0.1342
  C  C312  1  0.869500  0.810530  0.555580  1.0  -0.1413
  C  C313  1  0.437000  0.291500  0.778810  1.0  0.7356
  C  C314  1  0.416700  0.312330  0.739230  1.0  -0.1855
  C  C315  1  0.459900  0.354000  0.720850  1.0  -0.0361
  C  C316  1  0.353100  0.291600  0.717440  1.0  -0.0793
  C  C317  1  0.692500  0.782800  0.623110  1.0  0.6824
  C  C318  1  0.770800  0.804910  0.608130  1.0  -0.1556
  C  C319  1  0.810200  0.846100  0.628960  1.0  -0.0625
  C  C320  1  0.803100  0.787500  0.572010  1.0  -0.0039
  C  C321  1  0.418000  0.616770  0.634010  1.0  0.7196
  C  C322  1  0.000700  0.109570  0.591320  1.0  0.7011
  C  C323  1  0.994900  0.050420  0.584220  1.0  -0.1553
  C  C324  1  0.033100  0.013520  0.609200  1.0  -0.0584
  C  C325  1  0.030400  0.957980  0.599910  1.0  -0.0957
  C  C326  1  0.988400  0.938920  0.568010  1.0  0.0649
  C  C327  1  0.950400  0.975800  0.543040  1.0  -0.1357
  C  C328  1  0.953800  0.031110  0.551510  1.0  -0.0245
  C  C329  1  0.540500  0.206520  0.977660  1.0  0.719
  C  C330  1  0.569190  0.184270  0.016270  1.0  -0.1732
  C  C331  1  0.638760  0.153390  0.017390  1.0  -0.0418
  C  C332  1  0.665720  0.132110  0.053630  1.0  -0.1484
  C  C333  1  0.623110  0.141700  0.088760  1.0  0.0785
  C  C334  1  0.553540  0.172580  0.087640  1.0  -0.1123
  C  C335  1  0.526580  0.193870  0.051400  1.0  -0.0182
  C  C336  1  0.658900  0.114060  0.126070  1.0  -0.1139
  C  C337  1  0.639120  0.053440  0.126470  1.0  0.0767
  C  C338  1  0.690640  0.018370  0.146590  1.0  -0.076
  C  C339  1  0.672630  0.963160  0.149390  1.0  -0.0532
  C  C340  1  0.603110  0.943020  0.132080  1.0  -0.1514
  C  C341  1  0.551590  0.978080  0.111960  1.0  -0.0297
  C  C342  1  0.569600  0.033290  0.109160  1.0  -0.1062
  C  C343  1  0.627100  0.141570  0.164770  1.0  0.0728
  C  C344  1  0.561100  0.123100  0.186800  1.0  -0.1462
  C  C345  1  0.670300  0.184600  0.180790  1.0  -0.0925
  C  C346  1  0.713300  0.721970  0.094780  1.0  0.7318
  C  C347  1  0.792640  0.698990  0.085590  1.0  -0.145
  C  C348  1  0.802280  0.668440  0.050750  1.0  -0.0719
  C  C349  1  0.875870  0.645060  0.042010  1.0  -0.0651
  C  C350  1  0.939810  0.652240  0.068090  1.0  0.0532
  C  C351  1  0.930180  0.682790  0.102930  1.0  -0.1062
  C  C352  1  0.856590  0.706170  0.111680  1.0  -0.0382
  C  C353  1  0.018500  0.622180  0.057130  1.0  -0.1024
  C  C354  1  0.091000  0.648240  0.075670  1.0  0.0761
  C  C355  1  0.120200  0.632000  0.113090  1.0  -0.134
  C  C356  1  0.130500  0.689470  0.055580  1.0  -0.1406
  C  C357  1  0.563000  0.208500  0.278810  1.0  0.7347
  C  C358  1  0.583300  0.187670  0.239230  1.0  -0.1848
  C  C359  1  0.540100  0.146000  0.220850  1.0  -0.0367
  C  C360  1  0.646900  0.208400  0.217440  1.0  -0.0802
  C  C361  1  0.307500  0.717200  0.123110  1.0  0.6823
  C  C362  1  0.229200  0.695090  0.108130  1.0  -0.1572
  C  C363  1  0.189800  0.653900  0.128960  1.0  -0.0616
  C  C364  1  0.196900  0.712500  0.072010  1.0  -0.0042
  C  C365  1  0.582000  0.883230  0.134010  1.0  0.7183
  C  C366  1  0.999300  0.390430  0.091320  1.0  0.7007
  C  C367  1  0.005100  0.449580  0.084220  1.0  -0.1559
  C  C368  1  0.966900  0.486480  0.109200  1.0  -0.0585
  C  C369  1  0.969600  0.542020  0.099910  1.0  -0.0958
  C  C370  1  0.011600  0.561080  0.068010  1.0  0.0657
  C  C371  1  0.049600  0.524200  0.043040  1.0  -0.1371
  C  C372  1  0.046200  0.468890  0.051510  1.0  -0.024
  C  C373  1  0.040500  0.293480  0.522340  1.0  0.7197
  C  C374  1  0.069190  0.315730  0.483730  1.0  -0.1738
  C  C375  1  0.138760  0.346610  0.482610  1.0  -0.0405
  C  C376  1  0.165720  0.367890  0.446370  1.0  -0.1486
  C  C377  1  0.123110  0.358300  0.411240  1.0  0.0782
  C  C378  1  0.053540  0.327420  0.412360  1.0  -0.1128
  C  C379  1  0.026580  0.306130  0.448600  1.0  -0.0188
  C  C380  1  0.158900  0.385940  0.373930  1.0  -0.1137
  C  C381  1  0.139120  0.446560  0.373530  1.0  0.0779
  C  C382  1  0.190640  0.481630  0.353410  1.0  -0.076
  C  C383  1  0.172630  0.536840  0.350610  1.0  -0.0541
  C  C384  1  0.103110  0.556980  0.367920  1.0  -0.1523
  C  C385  1  0.051590  0.521920  0.388040  1.0  -0.0304
  C  C386  1  0.069600  0.466710  0.390840  1.0  -0.1051
  C  C387  1  0.127100  0.358430  0.335230  1.0  0.071
  C  C388  1  0.061100  0.376900  0.313200  1.0  -0.1439
  C  C389  1  0.170300  0.315400  0.319210  1.0  -0.0916
  C  C390  1  0.213300  0.778030  0.405220  1.0  0.7322
  C  C391  1  0.292640  0.801010  0.414410  1.0  -0.1456
  C  C392  1  0.302280  0.831560  0.449250  1.0  -0.072
  C  C393  1  0.375870  0.854940  0.457990  1.0  -0.0659
  C  C394  1  0.439810  0.847760  0.431910  1.0  0.0527
  C  C395  1  0.430180  0.817210  0.397070  1.0  -0.1025
  C  C396  1  0.356590  0.793830  0.388320  1.0  -0.0353
  C  C397  1  0.518500  0.877820  0.442870  1.0  -0.1027
  C  C398  1  0.591000  0.851760  0.424330  1.0  0.0752
  C  C399  1  0.620200  0.868000  0.386910  1.0  -0.1341
  C  C400  1  0.630500  0.810530  0.444420  1.0  -0.1404
  C  C401  1  0.063000  0.291500  0.221190  1.0  0.7345
  C  C402  1  0.083300  0.312330  0.260770  1.0  -0.1854
  C  C403  1  0.040100  0.354000  0.279150  1.0  -0.0365
  C  C404  1  0.146900  0.291600  0.282560  1.0  -0.0782
  C  C405  1  0.807500  0.782800  0.376890  1.0  0.6812
  C  C406  1  0.729200  0.804910  0.391870  1.0  -0.1557
  C  C407  1  0.689800  0.846100  0.371040  1.0  -0.0606
  C  C408  1  0.696900  0.787500  0.427990  1.0  -0.0045
  C  C409  1  0.082000  0.616770  0.365990  1.0  0.7195
  C  C410  1  0.499300  0.109570  0.408680  1.0  0.7001
  C  C411  1  0.505100  0.050420  0.415780  1.0  -0.1542
  C  C412  1  0.466900  0.013520  0.390800  1.0  -0.0561
  C  C413  1  0.469600  0.957980  0.400090  1.0  -0.0954
  C  C414  1  0.511600  0.938920  0.431990  1.0  0.0648
  C  C415  1  0.549600  0.975800  0.456960  1.0  -0.1374
  C  C416  1  0.546200  0.031110  0.448490  1.0  -0.0244
  C  C417  1  0.040500  0.793480  0.977660  1.0  0.7195
  C  C418  1  0.069190  0.815730  0.016270  1.0  -0.1736
  C  C419  1  0.138760  0.846610  0.017390  1.0  -0.0411
  C  C420  1  0.165720  0.867890  0.053630  1.0  -0.1487
  C  C421  1  0.123110  0.858300  0.088760  1.0  0.0786
  C  C422  1  0.053540  0.827420  0.087640  1.0  -0.1125
  C  C423  1  0.026580  0.806130  0.051400  1.0  -0.0187
  C  C424  1  0.158900  0.885940  0.126070  1.0  -0.1138
  C  C425  1  0.139120  0.946560  0.126470  1.0  0.0777
  C  C426  1  0.190640  0.981630  0.146590  1.0  -0.0758
  C  C427  1  0.172630  0.036840  0.149390  1.0  -0.0526
  C  C428  1  0.103110  0.056980  0.132080  1.0  -0.1524
  C  C429  1  0.051590  0.021920  0.111960  1.0  -0.0305
  C  C430  1  0.069600  0.966710  0.109160  1.0  -0.1051
  C  C431  1  0.127100  0.858430  0.164770  1.0  0.0721
  C  C432  1  0.061100  0.876900  0.186800  1.0  -0.146
  C  C433  1  0.170300  0.815400  0.180790  1.0  -0.0924
  C  C434  1  0.213300  0.278030  0.094780  1.0  0.7323
  C  C435  1  0.292640  0.301010  0.085590  1.0  -0.1455
  C  C436  1  0.302280  0.331560  0.050750  1.0  -0.0719
  C  C437  1  0.375870  0.354940  0.042010  1.0  -0.0643
  C  C438  1  0.439810  0.347760  0.068090  1.0  0.053
  C  C439  1  0.430180  0.317210  0.102930  1.0  -0.1058
  C  C440  1  0.356590  0.293830  0.111680  1.0  -0.0383
  C  C441  1  0.518500  0.377820  0.057130  1.0  -0.1025
  C  C442  1  0.591000  0.351760  0.075670  1.0  0.0758
  C  C443  1  0.620200  0.368000  0.113090  1.0  -0.135
  C  C444  1  0.630500  0.310530  0.055580  1.0  -0.1405
  C  C445  1  0.063000  0.791500  0.278810  1.0  0.7355
  C  C446  1  0.083300  0.812330  0.239230  1.0  -0.1848
  C  C447  1  0.040100  0.854000  0.220850  1.0  -0.0374
  C  C448  1  0.146900  0.791600  0.217440  1.0  -0.0793
  C  C449  1  0.807500  0.282800  0.123110  1.0  0.6822
  C  C450  1  0.729200  0.304910  0.108130  1.0  -0.1562
  C  C451  1  0.689800  0.346100  0.128960  1.0  -0.0608
  C  C452  1  0.696900  0.287500  0.072010  1.0  -0.0034
  C  C453  1  0.082000  0.116770  0.134010  1.0  0.7193
  C  C454  1  0.499300  0.609570  0.091320  1.0  0.701
  C  C455  1  0.505100  0.550420  0.084220  1.0  -0.1554
  C  C456  1  0.466900  0.513520  0.109200  1.0  -0.0594
  C  C457  1  0.469600  0.457980  0.099910  1.0  -0.0956
  C  C458  1  0.511600  0.438920  0.068010  1.0  0.0658
  C  C459  1  0.549600  0.475800  0.043040  1.0  -0.1374
  C  C460  1  0.546200  0.531110  0.051510  1.0  -0.0235
  C  C461  1  0.540500  0.706520  0.522340  1.0  0.7202
  C  C462  1  0.569190  0.684270  0.483730  1.0  -0.1739
  C  C463  1  0.638760  0.653390  0.482610  1.0  -0.04
  C  C464  1  0.665720  0.632110  0.446370  1.0  -0.1467
  C  C465  1  0.623110  0.641700  0.411240  1.0  0.078
  C  C466  1  0.553540  0.672580  0.412360  1.0  -0.1126
  C  C467  1  0.526580  0.693870  0.448600  1.0  -0.0185
  C  C468  1  0.658900  0.614060  0.373930  1.0  -0.1137
  C  C469  1  0.639120  0.553440  0.373530  1.0  0.0768
  C  C470  1  0.690640  0.518370  0.353410  1.0  -0.0773
  C  C471  1  0.672630  0.463160  0.350610  1.0  -0.0546
  C  C472  1  0.603110  0.443020  0.367920  1.0  -0.1515
  C  C473  1  0.551590  0.478080  0.388040  1.0  -0.0293
  C  C474  1  0.569600  0.533290  0.390840  1.0  -0.106
  C  C475  1  0.627100  0.641570  0.335230  1.0  0.0712
  C  C476  1  0.561100  0.623100  0.313200  1.0  -0.1451
  C  C477  1  0.670300  0.684600  0.319210  1.0  -0.0916
  C  C478  1  0.713300  0.221970  0.405220  1.0  0.7317
  C  C479  1  0.792640  0.198990  0.414410  1.0  -0.1448
  C  C480  1  0.802280  0.168440  0.449250  1.0  -0.0717
  C  C481  1  0.875870  0.145060  0.457990  1.0  -0.0663
  C  C482  1  0.939810  0.152240  0.431910  1.0  0.0529
  C  C483  1  0.930180  0.182790  0.397070  1.0  -0.1028
  C  C484  1  0.856590  0.206170  0.388320  1.0  -0.0353
  C  C485  1  0.018500  0.122180  0.442870  1.0  -0.1028
  C  C486  1  0.091000  0.148240  0.424330  1.0  0.0757
  C  C487  1  0.120200  0.132000  0.386910  1.0  -0.1349
  C  C488  1  0.130500  0.189470  0.444420  1.0  -0.1403
  C  C489  1  0.563000  0.708500  0.221190  1.0  0.7342
  C  C490  1  0.583300  0.687670  0.260770  1.0  -0.1845
  C  C491  1  0.540100  0.646000  0.279150  1.0  -0.0359
  C  C492  1  0.646900  0.708400  0.282560  1.0  -0.0797
  C  C493  1  0.307500  0.217200  0.376890  1.0  0.6814
  C  C494  1  0.229200  0.195090  0.391870  1.0  -0.1564
  C  C495  1  0.189800  0.153900  0.371040  1.0  -0.0604
  C  C496  1  0.196900  0.212500  0.427990  1.0  -0.0044
  C  C497  1  0.582000  0.383230  0.365990  1.0  0.7186
  C  C498  1  0.999300  0.890430  0.408680  1.0  0.7001
  C  C499  1  0.005100  0.949580  0.415780  1.0  -0.1563
  C  C500  1  0.966900  0.986480  0.390800  1.0  -0.0557
  C  C501  1  0.969600  0.042020  0.400090  1.0  -0.0955
  C  C502  1  0.011600  0.061080  0.431990  1.0  0.0643
  C  C503  1  0.049600  0.024200  0.456960  1.0  -0.1371
  C  C504  1  0.046200  0.968890  0.448490  1.0  -0.0241
  C  C505  1  0.459500  0.793480  0.022340  1.0  0.7188
  C  C506  1  0.430810  0.815730  0.983730  1.0  -0.177
  C  C507  1  0.361240  0.846610  0.982610  1.0  -0.0398
  C  C508  1  0.334280  0.867890  0.946370  1.0  -0.1483
  C  C509  1  0.376890  0.858300  0.911240  1.0  0.0785
  C  C510  1  0.446460  0.827420  0.912360  1.0  -0.1123
  C  C511  1  0.473420  0.806130  0.948600  1.0  -0.0171
  C  C512  1  0.341100  0.885940  0.873930  1.0  -0.1146
  C  C513  1  0.360880  0.946560  0.873530  1.0  0.0771
  C  C514  1  0.309360  0.981630  0.853410  1.0  -0.0757
  C  C515  1  0.327370  0.036840  0.850610  1.0  -0.0542
  C  C516  1  0.396890  0.056980  0.867920  1.0  -0.1528
  C  C517  1  0.448410  0.021920  0.888040  1.0  -0.0305
  C  C518  1  0.430400  0.966710  0.890840  1.0  -0.1036
  C  C519  1  0.372900  0.858430  0.835230  1.0  0.0707
  C  C520  1  0.438900  0.876900  0.813200  1.0  -0.1444
  C  C521  1  0.329700  0.815400  0.819210  1.0  -0.0912
  C  C522  1  0.286700  0.278030  0.905220  1.0  0.7307
  C  C523  1  0.207360  0.301010  0.914410  1.0  -0.1455
  C  C524  1  0.197720  0.331560  0.949250  1.0  -0.0731
  C  C525  1  0.124130  0.354940  0.957990  1.0  -0.0667
  C  C526  1  0.060190  0.347760  0.931910  1.0  0.0529
  C  C527  1  0.069820  0.317210  0.897070  1.0  -0.1024
  C  C528  1  0.143410  0.293830  0.888320  1.0  -0.0361
  C  C529  1  0.981500  0.377820  0.942870  1.0  -0.1033
  C  C530  1  0.909000  0.351760  0.924330  1.0  0.0759
  C  C531  1  0.879800  0.368000  0.886910  1.0  -0.133
  C  C532  1  0.869500  0.310530  0.944420  1.0  -0.1411
  C  C533  1  0.437000  0.791500  0.721190  1.0  0.7342
  C  C534  1  0.416700  0.812330  0.760770  1.0  -0.1863
  C  C535  1  0.459900  0.854000  0.779150  1.0  -0.037
  C  C536  1  0.353100  0.791600  0.782560  1.0  -0.0774
  C  C537  1  0.692500  0.282800  0.876890  1.0  0.6822
  C  C538  1  0.770800  0.304910  0.891870  1.0  -0.156
  C  C539  1  0.810200  0.346100  0.871040  1.0  -0.06
  C  C540  1  0.803100  0.287500  0.927990  1.0  -0.005
  C  C541  1  0.418000  0.116770  0.865990  1.0  0.7198
  C  C542  1  0.000700  0.609570  0.908680  1.0  0.7003
  C  C543  1  0.994900  0.550420  0.915780  1.0  -0.1542
  C  C544  1  0.033100  0.513520  0.890800  1.0  -0.0577
  C  C545  1  0.030400  0.457980  0.900090  1.0  -0.0975
  C  C546  1  0.988400  0.438920  0.931990  1.0  0.064
  C  C547  1  0.950400  0.475800  0.956960  1.0  -0.1361
  C  C548  1  0.953800  0.531110  0.948490  1.0  -0.0248
  C  C549  1  0.959500  0.706520  0.477660  1.0  0.7178
  C  C550  1  0.930810  0.684270  0.516270  1.0  -0.1746
  C  C551  1  0.861240  0.653390  0.517390  1.0  -0.0408
  C  C552  1  0.834280  0.632110  0.553630  1.0  -0.147
  C  C553  1  0.876890  0.641700  0.588760  1.0  0.0786
  C  C554  1  0.946460  0.672580  0.587640  1.0  -0.1118
  C  C555  1  0.973420  0.693870  0.551400  1.0  -0.0174
  C  C556  1  0.841100  0.614060  0.626070  1.0  -0.1141
  C  C557  1  0.860880  0.553440  0.626470  1.0  0.0764
  C  C558  1  0.809360  0.518370  0.646590  1.0  -0.0763
  C  C559  1  0.827370  0.463160  0.649390  1.0  -0.053
  C  C560  1  0.896890  0.443020  0.632080  1.0  -0.1518
  C  C561  1  0.948410  0.478080  0.611960  1.0  -0.0307
  C  C562  1  0.930400  0.533290  0.609160  1.0  -0.1049
  C  C563  1  0.872900  0.641570  0.664770  1.0  0.0724
  C  C564  1  0.938900  0.623100  0.686800  1.0  -0.1452
  C  C565  1  0.829700  0.684600  0.680790  1.0  -0.0925
  C  C566  1  0.786700  0.221970  0.594780  1.0  0.731
  C  C567  1  0.707360  0.198990  0.585590  1.0  -0.145
  C  C568  1  0.697720  0.168440  0.550750  1.0  -0.0734
  C  C569  1  0.624130  0.145060  0.542010  1.0  -0.0658
  C  C570  1  0.560190  0.152240  0.568090  1.0  0.0533
  C  C571  1  0.569820  0.182790  0.602930  1.0  -0.1058
  C  C572  1  0.643410  0.206170  0.611680  1.0  -0.0381
  C  C573  1  0.481500  0.122180  0.557130  1.0  -0.1026
  C  C574  1  0.409000  0.148240  0.575670  1.0  0.077
  C  C575  1  0.379800  0.132000  0.613090  1.0  -0.1332
  C  C576  1  0.369500  0.189470  0.555580  1.0  -0.1413
  C  C577  1  0.937000  0.708500  0.778810  1.0  0.735
  C  C578  1  0.916700  0.687670  0.739230  1.0  -0.1855
  C  C579  1  0.959900  0.646000  0.720850  1.0  -0.036
  C  C580  1  0.853100  0.708400  0.717440  1.0  -0.0813
  C  C581  1  0.192500  0.217200  0.623110  1.0  0.6828
  C  C582  1  0.270800  0.195090  0.608130  1.0  -0.1567
  C  C583  1  0.310200  0.153900  0.628960  1.0  -0.0634
  C  C584  1  0.303100  0.212500  0.572010  1.0  -0.0043
  C  C585  1  0.918000  0.383230  0.634010  1.0  0.7186
  C  C586  1  0.500700  0.890430  0.591320  1.0  0.7007
  C  C587  1  0.494900  0.949580  0.584220  1.0  -0.1559
  C  C588  1  0.533100  0.986480  0.609200  1.0  -0.0578
  C  C589  1  0.530400  0.042020  0.599910  1.0  -0.0961
  C  C590  1  0.488400  0.061080  0.568010  1.0  0.065
  C  C591  1  0.450400  0.024200  0.543040  1.0  -0.1356
  C  C592  1  0.453800  0.968890  0.551510  1.0  -0.0248
  O  O593  1  0.872600  0.852320  0.846310  1.0  -0.5962
  O  O594  1  0.931300  0.183590  0.053350  1.0  -0.6365
  O  O595  1  0.006900  0.245190  0.022070  1.0  -0.5888
  O  O596  1  0.518800  0.377560  0.872410  1.0  -0.6409
  O  O597  1  0.481000  0.358630  0.935670  1.0  -0.588
  O  O598  1  0.840180  0.717810  0.931360  1.0  -0.6269
  O  O599  1  0.798110  0.743880  0.871610  1.0  -0.6058
  O  O600  1  0.895600  0.245610  0.705680  1.0  -0.6182
  O  O601  1  0.997100  0.187210  0.705230  1.0  -0.6131
  O  O602  1  0.168900  0.760700  0.892940  1.0  -0.6224
  O  O603  1  0.158200  0.691690  0.849710  1.0  -0.5847
  O  O604  1  0.988410  0.749590  0.879210  1.0  -1.2257
  O  O605  1  0.973800  0.867390  0.885310  1.0  -0.6511
  O  O606  1  0.372600  0.647680  0.653690  1.0  -0.5972
  O  O607  1  0.431300  0.316410  0.446650  1.0  -0.6343
  O  O608  1  0.506900  0.254810  0.477930  1.0  -0.5889
  O  O609  1  0.018800  0.122440  0.627590  1.0  -0.6385
  O  O610  1  0.981000  0.141370  0.564330  1.0  -0.5867
  O  O611  1  0.340180  0.782190  0.568640  1.0  -0.628
  O  O612  1  0.298110  0.756120  0.628390  1.0  -0.6076
  O  O613  1  0.395600  0.254390  0.794320  1.0  -0.6172
  O  O614  1  0.497100  0.312790  0.794770  1.0  -0.6156
  O  O615  1  0.668900  0.739300  0.607060  1.0  -0.6215
  O  O616  1  0.658200  0.808310  0.650290  1.0  -0.584
  O  O617  1  0.488410  0.750410  0.620790  1.0  -1.2241
  O  O618  1  0.473800  0.632610  0.614690  1.0  -0.6518
  O  O619  1  0.627400  0.852320  0.153690  1.0  -0.5964
  O  O620  1  0.568700  0.183590  0.946650  1.0  -0.6358
  O  O621  1  0.493100  0.245190  0.977930  1.0  -0.5891
  O  O622  1  0.981200  0.377560  0.127590  1.0  -0.6392
  O  O623  1  0.019000  0.358630  0.064330  1.0  -0.5878
  O  O624  1  0.659820  0.717810  0.068640  1.0  -0.627
  O  O625  1  0.701890  0.743880  0.128390  1.0  -0.6073
  O  O626  1  0.604400  0.245610  0.294320  1.0  -0.6176
  O  O627  1  0.502900  0.187210  0.294770  1.0  -0.6129
  O  O628  1  0.331100  0.760700  0.107060  1.0  -0.6219
  O  O629  1  0.341800  0.691690  0.150290  1.0  -0.5844
  O  O630  1  0.511590  0.749590  0.120790  1.0  -1.2247
  O  O631  1  0.526200  0.867390  0.114690  1.0  -0.6511
  O  O632  1  0.127400  0.647680  0.346310  1.0  -0.5969
  O  O633  1  0.068700  0.316410  0.553350  1.0  -0.637
  O  O634  1  0.993100  0.254810  0.522070  1.0  -0.5893
  O  O635  1  0.481200  0.122440  0.372410  1.0  -0.6408
  O  O636  1  0.519000  0.141370  0.435670  1.0  -0.5881
  O  O637  1  0.159820  0.782190  0.431360  1.0  -0.6256
  O  O638  1  0.201890  0.756120  0.371610  1.0  -0.6058
  O  O639  1  0.104400  0.254390  0.205680  1.0  -0.616
  O  O640  1  0.002900  0.312790  0.205230  1.0  -0.615
  O  O641  1  0.831100  0.739300  0.392940  1.0  -0.6211
  O  O642  1  0.841800  0.808310  0.349710  1.0  -0.5854
  O  O643  1  0.011590  0.750410  0.379210  1.0  -1.2261
  O  O644  1  0.026200  0.632610  0.385310  1.0  -0.6508
  O  O645  1  0.127400  0.147680  0.153690  1.0  -0.5971
  O  O646  1  0.068700  0.816410  0.946650  1.0  -0.6368
  O  O647  1  0.993100  0.754810  0.977930  1.0  -0.589
  O  O648  1  0.481200  0.622440  0.127590  1.0  -0.6392
  O  O649  1  0.519000  0.641370  0.064330  1.0  -0.5876
  O  O650  1  0.159820  0.282190  0.068640  1.0  -0.6264
  O  O651  1  0.201890  0.256120  0.128390  1.0  -0.6077
  O  O652  1  0.104400  0.754390  0.294320  1.0  -0.6163
  O  O653  1  0.002900  0.812790  0.294770  1.0  -0.6154
  O  O654  1  0.831100  0.239300  0.107060  1.0  -0.621
  O  O655  1  0.841800  0.308310  0.150290  1.0  -0.5843
  O  O656  1  0.011590  0.250410  0.120790  1.0  -1.2245
  O  O657  1  0.026200  0.132610  0.114690  1.0  -0.6513
  O  O658  1  0.627400  0.352320  0.346310  1.0  -0.5964
  O  O659  1  0.568700  0.683590  0.553350  1.0  -0.638
  O  O660  1  0.493100  0.745190  0.522070  1.0  -0.5887
  O  O661  1  0.981200  0.877560  0.372410  1.0  -0.6407
  O  O662  1  0.019000  0.858630  0.435670  1.0  -0.5885
  O  O663  1  0.659820  0.217810  0.431360  1.0  -0.6258
  O  O664  1  0.701890  0.243880  0.371610  1.0  -0.6062
  O  O665  1  0.604400  0.745610  0.205680  1.0  -0.6177
  O  O666  1  0.502900  0.687210  0.205230  1.0  -0.6149
  O  O667  1  0.331100  0.260700  0.392940  1.0  -0.6224
  O  O668  1  0.341800  0.191690  0.349710  1.0  -0.585
  O  O669  1  0.511590  0.249590  0.379210  1.0  -1.2262
  O  O670  1  0.526200  0.367390  0.385310  1.0  -0.6508
  O  O671  1  0.372600  0.147680  0.846310  1.0  -0.5971
  O  O672  1  0.431300  0.816410  0.053350  1.0  -0.6372
  O  O673  1  0.506900  0.754810  0.022070  1.0  -0.5889
  O  O674  1  0.018800  0.622440  0.872410  1.0  -0.6405
  O  O675  1  0.981000  0.641370  0.935670  1.0  -0.5876
  O  O676  1  0.340180  0.282190  0.931360  1.0  -0.6266
  O  O677  1  0.298110  0.256120  0.871610  1.0  -0.6055
  O  O678  1  0.395600  0.754390  0.705680  1.0  -0.6169
  O  O679  1  0.497100  0.812790  0.705230  1.0  -0.6153
  O  O680  1  0.668900  0.239300  0.892940  1.0  -0.6213
  O  O681  1  0.658200  0.308310  0.849710  1.0  -0.5849
  O  O682  1  0.488410  0.250410  0.879210  1.0  -1.2256
  O  O683  1  0.473800  0.132610  0.885310  1.0  -0.6511
  O  O684  1  0.872600  0.352320  0.653690  1.0  -0.5965
  O  O685  1  0.931300  0.683590  0.446650  1.0  -0.6365
  O  O686  1  0.006900  0.745190  0.477930  1.0  -0.5891
  O  O687  1  0.518800  0.877560  0.627590  1.0  -0.639
  O  O688  1  0.481000  0.858630  0.564330  1.0  -0.5871
  O  O689  1  0.840180  0.217810  0.568640  1.0  -0.6282
  O  O690  1  0.798110  0.243880  0.628390  1.0  -0.6072
  O  O691  1  0.895600  0.745610  0.794320  1.0  -0.6182
  O  O692  1  0.997100  0.687210  0.794770  1.0  -0.6153
  O  O693  1  0.168900  0.260700  0.607060  1.0  -0.6223
  O  O694  1  0.158200  0.191690  0.650290  1.0  -0.584
  O  O695  1  0.988410  0.249590  0.620790  1.0  -1.2242
  O  O696  1  0.973800  0.367390  0.614690  1.0  -0.6517
