# generated using pymatgen
data_NiH8C10NO5
_symmetry_space_group_name_H-M   'P 1'
_cell_length_a   6.68560000
_cell_length_b   26.99670000
_cell_length_c   7.63770000
_cell_angle_alpha   90.00000000
_cell_angle_beta   90.00000000
_cell_angle_gamma   90.00000000
_symmetry_Int_Tables_number   1
_chemical_formula_structural   NiH8C10NO5
_chemical_formula_sum   'Ni4 H32 C40 N4 O20'
_cell_volume   1378.52188564
_cell_formula_units_Z   4
loop_
 _symmetry_equiv_pos_site_id
 _symmetry_equiv_pos_as_xyz
  1  'x, y, z'
loop_
 _atom_site_type_symbol
 _atom_site_label
 _atom_site_symmetry_multiplicity
 _atom_site_fract_x
 _atom_site_fract_y
 _atom_site_fract_z
 _atom_site_occupancy
 _atom_site_charge
  Ni  Ni1  1  0.499650  0.282420  0.746040  1.0  0.9605
  Ni  Ni2  1  0.500350  0.717580  0.746040  1.0  0.96
  Ni  Ni3  1  0.999650  0.217580  0.253960  1.0  0.9603
  Ni  Ni4  1  0.000350  0.782420  0.253960  1.0  0.9597
  H  H5  1  0.353900  0.461300  0.619000  1.0  0.126
  H  H6  1  0.507600  0.151400  0.595100  1.0  0.0905
  H  H7  1  0.888400  0.386500  0.803700  1.0  0.12
  H  H8  1  0.532300  0.390200  0.626100  1.0  0.0859
  H  H9  1  0.082700  0.317900  0.825200  1.0  0.0862
  H  H10  1  0.830500  0.471700  0.711900  1.0  0.1088
  H  H11  1  0.404200  0.141100  0.871100  1.0  0.1343
  H  H12  1  0.213200  0.147600  0.755800  1.0  0.1492
  H  H13  1  0.646100  0.538700  0.619000  1.0  0.1242
  H  H14  1  0.492400  0.848600  0.595100  1.0  0.0899
  H  H15  1  0.111600  0.613500  0.803700  1.0  0.1184
  H  H16  1  0.467700  0.609800  0.626100  1.0  0.0862
  H  H17  1  0.917300  0.682100  0.825200  1.0  0.0863
  H  H18  1  0.169500  0.528300  0.711900  1.0  0.1084
  H  H19  1  0.595800  0.858900  0.871100  1.0  0.1344
  H  H20  1  0.786800  0.852400  0.755800  1.0  0.1482
  H  H21  1  0.853900  0.038700  0.381000  1.0  0.1259
  H  H22  1  0.007600  0.348600  0.404900  1.0  0.09
  H  H23  1  0.388400  0.113500  0.196300  1.0  0.12
  H  H24  1  0.032300  0.109800  0.373900  1.0  0.0859
  H  H25  1  0.582700  0.182100  0.174800  1.0  0.0864
  H  H26  1  0.330500  0.028300  0.288100  1.0  0.1087
  H  H27  1  0.904200  0.358900  0.128900  1.0  0.1339
  H  H28  1  0.713200  0.352400  0.244200  1.0  0.1482
  H  H29  1  0.146100  0.961300  0.381000  1.0  0.1256
  H  H30  1  0.992400  0.651400  0.404900  1.0  0.0908
  H  H31  1  0.611600  0.886500  0.196300  1.0  0.1183
  H  H32  1  0.967700  0.890200  0.373900  1.0  0.0861
  H  H33  1  0.417300  0.817900  0.174800  1.0  0.0864
  H  H34  1  0.669500  0.971700  0.288100  1.0  0.1083
  H  H35  1  0.095800  0.641100  0.128900  1.0  0.135
  H  H36  1  0.286800  0.647600  0.244200  1.0  0.1478
  C  C37  1  0.095700  0.432200  0.714800  1.0  0.129
  C  C38  1  0.295100  0.432300  0.660000  1.0  -0.205
  C  C39  1  0.454700  0.180900  0.654100  1.0  0.1081
  C  C40  1  0.022200  0.388500  0.771200  1.0  -0.2058
  C  C41  1  0.401700  0.389800  0.667900  1.0  0.1688
  C  C42  1  0.139200  0.346900  0.781900  1.0  0.1796
  C  C43  1  0.252600  0.203900  0.926700  1.0  0.7605
  C  C44  1  0.968100  0.476700  0.713100  1.0  -0.1193
  C  C45  1  0.328300  0.164900  0.803200  1.0  -0.3881
  C  C46  1  0.326800  0.211200  0.520800  1.0  0.6142
  C  C47  1  0.904300  0.567800  0.714800  1.0  0.1134
  C  C48  1  0.704900  0.567700  0.660000  1.0  -0.2041
  C  C49  1  0.545300  0.819100  0.654100  1.0  0.1088
  C  C50  1  0.977800  0.611500  0.771200  1.0  -0.2056
  C  C51  1  0.598300  0.610200  0.667900  1.0  0.1685
  C  C52  1  0.860800  0.653100  0.781900  1.0  0.1801
  C  C53  1  0.747400  0.796100  0.926700  1.0  0.7602
  C  C54  1  0.031900  0.523300  0.713100  1.0  -0.1191
  C  C55  1  0.671700  0.835100  0.803200  1.0  -0.3884
  C  C56  1  0.673200  0.788800  0.520800  1.0  0.6146
  C  C57  1  0.595700  0.067800  0.285200  1.0  0.1296
  C  C58  1  0.795100  0.067700  0.340000  1.0  -0.2042
  C  C59  1  0.954700  0.319100  0.345900  1.0  0.1076
  C  C60  1  0.522200  0.111500  0.228800  1.0  -0.2065
  C  C61  1  0.901700  0.110200  0.332100  1.0  0.1688
  C  C62  1  0.639200  0.153100  0.218100  1.0  0.1801
  C  C63  1  0.752600  0.296100  0.073300  1.0  0.7608
  C  C64  1  0.468100  0.023300  0.286900  1.0  -0.1227
  C  C65  1  0.828300  0.335100  0.196800  1.0  -0.3878
  C  C66  1  0.826800  0.288800  0.479200  1.0  0.6196
  C  C67  1  0.404300  0.932200  0.285200  1.0  0.1292
  C  C68  1  0.204900  0.932300  0.340000  1.0  -0.2062
  C  C69  1  0.045300  0.680900  0.345900  1.0  0.1093
  C  C70  1  0.477800  0.888500  0.228800  1.0  -0.1985
  C  C71  1  0.098300  0.889800  0.332100  1.0  0.1684
  C  C72  1  0.360800  0.846900  0.218100  1.0  0.1795
  C  C73  1  0.247400  0.703900  0.073300  1.0  0.7607
  C  C74  1  0.531900  0.976700  0.286900  1.0  -0.12
  C  C75  1  0.171700  0.664900  0.196800  1.0  -0.3876
  C  C76  1  0.173200  0.711200  0.479200  1.0  0.6161
  N  N77  1  0.329500  0.346400  0.733100  1.0  -0.2828
  N  N78  1  0.670500  0.653600  0.733100  1.0  -0.2836
  N  N79  1  0.829500  0.153600  0.266900  1.0  -0.2828
  N  N80  1  0.170500  0.846400  0.266900  1.0  -0.283
  O  O81  1  0.617600  0.209400  0.719300  1.0  -0.4459
  O  O82  1  0.291100  0.248700  0.904300  1.0  -0.5659
  O  O83  1  0.215800  0.188000  0.420000  1.0  -0.5316
  O  O84  1  0.349400  0.257600  0.525900  1.0  -0.5007
  O  O85  1  0.150800  0.187200  0.051700  1.0  -0.5868
  O  O86  1  0.382400  0.790600  0.719300  1.0  -0.4333
  O  O87  1  0.708900  0.751300  0.904300  1.0  -0.5658
  O  O88  1  0.784200  0.812000  0.420000  1.0  -0.5325
  O  O89  1  0.650600  0.742400  0.525900  1.0  -0.5011
  O  O90  1  0.849200  0.812800  0.051700  1.0  -0.5867
  O  O91  1  0.117600  0.290600  0.280700  1.0  -0.4138
  O  O92  1  0.791100  0.251300  0.095700  1.0  -0.5657
  O  O93  1  0.715800  0.312000  0.580000  1.0  -0.5316
  O  O94  1  0.849400  0.242400  0.474100  1.0  -0.5
  O  O95  1  0.650800  0.312800  0.948300  1.0  -0.5873
  O  O96  1  0.882400  0.709400  0.280700  1.0  -0.4352
  O  O97  1  0.208900  0.748700  0.095700  1.0  -0.565
  O  O98  1  0.284200  0.688000  0.580000  1.0  -0.533
  O  O99  1  0.150600  0.757600  0.474100  1.0  -0.5002
  O  O100  1  0.349200  0.687200  0.948300  1.0  -0.5868
