# generated using pymatgen
data_Mn3H26(C11O3)4
_symmetry_space_group_name_H-M   'P 1'
_cell_length_a   13.55200000
_cell_length_b   16.33290000
_cell_length_c   17.34690000
_cell_angle_alpha   67.29320000
_cell_angle_beta   67.00700000
_cell_angle_gamma   65.48900000
_symmetry_Int_Tables_number   1
_chemical_formula_structural   Mn3H26(C11O3)4
_chemical_formula_sum   'Mn6 H52 C88 O24'
_cell_volume   3098.94743004
_cell_formula_units_Z   2
loop_
 _symmetry_equiv_pos_site_id
 _symmetry_equiv_pos_as_xyz
  1  'x, y, z'
loop_
 _atom_site_type_symbol
 _atom_site_label
 _atom_site_symmetry_multiplicity
 _atom_site_fract_x
 _atom_site_fract_y
 _atom_site_fract_z
 _atom_site_occupancy
 _atom_site_charge
  Mn  Mn1  1  0.411560  0.468740  0.602040  1.0  1.1258
  Mn  Mn2  1  0.482340  0.031260  0.897960  1.0  1.1246
  Mn  Mn3  1  0.588440  0.531260  0.397960  1.0  1.1274
  Mn  Mn4  1  0.517660  0.968740  0.102040  1.0  1.1254
  Mn  Mn5  1  0.455860  0.250000  0.750000  1.0  1.2097
  Mn  Mn6  1  0.544140  0.750000  0.250000  1.0  1.2092
  H  H7  1  0.058500  0.583800  0.749600  1.0  0.1056
  H  H8  1  0.870400  0.607700  0.818900  1.0  0.0965
  H  H9  1  0.923500  0.335400  0.909200  1.0  0.1161
  H  H10  1  0.113800  0.311700  0.842100  1.0  0.1021
  H  H11  1  0.749800  0.435700  0.974500  1.0  0.1095
  H  H12  1  0.778300  0.527100  0.042100  1.0  0.1118
  H  H13  1  0.707800  0.657900  0.089900  1.0  0.0986
  H  H14  1  0.536100  0.792700  0.912500  1.0  0.1019
  H  H15  1  0.601700  0.657600  0.868000  1.0  0.1051
  H  H16  1  0.610400  0.396100  0.970700  1.0  0.1026
  H  H17  1  0.528200  0.364800  0.896600  1.0  0.0712
  H  H18  1  0.665900  0.527300  0.677300  1.0  0.1051
  H  H19  1  0.754600  0.552200  0.751600  1.0  0.1021
  H  H20  1  0.391900  0.916200  0.750400  1.0  0.1061
  H  H21  1  0.297000  0.892300  0.681100  1.0  0.0971
  H  H22  1  0.168100  0.164600  0.590800  1.0  0.1163
  H  H23  1  0.267600  0.188300  0.657900  1.0  0.1017
  H  H24  1  0.160000  0.064300  0.525500  1.0  0.1119
  H  H25  1  0.347500  0.972900  0.457900  1.0  0.1119
  H  H26  1  0.455600  0.842100  0.410100  1.0  0.0994
  H  H27  1  0.241300  0.707300  0.587500  1.0  0.1004
  H  H28  1  0.127300  0.842400  0.632000  1.0  0.1052
  H  H29  1  0.977200  0.103900  0.529300  1.0  0.1026
  H  H30  1  0.789600  0.135200  0.603400  1.0  0.0726
  H  H31  1  0.870500  0.972700  0.822700  1.0  0.1048
  H  H32  1  0.058400  0.947800  0.748400  1.0  0.1003
  H  H33  1  0.941500  0.416200  0.250400  1.0  0.1056
  H  H34  1  0.129600  0.392300  0.181100  1.0  0.0955
  H  H35  1  0.076500  0.664600  0.090800  1.0  0.1161
  H  H36  1  0.886200  0.688300  0.157900  1.0  0.1021
  H  H37  1  0.250200  0.564300  0.025500  1.0  0.1111
  H  H38  1  0.221700  0.472900  0.957900  1.0  0.1123
  H  H39  1  0.292200  0.342100  0.910100  1.0  0.0993
  H  H40  1  0.463900  0.207300  0.087500  1.0  0.1018
  H  H41  1  0.398300  0.342400  0.132000  1.0  0.1053
  H  H42  1  0.389600  0.603900  0.029300  1.0  0.103
  H  H43  1  0.471800  0.635200  0.103400  1.0  0.0707
  H  H44  1  0.334100  0.472700  0.322700  1.0  0.1048
  H  H45  1  0.245400  0.447800  0.248400  1.0  0.1011
  H  H46  1  0.608100  0.083800  0.249600  1.0  0.1061
  H  H47  1  0.703000  0.107700  0.318900  1.0  0.0973
  H  H48  1  0.831900  0.835400  0.409200  1.0  0.1159
  H  H49  1  0.732400  0.811700  0.342100  1.0  0.1021
  H  H50  1  0.840000  0.935700  0.474500  1.0  0.1098
  H  H51  1  0.652500  0.027100  0.542100  1.0  0.1112
  H  H52  1  0.544400  0.157900  0.589900  1.0  0.0985
  H  H53  1  0.758700  0.292700  0.412500  1.0  0.1009
  H  H54  1  0.872700  0.157600  0.368000  1.0  0.1049
  H  H55  1  0.022800  0.896100  0.470700  1.0  0.1019
  H  H56  1  0.210400  0.864800  0.396600  1.0  0.0723
  H  H57  1  0.129500  0.027300  0.177300  1.0  0.1053
  H  H58  1  0.941600  0.052200  0.251600  1.0  0.1007
  C  C59  1  0.227290  0.428120  0.743300  1.0  0.719
  C  C60  1  0.105710  0.445210  0.789170  1.0  -0.1715
  C  C61  1  0.032310  0.532780  0.782600  1.0  -0.0341
  C  C62  1  0.919360  0.546880  0.824400  1.0  -0.1559
  C  C63  1  0.876890  0.474530  0.873490  1.0  0.0923
  C  C64  1  0.950070  0.386460  0.878200  1.0  -0.1639
  C  C65  1  0.064450  0.372400  0.836900  1.0  -0.0269
  C  C66  1  0.752660  0.487230  0.921170  1.0  -0.1045
  C  C67  1  0.698370  0.578170  0.949850  1.0  0.0873
  C  C68  1  0.728550  0.580400  0.015900  1.0  -0.1432
  C  C69  1  0.687380  0.658870  0.044170  1.0  0.0035
  C  C70  1  0.616170  0.738830  0.005230  1.0  -0.1681
  C  C71  1  0.584440  0.738750  0.939170  1.0  -0.0148
  C  C72  1  0.624720  0.657680  0.911880  1.0  -0.1528
  C  C73  1  0.573030  0.824310  0.035230  1.0  0.7338
  C  C74  1  0.692810  0.477000  0.868780  1.0  0.0864
  C  C75  1  0.623780  0.421740  0.910900  1.0  -0.1475
  C  C76  1  0.573760  0.403380  0.866300  1.0  -0.0241
  C  C77  1  0.590260  0.440860  0.777820  1.0  -0.1459
  C  C78  1  0.655930  0.498490  0.736450  1.0  -0.0363
  C  C79  1  0.708050  0.514570  0.781730  1.0  -0.1597
  C  C80  1  0.536890  0.416380  0.732240  1.0  0.7333
  C  C81  1  0.398710  0.071880  0.756700  1.0  0.7248
  C  C82  1  0.340090  0.054790  0.710830  1.0  -0.174
  C  C83  1  0.347690  0.967220  0.717400  1.0  -0.0334
  C  C84  1  0.290640  0.953120  0.675600  1.0  -0.1606
  C  C85  1  0.224910  0.025470  0.626510  1.0  0.0942
  C  C86  1  0.214730  0.113540  0.621800  1.0  -0.1605
  C  C87  1  0.273750  0.127600  0.663100  1.0  -0.0249
  C  C88  1  0.161060  0.012770  0.578830  1.0  -0.1036
  C  C89  1  0.226390  0.921830  0.550150  1.0  0.0873
  C  C90  1  0.324850  0.919600  0.484100  1.0  -0.1459
  C  C91  1  0.390420  0.841130  0.455830  1.0  0.0015
  C  C92  1  0.360230  0.761170  0.494770  1.0  -0.1679
  C  C93  1  0.262360  0.761250  0.560830  1.0  -0.0144
  C  C94  1  0.194280  0.842320  0.588120  1.0  -0.1531
  C  C95  1  0.432570  0.675690  0.464770  1.0  0.7336
  C  C96  1  0.038590  0.023000  0.631220  1.0  0.0836
  C  C97  1  0.956420  0.078260  0.589100  1.0  -0.1462
  C  C98  1  0.843440  0.096620  0.633700  1.0  -0.024
  C  C99  1  0.808940  0.059140  0.722180  1.0  -0.1471
  C  C100  1  0.890870  0.001510  0.763550  1.0  -0.0378
  C  C101  1  0.004350  0.985430  0.718270  1.0  -0.156
  C  C102  1  0.685510  0.083620  0.767760  1.0  0.7301
  C  C103  1  0.772710  0.571880  0.256700  1.0  0.7196
  C  C104  1  0.894290  0.554790  0.210830  1.0  -0.1726
  C  C105  1  0.967690  0.467220  0.217400  1.0  -0.0331
  C  C106  1  0.080640  0.453120  0.175600  1.0  -0.1574
  C  C107  1  0.123110  0.525470  0.126510  1.0  0.0928
  C  C108  1  0.049930  0.613540  0.121800  1.0  -0.1612
  C  C109  1  0.935550  0.627600  0.163100  1.0  -0.0243
  C  C110  1  0.247340  0.512770  0.078830  1.0  -0.1041
  C  C111  1  0.301630  0.421830  0.050150  1.0  0.0868
  C  C112  1  0.271450  0.419600  0.984100  1.0  -0.1411
  C  C113  1  0.312620  0.341130  0.955830  1.0  0.0023
  C  C114  1  0.383830  0.261170  0.994770  1.0  -0.1726
  C  C115  1  0.415560  0.261250  0.060830  1.0  -0.016
  C  C116  1  0.375280  0.342320  0.088120  1.0  -0.1536
  C  C117  1  0.426970  0.175690  0.964770  1.0  0.7324
  C  C118  1  0.307190  0.523000  0.131220  1.0  0.0869
  C  C119  1  0.376220  0.578260  0.089100  1.0  -0.1484
  C  C120  1  0.426240  0.596620  0.133700  1.0  -0.0253
  C  C121  1  0.409740  0.559140  0.222180  1.0  -0.1465
  C  C122  1  0.344070  0.501510  0.263550  1.0  -0.0365
  C  C123  1  0.291950  0.485430  0.218270  1.0  -0.1575
  C  C124  1  0.463110  0.583620  0.267760  1.0  0.7322
  C  C125  1  0.601290  0.928120  0.243300  1.0  0.726
  C  C126  1  0.659910  0.945210  0.289170  1.0  -0.1735
  C  C127  1  0.652310  0.032780  0.282600  1.0  -0.0332
  C  C128  1  0.709360  0.046880  0.324400  1.0  -0.1585
  C  C129  1  0.775090  0.974530  0.373490  1.0  0.0933
  C  C130  1  0.785270  0.886460  0.378200  1.0  -0.1636
  C  C131  1  0.726250  0.872400  0.336900  1.0  -0.0262
  C  C132  1  0.838940  0.987230  0.421170  1.0  -0.1042
  C  C133  1  0.773610  0.078170  0.449850  1.0  0.0869
  C  C134  1  0.675150  0.080400  0.515900  1.0  -0.1451
  C  C135  1  0.609580  0.158870  0.544170  1.0  0.0031
  C  C136  1  0.639770  0.238830  0.505230  1.0  -0.1638
  C  C137  1  0.737640  0.238750  0.439170  1.0  -0.0153
  C  C138  1  0.805720  0.157680  0.411880  1.0  -0.1546
  C  C139  1  0.567430  0.324310  0.535230  1.0  0.7337
  C  C140  1  0.961410  0.977000  0.368780  1.0  0.0843
  C  C141  1  0.043580  0.921740  0.410900  1.0  -0.143
  C  C142  1  0.156560  0.903380  0.366300  1.0  -0.0244
  C  C143  1  0.191060  0.940860  0.277820  1.0  -0.1464
  C  C144  1  0.109130  0.998490  0.236450  1.0  -0.0387
  C  C145  1  0.995650  0.014570  0.281730  1.0  -0.1554
  C  C146  1  0.314490  0.916380  0.232240  1.0  0.7302
  O  O147  1  0.291370  0.346080  0.755120  1.0  -0.6498
  O  O148  1  0.259630  0.496090  0.694910  1.0  -0.6167
  O  O149  1  0.531240  0.901370  0.988430  1.0  -0.669
  O  O150  1  0.581510  0.817980  0.107440  1.0  -0.6616
  O  O151  1  0.523450  0.470790  0.659310  1.0  -0.6395
  O  O152  1  0.507760  0.344970  0.768850  1.0  -0.6297
  O  O153  1  0.392570  0.153920  0.744880  1.0  -0.651
  O  O154  1  0.450630  0.003910  0.805090  1.0  -0.6214
  O  O155  1  0.421040  0.598630  0.511570  1.0  -0.6626
  O  O156  1  0.506930  0.682020  0.392560  1.0  -0.6608
  O  O157  1  0.653550  0.029210  0.840690  1.0  -0.6382
  O  O158  1  0.621580  0.155030  0.731150  1.0  -0.6319
  O  O159  1  0.708630  0.653920  0.244880  1.0  -0.65
  O  O160  1  0.740370  0.503910  0.305090  1.0  -0.6181
  O  O161  1  0.468760  0.098630  0.011570  1.0  -0.6611
  O  O162  1  0.418490  0.182020  0.892560  1.0  -0.662
  O  O163  1  0.476550  0.529210  0.340690  1.0  -0.6394
  O  O164  1  0.492240  0.655030  0.231150  1.0  -0.6303
  O  O165  1  0.607430  0.846080  0.255120  1.0  -0.65
  O  O166  1  0.549370  0.996090  0.194910  1.0  -0.6194
  O  O167  1  0.578960  0.401370  0.488430  1.0  -0.6652
  O  O168  1  0.493070  0.317980  0.607440  1.0  -0.6633
  O  O169  1  0.346450  0.970790  0.159310  1.0  -0.6405
  O  O170  1  0.378420  0.844970  0.268850  1.0  -0.631
