# generated using pymatgen
data_Cd3H34C54(NO6)2
_symmetry_space_group_name_H-M   'P 1'
_cell_length_a   9.42980000
_cell_length_b   13.31850000
_cell_length_c   23.22400000
_cell_angle_alpha   94.58400000
_cell_angle_beta   90.00000000
_cell_angle_gamma   90.00000000
_symmetry_Int_Tables_number   1
_chemical_formula_structural   Cd3H34C54(NO6)2
_chemical_formula_sum   'Cd6 H68 C108 N4 O24'
_cell_volume   2907.39063462
_cell_formula_units_Z   2
loop_
 _symmetry_equiv_pos_site_id
 _symmetry_equiv_pos_as_xyz
  1  'x, y, z'
loop_
 _atom_site_type_symbol
 _atom_site_label
 _atom_site_symmetry_multiplicity
 _atom_site_fract_x
 _atom_site_fract_y
 _atom_site_fract_z
 _atom_site_occupancy
 _atom_site_charge
  Cd  Cd1  1  0.347970  0.027460  0.954590  1.0  1.0606
  Cd  Cd2  1  0.347970  0.472540  0.545410  1.0  1.0602
  Cd  Cd3  1  0.652030  0.972540  0.045410  1.0  1.0606
  Cd  Cd4  1  0.652030  0.527460  0.454590  1.0  1.0609
  Cd  Cd5  1  0.000000  0.500000  0.500000  1.0  1.2594
  Cd  Cd6  1  0.000000  0.000000  0.000000  1.0  1.2582
  H  H7  1  0.147100  0.335600  0.723500  1.0  0.1047
  H  H8  1  0.984000  0.339900  0.797100  1.0  0.0941
  H  H9  1  0.737700  0.515300  0.712000  1.0  0.0925
  H  H10  1  0.896400  0.508100  0.636800  1.0  0.099
  H  H11  1  0.644200  0.443300  0.792800  1.0  0.1036
  H  H12  1  0.963400  0.560700  0.836800  1.0  0.1049
  H  H13  1  0.981700  0.712500  0.892000  1.0  0.0927
  H  H14  1  0.570400  0.705000  0.924700  1.0  0.0972
  H  H15  1  0.549400  0.557800  0.868700  1.0  0.1174
  H  H16  1  0.562300  0.288300  0.811400  1.0  0.1149
  H  H17  1  0.539900  0.158600  0.871400  1.0  0.1044
  H  H18  1  0.884100  0.259400  0.958700  1.0  0.1034
  H  H19  1  0.900900  0.390500  0.900300  1.0  0.1077
  H  H20  1  0.574700  0.932800  0.861100  1.0  0.0743
  H  H21  1  0.585500  0.832800  0.776300  1.0  0.1157
  H  H22  1  0.189600  0.745300  0.803700  1.0  0.1286
  H  H23  1  0.194000  0.840400  0.889700  1.0  0.0793
  H  H24  1  0.147100  0.164400  0.776500  1.0  0.1048
  H  H25  1  0.984000  0.160100  0.702900  1.0  0.0946
  H  H26  1  0.737700  0.984700  0.788000  1.0  0.0926
  H  H27  1  0.896400  0.991900  0.863200  1.0  0.0989
  H  H28  1  0.644200  0.056700  0.707200  1.0  0.1033
  H  H29  1  0.963400  0.939300  0.663200  1.0  0.1043
  H  H30  1  0.981700  0.787500  0.608000  1.0  0.0927
  H  H31  1  0.570400  0.795000  0.575300  1.0  0.0976
  H  H32  1  0.549400  0.942200  0.631300  1.0  0.1158
  H  H33  1  0.562300  0.211700  0.688600  1.0  0.1151
  H  H34  1  0.539900  0.341400  0.628600  1.0  0.1046
  H  H35  1  0.884100  0.240600  0.541300  1.0  0.1027
  H  H36  1  0.900900  0.109500  0.599700  1.0  0.1083
  H  H37  1  0.574700  0.567200  0.638900  1.0  0.0732
  H  H38  1  0.585500  0.667200  0.723700  1.0  0.1155
  H  H39  1  0.189600  0.754700  0.696300  1.0  0.128
  H  H40  1  0.194000  0.659600  0.610300  1.0  0.0795
  H  H41  1  0.852900  0.664400  0.276500  1.0  0.1056
  H  H42  1  0.016000  0.660100  0.202900  1.0  0.0951
  H  H43  1  0.262300  0.484700  0.288000  1.0  0.0928
  H  H44  1  0.103600  0.491900  0.363200  1.0  0.0989
  H  H45  1  0.355800  0.556700  0.207200  1.0  0.1037
  H  H46  1  0.036600  0.439300  0.163200  1.0  0.1038
  H  H47  1  0.018300  0.287500  0.108000  1.0  0.0925
  H  H48  1  0.429600  0.295000  0.075300  1.0  0.0975
  H  H49  1  0.450600  0.442200  0.131300  1.0  0.117
  H  H50  1  0.437700  0.711700  0.188600  1.0  0.115
  H  H51  1  0.460100  0.841400  0.128600  1.0  0.1041
  H  H52  1  0.115900  0.740600  0.041300  1.0  0.1023
  H  H53  1  0.099100  0.609500  0.099700  1.0  0.1078
  H  H54  1  0.425300  0.067200  0.138900  1.0  0.0747
  H  H55  1  0.414500  0.167200  0.223700  1.0  0.1151
  H  H56  1  0.810400  0.254700  0.196300  1.0  0.1286
  H  H57  1  0.806000  0.159600  0.110300  1.0  0.0794
  H  H58  1  0.852900  0.835600  0.223500  1.0  0.1059
  H  H59  1  0.016000  0.839900  0.297100  1.0  0.0947
  H  H60  1  0.262300  0.015300  0.212000  1.0  0.0927
  H  H61  1  0.103600  0.008100  0.136800  1.0  0.0988
  H  H62  1  0.355800  0.943300  0.292800  1.0  0.1038
  H  H63  1  0.036600  0.060700  0.336800  1.0  0.1043
  H  H64  1  0.018300  0.212500  0.392000  1.0  0.0927
  H  H65  1  0.429600  0.205000  0.424700  1.0  0.0977
  H  H66  1  0.450600  0.057800  0.368700  1.0  0.1165
  H  H67  1  0.437700  0.788300  0.311400  1.0  0.1154
  H  H68  1  0.460100  0.658600  0.371400  1.0  0.1046
  H  H69  1  0.115900  0.759400  0.458700  1.0  0.1032
  H  H70  1  0.099100  0.890500  0.400300  1.0  0.1085
  H  H71  1  0.425300  0.432800  0.361100  1.0  0.0734
  H  H72  1  0.414500  0.332800  0.276300  1.0  0.1155
  H  H73  1  0.810400  0.245300  0.303700  1.0  0.1282
  H  H74  1  0.806000  0.340400  0.389700  1.0  0.0795
  C  C75  1  0.147000  0.422390  0.625590  1.0  0.6911
  C  C76  1  0.040400  0.421470  0.673070  1.0  -0.1567
  C  C77  1  0.063800  0.372200  0.720500  1.0  -0.014
  C  C78  1  0.966000  0.375400  0.765000  1.0  -0.1461
  C  C79  1  0.845200  0.428690  0.762690  1.0  0.0895
  C  C80  1  0.820700  0.478300  0.714600  1.0  -0.1594
  C  C81  1  0.916000  0.474600  0.669500  1.0  -0.0447
  C  C82  1  0.737400  0.440930  0.811330  1.0  -0.1041
  C  C83  1  0.755200  0.541930  0.846630  1.0  0.0768
  C  C84  1  0.882800  0.589400  0.854300  1.0  -0.1571
  C  C85  1  0.894100  0.680600  0.888100  1.0  -0.0283
  C  C86  1  0.779400  0.723600  0.915400  1.0  -0.151
  C  C87  1  0.650700  0.676100  0.907000  1.0  -0.0308
  C  C88  1  0.638100  0.587900  0.873600  1.0  -0.1541
  C  C89  1  0.790800  0.819710  0.953210  1.0  0.6976
  C  C90  1  0.731200  0.353540  0.850140  1.0  0.0897
  C  C91  1  0.626200  0.283500  0.841600  1.0  -0.1467
  C  C92  1  0.613400  0.204900  0.877100  1.0  -0.0131
  C  C93  1  0.711300  0.195690  0.921490  1.0  -0.1788
  C  C94  1  0.818000  0.265200  0.929500  1.0  -0.0072
  C  C95  1  0.828200  0.343700  0.894300  1.0  -0.1454
  C  C96  1  0.696300  0.112850  0.960450  1.0  0.7046
  C  C97  1  0.495900  0.894100  0.849800  1.0  0.1943
  C  C98  1  0.502400  0.834900  0.797900  1.0  -0.2105
  C  C99  1  0.387600  0.779800  0.778200  1.0  0.1142
  C  C100  1  0.270000  0.782700  0.814400  1.0  -0.2083
  C  C101  1  0.273100  0.840700  0.865900  1.0  0.1783
  C  C102  1  0.147000  0.077610  0.874410  1.0  0.6909
  C  C103  1  0.040400  0.078530  0.826930  1.0  -0.1569
  C  C104  1  0.063800  0.127800  0.779500  1.0  -0.0134
  C  C105  1  0.966000  0.124600  0.735000  1.0  -0.1459
  C  C106  1  0.845200  0.071310  0.737310  1.0  0.0891
  C  C107  1  0.820700  0.021700  0.785400  1.0  -0.16
  C  C108  1  0.916000  0.025400  0.830500  1.0  -0.0444
  C  C109  1  0.737400  0.059070  0.688670  1.0  -0.1046
  C  C110  1  0.755200  0.958070  0.653370  1.0  0.0776
  C  C111  1  0.882800  0.910600  0.645700  1.0  -0.1574
  C  C112  1  0.894100  0.819400  0.611900  1.0  -0.0279
  C  C113  1  0.779400  0.776400  0.584600  1.0  -0.1513
  C  C114  1  0.650700  0.823900  0.593000  1.0  -0.0314
  C  C115  1  0.638100  0.912100  0.626400  1.0  -0.1545
  C  C116  1  0.790800  0.680290  0.546790  1.0  0.6991
  C  C117  1  0.731200  0.146460  0.649860  1.0  0.0893
  C  C118  1  0.626200  0.216500  0.658400  1.0  -0.145
  C  C119  1  0.613400  0.295100  0.622900  1.0  -0.0134
  C  C120  1  0.711300  0.304310  0.578510  1.0  -0.1789
  C  C121  1  0.818000  0.234800  0.570500  1.0  -0.0074
  C  C122  1  0.828200  0.156300  0.605700  1.0  -0.1466
  C  C123  1  0.696300  0.387150  0.539550  1.0  0.7048
  C  C124  1  0.495900  0.605900  0.650200  1.0  0.1939
  C  C125  1  0.502400  0.665100  0.702100  1.0  -0.2101
  C  C126  1  0.387600  0.720200  0.721800  1.0  0.1143
  C  C127  1  0.270000  0.717300  0.685600  1.0  -0.2088
  C  C128  1  0.273100  0.659300  0.634100  1.0  0.1781
  C  C129  1  0.853000  0.577610  0.374410  1.0  0.6903
  C  C130  1  0.959600  0.578530  0.326930  1.0  -0.1572
  C  C131  1  0.936200  0.627800  0.279500  1.0  -0.0134
  C  C132  1  0.034000  0.624600  0.235000  1.0  -0.1461
  C  C133  1  0.154800  0.571310  0.237310  1.0  0.0887
  C  C134  1  0.179300  0.521700  0.285400  1.0  -0.161
  C  C135  1  0.084000  0.525400  0.330500  1.0  -0.0447
  C  C136  1  0.262600  0.559070  0.188670  1.0  -0.104
  C  C137  1  0.244800  0.458070  0.153370  1.0  0.078
  C  C138  1  0.117200  0.410600  0.145700  1.0  -0.157
  C  C139  1  0.105900  0.319400  0.111900  1.0  -0.0265
  C  C140  1  0.220600  0.276400  0.084600  1.0  -0.1509
  C  C141  1  0.349300  0.323900  0.093000  1.0  -0.0322
  C  C142  1  0.361900  0.412100  0.126400  1.0  -0.154
  C  C143  1  0.209200  0.180290  0.046790  1.0  0.6984
  C  C144  1  0.268800  0.646460  0.149860  1.0  0.0899
  C  C145  1  0.373800  0.716500  0.158400  1.0  -0.1438
  C  C146  1  0.386600  0.795100  0.122900  1.0  -0.0146
  C  C147  1  0.288700  0.804310  0.078510  1.0  -0.1785
  C  C148  1  0.182000  0.734800  0.070500  1.0  -0.006
  C  C149  1  0.171800  0.656300  0.105700  1.0  -0.145
  C  C150  1  0.303700  0.887150  0.039550  1.0  0.7049
  C  C151  1  0.504100  0.105900  0.150200  1.0  0.1941
  C  C152  1  0.497600  0.165100  0.202100  1.0  -0.2104
  C  C153  1  0.612400  0.220200  0.221800  1.0  0.1143
  C  C154  1  0.730000  0.217300  0.185600  1.0  -0.2094
  C  C155  1  0.726900  0.159300  0.134100  1.0  0.1782
  C  C156  1  0.853000  0.922390  0.125590  1.0  0.691
  C  C157  1  0.959600  0.921470  0.173070  1.0  -0.1577
  C  C158  1  0.936200  0.872200  0.220500  1.0  -0.0138
  C  C159  1  0.034000  0.875400  0.265000  1.0  -0.1465
  C  C160  1  0.154800  0.928690  0.262690  1.0  0.0889
  C  C161  1  0.179300  0.978300  0.214600  1.0  -0.1605
  C  C162  1  0.084000  0.974600  0.169500  1.0  -0.0453
  C  C163  1  0.262600  0.940930  0.311330  1.0  -0.1038
  C  C164  1  0.244800  0.041930  0.346630  1.0  0.0769
  C  C165  1  0.117200  0.089400  0.354300  1.0  -0.1571
  C  C166  1  0.105900  0.180600  0.388100  1.0  -0.027
  C  C167  1  0.220600  0.223600  0.415400  1.0  -0.1504
  C  C168  1  0.349300  0.176100  0.407000  1.0  -0.032
  C  C169  1  0.361900  0.087900  0.373600  1.0  -0.1539
  C  C170  1  0.209200  0.319710  0.453210  1.0  0.6968
  C  C171  1  0.268800  0.853540  0.350140  1.0  0.09
  C  C172  1  0.373800  0.783500  0.341600  1.0  -0.145
  C  C173  1  0.386600  0.704900  0.377100  1.0  -0.0154
  C  C174  1  0.288700  0.695690  0.421490  1.0  -0.1787
  C  C175  1  0.182000  0.765200  0.429500  1.0  -0.0071
  C  C176  1  0.171800  0.843700  0.394300  1.0  -0.1457
  C  C177  1  0.303700  0.612850  0.460450  1.0  0.7049
  C  C178  1  0.504100  0.394100  0.349800  1.0  0.1939
  C  C179  1  0.497600  0.334900  0.297900  1.0  -0.2095
  C  C180  1  0.612400  0.279800  0.278200  1.0  0.1144
  C  C181  1  0.730000  0.282700  0.314400  1.0  -0.2089
  C  C182  1  0.726900  0.340700  0.365900  1.0  0.1783
  N  N183  1  0.384900  0.898150  0.883650  1.0  -0.3441
  N  N184  1  0.384900  0.601850  0.616350  1.0  -0.3464
  N  N185  1  0.615100  0.101850  0.116350  1.0  -0.3463
  N  N186  1  0.615100  0.398150  0.383650  1.0  -0.3441
  O  O187  1  0.113400  0.464730  0.580830  1.0  -0.6793
  O  O188  1  0.268100  0.387720  0.631320  1.0  -0.6084
  O  O189  1  0.584400  0.061400  0.959700  1.0  -0.6613
  O  O190  1  0.793200  0.097120  0.995020  1.0  -0.6641
  O  O191  1  0.903800  0.869090  0.951290  1.0  -0.6461
  O  O192  1  0.685400  0.842850  0.983250  1.0  -0.5986
  O  O193  1  0.113400  0.035270  0.919170  1.0  -0.6797
  O  O194  1  0.268100  0.112280  0.868680  1.0  -0.6095
  O  O195  1  0.584400  0.438600  0.540300  1.0  -0.6606
  O  O196  1  0.793200  0.402880  0.504980  1.0  -0.6645
  O  O197  1  0.903800  0.630910  0.548710  1.0  -0.6464
  O  O198  1  0.685400  0.657150  0.516750  1.0  -0.5983
  O  O199  1  0.886600  0.535270  0.419170  1.0  -0.6809
  O  O200  1  0.731900  0.612280  0.368680  1.0  -0.6081
  O  O201  1  0.415600  0.938600  0.040300  1.0  -0.6603
  O  O202  1  0.206800  0.902880  0.004980  1.0  -0.6646
  O  O203  1  0.096200  0.130910  0.048710  1.0  -0.6467
  O  O204  1  0.314600  0.157150  0.016750  1.0  -0.5977
  O  O205  1  0.886600  0.964730  0.080830  1.0  -0.68
  O  O206  1  0.731900  0.887720  0.131320  1.0  -0.6079
  O  O207  1  0.415600  0.561400  0.459700  1.0  -0.6612
  O  O208  1  0.206800  0.597120  0.495020  1.0  -0.6642
  O  O209  1  0.096200  0.369090  0.451290  1.0  -0.6463
  O  O210  1  0.314600  0.342850  0.483250  1.0  -0.5981
