# generated using pymatgen
data_CuH4C6N5
_symmetry_space_group_name_H-M   'P 1'
_cell_length_a   14.29380000
_cell_length_b   14.85610000
_cell_length_c   23.10870000
_cell_angle_alpha   92.78670000
_cell_angle_beta   91.56790000
_cell_angle_gamma   109.88900000
_symmetry_Int_Tables_number   1
_chemical_formula_structural   CuH4C6N5
_chemical_formula_sum   'Cu16 H64 C96 N80'
_cell_volume   4603.94731777
_cell_formula_units_Z   16
loop_
 _symmetry_equiv_pos_site_id
 _symmetry_equiv_pos_as_xyz
  1  'x, y, z'
loop_
 _atom_site_type_symbol
 _atom_site_label
 _atom_site_symmetry_multiplicity
 _atom_site_fract_x
 _atom_site_fract_y
 _atom_site_fract_z
 _atom_site_occupancy
 _atom_site_charge
  Cu  Cu1  1  0.145600  0.770300  0.192560  1.0  0.6794
  Cu  Cu2  1  0.067800  0.427900  0.024550  1.0  0.6939
  Cu  Cu3  1  0.078800  0.321200  0.660950  1.0  0.659
  Cu  Cu4  1  0.136500  0.027900  0.400750  1.0  0.3586
  Cu  Cu5  1  0.962400  0.203800  0.229810  1.0  0.6722
  Cu  Cu6  1  0.078700  0.956400  0.538040  1.0  0.4275
  Cu  Cu7  1  0.128200  0.518900  0.894750  1.0  0.535
  Cu  Cu8  1  0.854400  0.229700  0.807440  1.0  0.6802
  Cu  Cu9  1  0.932200  0.572100  0.975450  1.0  0.6942
  Cu  Cu10  1  0.921200  0.678800  0.339050  1.0  0.6603
  Cu  Cu11  1  0.863500  0.972100  0.599250  1.0  0.3573
  Cu  Cu12  1  0.037600  0.796200  0.770190  1.0  0.671
  Cu  Cu13  1  0.921300  0.043600  0.461960  1.0  0.4278
  Cu  Cu14  1  0.871800  0.481100  0.105250  1.0  0.5339
  Cu  Cu15  1  0.500000  0.500000  0.000000  1.0  0.7111
  Cu  Cu16  1  0.500000  0.000000  0.500000  1.0  0.6073
  H  H17  1  0.614200  0.023000  0.382600  1.0  0.1083
  H  H18  1  0.815700  0.225500  0.327800  1.0  0.078
  H  H19  1  0.729900  0.365400  0.171900  1.0  0.121
  H  H20  1  0.694500  0.286900  0.337000  1.0  0.1248
  H  H21  1  0.655900  0.368900  0.261700  1.0  0.1135
  H  H22  1  0.313400  0.694100  0.162900  1.0  0.0719
  H  H23  1  0.451900  0.682400  0.205300  1.0  0.1144
  H  H24  1  0.510400  0.774400  0.292800  1.0  0.1039
  H  H25  1  0.400000  0.825700  0.346800  1.0  0.1304
  H  H26  1  0.458100  0.421700  0.213400  1.0  0.1275
  H  H27  1  0.539400  0.444600  0.128900  1.0  0.0813
  H  H28  1  0.283600  0.397800  0.209900  1.0  0.1214
  H  H29  1  0.212500  0.432100  0.120900  1.0  0.1083
  H  H30  1  0.883300  0.880700  0.044200  1.0  0.1187
  H  H31  1  0.931800  0.749100  0.026000  1.0  0.0993
  H  H32  1  0.028600  0.915600  0.199700  1.0  0.1206
  H  H33  1  0.927000  0.957700  0.130300  1.0  0.0925
  H  H34  1  0.212000  0.358100  0.862700  1.0  0.1012
  H  H35  1  0.219200  0.204600  0.690000  1.0  0.0887
  H  H36  1  0.313100  0.261800  0.852100  1.0  0.125
  H  H37  1  0.317300  0.192000  0.765400  1.0  0.1146
  H  H38  1  0.917300  0.248200  0.466000  1.0  0.1262
  H  H39  1  0.855600  0.369000  0.465700  1.0  0.0895
  H  H40  1  0.974700  0.461500  0.623200  1.0  0.0825
  H  H41  1  0.869000  0.473900  0.543800  1.0  0.1233
  H  H42  1  0.329300  0.099000  0.348200  1.0  0.1459
  H  H43  1  0.441200  0.111300  0.275600  1.0  0.1076
  H  H44  1  0.583600  0.073300  0.292800  1.0  0.1127
  H  H45  1  0.266900  0.165100  0.136700  1.0  0.109
  H  H46  1  0.116600  0.192700  0.134100  1.0  0.108
  H  H47  1  0.233200  0.105200  0.304200  1.0  0.1507
  H  H48  1  0.325200  0.121400  0.221700  1.0  0.1117
  H  H49  1  0.385800  0.977000  0.617400  1.0  0.1084
  H  H50  1  0.184300  0.774500  0.672200  1.0  0.0776
  H  H51  1  0.270100  0.634600  0.828100  1.0  0.1206
  H  H52  1  0.305500  0.713100  0.663000  1.0  0.1245
  H  H53  1  0.344100  0.631100  0.738300  1.0  0.1132
  H  H54  1  0.686600  0.305900  0.837100  1.0  0.0714
  H  H55  1  0.548100  0.317600  0.794700  1.0  0.1125
  H  H56  1  0.489600  0.225600  0.707200  1.0  0.104
  H  H57  1  0.600000  0.174300  0.653200  1.0  0.1302
  H  H58  1  0.541900  0.578300  0.786600  1.0  0.1278
  H  H59  1  0.460600  0.555400  0.871100  1.0  0.0817
  H  H60  1  0.716400  0.602200  0.790100  1.0  0.1217
  H  H61  1  0.787500  0.567900  0.879100  1.0  0.108
  H  H62  1  0.116700  0.119300  0.955800  1.0  0.1189
  H  H63  1  0.068200  0.250900  0.974000  1.0  0.0992
  H  H64  1  0.971400  0.084400  0.800300  1.0  0.1215
  H  H65  1  0.073000  0.042300  0.869700  1.0  0.0927
  H  H66  1  0.788000  0.641900  0.137300  1.0  0.1011
  H  H67  1  0.780800  0.795400  0.310000  1.0  0.0888
  H  H68  1  0.686900  0.738200  0.147900  1.0  0.1248
  H  H69  1  0.682700  0.808000  0.234600  1.0  0.1148
  H  H70  1  0.082700  0.751800  0.534000  1.0  0.1262
  H  H71  1  0.144400  0.631000  0.534300  1.0  0.0893
  H  H72  1  0.025300  0.538500  0.376800  1.0  0.0835
  H  H73  1  0.131000  0.526100  0.456200  1.0  0.1227
  H  H74  1  0.670700  0.901000  0.651800  1.0  0.1475
  H  H75  1  0.558800  0.888700  0.724400  1.0  0.1079
  H  H76  1  0.416400  0.926700  0.707200  1.0  0.1134
  H  H77  1  0.733100  0.834900  0.863300  1.0  0.1099
  H  H78  1  0.883400  0.807300  0.865900  1.0  0.1084
  H  H79  1  0.766800  0.894800  0.695800  1.0  0.1521
  H  H80  1  0.674800  0.878600  0.778300  1.0  0.1098
  C  C81  1  0.557100  0.038200  0.375700  1.0  0.1549
  C  C82  1  0.801000  0.257000  0.296600  1.0  0.1804
  C  C83  1  0.751000  0.341000  0.204500  1.0  -0.0856
  C  C84  1  0.728000  0.293000  0.302700  1.0  -0.1501
  C  C85  1  0.703000  0.339000  0.257300  1.0  -0.0789
  C  C86  1  0.330000  0.718000  0.201200  1.0  0.1764
  C  C87  1  0.415000  0.715000  0.224100  1.0  -0.1511
  C  C88  1  0.446000  0.764000  0.277800  1.0  -0.0745
  C  C89  1  0.383000  0.798000  0.309300  1.0  -0.1388
  C  C90  1  0.425000  0.427000  0.179100  1.0  -0.1451
  C  C91  1  0.338000  0.455000  0.075000  1.0  0.0678
  C  C92  1  0.474000  0.445000  0.128400  1.0  0.1566
  C  C93  1  0.322000  0.416000  0.177600  1.0  -0.1265
  C  C94  1  0.278000  0.434000  0.123400  1.0  -0.09
  C  C95  1  0.828000  0.307000  0.202600  1.0  0.0691
  C  C96  1  0.290000  0.788000  0.281000  1.0  0.0948
  C  C97  1  0.922000  0.862000  0.071300  1.0  -0.1369
  C  C98  1  0.953000  0.786000  0.060600  1.0  -0.0931
  C  C99  1  0.014000  0.762000  0.099200  1.0  0.2845
  C  C100  1  0.011000  0.882000  0.163700  1.0  0.1062
  C  C101  1  0.949000  0.907000  0.120900  1.0  -0.1006
  C  C102  1  0.161000  0.344000  0.776900  1.0  0.1702
  C  C103  1  0.216000  0.329000  0.826700  1.0  -0.0713
  C  C104  1  0.220000  0.240000  0.724400  1.0  0.1619
  C  C105  1  0.276000  0.270000  0.820600  1.0  -0.1205
  C  C106  1  0.277000  0.229000  0.770400  1.0  -0.0731
  C  C107  1  0.923000  0.289000  0.499000  1.0  -0.1752
  C  C108  1  0.889000  0.362000  0.499400  1.0  -0.0593
  C  C109  1  0.968000  0.276000  0.550400  1.0  0.1186
  C  C110  1  0.958000  0.415000  0.592600  1.0  0.1374
  C  C111  1  0.898000  0.427000  0.544100  1.0  -0.1214
  C  C112  1  0.404800  0.053600  0.408900  1.0  0.1618
  C  C113  1  0.386400  0.083800  0.355100  1.0  -0.1619
  C  C114  1  0.453500  0.091100  0.311600  1.0  -0.1229
  C  C115  1  0.538800  0.068300  0.321900  1.0  -0.0904
  C  C116  1  0.047000  0.681000  0.088200  1.0  0.2231
  C  C117  1  0.218000  0.831000  0.303700  1.0  0.3104
  C  C118  1  0.331000  0.038000  0.452700  1.0  0.3487
  C  C119  1  0.300000  0.470000  0.018000  1.0  0.3191
  C  C120  1  0.017000  0.206000  0.559000  1.0  0.2754
  C  C121  1  0.891000  0.307000  0.154000  1.0  0.2627
  C  C122  1  0.099000  0.401000  0.775400  1.0  0.2464
  C  C123  1  0.058000  0.130000  0.312300  1.0  0.2388
  C  C124  1  0.230000  0.158600  0.169700  1.0  -0.1089
  C  C125  1  0.140000  0.175100  0.168200  1.0  0.1436
  C  C126  1  0.119800  0.139300  0.268500  1.0  0.2727
  C  C127  1  0.209900  0.122800  0.270100  1.0  -0.1708
  C  C128  1  0.265000  0.132400  0.220700  1.0  -0.1461
  C  C129  1  0.442900  0.961800  0.624300  1.0  0.1538
  C  C130  1  0.199000  0.743000  0.703400  1.0  0.1787
  C  C131  1  0.249000  0.659000  0.795500  1.0  -0.0869
  C  C132  1  0.272000  0.707000  0.697300  1.0  -0.1499
  C  C133  1  0.297000  0.661000  0.742700  1.0  -0.0773
  C  C134  1  0.670000  0.282000  0.798800  1.0  0.1766
  C  C135  1  0.585000  0.285000  0.775900  1.0  -0.1525
  C  C136  1  0.554000  0.236000  0.722200  1.0  -0.075
  C  C137  1  0.617000  0.202000  0.690700  1.0  -0.1365
  C  C138  1  0.575000  0.573000  0.820900  1.0  -0.1438
  C  C139  1  0.662000  0.545000  0.925000  1.0  0.0695
  C  C140  1  0.526000  0.555000  0.871600  1.0  0.1566
  C  C141  1  0.678000  0.584000  0.822400  1.0  -0.128
  C  C142  1  0.722000  0.566000  0.876600  1.0  -0.0878
  C  C143  1  0.172000  0.693000  0.797400  1.0  0.0698
  C  C144  1  0.710000  0.212000  0.719000  1.0  0.0961
  C  C145  1  0.078000  0.138000  0.928700  1.0  -0.133
  C  C146  1  0.047000  0.214000  0.939400  1.0  -0.0928
  C  C147  1  0.986000  0.238000  0.900800  1.0  0.2854
  C  C148  1  0.989000  0.118000  0.836300  1.0  0.107
  C  C149  1  0.051000  0.093000  0.879100  1.0  -0.1034
  C  C150  1  0.839000  0.656000  0.223100  1.0  0.17
  C  C151  1  0.784000  0.671000  0.173300  1.0  -0.0718
  C  C152  1  0.780000  0.760000  0.275600  1.0  0.1642
  C  C153  1  0.724000  0.730000  0.179400  1.0  -0.1235
  C  C154  1  0.723000  0.771000  0.229600  1.0  -0.0756
  C  C155  1  0.077000  0.711000  0.501000  1.0  -0.1767
  C  C156  1  0.111000  0.638000  0.500600  1.0  -0.0588
  C  C157  1  0.032000  0.724000  0.449600  1.0  0.1185
  C  C158  1  0.042000  0.585000  0.407400  1.0  0.1368
  C  C159  1  0.102000  0.573000  0.455900  1.0  -0.1209
  C  C160  1  0.595200  0.946400  0.591100  1.0  0.1612
  C  C161  1  0.613600  0.916200  0.644900  1.0  -0.1613
  C  C162  1  0.546500  0.908900  0.688400  1.0  -0.1218
  C  C163  1  0.461200  0.931700  0.678100  1.0  -0.0911
  C  C164  1  0.953000  0.319000  0.911800  1.0  0.2234
  C  C165  1  0.782000  0.169000  0.696300  1.0  0.3085
  C  C166  1  0.669000  0.962000  0.547300  1.0  0.3464
  C  C167  1  0.700000  0.530000  0.982000  1.0  0.32
  C  C168  1  0.983000  0.794000  0.441000  1.0  0.2752
  C  C169  1  0.109000  0.693000  0.846000  1.0  0.2657
  C  C170  1  0.901000  0.599000  0.224600  1.0  0.2444
  C  C171  1  0.942000  0.870000  0.687700  1.0  0.2393
  C  C172  1  0.770000  0.841400  0.830300  1.0  -0.1108
  C  C173  1  0.860000  0.824900  0.831800  1.0  0.144
  C  C174  1  0.880200  0.860700  0.731500  1.0  0.2729
  C  C175  1  0.790100  0.877200  0.729900  1.0  -0.1703
  C  C176  1  0.735000  0.867600  0.779300  1.0  -0.147
  N  N177  1  0.043200  0.807300  0.148400  1.0  -0.3446
  N  N178  1  0.118100  0.675900  0.125200  1.0  -0.2639
  N  N179  1  0.093500  0.877300  0.299400  1.0  -0.1681
  N  N180  1  0.142100  0.827500  0.267300  1.0  -0.4138
  N  N181  1  0.268000  0.749900  0.226000  1.0  -0.2866
  N  N182  1  0.985500  0.342500  0.081200  1.0  -0.071
  N  N183  1  0.367900  0.018000  0.498300  1.0  -0.1185
  N  N184  1  0.947500  0.253600  0.154500  1.0  -0.2815
  N  N185  1  0.298800  0.989200  0.535700  1.0  -0.3257
  N  N186  1  0.072400  0.551400  0.068800  1.0  0.0075
  N  N187  1  0.218900  0.000700  0.510400  1.0  -0.0467
  N  N188  1  0.140000  0.905100  0.350000  1.0  -0.0442
  N  N189  1  0.054200  0.092300  0.365400  1.0  -0.3686
  N  N190  1  0.051500  0.396900  0.723500  1.0  -0.3407
  N  N191  1  0.854900  0.260900  0.250200  1.0  -0.3627
  N  N192  1  0.006100  0.278500  0.108800  1.0  -0.1153
  N  N193  1  0.010500  0.487800  0.787300  1.0  -0.15
  N  N194  1  0.926800  0.144000  0.356800  1.0  -0.2654
  N  N195  1  0.220400  0.482300  0.943600  1.0  -0.092
  N  N196  1  0.988400  0.344000  0.595400  1.0  -0.309
  N  N197  1  0.106900  0.142600  0.603900  1.0  -0.1178
  N  N198  1  0.018100  0.604300  0.051100  1.0  -0.3531
  N  N199  1  0.074600  0.455300  0.816400  1.0  -0.3504
  N  N200  1  0.910000  0.364900  0.108600  1.0  -0.3837
  N  N201  1  0.235700  0.032400  0.457300  1.0  -0.401
  N  N202  1  0.994200  0.453700  0.732400  1.0  -0.2068
  N  N203  1  0.078800  0.217600  0.605600  1.0  -0.268
  N  N204  1  0.204400  0.455600  0.999000  1.0  -0.4312
  N  N205  1  0.134900  0.595800  0.113400  1.0  -0.2489
  N  N206  1  0.166200  0.298400  0.725600  1.0  -0.3466
  N  N207  1  0.066200  0.088200  0.561100  1.0  -0.0117
  N  N208  1  0.004700  0.125700  0.529100  1.0  -0.3872
  N  N209  1  0.220800  0.878800  0.353300  1.0  -0.3181
  N  N210  1  0.367000  0.499400  0.980500  1.0  -0.2519
  N  N211  1  0.986900  0.173800  0.309000  1.0  -0.328
  N  N212  1  0.316400  0.509100  0.928500  1.0  -0.3138
  N  N213  1  0.974500  0.103600  0.388200  1.0  0.0364
  N  N214  1  0.438000  0.463000  0.079700  1.0  -0.3518
  N  N215  1  0.490100  0.030800  0.419200  1.0  -0.3833
  N  N216  1  0.084900  0.165500  0.217500  1.0  -0.3267
  N  N217  1  0.956800  0.192700  0.851600  1.0  -0.3446
  N  N218  1  0.881900  0.324100  0.874800  1.0  -0.2632
  N  N219  1  0.906500  0.122700  0.700600  1.0  -0.1681
  N  N220  1  0.857900  0.172500  0.732700  1.0  -0.4132
  N  N221  1  0.732000  0.250100  0.774000  1.0  -0.2859
  N  N222  1  0.014500  0.657500  0.918800  1.0  -0.0721
  N  N223  1  0.632100  0.982000  0.501700  1.0  -0.1206
  N  N224  1  0.052500  0.746400  0.845500  1.0  -0.2786
  N  N225  1  0.701200  0.010800  0.464300  1.0  -0.3183
  N  N226  1  0.927600  0.448600  0.931200  1.0  0.0065
  N  N227  1  0.781100  0.999300  0.489600  1.0  -0.0476
  N  N228  1  0.860000  0.094900  0.650000  1.0  -0.0444
  N  N229  1  0.945800  0.907700  0.634600  1.0  -0.3689
  N  N230  1  0.948500  0.603100  0.276500  1.0  -0.3396
  N  N231  1  0.145100  0.739100  0.749800  1.0  -0.3667
  N  N232  1  0.993900  0.721500  0.891200  1.0  -0.1143
  N  N233  1  0.989500  0.512200  0.212700  1.0  -0.1516
  N  N234  1  0.073200  0.856000  0.643200  1.0  -0.2645
  N  N235  1  0.779600  0.517700  0.056400  1.0  -0.0934
  N  N236  1  0.011600  0.656000  0.404600  1.0  -0.307
  N  N237  1  0.893100  0.857400  0.396100  1.0  -0.1141
  N  N238  1  0.981900  0.395700  0.948900  1.0  -0.3546
  N  N239  1  0.925400  0.544700  0.183600  1.0  -0.3517
  N  N240  1  0.090000  0.635100  0.891400  1.0  -0.3843
  N  N241  1  0.764300  0.967600  0.542700  1.0  -0.4018
  N  N242  1  0.005800  0.546300  0.267600  1.0  -0.2094
  N  N243  1  0.921200  0.782400  0.394400  1.0  -0.2681
  N  N244  1  0.795600  0.544400  0.001000  1.0  -0.4305
  N  N245  1  0.865100  0.404200  0.886600  1.0  -0.2492
  N  N246  1  0.833800  0.701600  0.274400  1.0  -0.3462
  N  N247  1  0.933800  0.911800  0.438900  1.0  -0.0104
  N  N248  1  0.995300  0.874300  0.470900  1.0  -0.3888
  N  N249  1  0.779200  0.121200  0.646700  1.0  -0.317
  N  N250  1  0.633000  0.500600  0.019500  1.0  -0.2528
  N  N251  1  0.013100  0.826200  0.691000  1.0  -0.3257
  N  N252  1  0.683600  0.490900  0.071500  1.0  -0.3131
  N  N253  1  0.025500  0.896400  0.611800  1.0  0.0358
  N  N254  1  0.562000  0.537000  0.920300  1.0  -0.3534
  N  N255  1  0.509900  0.969200  0.580800  1.0  -0.3841
  N  N256  1  0.915100  0.834500  0.782500  1.0  -0.3304
