# generated using pymatgen
data_Mn3H8C16(N5O4)2
_symmetry_space_group_name_H-M   'P 1'
_cell_length_a   12.17000000
_cell_length_b   13.60100000
_cell_length_c   17.40000000
_cell_angle_alpha   90.00000000
_cell_angle_beta   90.00000000
_cell_angle_gamma   90.00000000
_symmetry_Int_Tables_number   1
_chemical_formula_structural   Mn3H8C16(N5O4)2
_chemical_formula_sum   'Mn12 H32 C64 N40 O32'
_cell_volume   2880.12055800
_cell_formula_units_Z   4
loop_
 _symmetry_equiv_pos_site_id
 _symmetry_equiv_pos_as_xyz
  1  'x, y, z'
loop_
 _atom_site_type_symbol
 _atom_site_label
 _atom_site_symmetry_multiplicity
 _atom_site_fract_x
 _atom_site_fract_y
 _atom_site_fract_z
 _atom_site_occupancy
 _atom_site_charge
  Mn  Mn1  1  0.212660  0.754970  0.212020  1.0  1.0668
  Mn  Mn2  1  0.287340  0.245030  0.712020  1.0  1.0667
  Mn  Mn3  1  0.787340  0.254970  0.287980  1.0  1.0665
  Mn  Mn4  1  0.712660  0.745030  0.787980  1.0  1.0664
  Mn  Mn5  1  0.787340  0.245030  0.787980  1.0  1.0661
  Mn  Mn6  1  0.712660  0.754970  0.287980  1.0  1.0667
  Mn  Mn7  1  0.212660  0.745030  0.712020  1.0  1.0666
  Mn  Mn8  1  0.287340  0.254970  0.212020  1.0  1.0669
  Mn  Mn9  1  0.500000  0.500000  0.500000  1.0  1.1039
  Mn  Mn10  1  0.000000  0.500000  0.000000  1.0  1.1039
  Mn  Mn11  1  0.500000  0.000000  0.000000  1.0  1.1039
  Mn  Mn12  1  0.000000  0.000000  0.500000  1.0  1.1039
  H  H13  1  0.011700  0.594700  0.276400  1.0  0.0796
  H  H14  1  0.323800  0.560000  0.302200  1.0  0.1013
  H  H15  1  0.199600  0.348600  0.392900  1.0  0.1491
  H  H16  1  0.248200  0.429500  0.447800  1.0  0.1383
  H  H17  1  0.488300  0.405300  0.776400  1.0  0.0801
  H  H18  1  0.176200  0.440000  0.802200  1.0  0.101
  H  H19  1  0.300400  0.651400  0.892900  1.0  0.1492
  H  H20  1  0.251800  0.570500  0.947800  1.0  0.1382
  H  H21  1  0.988300  0.094700  0.223600  1.0  0.0799
  H  H22  1  0.676200  0.060000  0.197800  1.0  0.101
  H  H23  1  0.800400  0.848600  0.107100  1.0  0.1482
  H  H24  1  0.751800  0.929500  0.052200  1.0  0.139
  H  H25  1  0.511700  0.905300  0.723600  1.0  0.0795
  H  H26  1  0.823800  0.940000  0.697800  1.0  0.1014
  H  H27  1  0.699600  0.151400  0.607100  1.0  0.1493
  H  H28  1  0.748200  0.070500  0.552200  1.0  0.1384
  H  H29  1  0.988300  0.405300  0.723600  1.0  0.08
  H  H30  1  0.676200  0.440000  0.697800  1.0  0.101
  H  H31  1  0.800400  0.651400  0.607100  1.0  0.1464
  H  H32  1  0.751800  0.570500  0.552200  1.0  0.1389
  H  H33  1  0.511700  0.594700  0.223600  1.0  0.0794
  H  H34  1  0.823800  0.560000  0.197800  1.0  0.1013
  H  H35  1  0.699600  0.348600  0.107100  1.0  0.1466
  H  H36  1  0.748200  0.429500  0.052200  1.0  0.1385
  H  H37  1  0.011700  0.905300  0.776400  1.0  0.0798
  H  H38  1  0.323800  0.940000  0.802200  1.0  0.1014
  H  H39  1  0.199600  0.151400  0.892900  1.0  0.1485
  H  H40  1  0.248200  0.070500  0.947800  1.0  0.1384
  H  H41  1  0.488300  0.094700  0.276400  1.0  0.08
  H  H42  1  0.176200  0.060000  0.302200  1.0  0.1008
  H  H43  1  0.300400  0.848600  0.392900  1.0  0.1474
  H  H44  1  0.251800  0.929500  0.447800  1.0  0.1382
  C  C45  1  0.079200  0.569600  0.292000  1.0  0.289
  C  C46  1  0.248000  0.552300  0.305200  1.0  0.1603
  C  C47  1  0.245100  0.407100  0.394900  1.0  -0.1812
  C  C48  1  0.358400  0.383700  0.366930  1.0  0.4085
  C  C49  1  0.491100  0.330300  0.296120  1.0  0.0073
  C  C50  1  0.535600  0.274600  0.229600  1.0  0.663
  C  C51  1  0.535200  0.385400  0.356120  1.0  -0.02
  C  C52  1  0.647600  0.419300  0.377200  1.0  0.6819
  C  C53  1  0.420800  0.430400  0.792000  1.0  0.2893
  C  C54  1  0.252000  0.447700  0.805200  1.0  0.159
  C  C55  1  0.254900  0.592900  0.894900  1.0  -0.1804
  C  C56  1  0.141600  0.616300  0.866930  1.0  0.4083
  C  C57  1  0.008900  0.669700  0.796120  1.0  0.0072
  C  C58  1  0.964400  0.725400  0.729600  1.0  0.6629
  C  C59  1  0.964800  0.614600  0.856120  1.0  -0.0204
  C  C60  1  0.852400  0.580700  0.877200  1.0  0.6782
  C  C61  1  0.920800  0.069600  0.208000  1.0  0.2889
  C  C62  1  0.752000  0.052300  0.194800  1.0  0.1587
  C  C63  1  0.754900  0.907100  0.105100  1.0  -0.1767
  C  C64  1  0.641600  0.883700  0.133070  1.0  0.4071
  C  C65  1  0.508900  0.830300  0.203880  1.0  0.0073
  C  C66  1  0.464400  0.774600  0.270400  1.0  0.6633
  C  C67  1  0.464800  0.885400  0.143880  1.0  -0.0194
  C  C68  1  0.352400  0.919300  0.122800  1.0  0.6766
  C  C69  1  0.579200  0.930400  0.708000  1.0  0.2891
  C  C70  1  0.748000  0.947700  0.694800  1.0  0.1597
  C  C71  1  0.745100  0.092900  0.605100  1.0  -0.1781
  C  C72  1  0.858400  0.116300  0.633070  1.0  0.4073
  C  C73  1  0.991100  0.169700  0.703880  1.0  0.0076
  C  C74  1  0.035600  0.225400  0.770400  1.0  0.6633
  C  C75  1  0.035200  0.114600  0.643880  1.0  -0.0196
  C  C76  1  0.147600  0.080700  0.622800  1.0  0.6771
  C  C77  1  0.920800  0.430400  0.708000  1.0  0.2893
  C  C78  1  0.752000  0.447700  0.694800  1.0  0.1588
  C  C79  1  0.754900  0.592900  0.605100  1.0  -0.1785
  C  C80  1  0.641600  0.616300  0.633070  1.0  0.4079
  C  C81  1  0.508900  0.669700  0.703880  1.0  0.0075
  C  C82  1  0.464400  0.725400  0.770400  1.0  0.6628
  C  C83  1  0.464800  0.614600  0.643880  1.0  -0.0191
  C  C84  1  0.352400  0.580700  0.622800  1.0  0.6768
  C  C85  1  0.579200  0.569600  0.208000  1.0  0.2886
  C  C86  1  0.748000  0.552300  0.194800  1.0  0.1603
  C  C87  1  0.745100  0.407100  0.105100  1.0  -0.1764
  C  C88  1  0.858400  0.383700  0.133070  1.0  0.4065
  C  C89  1  0.991100  0.330300  0.203880  1.0  0.0075
  C  C90  1  0.035600  0.274600  0.270400  1.0  0.6639
  C  C91  1  0.035200  0.385400  0.143880  1.0  -0.0196
  C  C92  1  0.147600  0.419300  0.122800  1.0  0.6771
  C  C93  1  0.079200  0.930400  0.792000  1.0  0.2894
  C  C94  1  0.248000  0.947700  0.805200  1.0  0.1598
  C  C95  1  0.245100  0.092900  0.894900  1.0  -0.1811
  C  C96  1  0.358400  0.116300  0.866930  1.0  0.4086
  C  C97  1  0.491100  0.169700  0.796120  1.0  0.0072
  C  C98  1  0.535600  0.225400  0.729600  1.0  0.6631
  C  C99  1  0.535200  0.114600  0.856120  1.0  -0.0203
  C  C100  1  0.647600  0.080700  0.877200  1.0  0.6817
  C  C101  1  0.420800  0.069600  0.292000  1.0  0.2891
  C  C102  1  0.252000  0.052300  0.305200  1.0  0.1588
  C  C103  1  0.254900  0.907100  0.394900  1.0  -0.1803
  C  C104  1  0.141600  0.883700  0.366930  1.0  0.4082
  C  C105  1  0.008900  0.830300  0.296120  1.0  0.0072
  C  C106  1  0.964400  0.774600  0.229600  1.0  0.6627
  C  C107  1  0.964800  0.885400  0.356120  1.0  -0.0203
  C  C108  1  0.852400  0.919300  0.377200  1.0  0.6784
  N  N109  1  0.197700  0.483900  0.346240  1.0  0.1959
  N  N110  1  0.088200  0.493800  0.338000  1.0  -0.3687
  N  N111  1  0.175900  0.608200  0.269100  1.0  -0.4623
  N  N112  1  0.378300  0.331100  0.303570  1.0  -0.4475
  N  N113  1  0.449300  0.418800  0.399920  1.0  -0.5261
  N  N114  1  0.302300  0.516100  0.846240  1.0  0.1963
  N  N115  1  0.411800  0.506200  0.838000  1.0  -0.3695
  N  N116  1  0.324100  0.391800  0.769100  1.0  -0.4621
  N  N117  1  0.121700  0.668900  0.803570  1.0  -0.4484
  N  N118  1  0.050700  0.581200  0.899920  1.0  -0.5253
  N  N119  1  0.802300  0.983900  0.153760  1.0  0.196
  N  N120  1  0.911800  0.993800  0.162000  1.0  -0.3702
  N  N121  1  0.824100  0.108200  0.230900  1.0  -0.464
  N  N122  1  0.621700  0.831100  0.196430  1.0  -0.4479
  N  N123  1  0.550700  0.918800  0.100080  1.0  -0.5257
  N  N124  1  0.697700  0.016100  0.653760  1.0  0.1961
  N  N125  1  0.588200  0.006200  0.662000  1.0  -0.3679
  N  N126  1  0.675900  0.891800  0.730900  1.0  -0.4629
  N  N127  1  0.878300  0.168900  0.696430  1.0  -0.4479
  N  N128  1  0.949300  0.081200  0.600080  1.0  -0.5282
  N  N129  1  0.802300  0.516100  0.653760  1.0  0.1964
  N  N130  1  0.911800  0.506200  0.662000  1.0  -0.37
  N  N131  1  0.824100  0.391800  0.730900  1.0  -0.463
  N  N132  1  0.621700  0.668900  0.696430  1.0  -0.4483
  N  N133  1  0.550700  0.581200  0.600080  1.0  -0.5277
  N  N134  1  0.697700  0.483900  0.153760  1.0  0.1956
  N  N135  1  0.588200  0.493800  0.162000  1.0  -0.3692
  N  N136  1  0.675900  0.608200  0.230900  1.0  -0.4644
  N  N137  1  0.878300  0.331100  0.196430  1.0  -0.4479
  N  N138  1  0.949300  0.418800  0.100080  1.0  -0.5266
  N  N139  1  0.197700  0.016100  0.846240  1.0  0.1962
  N  N140  1  0.088200  0.006200  0.838000  1.0  -0.369
  N  N141  1  0.175900  0.891800  0.769100  1.0  -0.462
  N  N142  1  0.378300  0.168900  0.803570  1.0  -0.4477
  N  N143  1  0.449300  0.081200  0.899920  1.0  -0.5248
  N  N144  1  0.302300  0.983900  0.346240  1.0  0.1959
  N  N145  1  0.411800  0.993800  0.338000  1.0  -0.3686
  N  N146  1  0.324100  0.108200  0.269100  1.0  -0.462
  N  N147  1  0.121700  0.831100  0.303570  1.0  -0.4479
  N  N148  1  0.050700  0.918800  0.399920  1.0  -0.5261
  O  O149  1  0.466300  0.248890  0.179130  1.0  -0.6073
  O  O150  1  0.635400  0.251830  0.226240  1.0  -0.6318
  O  O151  1  0.651600  0.484730  0.429440  1.0  -0.6339
  O  O152  1  0.732200  0.386400  0.345520  1.0  -0.6051
  O  O153  1  0.033700  0.751110  0.679130  1.0  -0.6074
  O  O154  1  0.864600  0.748170  0.726240  1.0  -0.6333
  O  O155  1  0.848400  0.515270  0.929440  1.0  -0.6343
  O  O156  1  0.767800  0.613600  0.845520  1.0  -0.6073
  O  O157  1  0.533700  0.748890  0.320870  1.0  -0.6093
  O  O158  1  0.364600  0.751830  0.273760  1.0  -0.6328
  O  O159  1  0.348400  0.984730  0.070560  1.0  -0.636
  O  O160  1  0.267800  0.886400  0.154480  1.0  -0.6046
  O  O161  1  0.966300  0.251110  0.820870  1.0  -0.6106
  O  O162  1  0.135400  0.248170  0.773760  1.0  -0.6334
  O  O163  1  0.151600  0.015270  0.570560  1.0  -0.636
  O  O164  1  0.232200  0.113600  0.654480  1.0  -0.606
  O  O165  1  0.533700  0.751110  0.820870  1.0  -0.6097
  O  O166  1  0.364600  0.748170  0.773760  1.0  -0.6335
  O  O167  1  0.348400  0.515270  0.570560  1.0  -0.6359
  O  O168  1  0.267800  0.613600  0.654480  1.0  -0.6056
  O  O169  1  0.966300  0.248890  0.320870  1.0  -0.6102
  O  O170  1  0.135400  0.251830  0.273760  1.0  -0.632
  O  O171  1  0.151600  0.484730  0.070560  1.0  -0.6354
  O  O172  1  0.232200  0.386400  0.154480  1.0  -0.6051
  O  O173  1  0.466300  0.251110  0.679130  1.0  -0.6074
  O  O174  1  0.635400  0.248170  0.726240  1.0  -0.6332
  O  O175  1  0.651600  0.015270  0.929440  1.0  -0.6339
  O  O176  1  0.732200  0.113600  0.845520  1.0  -0.6059
  O  O177  1  0.033700  0.748890  0.179130  1.0  -0.6072
  O  O178  1  0.864600  0.751830  0.226240  1.0  -0.6327
  O  O179  1  0.848400  0.984730  0.429440  1.0  -0.6348
  O  O180  1  0.767800  0.886400  0.345520  1.0  -0.606
