# generated using pymatgen
data_Cu16H32C48N40Cl3
_symmetry_space_group_name_H-M   'P 1'
_cell_length_a   24.00100000
_cell_length_b   17.45500000
_cell_length_c   11.67600000
_cell_angle_alpha   90.00000000
_cell_angle_beta   105.09600000
_cell_angle_gamma   90.00000000
_symmetry_Int_Tables_number   1
_chemical_formula_structural   Cu16H32C48N40Cl3
_chemical_formula_sum   'Cu32 H64 C96 N80 Cl6'
_cell_volume   4722.71157337
_cell_formula_units_Z   2
loop_
 _symmetry_equiv_pos_site_id
 _symmetry_equiv_pos_as_xyz
  1  'x, y, z'
loop_
 _atom_site_type_symbol
 _atom_site_label
 _atom_site_symmetry_multiplicity
 _atom_site_fract_x
 _atom_site_fract_y
 _atom_site_fract_z
 _atom_site_occupancy
 _atom_site_charge
  Cu  Cu1  1  0.053300  0.255000  0.611000  1.0  0.7477
  Cu  Cu2  1  0.892000  0.244000  0.393000  1.0  0.8627
  Cu  Cu3  1  0.035900  0.408000  0.878000  1.0  0.3383
  Cu  Cu4  1  0.878900  0.321400  0.834900  1.0  0.3668
  Cu  Cu5  1  0.032700  0.225200  0.885000  1.0  0.4072
  Cu  Cu6  1  0.749600  0.572400  0.999000  1.0  0.6017
  Cu  Cu7  1  0.058600  0.382000  0.612000  1.0  0.7505
  Cu  Cu8  1  0.890000  0.402000  0.388000  1.0  0.7893
  Cu  Cu9  1  0.553300  0.755000  0.611000  1.0  0.7477
  Cu  Cu10  1  0.392000  0.744000  0.393000  1.0  0.8627
  Cu  Cu11  1  0.535900  0.908000  0.878000  1.0  0.3383
  Cu  Cu12  1  0.378900  0.821400  0.834900  1.0  0.3668
  Cu  Cu13  1  0.532700  0.725200  0.885000  1.0  0.4072
  Cu  Cu14  1  0.249600  0.072400  0.999000  1.0  0.6017
  Cu  Cu15  1  0.558600  0.882000  0.612000  1.0  0.7505
  Cu  Cu16  1  0.390000  0.902000  0.388000  1.0  0.7893
  Cu  Cu17  1  0.946700  0.255000  0.389000  1.0  0.7501
  Cu  Cu18  1  0.108000  0.244000  0.607000  1.0  0.8632
  Cu  Cu19  1  0.964100  0.408000  0.122000  1.0  0.3354
  Cu  Cu20  1  0.121100  0.321400  0.165100  1.0  0.3658
  Cu  Cu21  1  0.967300  0.225200  0.115000  1.0  0.4059
  Cu  Cu22  1  0.250400  0.572400  0.001000  1.0  0.6023
  Cu  Cu23  1  0.941400  0.382000  0.388000  1.0  0.7502
  Cu  Cu24  1  0.110000  0.402000  0.612000  1.0  0.7892
  Cu  Cu25  1  0.446700  0.755000  0.389000  1.0  0.7501
  Cu  Cu26  1  0.608000  0.744000  0.607000  1.0  0.8632
  Cu  Cu27  1  0.464100  0.908000  0.122000  1.0  0.3354
  Cu  Cu28  1  0.621100  0.821400  0.165100  1.0  0.3658
  Cu  Cu29  1  0.467300  0.725200  0.115000  1.0  0.4059
  Cu  Cu30  1  0.750400  0.072400  0.001000  1.0  0.6023
  Cu  Cu31  1  0.441400  0.882000  0.388000  1.0  0.7502
  Cu  Cu32  1  0.610000  0.902000  0.612000  1.0  0.7892
  H  H33  1  0.934800  0.510100  0.245000  1.0  0.0443
  H  H34  1  0.940100  0.598000  0.409700  1.0  0.0887
  H  H35  1  0.861700  0.677300  0.397500  1.0  0.081
  H  H36  1  0.786500  0.675900  0.227700  1.0  0.0527
  H  H37  1  0.246600  0.459800  0.707600  1.0  0.0943
  H  H38  1  0.304900  0.544600  0.638400  1.0  0.0679
  H  H39  1  0.272100  0.598600  0.451400  1.0  0.0826
  H  H40  1  0.181200  0.567900  0.333500  1.0  0.0743
  H  H41  1  0.053300  0.111500  0.737800  1.0  0.0784
  H  H42  1  0.227400  0.989400  0.758400  1.0  0.0763
  H  H43  1  0.151100  0.976300  0.590400  1.0  0.0634
  H  H44  1  0.064100  0.037400  0.580100  1.0  0.078
  H  H45  1  0.738800  0.353100  0.698600  1.0  0.0821
  H  H46  1  0.677000  0.344300  0.509800  1.0  0.0749
  H  H47  1  0.710100  0.294900  0.355200  1.0  0.0779
  H  H48  1  0.805100  0.254300  0.389400  1.0  0.0924
  H  H49  1  0.434800  0.010100  0.245000  1.0  0.0443
  H  H50  1  0.440100  0.098000  0.409700  1.0  0.0887
  H  H51  1  0.361700  0.177300  0.397500  1.0  0.081
  H  H52  1  0.286500  0.175900  0.227700  1.0  0.0527
  H  H53  1  0.746600  0.959800  0.707600  1.0  0.0943
  H  H54  1  0.804900  0.044600  0.638400  1.0  0.068
  H  H55  1  0.772100  0.098600  0.451400  1.0  0.0826
  H  H56  1  0.681200  0.067900  0.333500  1.0  0.0743
  H  H57  1  0.553300  0.611500  0.737800  1.0  0.0784
  H  H58  1  0.727400  0.489400  0.758400  1.0  0.0763
  H  H59  1  0.651100  0.476300  0.590400  1.0  0.0634
  H  H60  1  0.564100  0.537400  0.580100  1.0  0.078
  H  H61  1  0.238800  0.853100  0.698600  1.0  0.0821
  H  H62  1  0.177000  0.844300  0.509800  1.0  0.0749
  H  H63  1  0.210100  0.794900  0.355200  1.0  0.0779
  H  H64  1  0.305100  0.754300  0.389400  1.0  0.0924
  H  H65  1  0.065200  0.510100  0.755000  1.0  0.0444
  H  H66  1  0.059900  0.598000  0.590300  1.0  0.0899
  H  H67  1  0.138300  0.677300  0.602500  1.0  0.0808
  H  H68  1  0.213500  0.675900  0.772300  1.0  0.0521
  H  H69  1  0.753400  0.459800  0.292400  1.0  0.0955
  H  H70  1  0.695100  0.544600  0.361600  1.0  0.0691
  H  H71  1  0.727900  0.598600  0.548600  1.0  0.082
  H  H72  1  0.818800  0.567900  0.666500  1.0  0.0742
  H  H73  1  0.946700  0.111500  0.262200  1.0  0.0776
  H  H74  1  0.772600  0.989400  0.241600  1.0  0.076
  H  H75  1  0.848900  0.976300  0.409600  1.0  0.0637
  H  H76  1  0.935900  0.037400  0.419900  1.0  0.0757
  H  H77  1  0.261200  0.353100  0.301400  1.0  0.0823
  H  H78  1  0.323000  0.344300  0.490200  1.0  0.0753
  H  H79  1  0.289900  0.294900  0.644800  1.0  0.0738
  H  H80  1  0.194900  0.254300  0.610600  1.0  0.0927
  H  H81  1  0.565200  0.010100  0.755000  1.0  0.0444
  H  H82  1  0.559900  0.098000  0.590300  1.0  0.0899
  H  H83  1  0.638300  0.177300  0.602500  1.0  0.0808
  H  H84  1  0.713500  0.175900  0.772300  1.0  0.0521
  H  H85  1  0.253400  0.959800  0.292400  1.0  0.0955
  H  H86  1  0.195100  0.044600  0.361600  1.0  0.0691
  H  H87  1  0.227900  0.098600  0.548600  1.0  0.082
  H  H88  1  0.318800  0.067900  0.666500  1.0  0.0742
  H  H89  1  0.446700  0.611500  0.262200  1.0  0.0776
  H  H90  1  0.272600  0.489400  0.241600  1.0  0.076
  H  H91  1  0.348900  0.476300  0.409600  1.0  0.0637
  H  H92  1  0.435900  0.537400  0.419900  1.0  0.0757
  H  H93  1  0.761200  0.853100  0.301400  1.0  0.0823
  H  H94  1  0.823000  0.844300  0.490200  1.0  0.0753
  H  H95  1  0.789900  0.794900  0.644800  1.0  0.0719
  H  H96  1  0.694900  0.754300  0.610600  1.0  0.0927
  C  C97  1  0.857000  0.540000  0.162000  1.0  0.1078
  C  C98  1  0.852000  0.488000  0.054000  1.0  0.2646
  C  C99  1  0.904000  0.542000  0.246000  1.0  -0.1608
  C  C100  1  0.908000  0.596000  0.345000  1.0  -0.1935
  C  C101  1  0.862000  0.643000  0.337000  1.0  -0.1295
  C  C102  1  0.816000  0.639000  0.236000  1.0  0.1465
  C  C103  1  0.234000  0.481000  0.633000  1.0  0.1198
  C  C104  1  0.268000  0.532000  0.591000  1.0  -0.1393
  C  C105  1  0.249000  0.565000  0.479000  1.0  -0.1339
  C  C106  1  0.194000  0.546000  0.408000  1.0  -0.0943
  C  C107  1  0.159000  0.495000  0.450000  1.0  0.0547
  C  C108  1  0.088000  0.087000  0.742000  1.0  -0.094
  C  C109  1  0.134000  0.095000  0.843000  1.0  0.1079
  C  C110  1  0.193000  0.014000  0.754000  1.0  -0.0048
  C  C111  1  0.147000  0.006000  0.654000  1.0  -0.1525
  C  C112  1  0.095000  0.043000  0.647000  1.0  -0.1385
  C  C113  1  0.752000  0.333000  0.637000  1.0  0.1129
  C  C114  1  0.715000  0.328000  0.523000  1.0  -0.1275
  C  C115  1  0.735000  0.298000  0.431000  1.0  -0.145
  C  C116  1  0.792000  0.274000  0.451000  1.0  -0.1334
  C  C117  1  0.829000  0.279000  0.564000  1.0  0.0026
  C  C118  1  0.144000  0.142000  0.938000  1.0  0.2486
  C  C119  1  0.892000  0.258000  0.607000  1.0  0.1156
  C  C120  1  0.101000  0.468000  0.389000  1.0  0.163
  C  C121  1  0.357000  0.040000  0.162000  1.0  0.1078
  C  C122  1  0.352000  0.988000  0.054000  1.0  0.2646
  C  C123  1  0.404000  0.042000  0.246000  1.0  -0.1607
  C  C124  1  0.408000  0.096000  0.345000  1.0  -0.1935
  C  C125  1  0.362000  0.143000  0.337000  1.0  -0.1295
  C  C126  1  0.316000  0.139000  0.236000  1.0  0.1465
  C  C127  1  0.734000  0.981000  0.633000  1.0  0.1198
  C  C128  1  0.768000  0.032000  0.591000  1.0  -0.1393
  C  C129  1  0.749000  0.065000  0.479000  1.0  -0.1339
  C  C130  1  0.694000  0.046000  0.408000  1.0  -0.0943
  C  C131  1  0.659000  0.995000  0.450000  1.0  0.0547
  C  C132  1  0.588000  0.587000  0.742000  1.0  -0.094
  C  C133  1  0.634000  0.595000  0.843000  1.0  0.1079
  C  C134  1  0.693000  0.514000  0.754000  1.0  -0.0048
  C  C135  1  0.647000  0.506000  0.654000  1.0  -0.1525
  C  C136  1  0.595000  0.543000  0.647000  1.0  -0.1385
  C  C137  1  0.252000  0.833000  0.637000  1.0  0.1123
  C  C138  1  0.215000  0.828000  0.523000  1.0  -0.1275
  C  C139  1  0.235000  0.798000  0.431000  1.0  -0.145
  C  C140  1  0.292000  0.774000  0.451000  1.0  -0.1334
  C  C141  1  0.329000  0.779000  0.564000  1.0  0.0026
  C  C142  1  0.644000  0.642000  0.938000  1.0  0.2486
  C  C143  1  0.392000  0.758000  0.607000  1.0  0.1156
  C  C144  1  0.601000  0.968000  0.389000  1.0  0.163
  C  C145  1  0.143000  0.540000  0.838000  1.0  0.1083
  C  C146  1  0.148000  0.488000  0.946000  1.0  0.2701
  C  C147  1  0.096000  0.542000  0.754000  1.0  -0.16
  C  C148  1  0.092000  0.596000  0.655000  1.0  -0.1958
  C  C149  1  0.138000  0.643000  0.663000  1.0  -0.1265
  C  C150  1  0.184000  0.639000  0.764000  1.0  0.1467
  C  C151  1  0.766000  0.481000  0.367000  1.0  0.1211
  C  C152  1  0.732000  0.532000  0.409000  1.0  -0.1361
  C  C153  1  0.751000  0.565000  0.521000  1.0  -0.1369
  C  C154  1  0.806000  0.546000  0.592000  1.0  -0.089
  C  C155  1  0.841000  0.495000  0.550000  1.0  0.058
  C  C156  1  0.912000  0.087000  0.258000  1.0  -0.0956
  C  C157  1  0.866000  0.095000  0.157000  1.0  0.1048
  C  C158  1  0.807000  0.014000  0.246000  1.0  -0.005
  C  C159  1  0.853000  0.006000  0.346000  1.0  -0.1481
  C  C160  1  0.905000  0.043000  0.353000  1.0  -0.129
  C  C161  1  0.248000  0.333000  0.363000  1.0  0.1102
  C  C162  1  0.285000  0.328000  0.477000  1.0  -0.1236
  C  C163  1  0.265000  0.298000  0.569000  1.0  -0.1372
  C  C164  1  0.208000  0.274000  0.549000  1.0  -0.139
  C  C165  1  0.171000  0.279000  0.436000  1.0  0.0008
  C  C166  1  0.856000  0.142000  0.062000  1.0  0.2507
  C  C167  1  0.108000  0.258000  0.393000  1.0  0.116
  C  C168  1  0.899000  0.468000  0.611000  1.0  0.1605
  C  C169  1  0.643000  0.040000  0.838000  1.0  0.1083
  C  C170  1  0.648000  0.988000  0.946000  1.0  0.2701
  C  C171  1  0.596000  0.042000  0.754000  1.0  -0.16
  C  C172  1  0.592000  0.096000  0.655000  1.0  -0.1958
  C  C173  1  0.638000  0.143000  0.663000  1.0  -0.1265
  C  C174  1  0.684000  0.139000  0.764000  1.0  0.1467
  C  C175  1  0.266000  0.981000  0.367000  1.0  0.1211
  C  C176  1  0.232000  0.032000  0.409000  1.0  -0.1361
  C  C177  1  0.251000  0.065000  0.521000  1.0  -0.1369
  C  C178  1  0.306000  0.046000  0.592000  1.0  -0.089
  C  C179  1  0.341000  0.995000  0.550000  1.0  0.058
  C  C180  1  0.412000  0.587000  0.258000  1.0  -0.0956
  C  C181  1  0.366000  0.595000  0.157000  1.0  0.1048
  C  C182  1  0.307000  0.514000  0.246000  1.0  -0.005
  C  C183  1  0.353000  0.506000  0.346000  1.0  -0.1481
  C  C184  1  0.405000  0.543000  0.353000  1.0  -0.129
  C  C185  1  0.748000  0.833000  0.363000  1.0  0.1113
  C  C186  1  0.785000  0.828000  0.477000  1.0  -0.1236
  C  C187  1  0.765000  0.798000  0.569000  1.0  -0.1372
  C  C188  1  0.708000  0.774000  0.549000  1.0  -0.139
  C  C189  1  0.671000  0.779000  0.436000  1.0  0.0008
  C  C190  1  0.356000  0.642000  0.062000  1.0  0.2507
  C  C191  1  0.608000  0.758000  0.393000  1.0  0.116
  C  C192  1  0.399000  0.968000  0.611000  1.0  0.1605
  N  N193  1  0.809000  0.497000  0.959000  1.0  -0.0928
  N  N194  1  0.887000  0.438000  0.031000  1.0  -0.3503
  N  N195  1  0.812000  0.452000  0.887000  1.0  0.0088
  N  N196  1  0.860000  0.420000  0.923000  1.0  -0.1511
  N  N197  1  0.810000  0.587000  0.154000  1.0  -0.3709
  N  N198  1  0.179000  0.463000  0.562000  1.0  -0.3865
  N  N199  1  0.186000  0.058000  0.849000  1.0  -0.3731
  N  N200  1  0.809000  0.309000  0.657000  1.0  -0.3713
  N  N201  1  0.198000  0.147000  0.022000  1.0  -0.362
  N  N202  1  0.195000  0.205000  0.103000  1.0  -0.2458
  N  N203  1  0.139000  0.237000  0.071000  1.0  -0.228
  N  N204  1  0.107000  0.198000  0.969000  1.0  -0.3101
  N  N205  1  0.975500  0.246000  0.732000  1.0  -0.1344
  N  N206  1  0.920000  0.265000  0.722000  1.0  -0.2834
  N  N207  1  0.930000  0.220000  0.549000  1.0  -0.3522
  N  N208  1  0.978000  0.217000  0.629000  1.0  -0.1969
  N  N209  1  0.064000  0.425000  0.446000  1.0  -0.3009
  N  N210  1  0.077000  0.473000  0.272000  1.0  -0.4157
  N  N211  1  0.022000  0.436000  0.265000  1.0  -0.1694
  N  N212  1  0.983000  0.410000  0.635000  1.0  -0.104
  N  N213  1  0.309000  0.997000  0.959000  1.0  -0.0928
  N  N214  1  0.387000  0.938000  0.031000  1.0  -0.3503
  N  N215  1  0.312000  0.952000  0.887000  1.0  0.0088
  N  N216  1  0.360000  0.920000  0.923000  1.0  -0.1511
  N  N217  1  0.310000  0.087000  0.154000  1.0  -0.3709
  N  N218  1  0.679000  0.963000  0.562000  1.0  -0.3865
  N  N219  1  0.686000  0.558000  0.849000  1.0  -0.3731
  N  N220  1  0.309000  0.809000  0.657000  1.0  -0.3713
  N  N221  1  0.698000  0.647000  0.022000  1.0  -0.362
  N  N222  1  0.695000  0.705000  0.103000  1.0  -0.2458
  N  N223  1  0.639000  0.737000  0.071000  1.0  -0.228
  N  N224  1  0.607000  0.698000  0.969000  1.0  -0.3101
  N  N225  1  0.475500  0.746000  0.732000  1.0  -0.1344
  N  N226  1  0.420000  0.765000  0.722000  1.0  -0.2834
  N  N227  1  0.430000  0.720000  0.549000  1.0  -0.3522
  N  N228  1  0.478000  0.717000  0.629000  1.0  -0.1969
  N  N229  1  0.564000  0.925000  0.446000  1.0  -0.3009
  N  N230  1  0.577000  0.973000  0.272000  1.0  -0.4157
  N  N231  1  0.522000  0.936000  0.265000  1.0  -0.1694
  N  N232  1  0.483000  0.910000  0.635000  1.0  -0.104
  N  N233  1  0.191000  0.497000  0.041000  1.0  -0.0926
  N  N234  1  0.113000  0.438000  0.969000  1.0  -0.3491
  N  N235  1  0.188000  0.452000  0.113000  1.0  0.0097
  N  N236  1  0.140000  0.420000  0.077000  1.0  -0.154
  N  N237  1  0.190000  0.587000  0.846000  1.0  -0.3693
  N  N238  1  0.821000  0.463000  0.438000  1.0  -0.3871
  N  N239  1  0.814000  0.058000  0.151000  1.0  -0.376
  N  N240  1  0.191000  0.309000  0.343000  1.0  -0.3711
  N  N241  1  0.802000  0.147000  0.978000  1.0  -0.3681
  N  N242  1  0.805000  0.205000  0.897000  1.0  -0.2536
  N  N243  1  0.861000  0.237000  0.929000  1.0  -0.2278
  N  N244  1  0.893000  0.198000  0.031000  1.0  -0.3134
  N  N245  1  0.024500  0.246000  0.268000  1.0  -0.1359
  N  N246  1  0.080000  0.265000  0.278000  1.0  -0.286
  N  N247  1  0.070000  0.220000  0.451000  1.0  -0.3538
  N  N248  1  0.022000  0.217000  0.371000  1.0  -0.1986
  N  N249  1  0.936000  0.425000  0.554000  1.0  -0.3011
  N  N250  1  0.923000  0.473000  0.728000  1.0  -0.4128
  N  N251  1  0.978000  0.436000  0.735000  1.0  -0.1699
  N  N252  1  0.017000  0.410000  0.365000  1.0  -0.105
  N  N253  1  0.691000  0.997000  0.041000  1.0  -0.0926
  N  N254  1  0.613000  0.938000  0.969000  1.0  -0.3491
  N  N255  1  0.688000  0.952000  0.113000  1.0  0.0097
  N  N256  1  0.640000  0.920000  0.077000  1.0  -0.154
  N  N257  1  0.690000  0.087000  0.846000  1.0  -0.3693
  N  N258  1  0.321000  0.963000  0.438000  1.0  -0.3871
  N  N259  1  0.314000  0.558000  0.151000  1.0  -0.376
  N  N260  1  0.691000  0.809000  0.343000  1.0  -0.3711
  N  N261  1  0.302000  0.647000  0.978000  1.0  -0.3681
  N  N262  1  0.305000  0.705000  0.897000  1.0  -0.2536
  N  N263  1  0.361000  0.737000  0.929000  1.0  -0.2278
  N  N264  1  0.393000  0.698000  0.031000  1.0  -0.3134
  N  N265  1  0.524500  0.746000  0.268000  1.0  -0.1359
  N  N266  1  0.580000  0.765000  0.278000  1.0  -0.286
  N  N267  1  0.570000  0.720000  0.451000  1.0  -0.3538
  N  N268  1  0.522000  0.717000  0.371000  1.0  -0.1986
  N  N269  1  0.436000  0.925000  0.554000  1.0  -0.3011
  N  N270  1  0.423000  0.973000  0.728000  1.0  -0.4169
  N  N271  1  0.478000  0.936000  0.735000  1.0  -0.1699
  N  N272  1  0.517000  0.910000  0.365000  1.0  -0.105
  Cl  Cl273  1  0.121000  0.320000  0.754300  1.0  -0.4532
  Cl  Cl274  1  0.621000  0.820000  0.754300  1.0  -0.4532
  Cl  Cl275  1  0.879000  0.320000  0.245700  1.0  -0.4495
  Cl  Cl276  1  0.379000  0.820000  0.245700  1.0  -0.4495
  Cl  Cl277  1  0.000000  0.325000  0.000000  1.0  -0.4523
  Cl  Cl278  1  0.500000  0.825000  0.000000  1.0  -0.4523
