# generated using pymatgen
data_Co3H8C16(N5O4)2
_symmetry_space_group_name_H-M   'P 1'
_cell_length_a   12.58790000
_cell_length_b   12.58790000
_cell_length_c   25.09000000
_cell_angle_alpha   90.00000000
_cell_angle_beta   90.00000000
_cell_angle_gamma   90.00000000
_symmetry_Int_Tables_number   1
_chemical_formula_structural   Co3H8C16(N5O4)2
_chemical_formula_sum   'Co12 H32 C64 N40 O32'
_cell_volume   3975.64163063
_cell_formula_units_Z   4
loop_
 _symmetry_equiv_pos_site_id
 _symmetry_equiv_pos_as_xyz
  1  'x, y, z'
loop_
 _atom_site_type_symbol
 _atom_site_label
 _atom_site_symmetry_multiplicity
 _atom_site_fract_x
 _atom_site_fract_y
 _atom_site_fract_z
 _atom_site_occupancy
 _atom_site_charge
  Co  Co1  1  0.677180  0.250510  0.875430  1.0  0.8456
  Co  Co2  1  0.322820  0.749490  0.375430  1.0  0.8463
  Co  Co3  1  0.249490  0.177180  0.125430  1.0  0.8428
  Co  Co4  1  0.750510  0.822820  0.625430  1.0  0.8438
  Co  Co5  1  0.822820  0.750510  0.374570  1.0  0.8461
  Co  Co6  1  0.177180  0.249490  0.874570  1.0  0.8456
  Co  Co7  1  0.250510  0.677180  0.124570  1.0  0.843
  Co  Co8  1  0.749490  0.322820  0.624570  1.0  0.8435
  Co  Co9  1  0.430810  0.569190  0.750000  1.0  1.0332
  Co  Co10  1  0.569190  0.430810  0.250000  1.0  1.0323
  Co  Co11  1  0.930810  0.930810  0.000000  1.0  1.0318
  Co  Co12  1  0.069190  0.069190  0.500000  1.0  1.0347
  H  H13  1  0.453200  0.299100  0.068800  1.0  0.0826
  H  H14  1  0.495800  0.085300  0.919600  1.0  0.1275
  H  H15  1  0.373000  0.071000  0.911200  1.0  0.1227
  H  H16  1  0.280400  0.080200  0.003300  1.0  0.1043
  H  H17  1  0.546800  0.700900  0.568800  1.0  0.0842
  H  H18  1  0.504200  0.914700  0.419600  1.0  0.1301
  H  H19  1  0.627000  0.929000  0.411200  1.0  0.1234
  H  H20  1  0.719600  0.919800  0.503300  1.0  0.1036
  H  H21  1  0.200900  0.953200  0.318800  1.0  0.0871
  H  H22  1  0.414700  0.995800  0.169600  1.0  0.1312
  H  H23  1  0.429000  0.873000  0.161200  1.0  0.123
  H  H24  1  0.419800  0.780400  0.253300  1.0  0.1043
  H  H25  1  0.799100  0.046800  0.818800  1.0  0.0884
  H  H26  1  0.585300  0.004200  0.669600  1.0  0.1318
  H  H27  1  0.571000  0.127000  0.661200  1.0  0.1231
  H  H28  1  0.580200  0.219600  0.753300  1.0  0.1034
  H  H29  1  0.046800  0.799100  0.181200  1.0  0.0862
  H  H30  1  0.004200  0.585300  0.330400  1.0  0.1298
  H  H31  1  0.127000  0.571000  0.338800  1.0  0.1234
  H  H32  1  0.219600  0.580200  0.246700  1.0  0.1047
  H  H33  1  0.953200  0.200900  0.681200  1.0  0.0858
  H  H34  1  0.995800  0.414700  0.830400  1.0  0.1276
  H  H35  1  0.873000  0.429000  0.838800  1.0  0.1232
  H  H36  1  0.780400  0.419800  0.746700  1.0  0.1041
  H  H37  1  0.299100  0.453200  0.931200  1.0  0.0849
  H  H38  1  0.085300  0.495800  0.080400  1.0  0.1316
  H  H39  1  0.071000  0.373000  0.088800  1.0  0.1236
  H  H40  1  0.080200  0.280400  0.996700  1.0  0.104
  H  H41  1  0.700900  0.546800  0.431200  1.0  0.0851
  H  H42  1  0.914700  0.504200  0.580400  1.0  0.1313
  H  H43  1  0.929000  0.627000  0.588800  1.0  0.1217
  H  H44  1  0.919800  0.719600  0.496700  1.0  0.1036
  C  C45  1  0.565800  0.424400  0.822200  1.0  0.7035
  C  C46  1  0.480900  0.349300  0.838600  1.0  -0.0369
  C  C47  1  0.427800  0.211500  0.882800  1.0  0.412
  C  C48  1  0.288000  0.408800  0.810900  1.0  0.7114
  C  C49  1  0.372700  0.343800  0.835600  1.0  0.0333
  C  C50  1  0.427400  0.250000  0.044400  1.0  0.2816
  C  C51  1  0.427800  0.121500  0.921100  1.0  -0.1031
  C  C52  1  0.332500  0.131100  0.009500  1.0  0.128
  C  C53  1  0.434200  0.575600  0.322200  1.0  0.7043
  C  C54  1  0.519100  0.650700  0.338600  1.0  -0.0373
  C  C55  1  0.572200  0.788500  0.382800  1.0  0.4124
  C  C56  1  0.712000  0.591200  0.310900  1.0  0.7099
  C  C57  1  0.627300  0.656200  0.335600  1.0  0.0328
  C  C58  1  0.572600  0.750000  0.544400  1.0  0.2817
  C  C59  1  0.572200  0.878500  0.421100  1.0  -0.1029
  C  C60  1  0.667500  0.868900  0.509500  1.0  0.1279
  C  C61  1  0.075600  0.065800  0.072200  1.0  0.7048
  C  C62  1  0.150700  0.980900  0.088600  1.0  -0.038
  C  C63  1  0.288500  0.927800  0.132800  1.0  0.4124
  C  C64  1  0.091200  0.788000  0.060900  1.0  0.7113
  C  C65  1  0.156200  0.872700  0.085600  1.0  0.0326
  C  C66  1  0.250000  0.927400  0.294400  1.0  0.2826
  C  C67  1  0.378500  0.927800  0.171100  1.0  -0.104
  C  C68  1  0.368900  0.832500  0.259500  1.0  0.1282
  C  C69  1  0.924400  0.934200  0.572200  1.0  0.7045
  C  C70  1  0.849300  0.019100  0.588600  1.0  -0.0376
  C  C71  1  0.711500  0.072200  0.632800  1.0  0.4118
  C  C72  1  0.908800  0.212000  0.560900  1.0  0.7119
  C  C73  1  0.843800  0.127300  0.585600  1.0  0.0331
  C  C74  1  0.750000  0.072600  0.794400  1.0  0.283
  C  C75  1  0.621500  0.072200  0.671100  1.0  -0.1048
  C  C76  1  0.631100  0.167500  0.759500  1.0  0.1279
  C  C77  1  0.934200  0.924400  0.427800  1.0  0.7058
  C  C78  1  0.019100  0.849300  0.411400  1.0  -0.0362
  C  C79  1  0.072200  0.711500  0.367200  1.0  0.413
  C  C80  1  0.212000  0.908800  0.439100  1.0  0.712
  C  C81  1  0.127300  0.843800  0.414400  1.0  0.0322
  C  C82  1  0.072600  0.750000  0.205600  1.0  0.2808
  C  C83  1  0.072200  0.621500  0.328900  1.0  -0.1015
  C  C84  1  0.167500  0.631100  0.240500  1.0  0.1274
  C  C85  1  0.065800  0.075600  0.927800  1.0  0.7028
  C  C86  1  0.980900  0.150700  0.911400  1.0  -0.0376
  C  C87  1  0.927800  0.288500  0.867200  1.0  0.4124
  C  C88  1  0.788000  0.091200  0.939100  1.0  0.7094
  C  C89  1  0.872700  0.156200  0.914400  1.0  0.0331
  C  C90  1  0.927400  0.250000  0.705600  1.0  0.2815
  C  C91  1  0.927800  0.378500  0.828900  1.0  -0.1044
  C  C92  1  0.832500  0.368900  0.740500  1.0  0.1269
  C  C93  1  0.424400  0.565800  0.177800  1.0  0.7037
  C  C94  1  0.349300  0.480900  0.161400  1.0  -0.0377
  C  C95  1  0.211500  0.427800  0.117200  1.0  0.4122
  C  C96  1  0.408800  0.288000  0.189100  1.0  0.7116
  C  C97  1  0.343800  0.372700  0.164400  1.0  0.0331
  C  C98  1  0.250000  0.427400  0.955600  1.0  0.2839
  C  C99  1  0.121500  0.427800  0.078900  1.0  -0.1055
  C  C100  1  0.131100  0.332500  0.990500  1.0  0.1274
  C  C101  1  0.575600  0.434200  0.677800  1.0  0.705
  C  C102  1  0.650700  0.519100  0.661400  1.0  -0.038
  C  C103  1  0.788500  0.572200  0.617200  1.0  0.4125
  C  C104  1  0.591200  0.712000  0.689100  1.0  0.7107
  C  C105  1  0.656200  0.627300  0.664400  1.0  0.0322
  C  C106  1  0.750000  0.572600  0.455600  1.0  0.2827
  C  C107  1  0.878500  0.572200  0.578900  1.0  -0.1033
  C  C108  1  0.868900  0.667500  0.490500  1.0  0.1277
  N  N109  1  0.338700  0.257700  0.864050  1.0  -0.4768
  N  N110  1  0.514700  0.262800  0.867940  1.0  -0.4337
  N  N111  1  0.342700  0.187800  0.054400  1.0  -0.4347
  N  N112  1  0.408600  0.158800  0.974820  1.0  0.201
  N  N113  1  0.471000  0.235600  0.996900  1.0  -0.3633
  N  N114  1  0.661300  0.742300  0.364050  1.0  -0.4784
  N  N115  1  0.485300  0.737200  0.367940  1.0  -0.4332
  N  N116  1  0.657300  0.812200  0.554400  1.0  -0.4358
  N  N117  1  0.591400  0.841200  0.474820  1.0  0.2018
  N  N118  1  0.529000  0.764400  0.496900  1.0  -0.3613
  N  N119  1  0.242300  0.838700  0.114050  1.0  -0.4769
  N  N120  1  0.237200  0.014700  0.117940  1.0  -0.4316
  N  N121  1  0.312200  0.842700  0.304400  1.0  -0.4373
  N  N122  1  0.341200  0.908600  0.224820  1.0  0.1988
  N  N123  1  0.264400  0.971000  0.246900  1.0  -0.3625
  N  N124  1  0.757700  0.161300  0.614050  1.0  -0.4759
  N  N125  1  0.762800  0.985300  0.617940  1.0  -0.4309
  N  N126  1  0.687800  0.157300  0.804400  1.0  -0.437
  N  N127  1  0.658800  0.091400  0.724820  1.0  0.1992
  N  N128  1  0.735600  0.029000  0.746900  1.0  -0.3618
  N  N129  1  0.161300  0.757700  0.385950  1.0  -0.4768
  N  N130  1  0.985300  0.762800  0.382060  1.0  -0.4332
  N  N131  1  0.157300  0.687800  0.195600  1.0  -0.4359
  N  N132  1  0.091400  0.658800  0.275180  1.0  0.2013
  N  N133  1  0.029000  0.735600  0.253100  1.0  -0.3619
  N  N134  1  0.838700  0.242300  0.885950  1.0  -0.4765
  N  N135  1  0.014700  0.237200  0.882060  1.0  -0.4334
  N  N136  1  0.842700  0.312200  0.695600  1.0  -0.4352
  N  N137  1  0.908600  0.341200  0.775180  1.0  0.2007
  N  N138  1  0.971000  0.264400  0.753100  1.0  -0.3637
  N  N139  1  0.257700  0.338700  0.135950  1.0  -0.4756
  N  N140  1  0.262800  0.514700  0.132060  1.0  -0.431
  N  N141  1  0.187800  0.342700  0.945600  1.0  -0.4377
  N  N142  1  0.158800  0.408600  0.025180  1.0  0.1995
  N  N143  1  0.235600  0.471000  0.003100  1.0  -0.3622
  N  N144  1  0.742300  0.661300  0.635950  1.0  -0.476
  N  N145  1  0.737200  0.485300  0.632060  1.0  -0.4309
  N  N146  1  0.812200  0.657300  0.445600  1.0  -0.4367
  N  N147  1  0.841200  0.591400  0.525180  1.0  0.1983
  N  N148  1  0.764400  0.529000  0.503100  1.0  -0.363
  O  O149  1  0.660300  0.395400  0.831980  1.0  -0.5923
  O  O150  1  0.193900  0.387400  0.825530  1.0  -0.5767
  O  O151  1  0.545000  0.512800  0.802500  1.0  -0.6207
  O  O152  1  0.308000  0.481700  0.779100  1.0  -0.6375
  O  O153  1  0.339700  0.604600  0.331980  1.0  -0.5926
  O  O154  1  0.806100  0.612600  0.325530  1.0  -0.5768
  O  O155  1  0.455000  0.487200  0.302500  1.0  -0.6214
  O  O156  1  0.692000  0.518300  0.279100  1.0  -0.636
  O  O157  1  0.104600  0.160300  0.081980  1.0  -0.5923
  O  O158  1  0.112600  0.693900  0.075530  1.0  -0.5788
  O  O159  1  0.987200  0.045000  0.052500  1.0  -0.6245
  O  O160  1  0.018300  0.808000  0.029100  1.0  -0.6373
  O  O161  1  0.895400  0.839700  0.581980  1.0  -0.5908
  O  O162  1  0.887400  0.306100  0.575530  1.0  -0.5784
  O  O163  1  0.012800  0.955000  0.552500  1.0  -0.6195
  O  O164  1  0.981700  0.192000  0.529100  1.0  -0.6335
  O  O165  1  0.839700  0.895400  0.418020  1.0  -0.5926
  O  O166  1  0.306100  0.887400  0.424470  1.0  -0.5769
  O  O167  1  0.955000  0.012800  0.447500  1.0  -0.6206
  O  O168  1  0.192000  0.981700  0.470900  1.0  -0.633
  O  O169  1  0.160300  0.104600  0.918020  1.0  -0.5929
  O  O170  1  0.693900  0.112600  0.924470  1.0  -0.574
  O  O171  1  0.045000  0.987200  0.947500  1.0  -0.6208
  O  O172  1  0.808000  0.018300  0.970900  1.0  -0.6325
  O  O173  1  0.395400  0.660300  0.168020  1.0  -0.5886
  O  O174  1  0.387400  0.193900  0.174470  1.0  -0.5793
  O  O175  1  0.512800  0.545000  0.197500  1.0  -0.6195
  O  O176  1  0.481700  0.308000  0.220900  1.0  -0.6315
  O  O177  1  0.604600  0.339700  0.668020  1.0  -0.592
  O  O178  1  0.612600  0.806100  0.674470  1.0  -0.5818
  O  O179  1  0.487200  0.455000  0.697500  1.0  -0.6251
  O  O180  1  0.518300  0.692000  0.720900  1.0  -0.6337
