# generated using pymatgen
data_Fe3H12C26(N6O)4
_symmetry_space_group_name_H-M   'P 1'
_cell_length_a   12.10600000
_cell_length_b   12.11800000
_cell_length_c   13.72080000
_cell_angle_alpha   98.96280000
_cell_angle_beta   116.17800000
_cell_angle_gamma   69.32000000
_symmetry_Int_Tables_number   1
_chemical_formula_structural   Fe3H12C26(N6O)4
_chemical_formula_sum   'Fe3 H12 C26 N24 O4'
_cell_volume   1689.99588214
_cell_formula_units_Z   1
loop_
 _symmetry_equiv_pos_site_id
 _symmetry_equiv_pos_as_xyz
  1  'x, y, z'
loop_
 _atom_site_type_symbol
 _atom_site_label
 _atom_site_symmetry_multiplicity
 _atom_site_fract_x
 _atom_site_fract_y
 _atom_site_fract_z
 _atom_site_occupancy
 _atom_site_charge
  Fe  Fe1  1  0.000000  0.000000  0.000000  1.0  0.1293
  Fe  Fe2  1  0.104030  0.257050  0.000000  1.0  0.9589
  Fe  Fe3  1  0.895970  0.742950  0.000000  1.0  0.9606
  H  H4  1  0.909200  0.912600  0.572000  1.0  0.1069
  H  H5  1  0.116900  0.126000  0.604600  1.0  0.1224
  H  H6  1  0.662800  0.087400  0.572000  1.0  0.1081
  H  H7  1  0.487700  0.874000  0.604600  1.0  0.1233
  H  H8  1  0.090800  0.087400  0.428000  1.0  0.1075
  H  H9  1  0.883100  0.874000  0.395400  1.0  0.1224
  H  H10  1  0.337200  0.912600  0.428000  1.0  0.1082
  H  H11  1  0.512300  0.126000  0.395400  1.0  0.1228
  H  H12  1  0.529500  0.301800  0.000000  1.0  0.1073
  H  H13  1  0.662900  0.558300  0.000000  1.0  0.114
  H  H14  1  0.470500  0.698200  0.000000  1.0  0.108
  H  H15  1  0.337100  0.441700  0.000000  1.0  0.1138
  C  C16  1  0.947300  0.947700  0.543200  1.0  -0.0596
  C  C17  1  0.017900  0.018300  0.608800  1.0  -0.0319
  C  C18  1  0.070100  0.074100  0.562000  1.0  -0.0869
  C  C19  1  0.039300  0.043300  0.722200  1.0  0.3625
  C  C20  1  0.595900  0.052300  0.543200  1.0  -0.0631
  C  C21  1  0.590900  0.981700  0.608800  1.0  -0.031
  C  C22  1  0.491900  0.925900  0.562000  1.0  -0.0858
  C  C23  1  0.682900  0.956700  0.722200  1.0  0.3613
  C  C24  1  0.052700  0.052300  0.456800  1.0  -0.0614
  C  C25  1  0.982100  0.981700  0.391200  1.0  -0.0314
  C  C26  1  0.929900  0.925900  0.438000  1.0  -0.0881
  C  C27  1  0.960700  0.956700  0.277800  1.0  0.3623
  C  C28  1  0.404100  0.947700  0.456800  1.0  -0.062
  C  C29  1  0.409100  0.018300  0.391200  1.0  -0.0302
  C  C30  1  0.508100  0.074100  0.438000  1.0  -0.0907
  C  C31  1  0.317100  0.043300  0.277800  1.0  0.3609
  C  C32  1  0.518900  0.383300  0.000000  1.0  -0.0667
  C  C33  1  0.614400  0.414600  0.000000  1.0  -0.0258
  C  C34  1  0.597100  0.532900  0.000000  1.0  -0.0922
  C  C35  1  0.736600  0.332400  0.000000  1.0  0.36
  C  C36  1  0.481100  0.616700  0.000000  1.0  -0.0674
  C  C37  1  0.385600  0.585400  0.000000  1.0  -0.0262
  C  C38  1  0.402900  0.467100  0.000000  1.0  -0.0935
  C  C39  1  0.263400  0.667600  0.000000  1.0  0.3606
  C  C40  1  0.968200  0.500000  0.936400  1.0  0.518
  C  C41  1  0.031800  0.500000  0.063600  1.0  0.5167
  N  N42  1  0.018400  0.979900  0.780400  1.0  -0.3237
  N  N43  1  0.040780  0.035800  0.877160  1.0  0.0756
  N  N44  1  0.077000  0.125100  0.875600  1.0  -0.0781
  N  N45  1  0.074600  0.135400  0.780000  1.0  -0.3171
  N  N46  1  0.762000  0.020100  0.780400  1.0  -0.3248
  N  N47  1  0.836380  0.964200  0.877160  1.0  0.0543
  N  N48  1  0.798600  0.874900  0.875600  1.0  -0.0543
  N  N49  1  0.705400  0.864600  0.780000  1.0  -0.317
  N  N50  1  0.981600  0.020100  0.219600  1.0  -0.3239
  N  N51  1  0.959220  0.964200  0.122840  1.0  0.0712
  N  N52  1  0.923000  0.874900  0.124400  1.0  -0.0739
  N  N53  1  0.925400  0.864600  0.220000  1.0  -0.3174
  N  N54  1  0.238000  0.979900  0.219600  1.0  -0.3243
  N  N55  1  0.163620  0.035800  0.122840  1.0  0.0588
  N  N56  1  0.201400  0.125100  0.124400  1.0  -0.0589
  N  N57  1  0.294600  0.135400  0.220000  1.0  -0.3137
  N  N58  1  0.769400  0.212000  0.000000  1.0  -0.3414
  N  N59  1  0.887600  0.175700  0.000000  1.0  0.0852
  N  N60  1  0.921400  0.264800  0.000000  1.0  -0.0051
  N  N61  1  0.829600  0.364500  0.000000  1.0  -0.2822
  N  N62  1  0.230600  0.788000  0.000000  1.0  -0.3432
  N  N63  1  0.112400  0.824300  0.000000  1.0  0.0843
  N  N64  1  0.078600  0.735200  0.000000  1.0  -0.0051
  N  N65  1  0.170400  0.635500  0.000000  1.0  -0.2811
  O  O66  1  0.995290  0.402800  0.889180  1.0  -0.4672
  O  O67  1  0.893890  0.597200  0.889180  1.0  -0.4654
  O  O68  1  0.004710  0.597200  0.110820  1.0  -0.4712
  O  O69  1  0.106110  0.402800  0.110820  1.0  -0.462
