# generated using pymatgen
data_Fe3H12C26(N6O)4
_symmetry_space_group_name_H-M   'P 1'
_cell_length_a   12.07800000
_cell_length_b   12.08700000
_cell_length_c   13.68460000
_cell_angle_alpha   98.88210000
_cell_angle_beta   116.18700000
_cell_angle_gamma   69.52000000
_symmetry_Int_Tables_number   1
_chemical_formula_structural   Fe3H12C26(N6O)4
_chemical_formula_sum   'Fe3 H12 C26 N24 O4'
_cell_volume   1679.40685509
_cell_formula_units_Z   1
loop_
 _symmetry_equiv_pos_site_id
 _symmetry_equiv_pos_as_xyz
  1  'x, y, z'
loop_
 _atom_site_type_symbol
 _atom_site_label
 _atom_site_symmetry_multiplicity
 _atom_site_fract_x
 _atom_site_fract_y
 _atom_site_fract_z
 _atom_site_occupancy
 _atom_site_charge
  Fe  Fe1  1  0.000000  0.000000  0.000000  1.0  0.1335
  Fe  Fe2  1  0.104390  0.258460  0.000000  1.0  0.9652
  Fe  Fe3  1  0.895610  0.741540  0.000000  1.0  0.9663
  H  H4  1  0.902200  0.919100  0.570800  1.0  0.1171
  H  H5  1  0.129100  0.114600  0.606000  1.0  0.1091
  H  H6  1  0.668600  0.080900  0.570800  1.0  0.1181
  H  H7  1  0.476900  0.885400  0.606000  1.0  0.1108
  H  H8  1  0.097800  0.080900  0.429200  1.0  0.1174
  H  H9  1  0.870900  0.885400  0.394000  1.0  0.1092
  H  H10  1  0.331400  0.919100  0.429200  1.0  0.1176
  H  H11  1  0.523100  0.114600  0.394000  1.0  0.1103
  H  H12  1  0.528300  0.292600  0.000000  1.0  0.1328
  H  H13  1  0.663400  0.560400  0.000000  1.0  0.0993
  H  H14  1  0.471700  0.707400  0.000000  1.0  0.1336
  H  H15  1  0.336600  0.439600  0.000000  1.0  0.0995
  C  C16  1  0.942800  0.951800  0.542200  1.0  -0.0938
  C  C17  1  0.022400  0.019300  0.610000  1.0  -0.0265
  C  C18  1  0.076600  0.067000  0.562800  1.0  -0.0685
  C  C19  1  0.039400  0.042300  0.722800  1.0  0.3702
  C  C20  1  0.599400  0.048200  0.542200  1.0  -0.0965
  C  C21  1  0.587600  0.980700  0.610000  1.0  -0.0275
  C  C22  1  0.486200  0.933000  0.562800  1.0  -0.0696
  C  C23  1  0.683400  0.957700  0.722800  1.0  0.37
  C  C24  1  0.057200  0.048200  0.457800  1.0  -0.0995
  C  C25  1  0.977600  0.980700  0.390000  1.0  -0.0244
  C  C26  1  0.923400  0.933000  0.437200  1.0  -0.0679
  C  C27  1  0.960600  0.957700  0.277200  1.0  0.3712
  C  C28  1  0.400600  0.951800  0.457800  1.0  -0.1015
  C  C29  1  0.412400  0.019300  0.390000  1.0  -0.0253
  C  C30  1  0.513800  0.067000  0.437200  1.0  -0.0691
  C  C31  1  0.316600  0.042300  0.277200  1.0  0.3694
  C  C32  1  0.517400  0.374400  0.000000  1.0  -0.084
  C  C33  1  0.616400  0.417200  0.000000  1.0  -0.0786
  C  C34  1  0.596600  0.536200  0.000000  1.0  -0.076
  C  C35  1  0.735800  0.332200  0.000000  1.0  0.3673
  C  C36  1  0.482600  0.625600  0.000000  1.0  -0.085
  C  C37  1  0.383600  0.582800  0.000000  1.0  -0.0776
  C  C38  1  0.403400  0.463800  0.000000  1.0  -0.0738
  C  C39  1  0.264200  0.667800  0.000000  1.0  0.3685
  C  C40  1  0.969400  0.500000  0.938800  1.0  0.5043
  C  C41  1  0.030600  0.500000  0.061200  1.0  0.5021
  N  N42  1  0.019440  0.979300  0.781880  1.0  -0.3283
  N  N43  1  0.040460  0.037000  0.877120  1.0  0.1133
  N  N44  1  0.073860  0.126200  0.875520  1.0  -0.0749
  N  N45  1  0.076000  0.132600  0.779800  1.0  -0.3208
  N  N46  1  0.762440  0.020700  0.781880  1.0  -0.329
  N  N47  1  0.836660  0.963000  0.877120  1.0  0.0927
  N  N48  1  0.801660  0.873800  0.875520  1.0  -0.0593
  N  N49  1  0.703800  0.867400  0.779800  1.0  -0.3212
  N  N50  1  0.980560  0.020700  0.218120  1.0  -0.3283
  N  N51  1  0.959540  0.963000  0.122880  1.0  0.1096
  N  N52  1  0.926140  0.873800  0.124480  1.0  -0.0709
  N  N53  1  0.924000  0.867400  0.220200  1.0  -0.3199
  N  N54  1  0.237560  0.979300  0.218120  1.0  -0.3292
  N  N55  1  0.163340  0.037000  0.122880  1.0  0.0953
  N  N56  1  0.198340  0.126200  0.124480  1.0  -0.0634
  N  N57  1  0.296200  0.132600  0.220200  1.0  -0.3185
  N  N58  1  0.767300  0.215100  0.000000  1.0  -0.316
  N  N59  1  0.886100  0.174600  0.000000  1.0  0.0406
  N  N60  1  0.920400  0.264700  0.000000  1.0  0.0156
  N  N61  1  0.831300  0.362800  0.000000  1.0  -0.274
  N  N62  1  0.232700  0.784900  0.000000  1.0  -0.3179
  N  N63  1  0.113900  0.825400  0.000000  1.0  0.0415
  N  N64  1  0.079600  0.735300  0.000000  1.0  0.0151
  N  N65  1  0.168700  0.637200  0.000000  1.0  -0.2733
  O  O66  1  0.997120  0.402100  0.890640  1.0  -0.4775
  O  O67  1  0.893520  0.597900  0.890640  1.0  -0.468
  O  O68  1  0.002880  0.597900  0.109360  1.0  -0.4816
  O  O69  1  0.106480  0.402100  0.109360  1.0  -0.469
