# generated using pymatgen
data_Fe3H12C26(N6O)4
_symmetry_space_group_name_H-M   'P 1'
_cell_length_a   12.01150000
_cell_length_b   12.10200000
_cell_length_c   13.67880000
_cell_angle_alpha   98.68330000
_cell_angle_beta   116.04400000
_cell_angle_gamma   69.88790000
_symmetry_Int_Tables_number   1
_chemical_formula_structural   Fe3H12C26(N6O)4
_chemical_formula_sum   'Fe3 H12 C26 N24 O4'
_cell_volume   1677.54957960
_cell_formula_units_Z   1
loop_
 _symmetry_equiv_pos_site_id
 _symmetry_equiv_pos_as_xyz
  1  'x, y, z'
loop_
 _atom_site_type_symbol
 _atom_site_label
 _atom_site_symmetry_multiplicity
 _atom_site_fract_x
 _atom_site_fract_y
 _atom_site_fract_z
 _atom_site_occupancy
 _atom_site_charge
  Fe  Fe1  1  0.000000  0.000000  0.000000  1.0  0.2001
  Fe  Fe2  1  0.106640  0.258730  0.000000  1.0  0.9642
  Fe  Fe3  1  0.893360  0.741270  0.000000  1.0  0.9659
  H  H4  1  0.905200  0.920100  0.575400  1.0  0.105
  H  H5  1  0.134500  0.111700  0.607600  1.0  0.1127
  H  H6  1  0.670200  0.079900  0.575400  1.0  0.1052
  H  H7  1  0.473100  0.888300  0.607600  1.0  0.114
  H  H8  1  0.094800  0.079900  0.424600  1.0  0.1056
  H  H9  1  0.865500  0.888300  0.392400  1.0  0.1126
  H  H10  1  0.329800  0.920100  0.424600  1.0  0.1057
  H  H11  1  0.526900  0.111700  0.392400  1.0  0.1134
  H  H12  1  0.527800  0.300900  0.000000  1.0  0.1156
  H  H13  1  0.664600  0.559200  0.000000  1.0  0.1062
  H  H14  1  0.472200  0.699100  0.000000  1.0  0.1161
  H  H15  1  0.335400  0.440800  0.000000  1.0  0.1065
  C  C16  1  0.944150  0.953200  0.544900  1.0  -0.0665
  C  C17  1  0.022580  0.019300  0.609360  1.0  -0.0573
  C  C18  1  0.079310  0.066200  0.564020  1.0  -0.0861
  C  C19  1  0.044090  0.042400  0.724180  1.0  0.3574
  C  C20  1  0.600750  0.046800  0.544900  1.0  -0.0684
  C  C21  1  0.586780  0.980700  0.609360  1.0  -0.0586
  C  C22  1  0.484710  0.933800  0.564020  1.0  -0.0873
  C  C23  1  0.680090  0.957600  0.724180  1.0  0.3558
  C  C24  1  0.055850  0.046800  0.455100  1.0  -0.067
  C  C25  1  0.977420  0.980700  0.390640  1.0  -0.0551
  C  C26  1  0.920690  0.933800  0.435980  1.0  -0.0871
  C  C27  1  0.955910  0.957600  0.275820  1.0  0.3571
  C  C28  1  0.399250  0.953200  0.455100  1.0  -0.0675
  C  C29  1  0.413220  0.019300  0.390640  1.0  -0.0564
  C  C30  1  0.515290  0.066200  0.435980  1.0  -0.0895
  C  C31  1  0.319910  0.042400  0.275820  1.0  0.3556
  C  C32  1  0.517200  0.382300  0.000000  1.0  -0.0783
  C  C33  1  0.614500  0.417300  0.000000  1.0  -0.0432
  C  C34  1  0.597900  0.533900  0.000000  1.0  -0.0666
  C  C35  1  0.736500  0.330600  0.000000  1.0  0.3619
  C  C36  1  0.482800  0.617700  0.000000  1.0  -0.079
  C  C37  1  0.385500  0.582700  0.000000  1.0  -0.0459
  C  C38  1  0.402100  0.466100  0.000000  1.0  -0.068
  C  C39  1  0.263500  0.669400  0.000000  1.0  0.3617
  C  C40  1  0.968640  0.500000  0.937280  1.0  0.4898
  C  C41  1  0.031360  0.500000  0.062720  1.0  0.4863
  N  N42  1  0.021390  0.980200  0.781980  1.0  -0.3141
  N  N43  1  0.042480  0.036300  0.877160  1.0  0.1223
  N  N44  1  0.076940  0.128300  0.875280  1.0  -0.0961
  N  N45  1  0.078740  0.135100  0.779680  1.0  -0.3194
  N  N46  1  0.760590  0.019800  0.781980  1.0  -0.3144
  N  N47  1  0.834680  0.963700  0.877160  1.0  0.1043
  N  N48  1  0.798340  0.871700  0.875280  1.0  -0.0734
  N  N49  1  0.700940  0.864900  0.779680  1.0  -0.32
  N  N50  1  0.978610  0.019800  0.218020  1.0  -0.3141
  N  N51  1  0.957520  0.963700  0.122840  1.0  0.1199
  N  N52  1  0.923060  0.871700  0.124720  1.0  -0.0905
  N  N53  1  0.921260  0.864900  0.220320  1.0  -0.3203
  N  N54  1  0.239410  0.980200  0.218020  1.0  -0.3146
  N  N55  1  0.165320  0.036300  0.122840  1.0  0.1065
  N  N56  1  0.201660  0.128300  0.124720  1.0  -0.0789
  N  N57  1  0.299060  0.135100  0.220320  1.0  -0.3164
  N  N58  1  0.766500  0.212700  0.000000  1.0  -0.336
  N  N59  1  0.886200  0.173700  0.000000  1.0  0.0875
  N  N60  1  0.923900  0.263100  0.000000  1.0  0.0345
  N  N61  1  0.831500  0.364100  0.000000  1.0  -0.3116
  N  N62  1  0.233500  0.787300  0.000000  1.0  -0.3377
  N  N63  1  0.113800  0.826300  0.000000  1.0  0.0886
  N  N64  1  0.076100  0.736900  0.000000  1.0  0.035
  N  N65  1  0.168500  0.635900  0.000000  1.0  -0.3105
  O  O66  1  0.996970  0.403610  0.890320  1.0  -0.471
  O  O67  1  0.893350  0.596390  0.890320  1.0  -0.4676
  O  O68  1  0.003030  0.596390  0.109680  1.0  -0.4749
  O  O69  1  0.106650  0.403610  0.109680  1.0  -0.4636
