# generated using pymatgen
data_Fe3H12C26(N6O)4
_symmetry_space_group_name_H-M   'P 1'
_cell_length_a   11.95000000
_cell_length_b   12.11400000
_cell_length_c   13.66830000
_cell_angle_alpha   63.69550000
_cell_angle_beta   81.17130000
_cell_angle_gamma   69.73590000
_symmetry_Int_Tables_number   1
_chemical_formula_structural   Fe3H12C26(N6O)4
_chemical_formula_sum   'Fe3 H12 C26 N24 O4'
_cell_volume   1663.98272029
_cell_formula_units_Z   1
loop_
 _symmetry_equiv_pos_site_id
 _symmetry_equiv_pos_as_xyz
  1  'x, y, z'
loop_
 _atom_site_type_symbol
 _atom_site_label
 _atom_site_symmetry_multiplicity
 _atom_site_fract_x
 _atom_site_fract_y
 _atom_site_fract_z
 _atom_site_occupancy
 _atom_site_charge
  Fe  Fe1  1  0.000000  0.000000  0.000000  1.0  0.1563
  Fe  Fe2  1  0.739680  0.894780  0.000000  1.0  0.9624
  Fe  Fe3  1  0.260320  0.105220  0.000000  1.0  0.9636
  H  H4  1  0.085500  0.087100  0.574800  1.0  0.1018
  H  H5  1  0.889100  0.867200  0.607000  1.0  0.1102
  H  H6  1  0.914500  0.338100  0.574800  1.0  0.1017
  H  H7  1  0.110900  0.525800  0.607000  1.0  0.1109
  H  H8  1  0.914500  0.912900  0.425200  1.0  0.1024
  H  H9  1  0.110900  0.132800  0.393000  1.0  0.1108
  H  H10  1  0.085500  0.661900  0.425200  1.0  0.1017
  H  H11  1  0.889100  0.474200  0.393000  1.0  0.1113
  H  H12  1  0.699600  0.467100  0.000000  1.0  0.1035
  H  H13  1  0.442900  0.339800  0.000000  1.0  0.0942
  H  H14  1  0.300400  0.532900  0.000000  1.0  0.1047
  H  H15  1  0.557100  0.660200  0.000000  1.0  0.0939
  C  C16  1  0.049600  0.052200  0.544800  1.0  -0.0836
  C  C17  1  0.981600  0.977000  0.610000  1.0  -0.0431
  C  C18  1  0.933300  0.922000  0.564000  1.0  -0.088
  C  C19  1  0.956600  0.960700  0.723000  1.0  0.3594
  C  C20  1  0.950400  0.403000  0.544800  1.0  -0.0838
  C  C21  1  0.018400  0.413000  0.610000  1.0  -0.0417
  C  C22  1  0.066700  0.514000  0.564000  1.0  -0.0887
  C  C23  1  0.043400  0.316300  0.723000  1.0  0.3583
  C  C24  1  0.950400  0.947800  0.455200  1.0  -0.0831
  C  C25  1  0.018400  0.023000  0.390000  1.0  -0.0413
  C  C26  1  0.066700  0.078000  0.436000  1.0  -0.0884
  C  C27  1  0.043400  0.039300  0.277000  1.0  0.3593
  C  C28  1  0.049600  0.597000  0.455200  1.0  -0.0846
  C  C29  1  0.981600  0.587000  0.390000  1.0  -0.0405
  C  C30  1  0.933300  0.486000  0.436000  1.0  -0.0885
  C  C31  1  0.956600  0.683700  0.277000  1.0  0.358
  C  C32  1  0.618700  0.477900  0.000000  1.0  -0.1031
  C  C33  1  0.582800  0.383400  0.000000  1.0  0.0158
  C  C34  1  0.469500  0.403500  0.000000  1.0  -0.0896
  C  C35  1  0.664100  0.263500  0.000000  1.0  0.3483
  C  C36  1  0.381300  0.522100  0.000000  1.0  -0.1026
  C  C37  1  0.417200  0.616600  0.000000  1.0  0.0129
  C  C38  1  0.530500  0.596500  0.000000  1.0  -0.0863
  C  C39  1  0.335900  0.736500  0.000000  1.0  0.3477
  C  C40  1  0.500000  0.031300  0.937400  1.0  0.569
  C  C41  1  0.500000  0.968700  0.062600  1.0  0.5513
  N  N42  1  0.020600  0.980030  0.781940  1.0  -0.2958
  N  N43  1  0.965900  0.958760  0.875880  1.0  0.0847
  N  N44  1  0.867600  0.930900  0.874200  1.0  -0.0613
  N  N45  1  0.861800  0.928280  0.779040  1.0  -0.3288
  N  N46  1  0.979400  0.238030  0.781940  1.0  -0.2952
  N  N47  1  0.034100  0.165360  0.875880  1.0  0.0984
  N  N48  1  0.132400  0.194900  0.874200  1.0  -0.0722
  N  N49  1  0.138200  0.292680  0.779040  1.0  -0.3271
  N  N50  1  0.979400  0.019970  0.218060  1.0  -0.2951
  N  N51  1  0.034100  0.041240  0.124120  1.0  0.083
  N  N52  1  0.132400  0.069100  0.125800  1.0  -0.0591
  N  N53  1  0.138200  0.071720  0.220960  1.0  -0.3277
  N  N54  1  0.020600  0.761970  0.218060  1.0  -0.2956
  N  N55  1  0.965900  0.834640  0.124120  1.0  0.102
  N  N56  1  0.867600  0.805100  0.125800  1.0  -0.0714
  N  N57  1  0.861800  0.707320  0.220960  1.0  -0.3281
  N  N58  1  0.786500  0.231600  0.000000  1.0  -0.3391
  N  N59  1  0.822100  0.116800  0.000000  1.0  0.0808
  N  N60  1  0.732800  0.079000  0.000000  1.0  0.0163
  N  N61  1  0.631500  0.170400  0.000000  1.0  -0.2888
  N  N62  1  0.213500  0.768400  0.000000  1.0  -0.3403
  N  N63  1  0.177900  0.883200  0.000000  1.0  0.0822
  N  N64  1  0.267200  0.921000  0.000000  1.0  0.0151
  N  N65  1  0.368500  0.829600  0.000000  1.0  -0.291
  O  O66  1  0.596200  0.005740  0.890920  1.0  -0.4841
  O  O67  1  0.403800  0.103340  0.890920  1.0  -0.4747
  O  O68  1  0.403800  0.994260  0.109080  1.0  -0.4817
  O  O69  1  0.596200  0.896660  0.109080  1.0  -0.4783
