# generated using pymatgen
data_FeH18(C3N2)6
_symmetry_space_group_name_H-M   'P 1'
_cell_length_a   22.64760000
_cell_length_b   22.64760000
_cell_length_c   7.44710000
_cell_angle_alpha   90.00000000
_cell_angle_beta   90.00000000
_cell_angle_gamma   120.00000000
_symmetry_Int_Tables_number   1
_chemical_formula_structural   FeH18(C3N2)6
_chemical_formula_sum   'Fe6 H108 C108 N72'
_cell_volume   3307.97477526
_cell_formula_units_Z   6
loop_
 _symmetry_equiv_pos_site_id
 _symmetry_equiv_pos_as_xyz
  1  'x, y, z'
loop_
 _atom_site_type_symbol
 _atom_site_label
 _atom_site_symmetry_multiplicity
 _atom_site_fract_x
 _atom_site_fract_y
 _atom_site_fract_z
 _atom_site_occupancy
 _atom_site_charge
  Fe  Fe1  1  0.666667  0.333333  0.333333  1.0  0.5039
  Fe  Fe2  1  0.333333  0.666667  0.666667  1.0  0.5033
  Fe  Fe3  1  0.000000  0.000000  0.000000  1.0  0.501
  Fe  Fe4  1  0.666667  0.333333  0.833330  1.0  0.1026
  Fe  Fe5  1  0.333333  0.666667  0.166670  1.0  0.1023
  Fe  Fe6  1  0.000000  0.000000  0.500000  1.0  0.0888
  H  H7  1  0.756700  0.136900  0.426400  1.0  0.0816
  H  H8  1  0.747300  0.151100  0.864800  1.0  0.0678
  H  H9  1  0.423370  0.470230  0.759730  1.0  0.0813
  H  H10  1  0.413970  0.484430  0.198130  1.0  0.0675
  H  H11  1  0.090030  0.803570  0.093070  1.0  0.0816
  H  H12  1  0.080630  0.817770  0.531470  1.0  0.0678
  H  H13  1  0.863100  0.619800  0.426400  1.0  0.0805
  H  H14  1  0.848900  0.596200  0.864800  1.0  0.0706
  H  H15  1  0.529770  0.953130  0.759730  1.0  0.0811
  H  H16  1  0.515570  0.929530  0.198130  1.0  0.0719
  H  H17  1  0.196430  0.286470  0.093070  1.0  0.0805
  H  H18  1  0.182230  0.262870  0.531470  1.0  0.0709
  H  H19  1  0.380200  0.243300  0.426400  1.0  0.0825
  H  H20  1  0.403800  0.252700  0.864800  1.0  0.0697
  H  H21  1  0.046870  0.576630  0.759730  1.0  0.0817
  H  H22  1  0.070470  0.586030  0.198130  1.0  0.0684
  H  H23  1  0.713530  0.909970  0.093070  1.0  0.0825
  H  H24  1  0.737130  0.919370  0.531470  1.0  0.0697
  H  H25  1  0.136900  0.756700  0.573600  1.0  0.0823
  H  H26  1  0.151100  0.747300  0.135200  1.0  0.0694
  H  H27  1  0.803570  0.090030  0.906930  1.0  0.0823
  H  H28  1  0.817770  0.080630  0.468530  1.0  0.0693
  H  H29  1  0.470230  0.423370  0.240270  1.0  0.082
  H  H30  1  0.484430  0.413970  0.801870  1.0  0.069
  H  H31  1  0.619800  0.863100  0.573600  1.0  0.0795
  H  H32  1  0.596200  0.848900  0.135200  1.0  0.0669
  H  H33  1  0.286470  0.196430  0.906930  1.0  0.0795
  H  H34  1  0.262870  0.182230  0.468530  1.0  0.0671
  H  H35  1  0.953130  0.529770  0.240270  1.0  0.0807
  H  H36  1  0.929530  0.515570  0.801870  1.0  0.0678
  H  H37  1  0.243300  0.380200  0.573600  1.0  0.0805
  H  H38  1  0.252700  0.403800  0.135200  1.0  0.0717
  H  H39  1  0.909970  0.713530  0.906930  1.0  0.0805
  H  H40  1  0.919370  0.737130  0.468530  1.0  0.0717
  H  H41  1  0.576630  0.046870  0.240270  1.0  0.0791
  H  H42  1  0.586030  0.070470  0.801870  1.0  0.07
  H  H43  1  0.243300  0.863100  0.573600  1.0  0.0809
  H  H44  1  0.252700  0.848900  0.135200  1.0  0.0698
  H  H45  1  0.909970  0.196430  0.906930  1.0  0.0809
  H  H46  1  0.919370  0.182230  0.468530  1.0  0.0697
  H  H47  1  0.576630  0.529770  0.240270  1.0  0.0808
  H  H48  1  0.586030  0.515570  0.801870  1.0  0.0695
  H  H49  1  0.136900  0.380200  0.573600  1.0  0.0803
  H  H50  1  0.151100  0.403800  0.135200  1.0  0.0704
  H  H51  1  0.803570  0.713530  0.906930  1.0  0.0803
  H  H52  1  0.817770  0.737130  0.468530  1.0  0.0707
  H  H53  1  0.470230  0.046870  0.240270  1.0  0.0816
  H  H54  1  0.484430  0.070470  0.801870  1.0  0.0722
  H  H55  1  0.619800  0.756700  0.573600  1.0  0.0821
  H  H56  1  0.596200  0.747300  0.135200  1.0  0.0687
  H  H57  1  0.286470  0.090030  0.906930  1.0  0.0821
  H  H58  1  0.262870  0.080630  0.468530  1.0  0.0687
  H  H59  1  0.953130  0.423370  0.240270  1.0  0.0809
  H  H60  1  0.929530  0.413970  0.801870  1.0  0.0671
  H  H61  1  0.863100  0.243300  0.426400  1.0  0.0824
  H  H62  1  0.848900  0.252700  0.864800  1.0  0.069
  H  H63  1  0.529770  0.576630  0.759730  1.0  0.082
  H  H64  1  0.515570  0.586030  0.198130  1.0  0.0688
  H  H65  1  0.196430  0.909970  0.093070  1.0  0.0824
  H  H66  1  0.182230  0.919370  0.531470  1.0  0.069
  H  H67  1  0.380200  0.136900  0.426400  1.0  0.0809
  H  H68  1  0.403800  0.151100  0.864800  1.0  0.0692
  H  H69  1  0.046870  0.470230  0.759730  1.0  0.081
  H  H70  1  0.070470  0.484430  0.198130  1.0  0.0705
  H  H71  1  0.713530  0.803570  0.093070  1.0  0.0809
  H  H72  1  0.737130  0.817770  0.531470  1.0  0.0695
  H  H73  1  0.756700  0.619800  0.426400  1.0  0.0818
  H  H74  1  0.747300  0.596200  0.864800  1.0  0.0708
  H  H75  1  0.423370  0.953130  0.759730  1.0  0.081
  H  H76  1  0.413970  0.929530  0.198130  1.0  0.0696
  H  H77  1  0.090030  0.286470  0.093070  1.0  0.0818
  H  H78  1  0.080630  0.262870  0.531470  1.0  0.0709
  H  H79  1  0.085450  0.170900  0.017700  1.0  0.1874
  H  H80  1  0.078000  0.156000  0.543700  1.0  0.1872
  H  H81  1  0.752120  0.504230  0.351030  1.0  0.1874
  H  H82  1  0.744670  0.489330  0.877030  1.0  0.1871
  H  H83  1  0.418780  0.837570  0.684370  1.0  0.1874
  H  H84  1  0.411330  0.822670  0.210370  1.0  0.1872
  H  H85  1  0.829100  0.914550  0.017700  1.0  0.1876
  H  H86  1  0.844000  0.922000  0.543700  1.0  0.1858
  H  H87  1  0.495770  0.247880  0.351030  1.0  0.1876
  H  H88  1  0.510670  0.255330  0.877030  1.0  0.1857
  H  H89  1  0.162430  0.581220  0.684370  1.0  0.1876
  H  H90  1  0.177330  0.588670  0.210370  1.0  0.1859
  H  H91  1  0.085450  0.914550  0.017700  1.0  0.1873
  H  H92  1  0.078000  0.922000  0.543700  1.0  0.186
  H  H93  1  0.752120  0.247880  0.351030  1.0  0.1873
  H  H94  1  0.744670  0.255330  0.877030  1.0  0.1861
  H  H95  1  0.418780  0.581220  0.684370  1.0  0.1873
  H  H96  1  0.411330  0.588670  0.210370  1.0  0.1861
  H  H97  1  0.170900  0.085450  0.982300  1.0  0.187
  H  H98  1  0.156000  0.078000  0.456300  1.0  0.1852
  H  H99  1  0.837570  0.418780  0.315630  1.0  0.187
  H  H100  1  0.822670  0.411330  0.789630  1.0  0.1852
  H  H101  1  0.504230  0.752120  0.648970  1.0  0.1869
  H  H102  1  0.489330  0.744670  0.122970  1.0  0.1851
  H  H103  1  0.914550  0.829100  0.982300  1.0  0.187
  H  H104  1  0.922000  0.844000  0.456300  1.0  0.1863
  H  H105  1  0.581220  0.162430  0.315630  1.0  0.187
  H  H106  1  0.588670  0.177330  0.789630  1.0  0.1864
  H  H107  1  0.247880  0.495770  0.648970  1.0  0.187
  H  H108  1  0.255330  0.510670  0.122970  1.0  0.1863
  H  H109  1  0.914550  0.085450  0.982300  1.0  0.1871
  H  H110  1  0.922000  0.078000  0.456300  1.0  0.1858
  H  H111  1  0.581220  0.418780  0.315630  1.0  0.187
  H  H112  1  0.588670  0.411330  0.789630  1.0  0.1858
  H  H113  1  0.247880  0.752120  0.648970  1.0  0.187
  H  H114  1  0.255330  0.744670  0.122970  1.0  0.1858
  C  C115  1  0.787900  0.149100  0.525200  1.0  -0.1234
  C  C116  1  0.782900  0.157600  0.783300  1.0  -0.085
  C  C117  1  0.454570  0.482430  0.858530  1.0  -0.1226
  C  C118  1  0.449570  0.490930  0.116630  1.0  -0.0856
  C  C119  1  0.121230  0.815770  0.191870  1.0  -0.1237
  C  C120  1  0.116230  0.824270  0.449970  1.0  -0.085
  C  C121  1  0.850900  0.638800  0.525200  1.0  -0.1197
  C  C122  1  0.842400  0.625300  0.783300  1.0  -0.084
  C  C123  1  0.517570  0.972130  0.858530  1.0  -0.1156
  C  C124  1  0.509070  0.958630  0.116630  1.0  -0.0802
  C  C125  1  0.184230  0.305470  0.191870  1.0  -0.1197
  C  C126  1  0.175730  0.291970  0.449970  1.0  -0.0839
  C  C127  1  0.361200  0.212100  0.525200  1.0  -0.1115
  C  C128  1  0.374700  0.217100  0.783300  1.0  -0.0765
  C  C129  1  0.027870  0.545430  0.858530  1.0  -0.1175
  C  C130  1  0.041370  0.550430  0.116630  1.0  -0.0809
  C  C131  1  0.694530  0.878770  0.191870  1.0  -0.1114
  C  C132  1  0.708030  0.883770  0.449970  1.0  -0.0765
  C  C133  1  0.149100  0.787900  0.474800  1.0  -0.1115
  C  C134  1  0.157600  0.782900  0.216700  1.0  -0.0834
  C  C135  1  0.815770  0.121230  0.808130  1.0  -0.1118
  C  C136  1  0.824270  0.116230  0.550030  1.0  -0.0834
  C  C137  1  0.482430  0.454570  0.141470  1.0  -0.1108
  C  C138  1  0.490930  0.449570  0.883370  1.0  -0.0839
  C  C139  1  0.638800  0.850900  0.474800  1.0  -0.1211
  C  C140  1  0.625300  0.842400  0.216700  1.0  -0.0876
  C  C141  1  0.305470  0.184230  0.808130  1.0  -0.1211
  C  C142  1  0.291970  0.175730  0.550030  1.0  -0.0876
  C  C143  1  0.972130  0.517570  0.141470  1.0  -0.1136
  C  C144  1  0.958630  0.509070  0.883370  1.0  -0.0839
  C  C145  1  0.212100  0.361200  0.474800  1.0  -0.1134
  C  C146  1  0.217100  0.374700  0.216700  1.0  -0.0823
  C  C147  1  0.878770  0.694530  0.808130  1.0  -0.1134
  C  C148  1  0.883770  0.708030  0.550030  1.0  -0.0823
  C  C149  1  0.545430  0.027870  0.141470  1.0  -0.1197
  C  C150  1  0.550430  0.041370  0.883370  1.0  -0.0877
  C  C151  1  0.212100  0.850900  0.474800  1.0  -0.1168
  C  C152  1  0.217100  0.842400  0.216700  1.0  -0.082
  C  C153  1  0.878770  0.184230  0.808130  1.0  -0.117
  C  C154  1  0.883770  0.175730  0.550030  1.0  -0.082
  C  C155  1  0.545430  0.517570  0.141470  1.0  -0.1161
  C  C156  1  0.550430  0.509070  0.883370  1.0  -0.0825
  C  C157  1  0.149100  0.361200  0.474800  1.0  -0.1188
  C  C158  1  0.157600  0.374700  0.216700  1.0  -0.0866
  C  C159  1  0.815770  0.694530  0.808130  1.0  -0.1188
  C  C160  1  0.824270  0.708030  0.550030  1.0  -0.0866
  C  C161  1  0.482430  0.027870  0.141470  1.0  -0.112
  C  C162  1  0.490930  0.041370  0.883370  1.0  -0.0812
  C  C163  1  0.638800  0.787900  0.474800  1.0  -0.1129
  C  C164  1  0.625300  0.782900  0.216700  1.0  -0.0796
  C  C165  1  0.305470  0.121230  0.808130  1.0  -0.1129
  C  C166  1  0.291970  0.116230  0.550030  1.0  -0.0796
  C  C167  1  0.972130  0.454570  0.141470  1.0  -0.1183
  C  C168  1  0.958630  0.449570  0.883370  1.0  -0.085
  C  C169  1  0.850900  0.212100  0.525200  1.0  -0.1121
  C  C170  1  0.842400  0.217100  0.783300  1.0  -0.0757
  C  C171  1  0.517570  0.545430  0.858530  1.0  -0.1113
  C  C172  1  0.509070  0.550430  0.116630  1.0  -0.0764
  C  C173  1  0.184230  0.878770  0.191870  1.0  -0.1123
  C  C174  1  0.175730  0.883770  0.449970  1.0  -0.0757
  C  C175  1  0.361200  0.149100  0.525200  1.0  -0.1255
  C  C176  1  0.374700  0.157600  0.783300  1.0  -0.0888
  C  C177  1  0.027870  0.482430  0.858530  1.0  -0.1223
  C  C178  1  0.041370  0.490930  0.116630  1.0  -0.0857
  C  C179  1  0.694530  0.815770  0.191870  1.0  -0.1255
  C  C180  1  0.708030  0.824270  0.449970  1.0  -0.0888
  C  C181  1  0.787900  0.638800  0.525200  1.0  -0.1172
  C  C182  1  0.782900  0.625300  0.783300  1.0  -0.0805
  C  C183  1  0.454570  0.972130  0.858530  1.0  -0.1231
  C  C184  1  0.449570  0.958630  0.116630  1.0  -0.0856
  C  C185  1  0.121230  0.305470  0.191870  1.0  -0.1171
  C  C186  1  0.116230  0.291970  0.449970  1.0  -0.0806
  C  C187  1  0.798070  0.201930  0.641400  1.0  0.1356
  C  C188  1  0.760570  0.239430  0.618400  1.0  0.299
  C  C189  1  0.464740  0.535260  0.974730  1.0  0.1356
  C  C190  1  0.427240  0.572760  0.951730  1.0  0.2989
  C  C191  1  0.131400  0.868600  0.308070  1.0  0.1356
  C  C192  1  0.093900  0.906100  0.285070  1.0  0.299
  C  C193  1  0.798070  0.596140  0.641400  1.0  0.1394
  C  C194  1  0.760570  0.521140  0.618400  1.0  0.3001
  C  C195  1  0.464740  0.929470  0.974730  1.0  0.1394
  C  C196  1  0.427240  0.854470  0.951730  1.0  0.3003
  C  C197  1  0.131400  0.262810  0.308070  1.0  0.1394
  C  C198  1  0.093900  0.187810  0.285070  1.0  0.3001
  C  C199  1  0.403860  0.201930  0.641400  1.0  0.137
  C  C200  1  0.478860  0.239430  0.618400  1.0  0.2978
  C  C201  1  0.070530  0.535260  0.974730  1.0  0.137
  C  C202  1  0.145530  0.572760  0.951730  1.0  0.2979
  C  C203  1  0.737190  0.868600  0.308070  1.0  0.137
  C  C204  1  0.812190  0.906100  0.285070  1.0  0.2977
  C  C205  1  0.201930  0.798070  0.358600  1.0  0.1412
  C  C206  1  0.239430  0.760570  0.381600  1.0  0.2994
  C  C207  1  0.868600  0.131400  0.691930  1.0  0.1412
  C  C208  1  0.906100  0.093900  0.714930  1.0  0.2995
  C  C209  1  0.535260  0.464740  0.025270  1.0  0.1412
  C  C210  1  0.572760  0.427240  0.048270  1.0  0.2993
  C  C211  1  0.596140  0.798070  0.358600  1.0  0.1383
  C  C212  1  0.521140  0.760570  0.381600  1.0  0.2999
  C  C213  1  0.262810  0.131400  0.691930  1.0  0.1383
  C  C214  1  0.187810  0.093900  0.714930  1.0  0.2999
  C  C215  1  0.929470  0.464740  0.025270  1.0  0.1383
  C  C216  1  0.854470  0.427240  0.048270  1.0  0.3
  C  C217  1  0.201930  0.403860  0.358600  1.0  0.1393
  C  C218  1  0.239430  0.478860  0.381600  1.0  0.2984
  C  C219  1  0.868600  0.737190  0.691930  1.0  0.1393
  C  C220  1  0.906100  0.812190  0.714930  1.0  0.2984
  C  C221  1  0.535260  0.070530  0.025270  1.0  0.1393
  C  C222  1  0.572760  0.145530  0.048270  1.0  0.2985
  N  N223  1  0.743370  0.256630  0.462800  1.0  -0.2493
  N  N224  1  0.710670  0.289330  0.509500  1.0  -0.1575
  N  N225  1  0.708170  0.291830  0.686500  1.0  -0.1415
  N  N226  1  0.739220  0.260780  0.759700  1.0  -0.2667
  N  N227  1  0.410040  0.589960  0.796130  1.0  -0.2492
  N  N228  1  0.377340  0.622660  0.842830  1.0  -0.1575
  N  N229  1  0.374840  0.625160  0.019830  1.0  -0.1417
  N  N230  1  0.405890  0.594110  0.093030  1.0  -0.266
  N  N231  1  0.076700  0.923300  0.129470  1.0  -0.2494
  N  N232  1  0.044000  0.956000  0.176170  1.0  -0.1576
  N  N233  1  0.041500  0.958500  0.353170  1.0  -0.141
  N  N234  1  0.072550  0.927450  0.426370  1.0  -0.2666
  N  N235  1  0.743370  0.486740  0.462800  1.0  -0.2479
  N  N236  1  0.710670  0.421340  0.509500  1.0  -0.157
  N  N237  1  0.708170  0.416340  0.686500  1.0  -0.1381
  N  N238  1  0.739220  0.478440  0.759700  1.0  -0.2653
  N  N239  1  0.410040  0.820070  0.796130  1.0  -0.248
  N  N240  1  0.377340  0.754670  0.842830  1.0  -0.157
  N  N241  1  0.374840  0.749670  0.019830  1.0  -0.1382
  N  N242  1  0.405890  0.811770  0.093030  1.0  -0.2658
  N  N243  1  0.076700  0.153410  0.129470  1.0  -0.2478
  N  N244  1  0.044000  0.088010  0.176170  1.0  -0.157
  N  N245  1  0.041500  0.083010  0.353170  1.0  -0.1383
  N  N246  1  0.072550  0.145110  0.426370  1.0  -0.2654
  N  N247  1  0.513260  0.256630  0.462800  1.0  -0.2514
  N  N248  1  0.578660  0.289330  0.509500  1.0  -0.1574
  N  N249  1  0.583660  0.291830  0.686500  1.0  -0.1403
  N  N250  1  0.521560  0.260780  0.759700  1.0  -0.2672
  N  N251  1  0.179930  0.589960  0.796130  1.0  -0.2515
  N  N252  1  0.245330  0.622660  0.842830  1.0  -0.1574
  N  N253  1  0.250330  0.625160  0.019830  1.0  -0.1403
  N  N254  1  0.188230  0.594110  0.093030  1.0  -0.2677
  N  N255  1  0.846590  0.923300  0.129470  1.0  -0.2513
  N  N256  1  0.911990  0.956000  0.176170  1.0  -0.1574
  N  N257  1  0.916990  0.958500  0.353170  1.0  -0.1404
  N  N258  1  0.854890  0.927450  0.426370  1.0  -0.2672
  N  N259  1  0.256630  0.743370  0.537200  1.0  -0.2497
  N  N260  1  0.289330  0.710670  0.490500  1.0  -0.1569
  N  N261  1  0.291830  0.708170  0.313500  1.0  -0.1403
  N  N262  1  0.260780  0.739220  0.240300  1.0  -0.2694
  N  N263  1  0.923300  0.076700  0.870530  1.0  -0.2499
  N  N264  1  0.956000  0.044000  0.823830  1.0  -0.157
  N  N265  1  0.958500  0.041500  0.646830  1.0  -0.1398
  N  N266  1  0.927450  0.072550  0.573630  1.0  -0.2694
  N  N267  1  0.589960  0.410040  0.203870  1.0  -0.2498
  N  N268  1  0.622660  0.377340  0.157170  1.0  -0.1569
  N  N269  1  0.625160  0.374840  0.980170  1.0  -0.1405
  N  N270  1  0.594110  0.405890  0.906970  1.0  -0.2688
  N  N271  1  0.486740  0.743370  0.537200  1.0  -0.2472
  N  N272  1  0.421340  0.710670  0.490500  1.0  -0.1574
  N  N273  1  0.416340  0.708170  0.313500  1.0  -0.1398
  N  N274  1  0.478440  0.739220  0.240300  1.0  -0.268
  N  N275  1  0.153410  0.076700  0.870530  1.0  -0.2471
  N  N276  1  0.088010  0.044000  0.823830  1.0  -0.1574
  N  N277  1  0.083010  0.041500  0.646830  1.0  -0.14
  N  N278  1  0.145110  0.072550  0.573630  1.0  -0.2681
  N  N279  1  0.820070  0.410040  0.203870  1.0  -0.2473
  N  N280  1  0.754670  0.377340  0.157170  1.0  -0.1574
  N  N281  1  0.749670  0.374840  0.980170  1.0  -0.1399
  N  N282  1  0.811770  0.405890  0.906970  1.0  -0.2685
  N  N283  1  0.256630  0.513260  0.537200  1.0  -0.2448
  N  N284  1  0.289330  0.578660  0.490500  1.0  -0.1569
  N  N285  1  0.291830  0.583660  0.313500  1.0  -0.139
  N  N286  1  0.260780  0.521560  0.240300  1.0  -0.2666
  N  N287  1  0.923300  0.846590  0.870530  1.0  -0.2446
  N  N288  1  0.956000  0.911990  0.823830  1.0  -0.1569
  N  N289  1  0.958500  0.916990  0.646830  1.0  -0.1391
  N  N290  1  0.927450  0.854890  0.573630  1.0  -0.2667
  N  N291  1  0.589960  0.179930  0.203870  1.0  -0.2448
  N  N292  1  0.622660  0.245330  0.157170  1.0  -0.1569
  N  N293  1  0.625160  0.250330  0.980170  1.0  -0.1391
  N  N294  1  0.594110  0.188230  0.906970  1.0  -0.2671
