# generated using pymatgen
data_InH4C12(NO2)4
_symmetry_space_group_name_H-M   'P 1'
_cell_length_a   10.11490000
_cell_length_b   10.11490000
_cell_length_c   11.46700000
_cell_angle_alpha   98.92040000
_cell_angle_beta   98.92040000
_cell_angle_gamma   115.27800000
_symmetry_Int_Tables_number   1
_chemical_formula_structural   InH4C12(NO2)4
_chemical_formula_sum   'In2 H8 C24 N8 O16'
_cell_volume   1015.37208874
_cell_formula_units_Z   2
loop_
 _symmetry_equiv_pos_site_id
 _symmetry_equiv_pos_as_xyz
  1  'x, y, z'
loop_
 _atom_site_type_symbol
 _atom_site_label
 _atom_site_symmetry_multiplicity
 _atom_site_fract_x
 _atom_site_fract_y
 _atom_site_fract_z
 _atom_site_occupancy
 _atom_site_charge
  In  In1  1  0.363030  0.636970  0.250000  1.0  1.3344
  In  In2  1  0.636970  0.363030  0.750000  1.0  1.3342
  H  H3  1  0.418600  0.786200  0.568000  1.0  0.0961
  H  H4  1  0.583700  0.753900  0.057700  1.0  0.1167
  H  H5  1  0.213800  0.581400  0.932000  1.0  0.0963
  H  H6  1  0.246100  0.416300  0.442300  1.0  0.118
  H  H7  1  0.581400  0.213800  0.432000  1.0  0.0965
  H  H8  1  0.416300  0.246100  0.942300  1.0  0.117
  H  H9  1  0.786200  0.418600  0.068000  1.0  0.0961
  H  H10  1  0.753900  0.583700  0.557700  1.0  0.1177
  C  C11  1  0.451300  0.872500  0.538600  1.0  0.1469
  C  C12  1  0.548900  0.650100  0.035100  1.0  0.1534
  C  C13  1  0.606300  0.588900  0.950600  1.0  0.0704
  C  C14  1  0.486500  0.986700  0.380400  1.0  0.0779
  C  C15  1  0.466000  0.968200  0.243900  1.0  0.6289
  C  C16  1  0.722500  0.684500  0.891000  1.0  0.6106
  C  C17  1  0.127500  0.548700  0.961400  1.0  0.1467
  C  C18  1  0.349900  0.451100  0.464900  1.0  0.1554
  C  C19  1  0.411100  0.393700  0.549400  1.0  0.0708
  C  C20  1  0.013300  0.513500  0.119600  1.0  0.0792
  C  C21  1  0.031800  0.534000  0.256100  1.0  0.6274
  C  C22  1  0.315500  0.277500  0.609000  1.0  0.6045
  C  C23  1  0.548700  0.127500  0.461400  1.0  0.1493
  C  C24  1  0.451100  0.349900  0.964900  1.0  0.153
  C  C25  1  0.393700  0.411100  0.049400  1.0  0.068
  C  C26  1  0.513500  0.013300  0.619600  1.0  0.078
  C  C27  1  0.534000  0.031800  0.756100  1.0  0.6257
  C  C28  1  0.277500  0.315500  0.109000  1.0  0.6069
  C  C29  1  0.872500  0.451300  0.038600  1.0  0.1486
  C  C30  1  0.650100  0.548900  0.535100  1.0  0.1543
  C  C31  1  0.588900  0.606300  0.450600  1.0  0.0687
  C  C32  1  0.986700  0.486500  0.880400  1.0  0.078
  C  C33  1  0.968200  0.466000  0.743900  1.0  0.6304
  C  C34  1  0.684500  0.722500  0.391000  1.0  0.6197
  N  N35  1  0.437900  0.859300  0.419100  1.0  -0.2906
  N  N36  1  0.443930  0.559270  0.083500  1.0  -0.2704
  N  N37  1  0.140700  0.562100  0.080900  1.0  -0.2867
  N  N38  1  0.440730  0.556070  0.416500  1.0  -0.2699
  N  N39  1  0.562100  0.140700  0.580900  1.0  -0.2941
  N  N40  1  0.556070  0.440730  0.916500  1.0  -0.2695
  N  N41  1  0.859300  0.437900  0.919100  1.0  -0.2881
  N  N42  1  0.559270  0.443930  0.583500  1.0  -0.2696
  O  O43  1  0.408720  0.833480  0.178600  1.0  -0.5793
  O  O44  1  0.501600  0.080600  0.204600  1.0  -0.4439
  O  O45  1  0.749890  0.614110  0.805400  1.0  -0.5766
  O  O46  1  0.783500  0.823300  0.931300  1.0  -0.4063
  O  O47  1  0.166520  0.591280  0.321400  1.0  -0.5794
  O  O48  1  0.919400  0.498400  0.295400  1.0  -0.4486
  O  O49  1  0.385890  0.250110  0.694600  1.0  -0.5772
  O  O50  1  0.176700  0.216500  0.568700  1.0  -0.4097
  O  O51  1  0.591280  0.166520  0.821400  1.0  -0.5777
  O  O52  1  0.498400  0.919400  0.795400  1.0  -0.4425
  O  O53  1  0.250110  0.385890  0.194600  1.0  -0.5767
  O  O54  1  0.216500  0.176700  0.068700  1.0  -0.407
  O  O55  1  0.833480  0.408720  0.678600  1.0  -0.5761
  O  O56  1  0.080600  0.501600  0.704600  1.0  -0.4479
  O  O57  1  0.614110  0.749890  0.305400  1.0  -0.5769
  O  O58  1  0.823300  0.783500  0.431300  1.0  -0.4106
