# generated using pymatgen
data_InH4C12(NO2)4
_symmetry_space_group_name_H-M   'P 1'
_cell_length_a   9.15900000
_cell_length_b   9.15900000
_cell_length_c   24.44500000
_cell_angle_alpha   90.00000000
_cell_angle_beta   90.00000000
_cell_angle_gamma   90.00000000
_symmetry_Int_Tables_number   1
_chemical_formula_structural   InH4C12(NO2)4
_chemical_formula_sum   'In4 H16 C48 N16 O32'
_cell_volume   2050.62458405
_cell_formula_units_Z   4
loop_
 _symmetry_equiv_pos_site_id
 _symmetry_equiv_pos_as_xyz
  1  'x, y, z'
loop_
 _atom_site_type_symbol
 _atom_site_label
 _atom_site_symmetry_multiplicity
 _atom_site_fract_x
 _atom_site_fract_y
 _atom_site_fract_z
 _atom_site_occupancy
 _atom_site_charge
  In  In1  1  0.000000  0.250000  0.625000  1.0  1.4213
  In  In2  1  0.500000  0.750000  0.125000  1.0  1.4213
  In  In3  1  0.500000  0.250000  0.875000  1.0  1.4213
  In  In4  1  0.000000  0.750000  0.375000  1.0  1.4213
  H  H5  1  0.224900  0.070900  0.529200  1.0  0.1133
  H  H6  1  0.724900  0.570900  0.029200  1.0  0.1133
  H  H7  1  0.275100  0.929100  0.029200  1.0  0.1135
  H  H8  1  0.775100  0.429100  0.529200  1.0  0.1135
  H  H9  1  0.679100  0.474900  0.779200  1.0  0.1137
  H  H10  1  0.179100  0.974900  0.279200  1.0  0.1137
  H  H11  1  0.820900  0.525100  0.279200  1.0  0.1134
  H  H12  1  0.320900  0.025100  0.779200  1.0  0.1134
  H  H13  1  0.775100  0.929100  0.470800  1.0  0.1138
  H  H14  1  0.275100  0.429100  0.970800  1.0  0.1138
  H  H15  1  0.724900  0.070900  0.970800  1.0  0.1138
  H  H16  1  0.224900  0.570900  0.470800  1.0  0.1138
  H  H17  1  0.320900  0.525100  0.220800  1.0  0.1136
  H  H18  1  0.820900  0.025100  0.720800  1.0  0.1136
  H  H19  1  0.179100  0.474900  0.720800  1.0  0.1139
  H  H20  1  0.679100  0.974900  0.220800  1.0  0.1139
  C  C21  1  0.132100  0.043100  0.517750  1.0  0.165
  C  C22  1  0.883100  0.050200  0.526700  1.0  0.1203
  C  C23  1  0.750800  0.107800  0.557610  1.0  0.6597
  C  C24  1  0.632100  0.543100  0.017750  1.0  0.165
  C  C25  1  0.383100  0.550200  0.026700  1.0  0.1203
  C  C26  1  0.250800  0.607800  0.057610  1.0  0.6597
  C  C27  1  0.367900  0.956900  0.017750  1.0  0.1652
  C  C28  1  0.616900  0.949800  0.026700  1.0  0.1215
  C  C29  1  0.749200  0.892200  0.057610  1.0  0.6612
  C  C30  1  0.867900  0.456900  0.517750  1.0  0.1652
  C  C31  1  0.116900  0.449800  0.526700  1.0  0.1215
  C  C32  1  0.249200  0.392200  0.557610  1.0  0.6612
  C  C33  1  0.706900  0.382100  0.767750  1.0  0.1618
  C  C34  1  0.699800  0.133100  0.776700  1.0  0.1195
  C  C35  1  0.642200  0.000800  0.807610  1.0  0.6603
  C  C36  1  0.206900  0.882100  0.267750  1.0  0.1618
  C  C37  1  0.199800  0.633100  0.276700  1.0  0.1195
  C  C38  1  0.142200  0.500800  0.307610  1.0  0.6603
  C  C39  1  0.793100  0.617900  0.267750  1.0  0.1645
  C  C40  1  0.800200  0.866900  0.276700  1.0  0.1204
  C  C41  1  0.857800  0.999200  0.307610  1.0  0.6592
  C  C42  1  0.293100  0.117900  0.767750  1.0  0.1645
  C  C43  1  0.300200  0.366900  0.776700  1.0  0.1204
  C  C44  1  0.357800  0.499200  0.807610  1.0  0.6592
  C  C45  1  0.867900  0.956900  0.482250  1.0  0.1687
  C  C46  1  0.116900  0.949800  0.473300  1.0  0.1242
  C  C47  1  0.249200  0.892200  0.442390  1.0  0.6614
  C  C48  1  0.367900  0.456900  0.982250  1.0  0.1687
  C  C49  1  0.616900  0.449800  0.973300  1.0  0.1242
  C  C50  1  0.749200  0.392200  0.942390  1.0  0.6614
  C  C51  1  0.632100  0.043100  0.982250  1.0  0.1687
  C  C52  1  0.383100  0.050200  0.973300  1.0  0.1225
  C  C53  1  0.250800  0.107800  0.942390  1.0  0.6602
  C  C54  1  0.132100  0.543100  0.482250  1.0  0.1687
  C  C55  1  0.883100  0.550200  0.473300  1.0  0.1225
  C  C56  1  0.750800  0.607800  0.442390  1.0  0.6602
  C  C57  1  0.293100  0.617900  0.232250  1.0  0.1686
  C  C58  1  0.300200  0.866900  0.223300  1.0  0.1232
  C  C59  1  0.357800  0.999200  0.192390  1.0  0.6603
  C  C60  1  0.793100  0.117900  0.732250  1.0  0.1686
  C  C61  1  0.800200  0.366900  0.723300  1.0  0.1232
  C  C62  1  0.857800  0.499200  0.692390  1.0  0.6603
  C  C63  1  0.206900  0.382100  0.732250  1.0  0.1658
  C  C64  1  0.199800  0.133100  0.723300  1.0  0.122
  C  C65  1  0.142200  0.000800  0.692390  1.0  0.6599
  C  C66  1  0.706900  0.882100  0.232250  1.0  0.1658
  C  C67  1  0.699800  0.633100  0.223300  1.0  0.122
  C  C68  1  0.642200  0.500800  0.192390  1.0  0.6599
  N  N69  1  0.014700  0.093200  0.544130  1.0  -0.3111
  N  N70  1  0.514700  0.593200  0.044130  1.0  -0.3111
  N  N71  1  0.485300  0.906800  0.044130  1.0  -0.3117
  N  N72  1  0.985300  0.406800  0.544130  1.0  -0.3117
  N  N73  1  0.656800  0.264700  0.794130  1.0  -0.3113
  N  N74  1  0.156800  0.764700  0.294130  1.0  -0.3113
  N  N75  1  0.843200  0.735300  0.294130  1.0  -0.3125
  N  N76  1  0.343200  0.235300  0.794130  1.0  -0.3125
  N  N77  1  0.985300  0.906800  0.455870  1.0  -0.3161
  N  N78  1  0.485300  0.406800  0.955870  1.0  -0.3161
  N  N79  1  0.514700  0.093200  0.955870  1.0  -0.3151
  N  N80  1  0.014700  0.593200  0.455870  1.0  -0.3151
  N  N81  1  0.343200  0.735300  0.205870  1.0  -0.316
  N  N82  1  0.843200  0.235300  0.705870  1.0  -0.316
  N  N83  1  0.156800  0.264700  0.705870  1.0  -0.3154
  N  N84  1  0.656800  0.764700  0.205870  1.0  -0.3154
  O  O85  1  0.779300  0.193500  0.597990  1.0  -0.6094
  O  O86  1  0.629200  0.067700  0.542930  1.0  -0.4935
  O  O87  1  0.279300  0.693500  0.097990  1.0  -0.6094
  O  O88  1  0.129200  0.567700  0.042930  1.0  -0.4935
  O  O89  1  0.720700  0.806500  0.097990  1.0  -0.6113
  O  O90  1  0.870800  0.932300  0.042930  1.0  -0.4943
  O  O91  1  0.220700  0.306500  0.597990  1.0  -0.6113
  O  O92  1  0.370800  0.432300  0.542930  1.0  -0.4943
  O  O93  1  0.556500  0.029300  0.847990  1.0  -0.6154
  O  O94  1  0.682300  0.879200  0.792930  1.0  -0.4856
  O  O95  1  0.056500  0.529300  0.347990  1.0  -0.6154
  O  O96  1  0.182300  0.379200  0.292930  1.0  -0.4856
  O  O97  1  0.943500  0.970700  0.347990  1.0  -0.6163
  O  O98  1  0.817700  0.120800  0.292930  1.0  -0.4854
  O  O99  1  0.443500  0.470700  0.847990  1.0  -0.6163
  O  O100  1  0.317700  0.620800  0.792930  1.0  -0.4854
  O  O101  1  0.220700  0.806500  0.402010  1.0  -0.6125
  O  O102  1  0.370800  0.932300  0.457070  1.0  -0.4944
  O  O103  1  0.720700  0.306500  0.902010  1.0  -0.6125
  O  O104  1  0.870800  0.432300  0.957070  1.0  -0.4944
  O  O105  1  0.279300  0.193500  0.902010  1.0  -0.6109
  O  O106  1  0.129200  0.067700  0.957070  1.0  -0.4932
  O  O107  1  0.779300  0.693500  0.402010  1.0  -0.6109
  O  O108  1  0.629200  0.567700  0.457070  1.0  -0.4932
  O  O109  1  0.443500  0.970700  0.152010  1.0  -0.6175
  O  O110  1  0.317700  0.120800  0.207070  1.0  -0.4855
  O  O111  1  0.943500  0.470700  0.652010  1.0  -0.6175
  O  O112  1  0.817700  0.620800  0.707070  1.0  -0.4855
  O  O113  1  0.056500  0.029300  0.652010  1.0  -0.6161
  O  O114  1  0.182300  0.879200  0.707070  1.0  -0.4851
  O  O115  1  0.556500  0.529300  0.152010  1.0  -0.6161
  O  O116  1  0.682300  0.379200  0.207070  1.0  -0.4851
