# generated using pymatgen
data_Zn2H16C20S(N2O)4
_symmetry_space_group_name_H-M   'P 1'
_cell_length_a   10.10100000
_cell_length_b   15.67900000
_cell_length_c   19.16000000
_cell_angle_alpha   96.41000000
_cell_angle_beta   90.00000000
_cell_angle_gamma   90.00000000
_symmetry_Int_Tables_number   1
_chemical_formula_structural   Zn2H16C20S(N2O)4
_chemical_formula_sum   'Zn8 H64 C80 S4 N32 O16'
_cell_volume   3015.46783122
_cell_formula_units_Z   4
loop_
 _symmetry_equiv_pos_site_id
 _symmetry_equiv_pos_as_xyz
  1  'x, y, z'
loop_
 _atom_site_type_symbol
 _atom_site_label
 _atom_site_symmetry_multiplicity
 _atom_site_fract_x
 _atom_site_fract_y
 _atom_site_fract_z
 _atom_site_occupancy
 _atom_site_charge
  Zn  Zn1  1  0.770830  0.827800  0.292730  1.0  0.678
  Zn  Zn2  1  0.302650  0.929740  0.473410  1.0  0.8597
  Zn  Zn3  1  0.270830  0.672200  0.207270  1.0  0.6773
  Zn  Zn4  1  0.802650  0.570260  0.026590  1.0  0.8599
  Zn  Zn5  1  0.229170  0.172200  0.707270  1.0  0.6771
  Zn  Zn6  1  0.697350  0.070260  0.526590  1.0  0.8593
  Zn  Zn7  1  0.729170  0.327800  0.792730  1.0  0.678
  Zn  Zn8  1  0.197350  0.429740  0.973410  1.0  0.8595
  H  H9  1  0.359000  0.483500  0.167800  1.0  0.0849
  H  H10  1  0.385100  0.359000  0.216000  1.0  0.1295
  H  H11  1  0.265100  0.490500  0.408700  1.0  0.1232
  H  H12  1  0.249200  0.616000  0.359900  1.0  0.0798
  H  H13  1  0.341400  0.355100  0.758500  1.0  0.0525
  H  H14  1  0.404000  0.477700  0.707400  1.0  0.1144
  H  H15  1  0.249300  0.362600  0.509200  1.0  0.1261
  H  H16  1  0.211800  0.243100  0.558900  1.0  0.0908
  H  H17  1  0.376800  0.124200  0.503800  1.0  0.0886
  H  H18  1  0.398500  0.242400  0.449900  1.0  0.1204
  H  H19  1  0.188900  0.117200  0.276300  1.0  0.1216
  H  H20  1  0.181000  0.996100  0.332500  1.0  0.0764
  H  H21  1  0.290900  0.860400  0.617400  1.0  0.0793
  H  H22  1  0.322400  0.737600  0.669300  1.0  0.1251
  H  H23  1  0.401000  0.613600  0.474500  1.0  0.1158
  H  H24  1  0.379200  0.737000  0.426000  1.0  0.0873
  H  H25  1  0.859000  0.016500  0.332200  1.0  0.0854
  H  H26  1  0.885100  0.141000  0.284000  1.0  0.1293
  H  H27  1  0.765100  0.009500  0.091300  1.0  0.1234
  H  H28  1  0.749200  0.884000  0.140100  1.0  0.079
  H  H29  1  0.841400  0.144900  0.741500  1.0  0.0538
  H  H30  1  0.904000  0.022300  0.792600  1.0  0.1142
  H  H31  1  0.749300  0.137400  0.990800  1.0  0.1271
  H  H32  1  0.711800  0.256900  0.941100  1.0  0.0914
  H  H33  1  0.876800  0.375800  0.996200  1.0  0.0881
  H  H34  1  0.898500  0.257600  0.050100  1.0  0.121
  H  H35  1  0.688900  0.382800  0.223700  1.0  0.1204
  H  H36  1  0.681000  0.503900  0.167500  1.0  0.0763
  H  H37  1  0.790900  0.639600  0.882600  1.0  0.0783
  H  H38  1  0.822400  0.762400  0.830700  1.0  0.1249
  H  H39  1  0.901000  0.886400  0.025500  1.0  0.1154
  H  H40  1  0.879200  0.763000  0.074000  1.0  0.0877
  H  H41  1  0.641000  0.516500  0.832200  1.0  0.0851
  H  H42  1  0.614900  0.641000  0.784000  1.0  0.1288
  H  H43  1  0.734900  0.509500  0.591300  1.0  0.1227
  H  H44  1  0.750800  0.384000  0.640100  1.0  0.0801
  H  H45  1  0.658600  0.644900  0.241500  1.0  0.0549
  H  H46  1  0.596000  0.522300  0.292600  1.0  0.1143
  H  H47  1  0.750700  0.637400  0.490800  1.0  0.1259
  H  H48  1  0.788200  0.756900  0.441100  1.0  0.0917
  H  H49  1  0.623200  0.875800  0.496200  1.0  0.0882
  H  H50  1  0.601500  0.757600  0.550100  1.0  0.1211
  H  H51  1  0.811100  0.882800  0.723700  1.0  0.1208
  H  H52  1  0.819000  0.003900  0.667500  1.0  0.0771
  H  H53  1  0.709100  0.139600  0.382600  1.0  0.0783
  H  H54  1  0.677600  0.262400  0.330700  1.0  0.1243
  H  H55  1  0.599000  0.386400  0.525500  1.0  0.1155
  H  H56  1  0.620800  0.263000  0.574000  1.0  0.0872
  H  H57  1  0.141000  0.983500  0.667800  1.0  0.0844
  H  H58  1  0.114900  0.859000  0.716000  1.0  0.1288
  H  H59  1  0.234900  0.990500  0.908700  1.0  0.1226
  H  H60  1  0.250800  0.116000  0.859900  1.0  0.0813
  H  H61  1  0.158600  0.855100  0.258500  1.0  0.0534
  H  H62  1  0.096000  0.977700  0.207400  1.0  0.1142
  H  H63  1  0.250700  0.862600  0.009200  1.0  0.1249
  H  H64  1  0.288200  0.743100  0.058900  1.0  0.0914
  H  H65  1  0.123200  0.624200  0.003800  1.0  0.0885
  H  H66  1  0.101500  0.742400  0.949900  1.0  0.1207
  H  H67  1  0.311100  0.617200  0.776300  1.0  0.1219
  H  H68  1  0.319000  0.496100  0.832500  1.0  0.0771
  H  H69  1  0.209100  0.360400  0.117400  1.0  0.0787
  H  H70  1  0.177600  0.237600  0.169300  1.0  0.1247
  H  H71  1  0.099000  0.113600  0.974500  1.0  0.1159
  H  H72  1  0.120800  0.237000  0.926000  1.0  0.0874
  C  C73  1  0.345300  0.487300  0.222300  1.0  0.1352
  C  C74  1  0.353700  0.410000  0.250900  1.0  -0.2164
  C  C75  1  0.323900  0.410400  0.321500  1.0  0.2581
  C  C76  1  0.293100  0.487200  0.362300  1.0  -0.1962
  C  C77  1  0.284800  0.561200  0.329200  1.0  0.1263
  C  C78  1  0.334600  0.355600  0.701300  1.0  0.1142
  C  C79  1  0.359700  0.432100  0.674900  1.0  -0.1911
  C  C80  1  0.330100  0.437600  0.604800  1.0  0.2622
  C  C81  1  0.282400  0.366800  0.563000  1.0  -0.2237
  C  C82  1  0.257800  0.292200  0.593300  1.0  0.1351
  C  C83  1  0.330700  0.119200  0.455100  1.0  0.1647
  C  C84  1  0.339200  0.194000  0.423500  1.0  -0.2595
  C  C85  1  0.286700  0.194000  0.356700  1.0  0.2789
  C  C86  1  0.227900  0.120300  0.323900  1.0  -0.2236
  C  C87  1  0.224100  0.048300  0.359600  1.0  0.1515
  C  C88  1  0.323400  0.809200  0.589600  1.0  0.1653
  C  C89  1  0.337600  0.734300  0.621500  1.0  -0.2076
  C  C90  1  0.358500  0.658500  0.578700  1.0  0.2589
  C  C91  1  0.373000  0.659700  0.506800  1.0  -0.2119
  C  C92  1  0.357400  0.737000  0.479500  1.0  0.1133
  C  C93  1  0.845300  0.012700  0.277700  1.0  0.1359
  C  C94  1  0.853700  0.090000  0.249100  1.0  -0.22
  C  C95  1  0.823900  0.089600  0.178500  1.0  0.2586
  C  C96  1  0.793100  0.012800  0.137700  1.0  -0.1969
  C  C97  1  0.784800  0.938800  0.170800  1.0  0.1271
  C  C98  1  0.834600  0.144400  0.798700  1.0  0.114
  C  C99  1  0.859700  0.067900  0.825100  1.0  -0.1928
  C  C100  1  0.830100  0.062400  0.895200  1.0  0.2609
  C  C101  1  0.782400  0.133200  0.937000  1.0  -0.219
  C  C102  1  0.757800  0.207800  0.906700  1.0  0.1353
  C  C103  1  0.830700  0.380800  0.044900  1.0  0.1638
  C  C104  1  0.839200  0.306000  0.076500  1.0  -0.2563
  C  C105  1  0.786700  0.306000  0.143300  1.0  0.2786
  C  C106  1  0.727900  0.379700  0.176100  1.0  -0.227
  C  C107  1  0.724100  0.451700  0.140400  1.0  0.1508
  C  C108  1  0.823400  0.690800  0.910400  1.0  0.1652
  C  C109  1  0.837600  0.765700  0.878500  1.0  -0.2112
  C  C110  1  0.858500  0.841500  0.921300  1.0  0.2604
  C  C111  1  0.873000  0.840300  0.993200  1.0  -0.2105
  C  C112  1  0.857400  0.763000  0.020500  1.0  0.1128
  C  C113  1  0.654700  0.512700  0.777700  1.0  0.1366
  C  C114  1  0.646300  0.590000  0.749100  1.0  -0.2246
  C  C115  1  0.676100  0.589600  0.678500  1.0  0.2592
  C  C116  1  0.706900  0.512800  0.637700  1.0  -0.1969
  C  C117  1  0.715200  0.438800  0.670800  1.0  0.1272
  C  C118  1  0.665400  0.644400  0.298700  1.0  0.114
  C  C119  1  0.640300  0.567900  0.325100  1.0  -0.1944
  C  C120  1  0.669900  0.562400  0.395200  1.0  0.2607
  C  C121  1  0.717600  0.633200  0.437000  1.0  -0.1965
  C  C122  1  0.742200  0.707800  0.406700  1.0  0.1365
  C  C123  1  0.669300  0.880800  0.544900  1.0  0.1643
  C  C124  1  0.660800  0.806000  0.576500  1.0  -0.2539
  C  C125  1  0.713300  0.806000  0.643300  1.0  0.279
  C  C126  1  0.772100  0.879700  0.676100  1.0  -0.2242
  C  C127  1  0.775900  0.951700  0.640400  1.0  0.151
  C  C128  1  0.676600  0.190800  0.410400  1.0  0.1652
  C  C129  1  0.662400  0.265700  0.378500  1.0  -0.2103
  C  C130  1  0.641500  0.341500  0.421300  1.0  0.26
  C  C131  1  0.627000  0.340300  0.493200  1.0  -0.2102
  C  C132  1  0.642600  0.263000  0.520500  1.0  0.1131
  C  C133  1  0.154700  0.987300  0.722300  1.0  0.1357
  C  C134  1  0.146300  0.910000  0.750900  1.0  -0.2205
  C  C135  1  0.176100  0.910400  0.821500  1.0  0.259
  C  C136  1  0.206900  0.987200  0.862300  1.0  -0.1959
  C  C137  1  0.215200  0.061200  0.829200  1.0  0.1274
  C  C138  1  0.165400  0.855600  0.201300  1.0  0.1147
  C  C139  1  0.140300  0.932100  0.174900  1.0  -0.1948
  C  C140  1  0.169900  0.937600  0.104800  1.0  0.2607
  C  C141  1  0.217600  0.866800  0.063000  1.0  -0.2078
  C  C142  1  0.242200  0.792200  0.093300  1.0  0.1365
  C  C143  1  0.169300  0.619200  0.955100  1.0  0.1654
  C  C144  1  0.160800  0.694000  0.923500  1.0  -0.2588
  C  C145  1  0.213300  0.694000  0.856700  1.0  0.2787
  C  C146  1  0.272100  0.620300  0.823900  1.0  -0.222
  C  C147  1  0.275900  0.548300  0.859600  1.0  0.1519
  C  C148  1  0.176600  0.309200  0.089600  1.0  0.1655
  C  C149  1  0.162400  0.234300  0.121500  1.0  -0.2085
  C  C150  1  0.141500  0.158500  0.078700  1.0  0.2592
  C  C151  1  0.127000  0.159700  0.006800  1.0  -0.2115
  C  C152  1  0.142600  0.237000  0.979500  1.0  0.1141
  S  S153  1  0.563590  0.951030  0.384350  1.0  1.6117
  S  S154  1  0.063590  0.548970  0.115650  1.0  1.6115
  S  S155  1  0.436410  0.048970  0.615650  1.0  1.6112
  S  S156  1  0.936410  0.451030  0.884350  1.0  1.6113
  N  N157  1  0.310500  0.561100  0.260600  1.0  -0.3575
  N  N158  1  0.320300  0.334900  0.358000  1.0  -0.2018
  N  N159  1  0.282200  0.286900  0.662100  1.0  -0.3451
  N  N160  1  0.343200  0.514900  0.570900  1.0  -0.2227
  N  N161  1  0.273900  0.047100  0.423900  1.0  -0.3807
  N  N162  1  0.290600  0.268100  0.318600  1.0  -0.2303
  N  N163  1  0.329800  0.810300  0.520200  1.0  -0.365
  N  N164  1  0.358500  0.581200  0.613100  1.0  -0.2158
  N  N165  1  0.810500  0.938900  0.239400  1.0  -0.3574
  N  N166  1  0.820300  0.165100  0.142000  1.0  -0.2019
  N  N167  1  0.782200  0.213100  0.837900  1.0  -0.3464
  N  N168  1  0.843200  0.985100  0.929100  1.0  -0.2229
  N  N169  1  0.773900  0.452900  0.076100  1.0  -0.3796
  N  N170  1  0.790600  0.231900  0.181400  1.0  -0.2308
  N  N171  1  0.829800  0.689700  0.979800  1.0  -0.367
  N  N172  1  0.858500  0.918800  0.886900  1.0  -0.215
  N  N173  1  0.689500  0.438900  0.739400  1.0  -0.357
  N  N174  1  0.679700  0.665100  0.642000  1.0  -0.2014
  N  N175  1  0.717800  0.713100  0.337900  1.0  -0.3481
  N  N176  1  0.656800  0.485100  0.429100  1.0  -0.2229
  N  N177  1  0.726100  0.952900  0.576100  1.0  -0.3795
  N  N178  1  0.709400  0.731900  0.681400  1.0  -0.2312
  N  N179  1  0.670200  0.189700  0.479800  1.0  -0.3646
  N  N180  1  0.641500  0.418800  0.386900  1.0  -0.2114
  N  N181  1  0.189500  0.061100  0.760600  1.0  -0.3572
  N  N182  1  0.179700  0.834900  0.858000  1.0  -0.202
  N  N183  1  0.217800  0.786900  0.162100  1.0  -0.346
  N  N184  1  0.156800  0.014900  0.070900  1.0  -0.2219
  N  N185  1  0.226100  0.547100  0.923900  1.0  -0.3799
  N  N186  1  0.209400  0.768100  0.818600  1.0  -0.2304
  N  N187  1  0.170200  0.310300  0.020200  1.0  -0.3647
  N  N188  1  0.141500  0.081200  0.113100  1.0  -0.2131
  O  O189  1  0.688900  0.901000  0.377500  1.0  -0.737
  O  O190  1  0.457800  0.893400  0.405200  1.0  -0.7407
  O  O191  1  0.580500  0.022000  0.440500  1.0  -0.714
  O  O192  1  0.529600  0.983000  0.317800  1.0  -0.6973
  O  O193  1  0.188900  0.599000  0.122500  1.0  -0.7372
  O  O194  1  0.957800  0.606600  0.094800  1.0  -0.7398
  O  O195  1  0.080500  0.478000  0.059500  1.0  -0.7141
  O  O196  1  0.029600  0.517000  0.182200  1.0  -0.6967
  O  O197  1  0.311100  0.099000  0.622500  1.0  -0.7375
  O  O198  1  0.542200  0.106600  0.594800  1.0  -0.7387
  O  O199  1  0.419500  0.978000  0.559500  1.0  -0.7152
  O  O200  1  0.470400  0.017000  0.682200  1.0  -0.6972
  O  O201  1  0.811100  0.401000  0.877500  1.0  -0.7376
  O  O202  1  0.042200  0.393400  0.905200  1.0  -0.7395
  O  O203  1  0.919500  0.522000  0.940500  1.0  -0.7153
  O  O204  1  0.970400  0.483000  0.817800  1.0  -0.6971
