# generated using pymatgen
data_Al3P2C6O13
_symmetry_space_group_name_H-M   'P 1'
_cell_length_a   10.54070000
_cell_length_b   7.89510000
_cell_length_c   10.32710000
_cell_angle_alpha   90.00000000
_cell_angle_beta   109.81900000
_cell_angle_gamma   90.00000000
_symmetry_Int_Tables_number   1
_chemical_formula_structural   Al3P2C6O13
_chemical_formula_sum   'Al6 P4 C12 O26'
_cell_volume   808.51519450
_cell_formula_units_Z   2
loop_
 _symmetry_equiv_pos_site_id
 _symmetry_equiv_pos_as_xyz
  1  'x, y, z'
loop_
 _atom_site_type_symbol
 _atom_site_label
 _atom_site_symmetry_multiplicity
 _atom_site_fract_x
 _atom_site_fract_y
 _atom_site_fract_z
 _atom_site_occupancy
 _atom_site_charge
  Al  Al1  1  0.319400  0.429800  0.709300  1.0  1.7617
  Al  Al2  1  0.680600  0.429800  0.790700  1.0  1.7625
  Al  Al3  1  0.680600  0.570200  0.290700  1.0  1.7646
  Al  Al4  1  0.319400  0.570200  0.209300  1.0  1.7607
  Al  Al5  1  0.000000  0.500000  0.000000  1.0  1.7579
  Al  Al6  1  0.000000  0.500000  0.500000  1.0  1.7606
  P  P7  1  0.246300  0.308500  0.965190  1.0  1.485
  P  P8  1  0.753700  0.308500  0.534810  1.0  1.4845
  P  P9  1  0.753700  0.691500  0.034810  1.0  1.4848
  P  P10  1  0.246300  0.691500  0.465190  1.0  1.4859
  C  C11  1  0.235700  0.102600  0.037800  1.0  -0.1706
  C  C12  1  0.159000  0.982700  0.927700  1.0  -0.0473
  C  C13  1  0.158100  0.808700  0.986800  1.0  0.7311
  C  C14  1  0.764300  0.102600  0.462200  1.0  -0.168
  C  C15  1  0.841000  0.982700  0.572300  1.0  -0.0491
  C  C16  1  0.841900  0.808700  0.513200  1.0  0.733
  C  C17  1  0.764300  0.897400  0.962200  1.0  -0.1679
  C  C18  1  0.841000  0.017300  0.072300  1.0  -0.0491
  C  C19  1  0.841900  0.191300  0.013200  1.0  0.733
  C  C20  1  0.235700  0.897400  0.537800  1.0  -0.1705
  C  C21  1  0.159000  0.017300  0.427700  1.0  -0.0475
  C  C22  1  0.158100  0.191300  0.486800  1.0  0.7298
  O  O23  1  0.106200  0.390400  0.912800  1.0  -0.7807
  O  O24  1  0.302600  0.284700  0.846000  1.0  -0.7813
  O  O25  1  0.346700  0.416900  0.080900  1.0  -0.8306
  O  O26  1  0.263600  0.749000  0.068800  1.0  -0.5609
  O  O27  1  0.052400  0.725800  0.950800  1.0  -0.5799
  O  O28  1  0.137600  0.496800  0.166700  1.0  -0.7225
  O  O29  1  0.893800  0.390400  0.587200  1.0  -0.7804
  O  O30  1  0.697400  0.284700  0.654000  1.0  -0.7818
  O  O31  1  0.653300  0.416900  0.419100  1.0  -0.8292
  O  O32  1  0.736400  0.749000  0.431200  1.0  -0.5614
  O  O33  1  0.947600  0.725800  0.549200  1.0  -0.579
  O  O34  1  0.862400  0.496800  0.333333  1.0  -0.723
  O  O35  1  0.893800  0.609600  0.087200  1.0  -0.7805
  O  O36  1  0.697400  0.715300  0.154000  1.0  -0.7821
  O  O37  1  0.653300  0.583100  0.919100  1.0  -0.8298
  O  O38  1  0.736400  0.251000  0.931200  1.0  -0.5606
  O  O39  1  0.947600  0.274200  0.049200  1.0  -0.5771
  O  O40  1  0.862400  0.503200  0.833300  1.0  -0.7237
  O  O41  1  0.106200  0.609600  0.412800  1.0  -0.7805
  O  O42  1  0.302600  0.715300  0.346000  1.0  -0.7821
  O  O43  1  0.346700  0.583100  0.580900  1.0  -0.831
  O  O44  1  0.263600  0.251000  0.568800  1.0  -0.5609
  O  O45  1  0.052400  0.274200  0.450800  1.0  -0.579
  O  O46  1  0.137600  0.503200  0.666667  1.0  -0.7231
  O  O47  1  0.500000  0.352600  0.750000  1.0  -0.7721
  O  O48  1  0.500000  0.647400  0.250000  1.0  -0.7719
