# generated using pymatgen
data_ZnH18C28(N4O3)2
_symmetry_space_group_name_H-M   'P 1'
_cell_length_a   16.40250000
_cell_length_b   16.40250000
_cell_length_c   25.47010000
_cell_angle_alpha   90.00000000
_cell_angle_beta   90.00000000
_cell_angle_gamma   120.00000000
_symmetry_Int_Tables_number   1
_chemical_formula_structural   ZnH18C28(N4O3)2
_chemical_formula_sum   'Zn6 H108 C168 N48 O36'
_cell_volume   5934.46229185
_cell_formula_units_Z   6
loop_
 _symmetry_equiv_pos_site_id
 _symmetry_equiv_pos_as_xyz
  1  'x, y, z'
loop_
 _atom_site_type_symbol
 _atom_site_label
 _atom_site_symmetry_multiplicity
 _atom_site_fract_x
 _atom_site_fract_y
 _atom_site_fract_z
 _atom_site_occupancy
 _atom_site_charge
  Zn  Zn1  1  0.576280  0.288140  0.833330  1.0  0.8446
  Zn  Zn2  1  0.711860  0.423720  0.166670  1.0  0.8479
  Zn  Zn3  1  0.711860  0.288140  0.500000  1.0  0.8468
  Zn  Zn4  1  0.423720  0.711860  0.833330  1.0  0.8464
  Zn  Zn5  1  0.288140  0.576280  0.166670  1.0  0.8482
  Zn  Zn6  1  0.288140  0.711860  0.500000  1.0  0.8443
  H  H7  1  0.359400  0.414300  0.799200  1.0  0.1136
  H  H8  1  0.287900  0.459600  0.862500  1.0  0.2777
  H  H9  1  0.457600  0.358500  0.779500  1.0  0.0803
  H  H10  1  0.503400  0.331600  0.926400  1.0  0.0802
  H  H11  1  0.403300  0.386400  0.953600  1.0  0.1166
  H  H12  1  0.176900  0.469800  0.862500  1.0  0.1612
  H  H13  1  0.177000  0.463000  0.016600  1.0  0.1044
  H  H14  1  0.773200  0.172500  0.923200  1.0  0.0984
  H  H15  1  0.054900  0.640600  0.132530  1.0  0.1145
  H  H16  1  0.171700  0.712100  0.195830  1.0  0.2795
  H  H17  1  0.900900  0.542400  0.112830  1.0  0.0791
  H  H18  1  0.828200  0.496600  0.259730  1.0  0.0803
  H  H19  1  0.983100  0.596700  0.286930  1.0  0.1156
  H  H20  1  0.292900  0.823100  0.195830  1.0  0.1611
  H  H21  1  0.286000  0.823000  0.349930  1.0  0.1034
  H  H22  1  0.399300  0.226800  0.256530  1.0  0.0987
  H  H23  1  0.585700  0.945100  0.465870  1.0  0.1139
  H  H24  1  0.540400  0.828300  0.529170  1.0  0.2786
  H  H25  1  0.641500  0.099100  0.446170  1.0  0.08
  H  H26  1  0.668400  0.171800  0.593070  1.0  0.0804
  H  H27  1  0.613600  0.016900  0.620270  1.0  0.1156
  H  H28  1  0.530200  0.707100  0.529170  1.0  0.1617
  H  H29  1  0.537000  0.714000  0.683270  1.0  0.1024
  H  H30  1  0.827500  0.600700  0.589870  1.0  0.1
  H  H31  1  0.640600  0.585700  0.799200  1.0  0.1137
  H  H32  1  0.712100  0.540400  0.862500  1.0  0.2776
  H  H33  1  0.542400  0.641500  0.779500  1.0  0.0804
  H  H34  1  0.496600  0.668400  0.926400  1.0  0.0802
  H  H35  1  0.596700  0.613600  0.953600  1.0  0.1156
  H  H36  1  0.823100  0.530200  0.862500  1.0  0.1608
  H  H37  1  0.823000  0.537000  0.016600  1.0  0.1042
  H  H38  1  0.226800  0.827500  0.923200  1.0  0.098
  H  H39  1  0.945100  0.359400  0.132530  1.0  0.1137
  H  H40  1  0.828300  0.287900  0.195830  1.0  0.2788
  H  H41  1  0.099100  0.457600  0.112830  1.0  0.0799
  H  H42  1  0.171800  0.503400  0.259730  1.0  0.0805
  H  H43  1  0.016900  0.403300  0.286930  1.0  0.1154
  H  H44  1  0.707100  0.176900  0.195830  1.0  0.1616
  H  H45  1  0.714000  0.177000  0.349930  1.0  0.1033
  H  H46  1  0.600700  0.773200  0.256530  1.0  0.0995
  H  H47  1  0.414300  0.054900  0.465870  1.0  0.1142
  H  H48  1  0.459600  0.171700  0.529170  1.0  0.2787
  H  H49  1  0.358500  0.900900  0.446170  1.0  0.0802
  H  H50  1  0.331600  0.828200  0.593070  1.0  0.0806
  H  H51  1  0.386400  0.983100  0.620270  1.0  0.115
  H  H52  1  0.469800  0.292900  0.529170  1.0  0.1618
  H  H53  1  0.463000  0.286000  0.683270  1.0  0.1033
  H  H54  1  0.172500  0.399300  0.589870  1.0  0.1002
  H  H55  1  0.945100  0.585700  0.534130  1.0  0.1146
  H  H56  1  0.828300  0.540400  0.470830  1.0  0.2771
  H  H57  1  0.099100  0.641500  0.553830  1.0  0.0801
  H  H58  1  0.171800  0.668400  0.406930  1.0  0.0799
  H  H59  1  0.016900  0.613600  0.379730  1.0  0.1151
  H  H60  1  0.707100  0.530200  0.470830  1.0  0.1633
  H  H61  1  0.714000  0.537000  0.316730  1.0  0.1047
  H  H62  1  0.600700  0.827500  0.410130  1.0  0.0995
  H  H63  1  0.414300  0.359400  0.200800  1.0  0.1149
  H  H64  1  0.459600  0.287900  0.137500  1.0  0.2795
  H  H65  1  0.358500  0.457600  0.220500  1.0  0.0796
  H  H66  1  0.331600  0.503400  0.073600  1.0  0.08
  H  H67  1  0.386400  0.403300  0.046400  1.0  0.115
  H  H68  1  0.469800  0.176900  0.137500  1.0  0.1632
  H  H69  1  0.463000  0.177000  0.983400  1.0  0.1036
  H  H70  1  0.172500  0.773200  0.076800  1.0  0.098
  H  H71  1  0.640600  0.054900  0.867470  1.0  0.1139
  H  H72  1  0.712100  0.171700  0.804170  1.0  0.2776
  H  H73  1  0.542400  0.900900  0.887170  1.0  0.0799
  H  H74  1  0.496600  0.828200  0.740270  1.0  0.0805
  H  H75  1  0.596700  0.983100  0.713070  1.0  0.1157
  H  H76  1  0.823100  0.292900  0.804170  1.0  0.1637
  H  H77  1  0.823000  0.286000  0.650070  1.0  0.1029
  H  H78  1  0.226800  0.399300  0.743470  1.0  0.1006
  H  H79  1  0.054900  0.414300  0.534130  1.0  0.1143
  H  H80  1  0.171700  0.459600  0.470830  1.0  0.2766
  H  H81  1  0.900900  0.358500  0.553830  1.0  0.0802
  H  H82  1  0.828200  0.331600  0.406930  1.0  0.0795
  H  H83  1  0.983100  0.386400  0.379730  1.0  0.1152
  H  H84  1  0.292900  0.469800  0.470830  1.0  0.163
  H  H85  1  0.286000  0.463000  0.316730  1.0  0.1043
  H  H86  1  0.399300  0.172500  0.410130  1.0  0.0995
  H  H87  1  0.585700  0.640600  0.200800  1.0  0.1141
  H  H88  1  0.540400  0.712100  0.137500  1.0  0.278
  H  H89  1  0.641500  0.542400  0.220500  1.0  0.0798
  H  H90  1  0.668400  0.496600  0.073600  1.0  0.0803
  H  H91  1  0.613600  0.596700  0.046400  1.0  0.1146
  H  H92  1  0.530200  0.823100  0.137500  1.0  0.1635
  H  H93  1  0.537000  0.823000  0.983400  1.0  0.1039
  H  H94  1  0.827500  0.226800  0.076800  1.0  0.0977
  H  H95  1  0.359400  0.945100  0.867470  1.0  0.1147
  H  H96  1  0.287900  0.828300  0.804170  1.0  0.2773
  H  H97  1  0.457600  0.099100  0.887170  1.0  0.0805
  H  H98  1  0.503400  0.171800  0.740270  1.0  0.0801
  H  H99  1  0.403300  0.016900  0.713070  1.0  0.1148
  H  H100  1  0.176900  0.707100  0.804170  1.0  0.1639
  H  H101  1  0.177000  0.714000  0.650070  1.0  0.103
  H  H102  1  0.773200  0.600700  0.743470  1.0  0.0998
  H  H103  1  0.675900  0.324100  0.000000  1.0  0.1005
  H  H104  1  0.842300  0.157700  0.000000  1.0  0.1128
  H  H105  1  0.648200  0.324100  0.333333  1.0  0.1002
  H  H106  1  0.315400  0.157700  0.333333  1.0  0.1123
  H  H107  1  0.675900  0.351800  0.666667  1.0  0.1025
  H  H108  1  0.842300  0.684600  0.666667  1.0  0.1132
  H  H109  1  0.324100  0.675900  0.000000  1.0  0.1005
  H  H110  1  0.157700  0.842300  0.000000  1.0  0.1107
  H  H111  1  0.351800  0.675900  0.333333  1.0  0.1006
  H  H112  1  0.684600  0.842300  0.333333  1.0  0.114
  H  H113  1  0.324100  0.648200  0.666667  1.0  0.1023
  H  H114  1  0.157700  0.315400  0.666667  1.0  0.1133
  C  C115  1  0.366800  0.406800  0.879100  1.0  0.2211
  C  C116  1  0.387100  0.397400  0.826800  1.0  -0.2454
  C  C117  1  0.040800  0.492800  0.940700  1.0  0.4912
  C  C118  1  0.265800  0.438500  0.938800  1.0  0.4192
  C  C119  1  0.446000  0.364500  0.815400  1.0  0.1791
  C  C120  1  0.189900  0.461900  0.937600  1.0  0.0532
  C  C121  1  0.473000  0.348600  0.900500  1.0  0.175
  C  C122  1  0.412900  0.381400  0.917200  1.0  -0.2093
  C  C123  1  0.152300  0.474000  0.895500  1.0  0.099
  C  C124  1  0.683300  0.263500  0.903600  1.0  0.6647
  C  C125  1  0.151300  0.469100  0.984400  1.0  0.1366
  C  C126  1  0.717700  0.249900  0.953100  1.0  -0.1289
  C  C127  1  0.767600  0.200500  0.954600  1.0  -0.0404
  C  C128  1  0.040000  0.633200  0.212430  1.0  0.2187
  C  C129  1  0.010300  0.612900  0.160130  1.0  -0.2425
  C  C130  1  0.452000  0.959200  0.274030  1.0  0.4947
  C  C131  1  0.172700  0.734200  0.272130  1.0  0.4226
  C  C132  1  0.918500  0.554000  0.148730  1.0  0.1786
  C  C133  1  0.272000  0.810100  0.270930  1.0  0.0528
  C  C134  1  0.875600  0.527000  0.233830  1.0  0.1761
  C  C135  1  0.968500  0.587100  0.250530  1.0  -0.2058
  C  C136  1  0.321700  0.847700  0.228830  1.0  0.0962
  C  C137  1  0.580200  0.316700  0.236930  1.0  0.665
  C  C138  1  0.317800  0.848700  0.317730  1.0  0.1332
  C  C139  1  0.532200  0.282300  0.286430  1.0  -0.1297
  C  C140  1  0.432900  0.232400  0.287930  1.0  -0.0404
  C  C141  1  0.593200  0.960000  0.545770  1.0  0.2204
  C  C142  1  0.602600  0.989700  0.493470  1.0  -0.2406
  C  C143  1  0.507200  0.548000  0.607370  1.0  0.495
  C  C144  1  0.561500  0.827300  0.605470  1.0  0.4248
  C  C145  1  0.635500  0.081500  0.482070  1.0  0.1837
  C  C146  1  0.538100  0.728000  0.604270  1.0  0.0494
  C  C147  1  0.651400  0.124400  0.567170  1.0  0.1774
  C  C148  1  0.618600  0.031500  0.583870  1.0  -0.2045
  C  C149  1  0.526000  0.678300  0.562170  1.0  0.0939
  C  C150  1  0.736500  0.419800  0.570270  1.0  0.6516
  C  C151  1  0.530900  0.682200  0.651070  1.0  0.1352
  C  C152  1  0.750100  0.467800  0.619770  1.0  -0.1282
  C  C153  1  0.799500  0.567100  0.621270  1.0  -0.0428
  C  C154  1  0.633200  0.593200  0.879100  1.0  0.219
  C  C155  1  0.612900  0.602600  0.826800  1.0  -0.2443
  C  C156  1  0.959200  0.507200  0.940700  1.0  0.4909
  C  C157  1  0.734200  0.561500  0.938800  1.0  0.4204
  C  C158  1  0.554000  0.635500  0.815400  1.0  0.1785
  C  C159  1  0.810100  0.538100  0.937600  1.0  0.0479
  C  C160  1  0.527000  0.651400  0.900500  1.0  0.175
  C  C161  1  0.587100  0.618600  0.917200  1.0  -0.209
  C  C162  1  0.847700  0.526000  0.895500  1.0  0.0963
  C  C163  1  0.316700  0.736500  0.903600  1.0  0.6648
  C  C164  1  0.848700  0.530900  0.984400  1.0  0.1361
  C  C165  1  0.282300  0.750100  0.953100  1.0  -0.1294
  C  C166  1  0.232400  0.799500  0.954600  1.0  -0.0418
  C  C167  1  0.960000  0.366800  0.212430  1.0  0.2199
  C  C168  1  0.989700  0.387100  0.160130  1.0  -0.2445
  C  C169  1  0.548000  0.040800  0.274030  1.0  0.4922
  C  C170  1  0.827300  0.265800  0.272130  1.0  0.4234
  C  C171  1  0.081500  0.446000  0.148730  1.0  0.1807
  C  C172  1  0.728000  0.189900  0.270930  1.0  0.05
  C  C173  1  0.124400  0.473000  0.233830  1.0  0.1756
  C  C174  1  0.031500  0.412900  0.250530  1.0  -0.2067
  C  C175  1  0.678300  0.152300  0.228830  1.0  0.097
  C  C176  1  0.419800  0.683300  0.236930  1.0  0.6645
  C  C177  1  0.682200  0.151300  0.317730  1.0  0.1339
  C  C178  1  0.467800  0.717700  0.286430  1.0  -0.1287
  C  C179  1  0.567100  0.767600  0.287930  1.0  -0.039
  C  C180  1  0.406800  0.040000  0.545770  1.0  0.2205
  C  C181  1  0.397400  0.010300  0.493470  1.0  -0.2412
  C  C182  1  0.492800  0.452000  0.607370  1.0  0.4923
  C  C183  1  0.438500  0.172700  0.605470  1.0  0.4265
  C  C184  1  0.364500  0.918500  0.482070  1.0  0.182
  C  C185  1  0.461900  0.272000  0.604270  1.0  0.0526
  C  C186  1  0.348600  0.875600  0.567170  1.0  0.1785
  C  C187  1  0.381400  0.968500  0.583870  1.0  -0.2021
  C  C188  1  0.474000  0.321700  0.562170  1.0  0.0984
  C  C189  1  0.263500  0.580200  0.570270  1.0  0.6522
  C  C190  1  0.469100  0.317800  0.651070  1.0  0.1375
  C  C191  1  0.249900  0.532200  0.619770  1.0  -0.1292
  C  C192  1  0.200500  0.432900  0.621270  1.0  -0.0419
  C  C193  1  0.960000  0.593200  0.454230  1.0  0.2197
  C  C194  1  0.989700  0.602600  0.506530  1.0  -0.2465
  C  C195  1  0.548000  0.507200  0.392630  1.0  0.4911
  C  C196  1  0.827300  0.561500  0.394530  1.0  0.4205
  C  C197  1  0.081500  0.635500  0.517930  1.0  0.1791
  C  C198  1  0.728000  0.538100  0.395730  1.0  0.053
  C  C199  1  0.124400  0.651400  0.432830  1.0  0.1755
  C  C200  1  0.031500  0.618600  0.416130  1.0  -0.2073
  C  C201  1  0.678300  0.526000  0.437830  1.0  0.1
  C  C202  1  0.419800  0.736500  0.429730  1.0  0.6523
  C  C203  1  0.682200  0.530900  0.348930  1.0  0.1373
  C  C204  1  0.467800  0.750100  0.380230  1.0  -0.1292
  C  C205  1  0.567100  0.799500  0.378730  1.0  -0.0417
  C  C206  1  0.406800  0.366800  0.120900  1.0  0.2201
  C  C207  1  0.397400  0.387100  0.173200  1.0  -0.2425
  C  C208  1  0.492800  0.040800  0.059300  1.0  0.4953
  C  C209  1  0.438500  0.265800  0.061200  1.0  0.4241
  C  C210  1  0.364500  0.446000  0.184600  1.0  0.1793
  C  C211  1  0.461900  0.189900  0.062400  1.0  0.052
  C  C212  1  0.348600  0.473000  0.099500  1.0  0.1765
  C  C213  1  0.381400  0.412900  0.082800  1.0  -0.2038
  C  C214  1  0.474000  0.152300  0.104500  1.0  0.0954
  C  C215  1  0.263500  0.683300  0.096400  1.0  0.6649
  C  C216  1  0.469100  0.151300  0.015600  1.0  0.1329
  C  C217  1  0.249900  0.717700  0.046900  1.0  -0.1291
  C  C218  1  0.200500  0.767600  0.045400  1.0  -0.0412
  C  C219  1  0.633200  0.040000  0.787570  1.0  0.2211
  C  C220  1  0.612900  0.010300  0.839870  1.0  -0.2384
  C  C221  1  0.959200  0.452000  0.725970  1.0  0.4945
  C  C222  1  0.734200  0.172700  0.727870  1.0  0.4269
  C  C223  1  0.554000  0.918500  0.851270  1.0  0.183
  C  C224  1  0.810100  0.272000  0.729070  1.0  0.0501
  C  C225  1  0.527000  0.875600  0.766170  1.0  0.1766
  C  C226  1  0.587100  0.968500  0.749470  1.0  -0.2025
  C  C227  1  0.847700  0.321700  0.771170  1.0  0.0943
  C  C228  1  0.316700  0.580200  0.763070  1.0  0.6665
  C  C229  1  0.848700  0.317800  0.682270  1.0  0.136
  C  C230  1  0.282300  0.532200  0.713570  1.0  -0.1289
  C  C231  1  0.232400  0.432900  0.712070  1.0  -0.0412
  C  C232  1  0.040000  0.406800  0.454230  1.0  0.2214
  C  C233  1  0.010300  0.397400  0.506530  1.0  -0.2425
  C  C234  1  0.452000  0.492800  0.392630  1.0  0.4911
  C  C235  1  0.172700  0.438500  0.394530  1.0  0.4219
  C  C236  1  0.918500  0.364500  0.517930  1.0  0.1787
  C  C237  1  0.272000  0.461900  0.395730  1.0  0.0484
  C  C238  1  0.875600  0.348600  0.432830  1.0  0.1743
  C  C239  1  0.968500  0.381400  0.416130  1.0  -0.2067
  C  C240  1  0.321700  0.474000  0.437830  1.0  0.0973
  C  C241  1  0.580200  0.263500  0.429730  1.0  0.6522
  C  C242  1  0.317800  0.469100  0.348930  1.0  0.1363
  C  C243  1  0.532200  0.249900  0.380230  1.0  -0.1296
  C  C244  1  0.432900  0.200500  0.378730  1.0  -0.042
  C  C245  1  0.593200  0.633200  0.120900  1.0  0.2188
  C  C246  1  0.602600  0.612900  0.173200  1.0  -0.244
  C  C247  1  0.507200  0.959200  0.059300  1.0  0.4917
  C  C248  1  0.561500  0.734200  0.061200  1.0  0.4252
  C  C249  1  0.635500  0.554000  0.184600  1.0  0.18
  C  C250  1  0.538100  0.810100  0.062400  1.0  0.0502
  C  C251  1  0.651400  0.527000  0.099500  1.0  0.1747
  C  C252  1  0.618600  0.587100  0.082800  1.0  -0.2044
  C  C253  1  0.526000  0.847700  0.104500  1.0  0.0982
  C  C254  1  0.736500  0.316700  0.096400  1.0  0.6653
  C  C255  1  0.530900  0.848700  0.015600  1.0  0.1351
  C  C256  1  0.750100  0.282300  0.046900  1.0  -0.1294
  C  C257  1  0.799500  0.232400  0.045400  1.0  -0.0401
  C  C258  1  0.366800  0.960000  0.787570  1.0  0.221
  C  C259  1  0.387100  0.989700  0.839870  1.0  -0.2412
  C  C260  1  0.040800  0.548000  0.725970  1.0  0.4926
  C  C261  1  0.265800  0.827300  0.727870  1.0  0.427
  C  C262  1  0.446000  0.081500  0.851270  1.0  0.1824
  C  C263  1  0.189900  0.728000  0.729070  1.0  0.0516
  C  C264  1  0.473000  0.124400  0.766170  1.0  0.1785
  C  C265  1  0.412900  0.031500  0.749470  1.0  -0.2009
  C  C266  1  0.152300  0.678300  0.771170  1.0  0.0983
  C  C267  1  0.683300  0.419800  0.763070  1.0  0.666
  C  C268  1  0.151300  0.682200  0.682270  1.0  0.1364
  C  C269  1  0.717700  0.467800  0.713570  1.0  -0.1282
  C  C270  1  0.767600  0.567100  0.712070  1.0  -0.0446
  C  C271  1  0.709350  0.290650  0.000000  1.0  0.0059
  C  C272  1  0.808850  0.191150  0.000000  1.0  -0.1492
  C  C273  1  0.581300  0.290650  0.333333  1.0  0.0054
  C  C274  1  0.382300  0.191150  0.333333  1.0  -0.1519
  C  C275  1  0.709350  0.418700  0.666667  1.0  0.0052
  C  C276  1  0.808850  0.617700  0.666667  1.0  -0.1438
  C  C277  1  0.290650  0.709350  0.000000  1.0  0.0049
  C  C278  1  0.191150  0.808850  0.000000  1.0  -0.1514
  C  C279  1  0.418700  0.709350  0.333333  1.0  0.0055
  C  C280  1  0.617700  0.808850  0.333333  1.0  -0.1473
  C  C281  1  0.290650  0.581300  0.666667  1.0  0.0051
  C  C282  1  0.191150  0.382300  0.666667  1.0  -0.1479
  N  N283  1  0.489100  0.340000  0.851600  1.0  -0.3328
  N  N284  1  0.305000  0.437800  0.889300  1.0  -0.3847
  N  N285  1  0.076600  0.493300  0.895500  1.0  -0.3865
  N  N286  1  0.076300  0.484600  0.985400  1.0  -0.4242
  N  N287  1  0.850900  0.510900  0.184930  1.0  -0.3356
  N  N288  1  0.132800  0.695000  0.222630  1.0  -0.3849
  N  N289  1  0.416700  0.923400  0.228830  1.0  -0.3882
  N  N290  1  0.408300  0.923700  0.318730  1.0  -0.4275
  N  N291  1  0.660000  0.149100  0.518270  1.0  -0.3299
  N  N292  1  0.562200  0.867200  0.555970  1.0  -0.3809
  N  N293  1  0.506700  0.583300  0.562170  1.0  -0.3886
  N  N294  1  0.515400  0.591700  0.652070  1.0  -0.4248
  N  N295  1  0.510900  0.660000  0.851600  1.0  -0.3327
  N  N296  1  0.695000  0.562200  0.889300  1.0  -0.3842
  N  N297  1  0.923400  0.506700  0.895500  1.0  -0.3859
  N  N298  1  0.923700  0.515400  0.985400  1.0  -0.4164
  N  N299  1  0.149100  0.489100  0.184930  1.0  -0.3351
  N  N300  1  0.867200  0.305000  0.222630  1.0  -0.3833
  N  N301  1  0.583300  0.076600  0.228830  1.0  -0.3881
  N  N302  1  0.591700  0.076300  0.318730  1.0  -0.4172
  N  N303  1  0.340000  0.850900  0.518270  1.0  -0.3307
  N  N304  1  0.437800  0.132800  0.555970  1.0  -0.381
  N  N305  1  0.493300  0.416700  0.562170  1.0  -0.3872
  N  N306  1  0.484600  0.408300  0.652070  1.0  -0.4156
  N  N307  1  0.149100  0.660000  0.481730  1.0  -0.3328
  N  N308  1  0.867200  0.562200  0.444030  1.0  -0.3851
  N  N309  1  0.583300  0.506700  0.437830  1.0  -0.388
  N  N310  1  0.591700  0.515400  0.347930  1.0  -0.4242
  N  N311  1  0.340000  0.489100  0.148400  1.0  -0.335
  N  N312  1  0.437800  0.305000  0.110700  1.0  -0.3851
  N  N313  1  0.493300  0.076600  0.104500  1.0  -0.3897
  N  N314  1  0.484600  0.076300  0.014600  1.0  -0.4271
  N  N315  1  0.510900  0.850900  0.815070  1.0  -0.3292
  N  N316  1  0.695000  0.132800  0.777370  1.0  -0.3821
  N  N317  1  0.923400  0.416700  0.771170  1.0  -0.3892
  N  N318  1  0.923700  0.408300  0.681270  1.0  -0.4253
  N  N319  1  0.850900  0.340000  0.481730  1.0  -0.3321
  N  N320  1  0.132800  0.437800  0.444030  1.0  -0.3854
  N  N321  1  0.416700  0.493300  0.437830  1.0  -0.3859
  N  N322  1  0.408300  0.484600  0.347930  1.0  -0.4168
  N  N323  1  0.660000  0.510900  0.148400  1.0  -0.3348
  N  N324  1  0.562200  0.695000  0.110700  1.0  -0.3843
  N  N325  1  0.506700  0.923400  0.104500  1.0  -0.3878
  N  N326  1  0.515400  0.923700  0.014600  1.0  -0.4175
  N  N327  1  0.489100  0.149100  0.815070  1.0  -0.3295
  N  N328  1  0.305000  0.867200  0.777370  1.0  -0.3807
  N  N329  1  0.076600  0.583300  0.771170  1.0  -0.3886
  N  N330  1  0.076300  0.591700  0.681270  1.0  -0.4167
  O  O331  1  0.621800  0.291500  0.906300  1.0  -0.5973
  O  O332  1  0.696900  0.236000  0.863200  1.0  -0.6207
  O  O333  1  0.292700  0.419200  0.979600  1.0  -0.5686
  O  O334  1  0.669700  0.378200  0.239630  1.0  -0.5967
  O  O335  1  0.539100  0.303100  0.196530  1.0  -0.6208
  O  O336  1  0.126500  0.707300  0.312930  1.0  -0.5664
  O  O337  1  0.708500  0.330300  0.572970  1.0  -0.599
  O  O338  1  0.764000  0.460900  0.529870  1.0  -0.6198
  O  O339  1  0.580800  0.873500  0.646270  1.0  -0.5689
  O  O340  1  0.378200  0.708500  0.906300  1.0  -0.5962
  O  O341  1  0.303100  0.764000  0.863200  1.0  -0.6202
  O  O342  1  0.707300  0.580800  0.979600  1.0  -0.5663
  O  O343  1  0.330300  0.621800  0.239630  1.0  -0.5968
  O  O344  1  0.460900  0.696900  0.196530  1.0  -0.622
  O  O345  1  0.873500  0.292700  0.312930  1.0  -0.5694
  O  O346  1  0.291500  0.669700  0.572970  1.0  -0.5976
  O  O347  1  0.236000  0.539100  0.529870  1.0  -0.6206
  O  O348  1  0.419200  0.126500  0.646270  1.0  -0.5692
  O  O349  1  0.330300  0.708500  0.427030  1.0  -0.5973
  O  O350  1  0.460900  0.764000  0.470130  1.0  -0.6189
  O  O351  1  0.873500  0.580800  0.353730  1.0  -0.5681
  O  O352  1  0.291500  0.621800  0.093700  1.0  -0.5965
  O  O353  1  0.236000  0.696900  0.136800  1.0  -0.6191
  O  O354  1  0.419200  0.292700  0.020400  1.0  -0.5692
  O  O355  1  0.378200  0.669700  0.760370  1.0  -0.5976
  O  O356  1  0.303100  0.539100  0.803470  1.0  -0.6184
  O  O357  1  0.707300  0.126500  0.687070  1.0  -0.5698
  O  O358  1  0.669700  0.291500  0.427030  1.0  -0.5962
  O  O359  1  0.539100  0.236000  0.470130  1.0  -0.6181
  O  O360  1  0.126500  0.419200  0.353730  1.0  -0.5682
  O  O361  1  0.708500  0.378200  0.093700  1.0  -0.5965
  O  O362  1  0.764000  0.303100  0.136800  1.0  -0.6202
  O  O363  1  0.580800  0.707300  0.020400  1.0  -0.5679
  O  O364  1  0.621800  0.330300  0.760370  1.0  -0.5988
  O  O365  1  0.696900  0.460900  0.803470  1.0  -0.6184
  O  O366  1  0.292700  0.873500  0.687070  1.0  -0.5692
