# generated using pymatgen
data_Cu3P2H8(C3O5)2
_symmetry_space_group_name_H-M   'P 1'
_cell_length_a   5.02200000
_cell_length_b   12.34000000
_cell_length_c   15.43890000
_cell_angle_alpha   90.00000000
_cell_angle_beta   91.86700000
_cell_angle_gamma   90.00000000
_symmetry_Int_Tables_number   1
_chemical_formula_structural   Cu3P2H8(C3O5)2
_chemical_formula_sum   'Cu6 P4 H16 C12 O20'
_cell_volume   956.26357678
_cell_formula_units_Z   2
loop_
 _symmetry_equiv_pos_site_id
 _symmetry_equiv_pos_as_xyz
  1  'x, y, z'
loop_
 _atom_site_type_symbol
 _atom_site_label
 _atom_site_symmetry_multiplicity
 _atom_site_fract_x
 _atom_site_fract_y
 _atom_site_fract_z
 _atom_site_occupancy
 _atom_site_charge
  Cu  Cu1  1  0.529100  0.135300  0.882800  1.0  1.0062
  Cu  Cu2  1  0.970900  0.635300  0.617200  1.0  1.0068
  Cu  Cu3  1  0.470900  0.864700  0.117200  1.0  0.9996
  Cu  Cu4  1  0.029100  0.364700  0.382800  1.0  0.9985
  Cu  Cu5  1  0.000000  0.000000  0.000000  1.0  1.1737
  Cu  Cu6  1  0.500000  0.500000  0.500000  1.0  1.1737
  P  P7  1  0.500800  0.892300  0.920100  1.0  1.4913
  P  P8  1  0.999200  0.392300  0.579900  1.0  1.4916
  P  P9  1  0.499200  0.107700  0.079900  1.0  1.4921
  P  P10  1  0.000800  0.607700  0.420100  1.0  1.4916
  H  H11  1  0.437000  0.706000  0.903000  1.0  0.158
  H  H12  1  0.242000  0.777000  0.848000  1.0  0.1848
  H  H13  1  0.739000  0.718000  0.791000  1.0  0.1214
  H  H14  1  0.606000  0.821000  0.754000  1.0  0.1353
  H  H15  1  0.063000  0.206000  0.597000  1.0  0.157
  H  H16  1  0.258000  0.277000  0.652000  1.0  0.1805
  H  H17  1  0.761000  0.218000  0.709000  1.0  0.1223
  H  H18  1  0.894000  0.321000  0.746000  1.0  0.1342
  H  H19  1  0.563000  0.294000  0.097000  1.0  0.1568
  H  H20  1  0.758000  0.223000  0.152000  1.0  0.1808
  H  H21  1  0.261000  0.282000  0.209000  1.0  0.1217
  H  H22  1  0.394000  0.179000  0.246000  1.0  0.1351
  H  H23  1  0.937000  0.794000  0.403000  1.0  0.1576
  H  H24  1  0.742000  0.723000  0.348000  1.0  0.1849
  H  H25  1  0.239000  0.782000  0.291000  1.0  0.1204
  H  H26  1  0.106000  0.679000  0.254000  1.0  0.1361
  C  C27  1  0.415500  0.770000  0.864100  1.0  -0.4453
  C  C28  1  0.569600  0.751600  0.782200  1.0  -0.2387
  C  C29  1  0.426200  0.683500  0.714100  1.0  0.723
  C  C30  1  0.084500  0.270000  0.635900  1.0  -0.4416
  C  C31  1  0.930400  0.251600  0.717800  1.0  -0.2392
  C  C32  1  0.073800  0.183500  0.785900  1.0  0.7203
  C  C33  1  0.584500  0.230000  0.135900  1.0  -0.4438
  C  C34  1  0.430400  0.248400  0.217800  1.0  -0.24
  C  C35  1  0.573800  0.316500  0.285900  1.0  0.7207
  C  C36  1  0.915500  0.730000  0.364100  1.0  -0.4463
  C  C37  1  0.069600  0.748400  0.282200  1.0  -0.239
  C  C38  1  0.926200  0.816500  0.214100  1.0  0.7238
  O  O39  1  0.790000  0.882900  0.953500  1.0  -0.8239
  O  O40  1  0.683500  0.097700  0.000800  1.0  -0.88
  O  O41  1  0.448800  0.985100  0.857500  1.0  -0.7894
  O  O42  1  0.173300  0.680700  0.718500  1.0  -0.5835
  O  O43  1  0.549400  0.637400  0.655900  1.0  -0.6381
  O  O44  1  0.710000  0.382900  0.546500  1.0  -0.8239
  O  O45  1  0.816500  0.597700  0.499200  1.0  -0.8808
  O  O46  1  0.051200  0.485100  0.642500  1.0  -0.79
  O  O47  1  0.326700  0.180700  0.781500  1.0  -0.5841
  O  O48  1  0.950600  0.137400  0.844100  1.0  -0.6386
  O  O49  1  0.210000  0.117100  0.046500  1.0  -0.8238
  O  O50  1  0.316500  0.902300  0.999200  1.0  -0.8812
  O  O51  1  0.551200  0.014900  0.142500  1.0  -0.7902
  O  O52  1  0.826700  0.319300  0.281500  1.0  -0.5839
  O  O53  1  0.450600  0.362600  0.344100  1.0  -0.6386
  O  O54  1  0.290000  0.617100  0.453500  1.0  -0.8239
  O  O55  1  0.183500  0.402300  0.500800  1.0  -0.8808
  O  O56  1  0.948800  0.514900  0.357500  1.0  -0.7901
  O  O57  1  0.673300  0.819300  0.218500  1.0  -0.5833
  O  O58  1  0.049400  0.862600  0.155900  1.0  -0.638
