# generated using pymatgen
data_GdH4C8NO7
_symmetry_space_group_name_H-M   'P 1'
_cell_length_a   10.53820000
_cell_length_b   17.66800000
_cell_length_c   20.00500000
_cell_angle_alpha   90.00000000
_cell_angle_beta   90.00000000
_cell_angle_gamma   91.20500000
_symmetry_Int_Tables_number   1
_chemical_formula_structural   GdH4C8NO7
_chemical_formula_sum   'Gd8 H32 C64 N8 O56'
_cell_volume   3723.88558494
_cell_formula_units_Z   8
loop_
 _symmetry_equiv_pos_site_id
 _symmetry_equiv_pos_as_xyz
  1  'x, y, z'
loop_
 _atom_site_type_symbol
 _atom_site_label
 _atom_site_symmetry_multiplicity
 _atom_site_fract_x
 _atom_site_fract_y
 _atom_site_fract_z
 _atom_site_occupancy
 _atom_site_charge
  Gd  Gd1  1  0.177900  0.500130  0.265570  1.0  2.2167
  Gd  Gd2  1  0.253830  0.991950  0.518100  1.0  2.1965
  Gd  Gd3  1  0.322100  0.499870  0.765570  1.0  2.2163
  Gd  Gd4  1  0.246170  0.008050  0.018100  1.0  2.1965
  Gd  Gd5  1  0.822100  0.499870  0.734430  1.0  2.2083
  Gd  Gd6  1  0.746170  0.008050  0.481900  1.0  2.1899
  Gd  Gd7  1  0.677900  0.500130  0.234430  1.0  2.2086
  Gd  Gd8  1  0.753830  0.991950  0.981900  1.0  2.19
  H  H9  1  0.132500  0.687200  0.327900  1.0  0.1082
  H  H10  1  0.167300  0.798300  0.389300  1.0  0.1099
  H  H11  1  0.789000  0.827600  0.401900  1.0  0.1071
  H  H12  1  0.753000  0.714900  0.342800  1.0  0.1176
  H  H13  1  0.639700  0.301500  0.326100  1.0  0.1074
  H  H14  1  0.271600  0.321900  0.379400  1.0  0.1095
  H  H15  1  0.286200  0.214800  0.446700  1.0  0.1029
  H  H16  1  0.656500  0.196000  0.395900  1.0  0.1153
  H  H17  1  0.367500  0.312800  0.827900  1.0  0.1083
  H  H18  1  0.332700  0.201700  0.889300  1.0  0.1109
  H  H19  1  0.711000  0.172400  0.901900  1.0  0.1069
  H  H20  1  0.747000  0.285100  0.842800  1.0  0.117
  H  H21  1  0.860300  0.698500  0.826100  1.0  0.1078
  H  H22  1  0.228400  0.678100  0.879400  1.0  0.1096
  H  H23  1  0.213800  0.785200  0.946700  1.0  0.103
  H  H24  1  0.843500  0.804000  0.895900  1.0  0.1154
  H  H25  1  0.867500  0.312800  0.672100  1.0  0.1081
  H  H26  1  0.832700  0.201700  0.610700  1.0  0.1113
  H  H27  1  0.211000  0.172400  0.598100  1.0  0.1076
  H  H28  1  0.247000  0.285100  0.657200  1.0  0.1166
  H  H29  1  0.360300  0.698500  0.673900  1.0  0.1076
  H  H30  1  0.728400  0.678100  0.620600  1.0  0.1093
  H  H31  1  0.713800  0.785200  0.553300  1.0  0.1031
  H  H32  1  0.343500  0.804000  0.604100  1.0  0.1153
  H  H33  1  0.632500  0.687200  0.172100  1.0  0.1081
  H  H34  1  0.667300  0.798300  0.110700  1.0  0.1105
  H  H35  1  0.289000  0.827600  0.098100  1.0  0.1075
  H  H36  1  0.253000  0.714900  0.157200  1.0  0.1173
  H  H37  1  0.139700  0.301500  0.173900  1.0  0.1072
  H  H38  1  0.771600  0.321900  0.120600  1.0  0.1096
  H  H39  1  0.786200  0.214800  0.053300  1.0  0.1031
  H  H40  1  0.156500  0.196000  0.104100  1.0  0.1158
  C  C41  1  0.916200  0.615400  0.295300  1.0  0.7401
  C  C42  1  0.939300  0.689800  0.330500  1.0  -0.1244
  C  C43  1  0.062400  0.715100  0.343700  1.0  -0.0572
  C  C44  1  0.083100  0.781200  0.380100  1.0  -0.0431
  C  C45  1  0.980600  0.822600  0.403200  1.0  -0.1304
  C  C46  1  0.859000  0.798400  0.387900  1.0  -0.0345
  C  C47  1  0.837300  0.731700  0.352200  1.0  -0.0411
  C  C48  1  0.005800  0.893100  0.444000  1.0  0.7688
  C  C49  1  0.440500  0.386100  0.296400  1.0  0.7402
  C  C50  1  0.567600  0.283600  0.350300  1.0  -0.0309
  C  C51  1  0.349100  0.295500  0.381500  1.0  -0.0408
  C  C52  1  0.479300  0.123400  0.468500  1.0  0.7737
  C  C53  1  0.358300  0.232200  0.422100  1.0  -0.0426
  C  C54  1  0.452800  0.320700  0.343900  1.0  -0.1165
  C  C55  1  0.577800  0.220800  0.391700  1.0  -0.0509
  C  C56  1  0.471000  0.194300  0.427300  1.0  -0.1143
  C  C57  1  0.583800  0.384600  0.795300  1.0  0.7404
  C  C58  1  0.560700  0.310200  0.830500  1.0  -0.1237
  C  C59  1  0.437600  0.284900  0.843700  1.0  -0.0572
  C  C60  1  0.416900  0.218800  0.880100  1.0  -0.0446
  C  C61  1  0.519400  0.177400  0.903200  1.0  -0.129
  C  C62  1  0.641000  0.201600  0.887900  1.0  -0.0345
  C  C63  1  0.662700  0.268300  0.852200  1.0  -0.0419
  C  C64  1  0.494200  0.106900  0.944000  1.0  0.7694
  C  C65  1  0.059500  0.613900  0.796400  1.0  0.7391
  C  C66  1  0.932400  0.716400  0.850300  1.0  -0.0314
  C  C67  1  0.150900  0.704500  0.881500  1.0  -0.0386
  C  C68  1  0.020700  0.876600  0.968500  1.0  0.7726
  C  C69  1  0.141700  0.767800  0.922100  1.0  -0.0428
  C  C70  1  0.047200  0.679300  0.843900  1.0  -0.1174
  C  C71  1  0.922200  0.779200  0.891700  1.0  -0.053
  C  C72  1  0.029000  0.805700  0.927300  1.0  -0.1148
  C  C73  1  0.083800  0.384600  0.704700  1.0  0.7396
  C  C74  1  0.060700  0.310200  0.669500  1.0  -0.1242
  C  C75  1  0.937600  0.284900  0.656300  1.0  -0.057
  C  C76  1  0.916900  0.218800  0.619900  1.0  -0.0442
  C  C77  1  0.019400  0.177400  0.596800  1.0  -0.1293
  C  C78  1  0.141000  0.201600  0.612100  1.0  -0.0342
  C  C79  1  0.162700  0.268300  0.647800  1.0  -0.0419
  C  C80  1  0.994200  0.106900  0.556000  1.0  0.7682
  C  C81  1  0.559500  0.613900  0.703600  1.0  0.7391
  C  C82  1  0.432400  0.716400  0.649700  1.0  -0.0315
  C  C83  1  0.650900  0.704500  0.618500  1.0  -0.0387
  C  C84  1  0.520700  0.876600  0.531500  1.0  0.7734
  C  C85  1  0.641700  0.767800  0.577900  1.0  -0.0432
  C  C86  1  0.547200  0.679300  0.656100  1.0  -0.1164
  C  C87  1  0.422200  0.779200  0.608300  1.0  -0.053
  C  C88  1  0.529000  0.805700  0.572700  1.0  -0.1148
  C  C89  1  0.416200  0.615400  0.204700  1.0  0.7404
  C  C90  1  0.439300  0.689800  0.169500  1.0  -0.1239
  C  C91  1  0.562400  0.715100  0.156300  1.0  -0.0568
  C  C92  1  0.583100  0.781200  0.119900  1.0  -0.0429
  C  C93  1  0.480600  0.822600  0.096800  1.0  -0.1299
  C  C94  1  0.359000  0.798400  0.112100  1.0  -0.0343
  C  C95  1  0.337300  0.731700  0.147800  1.0  -0.0412
  C  C96  1  0.505800  0.893100  0.056000  1.0  0.7683
  C  C97  1  0.940500  0.386100  0.203600  1.0  0.7389
  C  C98  1  0.067600  0.283600  0.149700  1.0  -0.0307
  C  C99  1  0.849100  0.295500  0.118500  1.0  -0.0405
  C  C100  1  0.979300  0.123400  0.031500  1.0  0.7734
  C  C101  1  0.858300  0.232200  0.077900  1.0  -0.0429
  C  C102  1  0.952800  0.320700  0.156100  1.0  -0.1164
  C  C103  1  0.077800  0.220800  0.108300  1.0  -0.0508
  C  C104  1  0.971000  0.194300  0.072700  1.0  -0.1147
  N  N105  1  0.187400  0.475400  0.120800  1.0  0.8891
  N  N106  1  0.262100  0.024900  0.374900  1.0  0.7658
  N  N107  1  0.312600  0.524600  0.620800  1.0  0.8888
  N  N108  1  0.237900  0.975100  0.874900  1.0  0.765
  N  N109  1  0.812600  0.524600  0.879200  1.0  0.8881
  N  N110  1  0.737900  0.975100  0.625100  1.0  0.7657
  N  N111  1  0.687400  0.475400  0.379200  1.0  0.8891
  N  N112  1  0.762100  0.024900  0.125100  1.0  0.7659
  O  O113  1  0.010600  0.580010  0.275340  1.0  -0.7022
  O  O114  1  0.102900  0.515700  0.145580  1.0  -0.5895
  O  O115  1  0.258700  0.441130  0.161610  1.0  -0.5912
  O  O116  1  0.533600  0.400360  0.257810  1.0  -0.7281
  O  O117  1  0.339300  0.421020  0.297150  1.0  -0.7615
  O  O118  1  0.803300  0.593810  0.288630  1.0  -0.7231
  O  O119  1  0.115300  0.903160  0.466990  1.0  -0.7534
  O  O120  1  0.178500  0.051800  0.411810  1.0  -0.5592
  O  O121  1  0.337000  0.978000  0.401520  1.0  -0.6022
  O  O122  1  0.380300  0.100020  0.496610  1.0  -0.7416
  O  O123  1  0.584100  0.091380  0.471170  1.0  -0.7441
  O  O124  1  0.915800  0.936440  0.452710  1.0  -0.7733
  O  O125  1  0.203100  0.469900  0.060100  1.0  -0.4325
  O  O126  1  0.270500  0.041700  0.316300  1.0  -0.4289
  O  O127  1  0.489400  0.419990  0.775340  1.0  -0.7025
  O  O128  1  0.397100  0.484300  0.645580  1.0  -0.5896
  O  O129  1  0.241300  0.558870  0.661610  1.0  -0.5906
  O  O130  1  0.966400  0.599640  0.757810  1.0  -0.728
  O  O131  1  0.160700  0.578980  0.797150  1.0  -0.7605
  O  O132  1  0.696700  0.406190  0.788630  1.0  -0.7235
  O  O133  1  0.384700  0.096840  0.966990  1.0  -0.754
  O  O134  1  0.321500  0.948200  0.911810  1.0  -0.5584
  O  O135  1  0.163000  0.022000  0.901520  1.0  -0.5991
  O  O136  1  0.119700  0.899980  0.996610  1.0  -0.7419
  O  O137  1  0.915900  0.908620  0.971170  1.0  -0.7441
  O  O138  1  0.584200  0.063560  0.952710  1.0  -0.7746
  O  O139  1  0.296900  0.530100  0.560100  1.0  -0.4331
  O  O140  1  0.229500  0.958300  0.816300  1.0  -0.4286
  O  O141  1  0.989400  0.419990  0.724660  1.0  -0.7022
  O  O142  1  0.897100  0.484300  0.854420  1.0  -0.5904
  O  O143  1  0.741300  0.558870  0.838390  1.0  -0.593
  O  O144  1  0.466400  0.599640  0.742190  1.0  -0.7273
  O  O145  1  0.660700  0.578980  0.702850  1.0  -0.7606
  O  O146  1  0.196700  0.406190  0.711370  1.0  -0.7233
  O  O147  1  0.884700  0.096840  0.533010  1.0  -0.7549
  O  O148  1  0.821500  0.948200  0.588190  1.0  -0.5556
  O  O149  1  0.663000  0.022000  0.598480  1.0  -0.598
  O  O150  1  0.619700  0.899980  0.503390  1.0  -0.7434
  O  O151  1  0.415900  0.908620  0.528830  1.0  -0.7451
  O  O152  1  0.084200  0.063560  0.547290  1.0  -0.7747
  O  O153  1  0.796900  0.530100  0.939900  1.0  -0.4334
  O  O154  1  0.729500  0.958300  0.683700  1.0  -0.4335
  O  O155  1  0.510600  0.580010  0.224660  1.0  -0.7021
  O  O156  1  0.602900  0.515700  0.354420  1.0  -0.5897
  O  O157  1  0.758700  0.441130  0.338390  1.0  -0.5933
  O  O158  1  0.033600  0.400360  0.242190  1.0  -0.7267
  O  O159  1  0.839300  0.421020  0.202850  1.0  -0.7618
  O  O160  1  0.303300  0.593810  0.211370  1.0  -0.7229
  O  O161  1  0.615300  0.903160  0.033010  1.0  -0.7551
  O  O162  1  0.678500  0.051800  0.088190  1.0  -0.5559
  O  O163  1  0.837000  0.978000  0.098480  1.0  -0.6022
  O  O164  1  0.880300  0.100020  0.003390  1.0  -0.7433
  O  O165  1  0.084100  0.091380  0.028830  1.0  -0.745
  O  O166  1  0.415800  0.936440  0.047290  1.0  -0.7728
  O  O167  1  0.703100  0.469900  0.439900  1.0  -0.4322
  O  O168  1  0.770500  0.041700  0.183700  1.0  -0.4344
