# generated using pymatgen
data_CuH4C6N5
_symmetry_space_group_name_H-M   'P 1'
_cell_length_a   5.81450000
_cell_length_b   8.96630000
_cell_length_c   16.88000000
_cell_angle_alpha   90.00000000
_cell_angle_beta   90.00000000
_cell_angle_gamma   94.07800000
_symmetry_Int_Tables_number   1
_chemical_formula_structural   CuH4C6N5
_chemical_formula_sum   'Cu4 H16 C24 N20'
_cell_volume   877.80313068
_cell_formula_units_Z   4
loop_
 _symmetry_equiv_pos_site_id
 _symmetry_equiv_pos_as_xyz
  1  'x, y, z'
loop_
 _atom_site_type_symbol
 _atom_site_label
 _atom_site_symmetry_multiplicity
 _atom_site_fract_x
 _atom_site_fract_y
 _atom_site_fract_z
 _atom_site_occupancy
 _atom_site_charge
  Cu  Cu1  1  0.752090  0.471750  0.564900  1.0  0.2239
  Cu  Cu2  1  0.247910  0.028250  0.064900  1.0  0.2258
  Cu  Cu3  1  0.247910  0.528250  0.435100  1.0  0.2247
  Cu  Cu4  1  0.752090  0.971750  0.935100  1.0  0.2239
  H  H5  1  0.712000  0.144000  0.648300  1.0  0.1249
  H  H6  1  0.885200  0.040000  0.756700  1.0  0.0769
  H  H7  1  0.245900  0.306400  0.797900  1.0  0.1253
  H  H8  1  0.434500  0.200500  0.901300  1.0  0.0762
  H  H9  1  0.288000  0.356000  0.148300  1.0  0.1249
  H  H10  1  0.114800  0.460000  0.256700  1.0  0.0773
  H  H11  1  0.754100  0.193600  0.297900  1.0  0.1248
  H  H12  1  0.565500  0.299500  0.401300  1.0  0.0759
  H  H13  1  0.288000  0.856000  0.351700  1.0  0.1245
  H  H14  1  0.114800  0.960000  0.243300  1.0  0.0772
  H  H15  1  0.754100  0.693600  0.202100  1.0  0.1248
  H  H16  1  0.565500  0.799500  0.098700  1.0  0.0763
  H  H17  1  0.712000  0.644000  0.851700  1.0  0.1246
  H  H18  1  0.885200  0.540000  0.743300  1.0  0.077
  H  H19  1  0.245900  0.806400  0.702100  1.0  0.1255
  H  H20  1  0.434500  0.700500  0.598700  1.0  0.0764
  C  C21  1  0.334600  0.305100  0.645000  1.0  0.3121
  C  C22  1  0.458400  0.237400  0.710100  1.0  0.0301
  C  C23  1  0.650500  0.156700  0.699800  1.0  -0.1708
  C  C24  1  0.753000  0.094500  0.764900  1.0  0.1573
  C  C25  1  0.377400  0.252200  0.787700  1.0  -0.1717
  C  C26  1  0.490200  0.187600  0.849000  1.0  0.1509
  C  C27  1  0.665400  0.194900  0.145000  1.0  0.3163
  C  C28  1  0.541600  0.262600  0.210100  1.0  0.0294
  C  C29  1  0.349500  0.343300  0.199800  1.0  -0.1702
  C  C30  1  0.247000  0.405500  0.264900  1.0  0.157
  C  C31  1  0.622600  0.247800  0.287700  1.0  -0.1718
  C  C32  1  0.509800  0.312400  0.349000  1.0  0.1516
  C  C33  1  0.665400  0.694900  0.355000  1.0  0.3163
  C  C34  1  0.541600  0.762600  0.289900  1.0  0.0311
  C  C35  1  0.349500  0.843300  0.300200  1.0  -0.17
  C  C36  1  0.247000  0.905500  0.235100  1.0  0.1568
  C  C37  1  0.622600  0.747800  0.212300  1.0  -0.1717
  C  C38  1  0.509800  0.812400  0.151000  1.0  0.1521
  C  C39  1  0.334600  0.805100  0.855000  1.0  0.3123
  C  C40  1  0.458400  0.737400  0.789900  1.0  0.0315
  C  C41  1  0.650500  0.656700  0.800200  1.0  -0.1702
  C  C42  1  0.753000  0.594500  0.735100  1.0  0.1572
  C  C43  1  0.377400  0.752200  0.712300  1.0  -0.1712
  C  C44  1  0.490200  0.687600  0.651000  1.0  0.1525
  N  N45  1  0.427500  0.359200  0.577600  1.0  -0.2768
  N  N46  1  0.247500  0.413100  0.538300  1.0  -0.033
  N  N47  1  0.059100  0.391800  0.582600  1.0  0.0022
  N  N48  1  0.110100  0.324700  0.650400  1.0  -0.3333
  N  N49  1  0.673500  0.107900  0.839300  1.0  -0.295
  N  N50  1  0.572500  0.140800  0.077600  1.0  -0.2778
  N  N51  1  0.752500  0.086900  0.038300  1.0  -0.0336
  N  N52  1  0.940900  0.108200  0.082600  1.0  0.0014
  N  N53  1  0.889900  0.175300  0.150400  1.0  -0.3332
  N  N54  1  0.326500  0.392100  0.339300  1.0  -0.2965
  N  N55  1  0.572500  0.640800  0.422400  1.0  -0.2784
  N  N56  1  0.752500  0.586900  0.461700  1.0  -0.0349
  N  N57  1  0.940900  0.608200  0.417400  1.0  0.0011
  N  N58  1  0.889900  0.675300  0.349600  1.0  -0.334
  N  N59  1  0.326500  0.892100  0.160700  1.0  -0.2967
  N  N60  1  0.427500  0.859200  0.922400  1.0  -0.2762
  N  N61  1  0.247500  0.913100  0.961700  1.0  -0.0345
  N  N62  1  0.059100  0.891800  0.917400  1.0  0.0018
  N  N63  1  0.110100  0.824700  0.849600  1.0  -0.3336
  N  N64  1  0.673500  0.607900  0.660700  1.0  -0.2966
