# generated using pymatgen
data_Cu3H6C6N9O
_symmetry_space_group_name_H-M   'P 1'
_cell_length_a   17.55040000
_cell_length_b   17.55040000
_cell_length_c   17.55040000
_cell_angle_alpha   60.00000000
_cell_angle_beta   60.00000000
_cell_angle_gamma   60.00000000
_symmetry_Int_Tables_number   1
_chemical_formula_structural   Cu3H6C6N9O
_chemical_formula_sum   'Cu24 H48 C48 N72 O8'
_cell_volume   3822.48737408
_cell_formula_units_Z   8
loop_
 _symmetry_equiv_pos_site_id
 _symmetry_equiv_pos_as_xyz
  1  'x, y, z'
loop_
 _atom_site_type_symbol
 _atom_site_label
 _atom_site_symmetry_multiplicity
 _atom_site_fract_x
 _atom_site_fract_y
 _atom_site_fract_z
 _atom_site_occupancy
 _atom_site_charge
  Cu  Cu1  1  0.636900  0.363100  0.750000  1.0  0.6279
  Cu  Cu2  1  0.863100  0.136900  0.250000  1.0  0.6292
  Cu  Cu3  1  0.250000  0.250000  0.136900  1.0  0.6302
  Cu  Cu4  1  0.750000  0.750000  0.363100  1.0  0.6304
  Cu  Cu5  1  0.636900  0.750000  0.250000  1.0  0.6275
  Cu  Cu6  1  0.863100  0.250000  0.750000  1.0  0.629
  Cu  Cu7  1  0.250000  0.136900  0.363100  1.0  0.628
  Cu  Cu8  1  0.750000  0.363100  0.136900  1.0  0.6287
  Cu  Cu9  1  0.636900  0.250000  0.363100  1.0  0.6277
  Cu  Cu10  1  0.863100  0.750000  0.136900  1.0  0.6289
  Cu  Cu11  1  0.250000  0.363100  0.250000  1.0  0.6286
  Cu  Cu12  1  0.750000  0.136900  0.750000  1.0  0.6276
  Cu  Cu13  1  0.363100  0.636900  0.250000  1.0  0.6292
  Cu  Cu14  1  0.136900  0.863100  0.750000  1.0  0.6279
  Cu  Cu15  1  0.750000  0.750000  0.863100  1.0  0.6304
  Cu  Cu16  1  0.250000  0.250000  0.636900  1.0  0.6302
  Cu  Cu17  1  0.363100  0.250000  0.750000  1.0  0.629
  Cu  Cu18  1  0.136900  0.750000  0.250000  1.0  0.6275
  Cu  Cu19  1  0.750000  0.863100  0.636900  1.0  0.6287
  Cu  Cu20  1  0.250000  0.636900  0.863100  1.0  0.628
  Cu  Cu21  1  0.363100  0.750000  0.636900  1.0  0.6289
  Cu  Cu22  1  0.136900  0.250000  0.863100  1.0  0.6277
  Cu  Cu23  1  0.750000  0.636900  0.750000  1.0  0.6276
  Cu  Cu24  1  0.250000  0.863100  0.250000  1.0  0.6286
  H  H25  1  0.618600  0.548600  0.766000  1.0  0.0587
  H  H26  1  0.048600  0.118600  0.066800  1.0  0.0601
  H  H27  1  0.266000  0.066800  0.118600  1.0  0.0598
  H  H28  1  0.566800  0.766000  0.548600  1.0  0.0593
  H  H29  1  0.618600  0.766000  0.066800  1.0  0.0588
  H  H30  1  0.048600  0.066800  0.766000  1.0  0.0591
  H  H31  1  0.266000  0.118600  0.548600  1.0  0.0601
  H  H32  1  0.566800  0.548600  0.118600  1.0  0.0589
  H  H33  1  0.618600  0.066800  0.548600  1.0  0.0594
  H  H34  1  0.048600  0.766000  0.118600  1.0  0.0575
  H  H35  1  0.266000  0.548600  0.066800  1.0  0.056
  H  H36  1  0.566800  0.118600  0.766000  1.0  0.0593
  H  H37  1  0.451400  0.381400  0.734000  1.0  0.0604
  H  H38  1  0.881400  0.951400  0.433200  1.0  0.0585
  H  H39  1  0.933200  0.734000  0.381400  1.0  0.0597
  H  H40  1  0.234000  0.433200  0.951400  1.0  0.0604
  H  H41  1  0.234000  0.381400  0.433200  1.0  0.0606
  H  H42  1  0.933200  0.951400  0.734000  1.0  0.0585
  H  H43  1  0.881400  0.734000  0.951400  1.0  0.0582
  H  H44  1  0.451400  0.433200  0.381400  1.0  0.0589
  H  H45  1  0.933200  0.381400  0.951400  1.0  0.0596
  H  H46  1  0.234000  0.951400  0.381400  1.0  0.0566
  H  H47  1  0.451400  0.734000  0.433200  1.0  0.0573
  H  H48  1  0.881400  0.433200  0.734000  1.0  0.0594
  H  H49  1  0.381400  0.451400  0.234000  1.0  0.058
  H  H50  1  0.951400  0.881400  0.933200  1.0  0.0606
  H  H51  1  0.734000  0.933200  0.881400  1.0  0.0605
  H  H52  1  0.433200  0.234000  0.451400  1.0  0.0594
  H  H53  1  0.381400  0.234000  0.933200  1.0  0.0594
  H  H54  1  0.951400  0.933200  0.234000  1.0  0.0584
  H  H55  1  0.734000  0.881400  0.451400  1.0  0.0597
  H  H56  1  0.433200  0.451400  0.881400  1.0  0.0592
  H  H57  1  0.381400  0.933200  0.451400  1.0  0.0587
  H  H58  1  0.951400  0.234000  0.881400  1.0  0.0573
  H  H59  1  0.734000  0.451400  0.933200  1.0  0.0564
  H  H60  1  0.433200  0.881400  0.234000  1.0  0.0601
  H  H61  1  0.548600  0.618600  0.266000  1.0  0.0603
  H  H62  1  0.118600  0.048600  0.566800  1.0  0.0585
  H  H63  1  0.066800  0.266000  0.618600  1.0  0.059
  H  H64  1  0.766000  0.566800  0.048600  1.0  0.0604
  H  H65  1  0.766000  0.618600  0.566800  1.0  0.0592
  H  H66  1  0.066800  0.048600  0.266000  1.0  0.0591
  H  H67  1  0.118600  0.266000  0.048600  1.0  0.0592
  H  H68  1  0.548600  0.566800  0.618600  1.0  0.0582
  H  H69  1  0.066800  0.618600  0.048600  1.0  0.0597
  H  H70  1  0.766000  0.048600  0.618600  1.0  0.0568
  H  H71  1  0.548600  0.266000  0.566800  1.0  0.0568
  H  H72  1  0.118600  0.566800  0.266000  1.0  0.059
  C  C73  1  0.678900  0.506100  0.758700  1.0  0.2031
  C  C74  1  0.006100  0.178900  0.056300  1.0  0.2013
  C  C75  1  0.258700  0.056300  0.178900  1.0  0.2039
  C  C76  1  0.556300  0.758700  0.506100  1.0  0.2051
  C  C77  1  0.678900  0.758700  0.056300  1.0  0.2036
  C  C78  1  0.006100  0.056300  0.758700  1.0  0.2052
  C  C79  1  0.258700  0.178900  0.506100  1.0  0.2016
  C  C80  1  0.556300  0.506100  0.178900  1.0  0.2044
  C  C81  1  0.678900  0.056300  0.506100  1.0  0.2023
  C  C82  1  0.006100  0.758700  0.178900  1.0  0.2058
  C  C83  1  0.258700  0.506100  0.056300  1.0  0.204
  C  C84  1  0.556300  0.178900  0.758700  1.0  0.2016
  C  C85  1  0.493900  0.321100  0.741300  1.0  0.2025
  C  C86  1  0.821100  0.993900  0.443700  1.0  0.2038
  C  C87  1  0.943700  0.741300  0.321100  1.0  0.2051
  C  C88  1  0.241300  0.443700  0.993900  1.0  0.2049
  C  C89  1  0.241300  0.321100  0.443700  1.0  0.2033
  C  C90  1  0.943700  0.993900  0.741300  1.0  0.2049
  C  C91  1  0.821100  0.741300  0.993900  1.0  0.2034
  C  C92  1  0.493900  0.443700  0.321100  1.0  0.2046
  C  C93  1  0.943700  0.321100  0.993900  1.0  0.2028
  C  C94  1  0.241300  0.993900  0.321100  1.0  0.2054
  C  C95  1  0.493900  0.741300  0.443700  1.0  0.205
  C  C96  1  0.821100  0.443700  0.741300  1.0  0.2021
  C  C97  1  0.321100  0.493900  0.241300  1.0  0.2037
  C  C98  1  0.993900  0.821100  0.943700  1.0  0.2026
  C  C99  1  0.741300  0.943700  0.821100  1.0  0.2049
  C  C100  1  0.443700  0.241300  0.493900  1.0  0.2048
  C  C101  1  0.321100  0.241300  0.943700  1.0  0.2038
  C  C102  1  0.993900  0.943700  0.241300  1.0  0.2047
  C  C103  1  0.741300  0.821100  0.493900  1.0  0.2032
  C  C104  1  0.443700  0.493900  0.821100  1.0  0.205
  C  C105  1  0.321100  0.943700  0.493900  1.0  0.2024
  C  C106  1  0.993900  0.241300  0.821100  1.0  0.2052
  C  C107  1  0.741300  0.493900  0.943700  1.0  0.2052
  C  C108  1  0.443700  0.821100  0.241300  1.0  0.2025
  C  C109  1  0.506100  0.678900  0.258700  1.0  0.2013
  C  C110  1  0.178900  0.006100  0.556300  1.0  0.2028
  C  C111  1  0.056300  0.258700  0.678900  1.0  0.2047
  C  C112  1  0.758700  0.556300  0.006100  1.0  0.2043
  C  C113  1  0.758700  0.678900  0.556300  1.0  0.2014
  C  C114  1  0.056300  0.006100  0.258700  1.0  0.2045
  C  C115  1  0.178900  0.258700  0.006100  1.0  0.2036
  C  C116  1  0.506100  0.556300  0.678900  1.0  0.2045
  C  C117  1  0.056300  0.678900  0.006100  1.0  0.2011
  C  C118  1  0.758700  0.006100  0.678900  1.0  0.2044
  C  C119  1  0.506100  0.258700  0.556300  1.0  0.2057
  C  C120  1  0.178900  0.556300  0.258700  1.0  0.2029
  N  N121  1  0.703430  0.423690  0.755710  1.0  -0.2647
  N  N122  1  0.923690  0.203430  0.117170  1.0  -0.2661
  N  N123  1  0.255710  0.117170  0.203430  1.0  -0.2635
  N  N124  1  0.617170  0.755710  0.423690  1.0  -0.266
  N  N125  1  0.703430  0.755710  0.117170  1.0  -0.2647
  N  N126  1  0.923690  0.117170  0.755710  1.0  -0.2645
  N  N127  1  0.255710  0.203430  0.423690  1.0  -0.2654
  N  N128  1  0.617170  0.423690  0.203430  1.0  -0.2641
  N  N129  1  0.703430  0.117170  0.423690  1.0  -0.2648
  N  N130  1  0.923690  0.755710  0.203430  1.0  -0.2643
  N  N131  1  0.255710  0.423690  0.117170  1.0  -0.2647
  N  N132  1  0.617170  0.203430  0.755710  1.0  -0.2642
  N  N133  1  0.576310  0.296570  0.744290  1.0  -0.2646
  N  N134  1  0.796570  0.076310  0.382830  1.0  -0.2647
  N  N135  1  0.882830  0.744290  0.296570  1.0  -0.265
  N  N136  1  0.244290  0.382830  0.076310  1.0  -0.2623
  N  N137  1  0.244290  0.296570  0.382830  1.0  -0.2648
  N  N138  1  0.882830  0.076310  0.744290  1.0  -0.2649
  N  N139  1  0.796570  0.744290  0.076310  1.0  -0.2624
  N  N140  1  0.576310  0.382830  0.296570  1.0  -0.2615
  N  N141  1  0.882830  0.296570  0.076310  1.0  -0.2645
  N  N142  1  0.244290  0.076310  0.296570  1.0  -0.2648
  N  N143  1  0.576310  0.744290  0.382830  1.0  -0.2647
  N  N144  1  0.796570  0.382830  0.744290  1.0  -0.2639
  N  N145  1  0.296570  0.576310  0.244290  1.0  -0.2641
  N  N146  1  0.076310  0.796570  0.882830  1.0  -0.2652
  N  N147  1  0.744290  0.882830  0.796570  1.0  -0.2628
  N  N148  1  0.382830  0.244290  0.576310  1.0  -0.2643
  N  N149  1  0.296570  0.244290  0.882830  1.0  -0.2631
  N  N150  1  0.076310  0.882830  0.244290  1.0  -0.2621
  N  N151  1  0.744290  0.796570  0.576310  1.0  -0.2658
  N  N152  1  0.382830  0.576310  0.796570  1.0  -0.2652
  N  N153  1  0.296570  0.882830  0.576310  1.0  -0.2634
  N  N154  1  0.076310  0.244290  0.796570  1.0  -0.2642
  N  N155  1  0.744290  0.576310  0.882830  1.0  -0.265
  N  N156  1  0.382830  0.796570  0.244290  1.0  -0.2644
  N  N157  1  0.423690  0.703430  0.255710  1.0  -0.2665
  N  N158  1  0.203430  0.923690  0.617170  1.0  -0.2642
  N  N159  1  0.117170  0.255710  0.703430  1.0  -0.2658
  N  N160  1  0.755710  0.617170  0.923690  1.0  -0.2634
  N  N161  1  0.755710  0.703430  0.617170  1.0  -0.2643
  N  N162  1  0.117170  0.923690  0.255710  1.0  -0.2635
  N  N163  1  0.203430  0.255710  0.923690  1.0  -0.264
  N  N164  1  0.423690  0.617170  0.703430  1.0  -0.2639
  N  N165  1  0.117170  0.703430  0.923690  1.0  -0.265
  N  N166  1  0.755710  0.923690  0.703430  1.0  -0.2645
  N  N167  1  0.423690  0.255710  0.617170  1.0  -0.2647
  N  N168  1  0.203430  0.617170  0.255710  1.0  -0.2652
  N  N169  1  0.750000  0.522400  0.750000  1.0  -0.3588
  N  N170  1  0.022400  0.250000  0.977600  1.0  -0.3578
  N  N171  1  0.250000  0.977600  0.250000  1.0  -0.3595
  N  N172  1  0.477600  0.750000  0.522400  1.0  -0.3605
  N  N173  1  0.750000  0.750000  0.977600  1.0  -0.357
  N  N174  1  0.022400  0.977600  0.750000  1.0  -0.3591
  N  N175  1  0.250000  0.250000  0.522400  1.0  -0.3584
  N  N176  1  0.477600  0.522400  0.250000  1.0  -0.3599
  N  N177  1  0.750000  0.977600  0.522400  1.0  -0.3597
  N  N178  1  0.022400  0.750000  0.250000  1.0  -0.3579
  N  N179  1  0.250000  0.522400  0.977600  1.0  -0.3586
  N  N180  1  0.477600  0.250000  0.750000  1.0  -0.3601
  N  N181  1  0.250000  0.477600  0.250000  1.0  -0.3595
  N  N182  1  0.977600  0.750000  0.022400  1.0  -0.3605
  N  N183  1  0.750000  0.022400  0.750000  1.0  -0.3588
  N  N184  1  0.522400  0.250000  0.477600  1.0  -0.3578
  N  N185  1  0.250000  0.250000  0.022400  1.0  -0.3584
  N  N186  1  0.977600  0.022400  0.250000  1.0  -0.3599
  N  N187  1  0.750000  0.750000  0.477600  1.0  -0.357
  N  N188  1  0.522400  0.477600  0.750000  1.0  -0.3591
  N  N189  1  0.250000  0.022400  0.477600  1.0  -0.3586
  N  N190  1  0.977600  0.250000  0.750000  1.0  -0.3601
  N  N191  1  0.750000  0.477600  0.022400  1.0  -0.3597
  N  N192  1  0.522400  0.750000  0.250000  1.0  -0.3579
  O  O193  1  0.750000  0.250000  0.750000  1.0  -0.7988
  O  O194  1  0.750000  0.250000  0.250000  1.0  -0.7988
  O  O195  1  0.250000  0.250000  0.250000  1.0  -0.7988
  O  O196  1  0.750000  0.750000  0.250000  1.0  -0.7988
  O  O197  1  0.250000  0.750000  0.250000  1.0  -0.7988
  O  O198  1  0.250000  0.750000  0.750000  1.0  -0.7988
  O  O199  1  0.750000  0.750000  0.750000  1.0  -0.7988
  O  O200  1  0.250000  0.250000  0.750000  1.0  -0.7988
