# generated using pymatgen
data_GdH6(C2O3)3
_symmetry_space_group_name_H-M   'P 1'
_cell_length_a   6.02600000
_cell_length_b   7.45000000
_cell_length_c   13.28700000
_cell_angle_alpha   102.74000000
_cell_angle_beta   101.46000000
_cell_angle_gamma   90.72000000
_symmetry_Int_Tables_number   1
_chemical_formula_structural   GdH6(C2O3)3
_chemical_formula_sum   'Gd2 H12 C12 O18'
_cell_volume   569.22521849
_cell_formula_units_Z   2
loop_
 _symmetry_equiv_pos_site_id
 _symmetry_equiv_pos_as_xyz
  1  'x, y, z'
loop_
 _atom_site_type_symbol
 _atom_site_label
 _atom_site_symmetry_multiplicity
 _atom_site_fract_x
 _atom_site_fract_y
 _atom_site_fract_z
 _atom_site_occupancy
 _atom_site_charge
  Gd  Gd1  1  0.500090  0.509940  0.500020  1.0  2.1209
  Gd  Gd2  1  0.464330  0.872690  0.140010  1.0  2.1362
  H  H3  1  0.836200  0.793900  0.863200  1.0  0.0956
  H  H4  1  0.126800  0.727200  0.763500  1.0  0.1003
  H  H5  1  0.996400  0.374100  0.255600  1.0  0.1085
  H  H6  1  0.014400  0.414300  0.090900  1.0  0.1061
  H  H7  1  0.927200  0.091800  0.550200  1.0  0.1191
  H  H8  1  0.961900  0.938900  0.384700  1.0  0.1182
  H  H9  1  0.787400  0.619100  0.951700  1.0  0.3108
  H  H10  1  0.247800  0.469000  0.741900  1.0  0.3641
  H  H11  1  0.284000  0.660000  0.333000  1.0  0.37
  H  H12  1  0.320000  0.465000  0.073000  1.0  0.3756
  H  H13  1  0.590000  0.165000  0.561000  1.0  0.4293
  H  H14  1  0.700000  0.168000  0.317000  1.0  0.37
  C  C15  1  0.708000  0.612000  0.723400  1.0  0.6623
  C  C16  1  0.862500  0.666300  0.831300  1.0  0.0781
  C  C17  1  0.110400  0.659600  0.817300  1.0  0.0815
  C  C18  1  0.268400  0.755400  0.921100  1.0  0.6625
  C  C19  1  0.325100  0.302600  0.249400  1.0  0.6796
  C  C20  1  0.136800  0.439400  0.253200  1.0  0.0615
  C  C21  1  0.100100  0.510300  0.148800  1.0  0.0407
  C  C22  1  0.971100  0.688200  0.156400  1.0  0.6727
  C  C23  1  0.987900  0.317700  0.490500  1.0  0.6809
  C  C24  1  0.850200  0.146000  0.492700  1.0  0.0572
  C  C25  1  0.820100  0.001300  0.386600  1.0  0.0735
  C  C26  1  0.634200  0.859600  0.386900  1.0  0.6694
  O  O27  1  0.559800  0.477400  0.698500  1.0  -0.6693
  O  O28  1  0.731300  0.708900  0.660300  1.0  -0.6613
  O  O29  1  0.832400  0.556300  0.901600  1.0  -0.5395
  O  O30  1  0.156600  0.474100  0.780600  1.0  -0.5555
  O  O31  1  0.437000  0.673900  0.959800  1.0  -0.6703
  O  O32  1  0.225900  0.910000  0.968800  1.0  -0.6616
  O  O33  1  0.300100  0.165600  0.174700  1.0  -0.6659
  O  O34  1  0.493300  0.341500  0.326800  1.0  -0.6708
  O  O35  1  0.196500  0.586300  0.346100  1.0  -0.6029
  O  O36  1  0.315400  0.546400  0.126300  1.0  -0.6037
  O  O37  1  0.077800  0.829900  0.150300  1.0  -0.6554
  O  O38  1  0.766300  0.677100  0.162100  1.0  -0.6921
  O  O39  1  0.889400  0.461300  0.492600  1.0  -0.6078
  O  O40  1  0.194200  0.298800  0.489100  1.0  -0.7059
  O  O41  1  0.632100  0.202600  0.511600  1.0  -0.6373
  O  O42  1  0.763200  0.072700  0.296000  1.0  -0.6047
  O  O43  1  0.461400  0.833900  0.312300  1.0  -0.6523
  O  O44  1  0.663300  0.772200  0.461100  1.0  -0.6882
