# generated using pymatgen
data_ZnP(C3O2)3
_symmetry_space_group_name_H-M   'P 1'
_cell_length_a   11.44100000
_cell_length_b   11.44100000
_cell_length_c   46.83000000
_cell_angle_alpha   90.00000000
_cell_angle_beta   90.00000000
_cell_angle_gamma   120.00000000
_symmetry_Int_Tables_number   1
_chemical_formula_structural   ZnP(C3O2)3
_chemical_formula_sum   'Zn12 P12 C108 O72'
_cell_volume   5308.63371194
_cell_formula_units_Z   12
loop_
 _symmetry_equiv_pos_site_id
 _symmetry_equiv_pos_as_xyz
  1  'x, y, z'
loop_
 _atom_site_type_symbol
 _atom_site_label
 _atom_site_symmetry_multiplicity
 _atom_site_fract_x
 _atom_site_fract_y
 _atom_site_fract_z
 _atom_site_occupancy
 _atom_site_charge
  Zn  Zn1  1  0.981400  0.995600  0.000000  1.0  0.958
  Zn  Zn2  1  0.323200  0.674700  0.912900  1.0  0.9605
  Zn  Zn3  1  0.004400  0.985800  0.333333  1.0  0.9574
  Zn  Zn4  1  0.325300  0.648500  0.246230  1.0  0.9608
  Zn  Zn5  1  0.014200  0.018600  0.666667  1.0  0.9576
  Zn  Zn6  1  0.351500  0.676800  0.579570  1.0  0.9602
  Zn  Zn7  1  0.018600  0.004400  0.500000  1.0  0.9576
  Zn  Zn8  1  0.676800  0.325300  0.412900  1.0  0.9603
  Zn  Zn9  1  0.995600  0.014200  0.833330  1.0  0.9576
  Zn  Zn10  1  0.674700  0.351500  0.746230  1.0  0.9603
  Zn  Zn11  1  0.985800  0.981400  0.166670  1.0  0.9576
  Zn  Zn12  1  0.648500  0.323200  0.079570  1.0  0.9605
  P  P13  1  0.979400  0.994400  0.051900  1.0  1.1059
  P  P14  1  0.319200  0.661500  0.964200  1.0  1.0217
  P  P15  1  0.005600  0.985000  0.385230  1.0  1.1061
  P  P16  1  0.338500  0.657700  0.297530  1.0  1.0216
  P  P17  1  0.015000  0.020600  0.718570  1.0  1.1061
  P  P18  1  0.342300  0.680800  0.630870  1.0  1.0217
  P  P19  1  0.020600  0.005600  0.551900  1.0  1.1061
  P  P20  1  0.680800  0.338500  0.464200  1.0  1.0219
  P  P21  1  0.994400  0.015000  0.885230  1.0  1.1059
  P  P22  1  0.661500  0.342300  0.797530  1.0  1.0219
  P  P23  1  0.985000  0.979400  0.218570  1.0  1.1061
  P  P24  1  0.657700  0.319200  0.130870  1.0  1.0216
  C  C25  1  0.149500  0.080900  0.068300  1.0  -0.1593
  C  C26  1  0.245900  0.040900  0.054400  1.0  -0.0701
  C  C27  1  0.379500  0.109800  0.070300  1.0  0.6505
  C  C28  1  0.899200  0.825900  0.069300  1.0  -0.1692
  C  C29  1  0.768400  0.722100  0.053100  1.0  -0.0491
  C  C30  1  0.704500  0.588300  0.067900  1.0  0.6846
  C  C31  1  0.890600  0.075400  0.068200  1.0  -0.15
  C  C32  1  0.940400  0.216500  0.054800  1.0  -0.057
  C  C33  1  0.861300  0.280000  0.068300  1.0  0.6556
  C  C34  1  0.275600  0.498000  0.980000  1.0  -0.0968
  C  C35  1  0.132800  0.387800  0.974900  1.0  -0.0396
  C  C36  1  0.100100  0.255600  0.988100  1.0  0.6663
  C  C37  1  0.201600  0.698500  0.983000  1.0  -0.1424
  C  C38  1  0.231100  0.845100  0.977500  1.0  -0.0537
  C  C39  1  0.129500  0.873200  0.991200  1.0  0.6299
  C  C40  1  0.475400  0.776500  0.981500  1.0  -0.1361
  C  C41  1  0.586300  0.745800  0.974100  1.0  -0.1006
  C  C42  1  0.721300  0.846500  0.988400  1.0  0.6649
  C  C43  1  0.919100  0.068600  0.401630  1.0  -0.1605
  C  C44  1  0.959100  0.205000  0.387730  1.0  -0.0675
  C  C45  1  0.890200  0.269700  0.403630  1.0  0.6517
  C  C46  1  0.174100  0.073300  0.402630  1.0  -0.1691
  C  C47  1  0.277900  0.046300  0.386430  1.0  -0.0506
  C  C48  1  0.411700  0.116200  0.401230  1.0  0.6827
  C  C49  1  0.924600  0.815200  0.401530  1.0  -0.148
  C  C50  1  0.783500  0.723900  0.388130  1.0  -0.0588
  C  C51  1  0.720000  0.581300  0.401630  1.0  0.658
  C  C52  1  0.502000  0.777600  0.313330  1.0  -0.0971
  C  C53  1  0.612200  0.745000  0.308230  1.0  -0.0418
  C  C54  1  0.744400  0.844500  0.321430  1.0  0.6666
  C  C55  1  0.301500  0.503100  0.316330  1.0  -0.1401
  C  C56  1  0.154900  0.386000  0.310830  1.0  -0.0552
  C  C57  1  0.126800  0.256300  0.324530  1.0  0.6306
  C  C58  1  0.223500  0.698900  0.314830  1.0  -0.1371
  C  C59  1  0.254200  0.840500  0.307430  1.0  -0.0993
  C  C60  1  0.153500  0.874800  0.321730  1.0  0.6621
  C  C61  1  0.931400  0.850500  0.734970  1.0  -0.1593
  C  C62  1  0.795000  0.754100  0.721070  1.0  -0.0691
  C  C63  1  0.730300  0.620500  0.736970  1.0  0.6524
  C  C64  1  0.926700  0.100800  0.735970  1.0  -0.1699
  C  C65  1  0.953700  0.231600  0.719770  1.0  -0.0487
  C  C66  1  0.883800  0.295500  0.734570  1.0  0.6841
  C  C67  1  0.184800  0.109400  0.734870  1.0  -0.1495
  C  C68  1  0.276100  0.059600  0.721470  1.0  -0.0603
  C  C69  1  0.418700  0.138700  0.734970  1.0  0.6565
  C  C70  1  0.222400  0.724400  0.646670  1.0  -0.0998
  C  C71  1  0.255000  0.867200  0.641570  1.0  -0.0411
  C  C72  1  0.155500  0.899900  0.654770  1.0  0.6654
  C  C73  1  0.496900  0.798400  0.649670  1.0  -0.1413
  C  C74  1  0.614000  0.768900  0.644170  1.0  -0.054
  C  C75  1  0.743700  0.870500  0.657870  1.0  0.6315
  C  C76  1  0.301100  0.524600  0.648170  1.0  -0.1344
  C  C77  1  0.159500  0.413700  0.640770  1.0  -0.0996
  C  C78  1  0.125200  0.278700  0.655070  1.0  0.6655
  C  C79  1  0.850500  0.919100  0.568300  1.0  -0.1592
  C  C80  1  0.754100  0.959100  0.554400  1.0  -0.0687
  C  C81  1  0.620500  0.890200  0.570300  1.0  0.6457
  C  C82  1  0.100800  0.174100  0.569300  1.0  -0.1711
  C  C83  1  0.231600  0.277900  0.553100  1.0  -0.0487
  C  C84  1  0.295500  0.411700  0.567900  1.0  0.6848
  C  C85  1  0.109400  0.924600  0.568200  1.0  -0.1494
  C  C86  1  0.059600  0.783500  0.554800  1.0  -0.0583
  C  C87  1  0.138700  0.720000  0.568300  1.0  0.6555
  C  C88  1  0.724400  0.502000  0.480000  1.0  -0.0985
  C  C89  1  0.867200  0.612200  0.474900  1.0  -0.0404
  C  C90  1  0.899900  0.744400  0.488100  1.0  0.6653
  C  C91  1  0.798400  0.301500  0.483000  1.0  -0.1421
  C  C92  1  0.768900  0.154900  0.477500  1.0  -0.0572
  C  C93  1  0.870500  0.126800  0.491200  1.0  0.6316
  C  C94  1  0.524600  0.223500  0.481500  1.0  -0.1359
  C  C95  1  0.413700  0.254200  0.474100  1.0  -0.1006
  C  C96  1  0.278700  0.153500  0.488400  1.0  0.6638
  C  C97  1  0.080900  0.931400  0.901630  1.0  -0.1592
  C  C98  1  0.040900  0.795000  0.887730  1.0  -0.0685
  C  C99  1  0.109800  0.730300  0.903630  1.0  0.6471
  C  C100  1  0.825900  0.926700  0.902630  1.0  -0.1709
  C  C101  1  0.722100  0.953700  0.886430  1.0  -0.05
  C  C102  1  0.588300  0.883800  0.901230  1.0  0.6812
  C  C103  1  0.075400  0.184800  0.901530  1.0  -0.148
  C  C104  1  0.216500  0.276100  0.888130  1.0  -0.0587
  C  C105  1  0.280000  0.418700  0.901630  1.0  0.6564
  C  C106  1  0.498000  0.222400  0.813330  1.0  -0.0965
  C  C107  1  0.387800  0.255000  0.808230  1.0  -0.0425
  C  C108  1  0.255600  0.155500  0.821430  1.0  0.6664
  C  C109  1  0.698500  0.496900  0.816330  1.0  -0.1414
  C  C110  1  0.845100  0.614000  0.810830  1.0  -0.0558
  C  C111  1  0.873200  0.743700  0.824530  1.0  0.6316
  C  C112  1  0.776500  0.301100  0.814830  1.0  -0.1362
  C  C113  1  0.745800  0.159500  0.807430  1.0  -0.1011
  C  C114  1  0.846500  0.125200  0.821730  1.0  0.6647
  C  C115  1  0.068600  0.149500  0.234970  1.0  -0.1574
  C  C116  1  0.205000  0.245900  0.221070  1.0  -0.0682
  C  C117  1  0.269700  0.379500  0.236970  1.0  0.6468
  C  C118  1  0.073300  0.899200  0.235970  1.0  -0.1693
  C  C119  1  0.046300  0.768400  0.219770  1.0  -0.0492
  C  C120  1  0.116200  0.704500  0.234570  1.0  0.6831
  C  C121  1  0.815200  0.890600  0.234870  1.0  -0.1502
  C  C122  1  0.723900  0.940400  0.221470  1.0  -0.0609
  C  C123  1  0.581300  0.861300  0.234970  1.0  0.6546
  C  C124  1  0.777600  0.275600  0.146670  1.0  -0.0982
  C  C125  1  0.745000  0.132800  0.141570  1.0  -0.0411
  C  C126  1  0.844500  0.100100  0.154770  1.0  0.6663
  C  C127  1  0.503100  0.201600  0.149670  1.0  -0.1406
  C  C128  1  0.386000  0.231100  0.144170  1.0  -0.0547
  C  C129  1  0.256300  0.129500  0.157870  1.0  0.6311
  C  C130  1  0.698900  0.475400  0.148170  1.0  -0.1363
  C  C131  1  0.840500  0.586300  0.140770  1.0  -0.1016
  C  C132  1  0.874800  0.721300  0.155070  1.0  0.6653
  O  O133  1  0.469500  0.228200  0.061800  1.0  -0.6378
  O  O134  1  0.401200  0.050400  0.090600  1.0  -0.4778
  O  O135  1  0.728100  0.497200  0.059000  1.0  -0.6493
  O  O136  1  0.632000  0.570800  0.089200  1.0  -0.5073
  O  O137  1  0.734400  0.225800  0.064200  1.0  -0.6117
  O  O138  1  0.925500  0.384900  0.082900  1.0  -0.5137
  O  O139  1  0.988700  0.151300  0.980200  1.0  -0.6039
  O  O140  1  0.173700  0.248000  0.005600  1.0  -0.5133
  O  O141  1  0.130900  0.979000  0.982400  1.0  -0.5914
  O  O142  1  0.041500  0.791300  0.007900  1.0  -0.5332
  O  O143  1  0.826400  0.847100  0.979800  1.0  -0.5819
  O  O144  1  0.725100  0.922700  0.007600  1.0  -0.5494
  O  O145  1  0.771800  0.241300  0.395130  1.0  -0.6385
  O  O146  1  0.949600  0.350800  0.423930  1.0  -0.477
  O  O147  1  0.502800  0.230900  0.392330  1.0  -0.6504
  O  O148  1  0.429200  0.061200  0.422530  1.0  -0.5074
  O  O149  1  0.774200  0.508600  0.397530  1.0  -0.6112
  O  O150  1  0.615100  0.540600  0.416230  1.0  -0.5159
  O  O151  1  0.848700  0.837400  0.313530  1.0  -0.6018
  O  O152  1  0.752000  0.925700  0.338930  1.0  -0.5112
  O  O153  1  0.021000  0.151900  0.315730  1.0  -0.5925
  O  O154  1  0.208700  0.250200  0.341230  1.0  -0.5352
  O  O155  1  0.152900  0.979300  0.313130  1.0  -0.5822
  O  O156  1  0.077300  0.802400  0.340930  1.0  -0.5462
  O  O157  1  0.758700  0.530500  0.728470  1.0  -0.6395
  O  O158  1  0.649200  0.598800  0.757270  1.0  -0.476
  O  O159  1  0.769100  0.271900  0.725670  1.0  -0.6499
  O  O160  1  0.938800  0.368000  0.755870  1.0  -0.506
  O  O161  1  0.491400  0.265600  0.730870  1.0  -0.6118
  O  O162  1  0.459400  0.074500  0.749570  1.0  -0.513
  O  O163  1  0.162600  0.011300  0.646870  1.0  -0.6031
  O  O164  1  0.074300  0.826300  0.672270  1.0  -0.5089
  O  O165  1  0.848100  0.869100  0.649070  1.0  -0.5906
  O  O166  1  0.749800  0.958500  0.674570  1.0  -0.5341
  O  O167  1  0.020700  0.173600  0.646470  1.0  -0.5814
  O  O168  1  0.197600  0.274900  0.674270  1.0  -0.5496
  O  O169  1  0.530500  0.771800  0.561800  1.0  -0.6377
  O  O170  1  0.598800  0.949600  0.590600  1.0  -0.4778
  O  O171  1  0.271900  0.502800  0.559000  1.0  -0.6503
  O  O172  1  0.368000  0.429200  0.589200  1.0  -0.5121
  O  O173  1  0.265600  0.774200  0.564200  1.0  -0.6102
  O  O174  1  0.074500  0.615100  0.582900  1.0  -0.5123
  O  O175  1  0.011300  0.848700  0.480200  1.0  -0.6025
  O  O176  1  0.826300  0.752000  0.505600  1.0  -0.511
  O  O177  1  0.869100  0.021000  0.482400  1.0  -0.5944
  O  O178  1  0.958500  0.208700  0.507900  1.0  -0.5324
  O  O179  1  0.173600  0.152900  0.479800  1.0  -0.5804
  O  O180  1  0.274900  0.077300  0.507600  1.0  -0.5496
  O  O181  1  0.228200  0.758700  0.895130  1.0  -0.6383
  O  O182  1  0.050400  0.649200  0.923930  1.0  -0.4765
  O  O183  1  0.497200  0.769100  0.892330  1.0  -0.6495
  O  O184  1  0.570800  0.938800  0.922530  1.0  -0.5073
  O  O185  1  0.225800  0.491400  0.897530  1.0  -0.6111
  O  O186  1  0.384900  0.459400  0.916230  1.0  -0.5165
  O  O187  1  0.151300  0.162600  0.813530  1.0  -0.6033
  O  O188  1  0.248000  0.074300  0.838930  1.0  -0.5114
  O  O189  1  0.979000  0.848100  0.815730  1.0  -0.5918
  O  O190  1  0.791300  0.749800  0.841230  1.0  -0.5349
  O  O191  1  0.847100  0.020700  0.813130  1.0  -0.5843
  O  O192  1  0.922700  0.197600  0.840930  1.0  -0.5463
  O  O193  1  0.241300  0.469500  0.228470  1.0  -0.6393
  O  O194  1  0.350800  0.401200  0.257270  1.0  -0.4786
  O  O195  1  0.230900  0.728100  0.225670  1.0  -0.65
  O  O196  1  0.061200  0.632000  0.255870  1.0  -0.5058
  O  O197  1  0.508600  0.734400  0.230870  1.0  -0.6115
  O  O198  1  0.540600  0.925500  0.249570  1.0  -0.5149
  O  O199  1  0.837400  0.988700  0.146870  1.0  -0.6045
  O  O200  1  0.925700  0.173700  0.172270  1.0  -0.5093
  O  O201  1  0.151900  0.130900  0.149070  1.0  -0.5898
  O  O202  1  0.250200  0.041500  0.174570  1.0  -0.5335
  O  O203  1  0.979300  0.826400  0.146470  1.0  -0.5815
  O  O204  1  0.802400  0.725100  0.174270  1.0  -0.5474
