# generated using pymatgen
data_Zn2H11C19N3O8
_symmetry_space_group_name_H-M   'P 1'
_cell_length_a   14.04000000
_cell_length_b   14.34500000
_cell_length_c   27.75600000
_cell_angle_alpha   90.00000000
_cell_angle_beta   90.00000000
_cell_angle_gamma   90.00000000
_symmetry_Int_Tables_number   1
_chemical_formula_structural   Zn2H11C19N3O8
_chemical_formula_sum   'Zn16 H88 C152 N24 O64'
_cell_volume   5590.16387280
_cell_formula_units_Z   8
loop_
 _symmetry_equiv_pos_site_id
 _symmetry_equiv_pos_as_xyz
  1  'x, y, z'
loop_
 _atom_site_type_symbol
 _atom_site_label
 _atom_site_symmetry_multiplicity
 _atom_site_fract_x
 _atom_site_fract_y
 _atom_site_fract_z
 _atom_site_occupancy
 _atom_site_charge
  Zn  Zn1  1  0.713720  0.591160  0.402210  1.0  0.9664
  Zn  Zn2  1  0.712610  0.989230  0.652790  1.0  0.8578
  Zn  Zn3  1  0.786280  0.408840  0.902210  1.0  0.9664
  Zn  Zn4  1  0.787390  0.010770  0.152790  1.0  0.8583
  Zn  Zn5  1  0.286280  0.091160  0.097790  1.0  0.9666
  Zn  Zn6  1  0.287390  0.489230  0.847210  1.0  0.8571
  Zn  Zn7  1  0.213720  0.908840  0.597790  1.0  0.9665
  Zn  Zn8  1  0.212610  0.510770  0.347210  1.0  0.8574
  Zn  Zn9  1  0.286280  0.408840  0.597790  1.0  0.9666
  Zn  Zn10  1  0.287390  0.010770  0.347210  1.0  0.8574
  Zn  Zn11  1  0.213720  0.591160  0.097790  1.0  0.9665
  Zn  Zn12  1  0.212610  0.989230  0.847210  1.0  0.8571
  Zn  Zn13  1  0.713720  0.908840  0.902210  1.0  0.9664
  Zn  Zn14  1  0.712610  0.510770  0.152790  1.0  0.8582
  Zn  Zn15  1  0.786280  0.091160  0.402210  1.0  0.9663
  Zn  Zn16  1  0.787390  0.489230  0.652790  1.0  0.8579
  H  H17  1  0.696900  0.975400  0.543400  1.0  0.0906
  H  H18  1  0.699800  0.860200  0.485200  1.0  0.1072
  H  H19  1  0.704100  0.786300  0.646300  1.0  0.0938
  H  H20  1  0.268700  0.522900  0.242500  1.0  0.0904
  H  H21  1  0.402700  0.541200  0.196600  1.0  0.1138
  H  H22  1  0.420300  0.551400  0.362500  1.0  0.097
  H  H23  1  0.762800  0.401700  0.363000  1.0  0.0895
  H  H24  1  0.881800  0.294800  0.363300  1.0  0.1229
  H  H25  1  0.027600  0.332100  0.400000  1.0  0.1124
  H  H26  1  0.042200  0.474700  0.440600  1.0  0.1252
  H  H27  1  0.915200  0.577600  0.438300  1.0  0.08
  H  H28  1  0.803100  0.024600  0.043400  1.0  0.0915
  H  H29  1  0.800200  0.139800  0.985200  1.0  0.1075
  H  H30  1  0.795900  0.213700  0.146300  1.0  0.0938
  H  H31  1  0.231300  0.477100  0.742500  1.0  0.0909
  H  H32  1  0.097300  0.458800  0.696600  1.0  0.1142
  H  H33  1  0.079700  0.448600  0.862500  1.0  0.0974
  H  H34  1  0.737200  0.598300  0.863000  1.0  0.0898
  H  H35  1  0.618200  0.705200  0.863300  1.0  0.1228
  H  H36  1  0.472400  0.667900  0.900000  1.0  0.1125
  H  H37  1  0.457800  0.525300  0.940600  1.0  0.1246
  H  H38  1  0.584800  0.422400  0.938300  1.0  0.0797
  H  H39  1  0.303100  0.475400  0.956600  1.0  0.0904
  H  H40  1  0.300200  0.360200  0.014800  1.0  0.1076
  H  H41  1  0.295900  0.286300  0.853700  1.0  0.0938
  H  H42  1  0.731300  0.022900  0.257500  1.0  0.0908
  H  H43  1  0.597300  0.041200  0.303400  1.0  0.1133
  H  H44  1  0.579700  0.051400  0.137500  1.0  0.097
  H  H45  1  0.237200  0.901700  0.137000  1.0  0.0902
  H  H46  1  0.118200  0.794800  0.136700  1.0  0.1228
  H  H47  1  0.972400  0.832100  0.100000  1.0  0.1122
  H  H48  1  0.957800  0.974700  0.059400  1.0  0.1236
  H  H49  1  0.084800  0.077600  0.061700  1.0  0.0798
  H  H50  1  0.196900  0.524600  0.456600  1.0  0.091
  H  H51  1  0.199800  0.639800  0.514800  1.0  0.1071
  H  H52  1  0.204100  0.713700  0.353700  1.0  0.0937
  H  H53  1  0.768700  0.977100  0.757500  1.0  0.0909
  H  H54  1  0.902700  0.958800  0.803400  1.0  0.1136
  H  H55  1  0.920300  0.948600  0.637500  1.0  0.0972
  H  H56  1  0.262800  0.098300  0.637000  1.0  0.0901
  H  H57  1  0.381800  0.205200  0.636700  1.0  0.1224
  H  H58  1  0.527600  0.167900  0.600000  1.0  0.1121
  H  H59  1  0.542200  0.025300  0.559400  1.0  0.1243
  H  H60  1  0.415200  0.922400  0.561700  1.0  0.0793
  H  H61  1  0.303100  0.024600  0.456600  1.0  0.0911
  H  H62  1  0.300200  0.139800  0.514800  1.0  0.1073
  H  H63  1  0.295900  0.213700  0.353700  1.0  0.0938
  H  H64  1  0.731300  0.477100  0.757500  1.0  0.0908
  H  H65  1  0.597300  0.458800  0.803400  1.0  0.1125
  H  H66  1  0.579700  0.448600  0.637500  1.0  0.0969
  H  H67  1  0.237200  0.598300  0.637000  1.0  0.0901
  H  H68  1  0.118200  0.705200  0.636700  1.0  0.1227
  H  H69  1  0.972400  0.667900  0.600000  1.0  0.1123
  H  H70  1  0.957800  0.525300  0.559400  1.0  0.1246
  H  H71  1  0.084800  0.422400  0.561700  1.0  0.0794
  H  H72  1  0.196900  0.975400  0.956600  1.0  0.09
  H  H73  1  0.199800  0.860200  0.014800  1.0  0.1072
  H  H74  1  0.204100  0.786300  0.853700  1.0  0.0937
  H  H75  1  0.768700  0.522900  0.257500  1.0  0.0906
  H  H76  1  0.902700  0.541200  0.303400  1.0  0.1116
  H  H77  1  0.920300  0.551400  0.137500  1.0  0.0972
  H  H78  1  0.262800  0.401700  0.137000  1.0  0.0902
  H  H79  1  0.381800  0.294800  0.136700  1.0  0.1229
  H  H80  1  0.527600  0.332100  0.100000  1.0  0.1122
  H  H81  1  0.542200  0.474700  0.059400  1.0  0.1252
  H  H82  1  0.415200  0.577600  0.061700  1.0  0.0798
  H  H83  1  0.696900  0.524600  0.043400  1.0  0.0911
  H  H84  1  0.699800  0.639800  0.985200  1.0  0.1076
  H  H85  1  0.704100  0.713700  0.146300  1.0  0.0937
  H  H86  1  0.268700  0.977100  0.742500  1.0  0.0907
  H  H87  1  0.402700  0.958800  0.696600  1.0  0.1127
  H  H88  1  0.420300  0.948600  0.862500  1.0  0.0973
  H  H89  1  0.762800  0.098300  0.863000  1.0  0.0897
  H  H90  1  0.881800  0.205200  0.863300  1.0  0.1226
  H  H91  1  0.027600  0.167900  0.900000  1.0  0.1123
  H  H92  1  0.042200  0.025300  0.940600  1.0  0.1243
  H  H93  1  0.915200  0.922400  0.938300  1.0  0.0797
  H  H94  1  0.803100  0.475400  0.543400  1.0  0.0913
  H  H95  1  0.800200  0.360200  0.485200  1.0  0.1074
  H  H96  1  0.795900  0.286300  0.646300  1.0  0.0939
  H  H97  1  0.231300  0.022900  0.242500  1.0  0.0903
  H  H98  1  0.097300  0.041200  0.196600  1.0  0.1126
  H  H99  1  0.079700  0.051400  0.362500  1.0  0.0971
  H  H100  1  0.737200  0.901700  0.363000  1.0  0.0896
  H  H101  1  0.618200  0.794800  0.363300  1.0  0.1229
  H  H102  1  0.472400  0.832100  0.400000  1.0  0.1123
  H  H103  1  0.457800  0.974700  0.440600  1.0  0.1234
  H  H104  1  0.584800  0.077600  0.438300  1.0  0.0799
  C  C105  1  0.701200  0.912000  0.553000  1.0  0.1518
  C  C106  1  0.704800  0.843900  0.518300  1.0  -0.159
  C  C107  1  0.715900  0.750300  0.531600  1.0  0.0065
  C  C108  1  0.713600  0.730000  0.580200  1.0  -0.1256
  C  C109  1  0.706700  0.801400  0.613000  1.0  0.1619
  C  C110  1  0.736100  0.675800  0.494500  1.0  0.6538
  C  C111  1  0.718900  0.630900  0.598800  1.0  0.6564
  C  C112  1  0.328200  0.532400  0.258100  1.0  0.1852
  C  C113  1  0.407400  0.542800  0.230700  1.0  -0.183
  C  C114  1  0.496200  0.555800  0.252700  1.0  0.0579
  C  C115  1  0.498800  0.560200  0.302600  1.0  -0.1601
  C  C116  1  0.417200  0.549200  0.328400  1.0  0.1675
  C  C117  1  0.583000  0.573300  0.221100  1.0  0.6333
  C  C118  1  0.591300  0.567400  0.329700  1.0  0.6776
  C  C119  1  0.820800  0.416800  0.378800  1.0  0.1689
  C  C120  1  0.890600  0.353500  0.378500  1.0  -0.1459
  C  C121  1  0.976000  0.374900  0.400800  1.0  0.0699
  C  C122  1  0.985200  0.458800  0.424000  1.0  -0.1648
  C  C123  1  0.909200  0.519200  0.422500  1.0  0.1837
  C  C124  1  0.798800  0.088000  0.053000  1.0  0.1518
  C  C125  1  0.795200  0.156100  0.018300  1.0  -0.1594
  C  C126  1  0.784100  0.249700  0.031600  1.0  0.0071
  C  C127  1  0.786400  0.270000  0.080200  1.0  -0.1251
  C  C128  1  0.793300  0.198600  0.113000  1.0  0.161
  C  C129  1  0.763900  0.324200  0.994500  1.0  0.6547
  C  C130  1  0.781100  0.369100  0.098800  1.0  0.6556
  C  C131  1  0.171800  0.467600  0.758100  1.0  0.185
  C  C132  1  0.092600  0.457200  0.730700  1.0  -0.1831
  C  C133  1  0.003800  0.444200  0.752700  1.0  0.0571
  C  C134  1  0.001200  0.439800  0.802600  1.0  -0.1604
  C  C135  1  0.082800  0.450800  0.828400  1.0  0.1678
  C  C136  1  0.917000  0.426700  0.721100  1.0  0.6321
  C  C137  1  0.908700  0.432600  0.829700  1.0  0.6755
  C  C138  1  0.679200  0.583200  0.878800  1.0  0.1692
  C  C139  1  0.609400  0.646500  0.878500  1.0  -0.1454
  C  C140  1  0.524000  0.625100  0.900800  1.0  0.0714
  C  C141  1  0.514800  0.541200  0.924000  1.0  -0.1679
  C  C142  1  0.590800  0.480800  0.922500  1.0  0.1842
  C  C143  1  0.298800  0.412000  0.947000  1.0  0.1525
  C  C144  1  0.295200  0.343900  0.981700  1.0  -0.1591
  C  C145  1  0.284100  0.250300  0.968400  1.0  0.0082
  C  C146  1  0.286400  0.230000  0.919800  1.0  -0.126
  C  C147  1  0.293300  0.301400  0.887000  1.0  0.162
  C  C148  1  0.263900  0.175800  0.005500  1.0  0.6526
  C  C149  1  0.281100  0.130900  0.901200  1.0  0.6546
  C  C150  1  0.671800  0.032400  0.241900  1.0  0.185
  C  C151  1  0.592600  0.042800  0.269300  1.0  -0.1839
  C  C152  1  0.503800  0.055800  0.247300  1.0  0.0567
  C  C153  1  0.501200  0.060200  0.197400  1.0  -0.1613
  C  C154  1  0.582800  0.049200  0.171600  1.0  0.1682
  C  C155  1  0.417000  0.073300  0.278900  1.0  0.6314
  C  C156  1  0.408700  0.067400  0.170300  1.0  0.6759
  C  C157  1  0.179200  0.916800  0.121200  1.0  0.1696
  C  C158  1  0.109400  0.853500  0.121500  1.0  -0.1464
  C  C159  1  0.024000  0.874900  0.099200  1.0  0.0703
  C  C160  1  0.014800  0.958800  0.076000  1.0  -0.1685
  C  C161  1  0.090800  0.019200  0.077500  1.0  0.1834
  C  C162  1  0.201200  0.588000  0.447000  1.0  0.1516
  C  C163  1  0.204800  0.656100  0.481700  1.0  -0.1594
  C  C164  1  0.215900  0.749700  0.468400  1.0  0.008
  C  C165  1  0.213600  0.770000  0.419800  1.0  -0.1252
  C  C166  1  0.206700  0.698600  0.387000  1.0  0.1618
  C  C167  1  0.236100  0.824200  0.505500  1.0  0.653
  C  C168  1  0.218900  0.869100  0.401200  1.0  0.6557
  C  C169  1  0.828200  0.967600  0.741900  1.0  0.1856
  C  C170  1  0.907400  0.957200  0.769300  1.0  -0.1838
  C  C171  1  0.996200  0.944200  0.747300  1.0  0.0586
  C  C172  1  0.998800  0.939800  0.697400  1.0  -0.1602
  C  C173  1  0.917200  0.950800  0.671600  1.0  0.1677
  C  C174  1  0.083000  0.926700  0.778900  1.0  0.6333
  C  C175  1  0.091300  0.932600  0.670300  1.0  0.6772
  C  C176  1  0.320800  0.083200  0.621200  1.0  0.1692
  C  C177  1  0.390600  0.146500  0.621500  1.0  -0.1459
  C  C178  1  0.476000  0.125100  0.599200  1.0  0.0723
  C  C179  1  0.485200  0.041200  0.576000  1.0  -0.1648
  C  C180  1  0.409200  0.980800  0.577500  1.0  0.1845
  C  C181  1  0.298800  0.088000  0.447000  1.0  0.1519
  C  C182  1  0.295200  0.156100  0.481700  1.0  -0.1592
  C  C183  1  0.284100  0.249700  0.468400  1.0  0.0079
  C  C184  1  0.286400  0.270000  0.419800  1.0  -0.1255
  C  C185  1  0.293300  0.198600  0.387000  1.0  0.1617
  C  C186  1  0.263900  0.324200  0.505500  1.0  0.653
  C  C187  1  0.281100  0.369100  0.401200  1.0  0.6548
  C  C188  1  0.671800  0.467600  0.741900  1.0  0.1852
  C  C189  1  0.592600  0.457200  0.769300  1.0  -0.1837
  C  C190  1  0.503800  0.444200  0.747300  1.0  0.0572
  C  C191  1  0.501200  0.439800  0.697400  1.0  -0.161
  C  C192  1  0.582800  0.450800  0.671600  1.0  0.1683
  C  C193  1  0.417000  0.426700  0.778900  1.0  0.6321
  C  C194  1  0.408700  0.432600  0.670300  1.0  0.6759
  C  C195  1  0.179200  0.583200  0.621200  1.0  0.1689
  C  C196  1  0.109400  0.646500  0.621500  1.0  -0.1457
  C  C197  1  0.024000  0.625100  0.599200  1.0  0.0716
  C  C198  1  0.014800  0.541200  0.576000  1.0  -0.1684
  C  C199  1  0.090800  0.480800  0.577500  1.0  0.184
  C  C200  1  0.201200  0.912000  0.947000  1.0  0.152
  C  C201  1  0.204800  0.843900  0.981700  1.0  -0.1592
  C  C202  1  0.215900  0.750300  0.968400  1.0  0.0083
  C  C203  1  0.213600  0.730000  0.919800  1.0  -0.1259
  C  C204  1  0.206700  0.801400  0.887000  1.0  0.1621
  C  C205  1  0.236100  0.675800  0.005500  1.0  0.6526
  C  C206  1  0.218900  0.630900  0.901200  1.0  0.6556
  C  C207  1  0.828200  0.532400  0.241900  1.0  0.1855
  C  C208  1  0.907400  0.542800  0.269300  1.0  -0.1841
  C  C209  1  0.996200  0.555800  0.247300  1.0  0.058
  C  C210  1  0.998800  0.560200  0.197400  1.0  -0.1606
  C  C211  1  0.917200  0.549200  0.171600  1.0  0.1677
  C  C212  1  0.083000  0.573300  0.278900  1.0  0.6327
  C  C213  1  0.091300  0.567400  0.170300  1.0  0.6771
  C  C214  1  0.320800  0.416800  0.121200  1.0  0.169
  C  C215  1  0.390600  0.353500  0.121500  1.0  -0.146
  C  C216  1  0.476000  0.374900  0.099200  1.0  0.0697
  C  C217  1  0.485200  0.458800  0.076000  1.0  -0.1647
  C  C218  1  0.409200  0.519200  0.077500  1.0  0.1838
  C  C219  1  0.701200  0.588000  0.053000  1.0  0.1516
  C  C220  1  0.704800  0.656100  0.018300  1.0  -0.1588
  C  C221  1  0.715900  0.749700  0.031600  1.0  0.0071
  C  C222  1  0.713600  0.770000  0.080200  1.0  -0.1247
  C  C223  1  0.706700  0.698600  0.113000  1.0  0.1612
  C  C224  1  0.736100  0.824200  0.994500  1.0  0.6546
  C  C225  1  0.718900  0.869100  0.098800  1.0  0.6563
  C  C226  1  0.328200  0.967600  0.758100  1.0  0.1854
  C  C227  1  0.407400  0.957200  0.730700  1.0  -0.1832
  C  C228  1  0.496200  0.944200  0.752700  1.0  0.0586
  C  C229  1  0.498800  0.939800  0.802600  1.0  -0.1597
  C  C230  1  0.417200  0.950800  0.828400  1.0  0.1676
  C  C231  1  0.583000  0.926700  0.721100  1.0  0.6332
  C  C232  1  0.591300  0.932600  0.829700  1.0  0.6774
  C  C233  1  0.820800  0.083200  0.878800  1.0  0.1691
  C  C234  1  0.890600  0.146500  0.878500  1.0  -0.1452
  C  C235  1  0.976000  0.125100  0.900800  1.0  0.0722
  C  C236  1  0.985200  0.041200  0.924000  1.0  -0.1646
  C  C237  1  0.909200  0.980800  0.922500  1.0  0.1847
  C  C238  1  0.798800  0.412000  0.553000  1.0  0.1521
  C  C239  1  0.795200  0.343900  0.518300  1.0  -0.1597
  C  C240  1  0.784100  0.250300  0.531600  1.0  0.0065
  C  C241  1  0.786400  0.230000  0.580200  1.0  -0.1257
  C  C242  1  0.793300  0.301400  0.613000  1.0  0.1616
  C  C243  1  0.763900  0.175800  0.494500  1.0  0.654
  C  C244  1  0.781100  0.130900  0.598800  1.0  0.6555
  C  C245  1  0.171800  0.032400  0.258100  1.0  0.1848
  C  C246  1  0.092600  0.042800  0.230700  1.0  -0.1828
  C  C247  1  0.003800  0.055800  0.252700  1.0  0.0565
  C  C248  1  0.001200  0.060200  0.302600  1.0  -0.1607
  C  C249  1  0.082800  0.049200  0.328400  1.0  0.1678
  C  C250  1  0.917000  0.073300  0.221100  1.0  0.6321
  C  C251  1  0.908700  0.067400  0.329700  1.0  0.6757
  C  C252  1  0.679200  0.916800  0.378800  1.0  0.1699
  C  C253  1  0.609400  0.853500  0.378500  1.0  -0.1462
  C  C254  1  0.524000  0.874900  0.400800  1.0  0.0704
  C  C255  1  0.514800  0.958800  0.424000  1.0  -0.1683
  C  C256  1  0.590800  0.019200  0.422500  1.0  0.1833
  N  N257  1  0.703400  0.891000  0.600200  1.0  -0.3424
  N  N258  1  0.330500  0.535100  0.306700  1.0  -0.3502
  N  N259  1  0.828000  0.500500  0.400200  1.0  -0.4081
  N  N260  1  0.796600  0.109000  0.100200  1.0  -0.3438
  N  N261  1  0.169500  0.464900  0.806700  1.0  -0.3503
  N  N262  1  0.672000  0.499500  0.900200  1.0  -0.4084
  N  N263  1  0.296600  0.391000  0.899800  1.0  -0.3433
  N  N264  1  0.669500  0.035100  0.193300  1.0  -0.35
  N  N265  1  0.172000  0.000500  0.099800  1.0  -0.4099
  N  N266  1  0.203400  0.609000  0.399800  1.0  -0.3437
  N  N267  1  0.830500  0.964900  0.693300  1.0  -0.35
  N  N268  1  0.328000  0.999500  0.599800  1.0  -0.4077
  N  N269  1  0.296600  0.109000  0.399800  1.0  -0.3442
  N  N270  1  0.669500  0.464900  0.693300  1.0  -0.35
  N  N271  1  0.172000  0.499500  0.599800  1.0  -0.4083
  N  N272  1  0.203400  0.891000  0.899800  1.0  -0.3427
  N  N273  1  0.830500  0.535100  0.193300  1.0  -0.3498
  N  N274  1  0.328000  0.500500  0.099800  1.0  -0.4078
  N  N275  1  0.703400  0.609000  0.100200  1.0  -0.3432
  N  N276  1  0.330500  0.964900  0.806700  1.0  -0.3503
  N  N277  1  0.828000  0.999500  0.900200  1.0  -0.4079
  N  N278  1  0.796600  0.391000  0.600200  1.0  -0.343
  N  N279  1  0.169500  0.035100  0.306700  1.0  -0.3503
  N  N280  1  0.672000  0.000500  0.400200  1.0  -0.4102
  O  O281  1  0.690000  0.680900  0.455100  1.0  -0.6042
  O  O282  1  0.800600  0.619500  0.504800  1.0  -0.5675
  O  O283  1  0.786000  0.616100  0.629000  1.0  -0.5901
  O  O284  1  0.658800  0.573800  0.585600  1.0  -0.5866
  O  O285  1  0.600700  0.503300  0.193200  1.0  -0.6071
  O  O286  1  0.629300  0.644000  0.225300  1.0  -0.557
  O  O287  1  0.658300  0.515800  0.316300  1.0  -0.5869
  O  O288  1  0.595800  0.621000  0.364900  1.0  -0.5766
  O  O289  1  0.810000  0.319100  0.955100  1.0  -0.6049
  O  O290  1  0.699400  0.380500  0.004800  1.0  -0.5674
  O  O291  1  0.714000  0.383900  0.129000  1.0  -0.5897
  O  O292  1  0.841200  0.426200  0.085600  1.0  -0.5858
  O  O293  1  0.899300  0.496700  0.693200  1.0  -0.6067
  O  O294  1  0.870700  0.356000  0.725300  1.0  -0.5573
  O  O295  1  0.841700  0.484200  0.816300  1.0  -0.5864
  O  O296  1  0.904200  0.379000  0.864900  1.0  -0.5767
  O  O297  1  0.310000  0.180900  0.044900  1.0  -0.6055
  O  O298  1  0.199400  0.119500  0.995200  1.0  -0.5678
  O  O299  1  0.214000  0.116100  0.871000  1.0  -0.5904
  O  O300  1  0.341200  0.073800  0.914400  1.0  -0.5862
  O  O301  1  0.399300  0.003300  0.306800  1.0  -0.6078
  O  O302  1  0.370700  0.144000  0.274700  1.0  -0.5569
  O  O303  1  0.341700  0.015800  0.183700  1.0  -0.5873
  O  O304  1  0.404200  0.121000  0.135100  1.0  -0.577
  O  O305  1  0.190000  0.819100  0.544900  1.0  -0.6053
  O  O306  1  0.300600  0.880500  0.495200  1.0  -0.5672
  O  O307  1  0.286000  0.883900  0.371000  1.0  -0.5898
  O  O308  1  0.158800  0.926200  0.414400  1.0  -0.5869
  O  O309  1  0.100700  0.996700  0.806800  1.0  -0.6065
  O  O310  1  0.129300  0.856000  0.774700  1.0  -0.5576
  O  O311  1  0.158300  0.984200  0.683700  1.0  -0.5873
  O  O312  1  0.095800  0.879000  0.635100  1.0  -0.5767
  O  O313  1  0.310000  0.319100  0.544900  1.0  -0.6057
  O  O314  1  0.199400  0.380500  0.495200  1.0  -0.5674
  O  O315  1  0.214000  0.383900  0.371000  1.0  -0.5904
  O  O316  1  0.341200  0.426200  0.414400  1.0  -0.5872
  O  O317  1  0.399300  0.496700  0.806800  1.0  -0.6079
  O  O318  1  0.370700  0.356000  0.774700  1.0  -0.5576
  O  O319  1  0.341700  0.484200  0.683700  1.0  -0.5869
  O  O320  1  0.404200  0.379000  0.635100  1.0  -0.5765
  O  O321  1  0.190000  0.680900  0.044900  1.0  -0.605
  O  O322  1  0.300600  0.619500  0.995200  1.0  -0.5679
  O  O323  1  0.286000  0.616100  0.871000  1.0  -0.5904
  O  O324  1  0.158800  0.573800  0.914400  1.0  -0.5872
  O  O325  1  0.100700  0.503300  0.306800  1.0  -0.6072
  O  O326  1  0.129300  0.644000  0.274700  1.0  -0.5571
  O  O327  1  0.158300  0.515800  0.183700  1.0  -0.5874
  O  O328  1  0.095800  0.621000  0.135100  1.0  -0.5771
  O  O329  1  0.690000  0.819100  0.955100  1.0  -0.6045
  O  O330  1  0.800600  0.880500  0.004800  1.0  -0.567
  O  O331  1  0.786000  0.883900  0.129000  1.0  -0.5895
  O  O332  1  0.658800  0.926200  0.085600  1.0  -0.5861
  O  O333  1  0.600700  0.996700  0.693200  1.0  -0.6074
  O  O334  1  0.629300  0.856000  0.725300  1.0  -0.5574
  O  O335  1  0.658300  0.984200  0.816300  1.0  -0.5868
  O  O336  1  0.595800  0.879000  0.864900  1.0  -0.5769
  O  O337  1  0.810000  0.180900  0.455100  1.0  -0.6047
  O  O338  1  0.699400  0.119500  0.504800  1.0  -0.5676
  O  O339  1  0.714000  0.116100  0.629000  1.0  -0.5899
  O  O340  1  0.841200  0.073800  0.585600  1.0  -0.5852
  O  O341  1  0.899300  0.003300  0.193200  1.0  -0.6076
  O  O342  1  0.870700  0.144000  0.225300  1.0  -0.557
  O  O343  1  0.841700  0.015800  0.316300  1.0  -0.5867
  O  O344  1  0.904200  0.121000  0.364900  1.0  -0.5764
