# generated using pymatgen
data_CuH3C7NO4
_symmetry_space_group_name_H-M   'P 1'
_cell_length_a   7.33610000
_cell_length_b   10.74960000
_cell_length_c   14.02800000
_cell_angle_alpha   90.00000000
_cell_angle_beta   90.77800000
_cell_angle_gamma   90.00000000
_symmetry_Int_Tables_number   1
_chemical_formula_structural   CuH3C7NO4
_chemical_formula_sum   'Cu4 H12 C28 N4 O16'
_cell_volume   1106.14806812
_cell_formula_units_Z   4
loop_
 _symmetry_equiv_pos_site_id
 _symmetry_equiv_pos_as_xyz
  1  'x, y, z'
loop_
 _atom_site_type_symbol
 _atom_site_label
 _atom_site_symmetry_multiplicity
 _atom_site_fract_x
 _atom_site_fract_y
 _atom_site_fract_z
 _atom_site_occupancy
 _atom_site_charge
  Cu  Cu1  1  0.911070  0.907900  0.880130  1.0  0.9044
  Cu  Cu2  1  0.088930  0.407900  0.619870  1.0  0.9038
  Cu  Cu3  1  0.088930  0.092100  0.119870  1.0  0.9045
  Cu  Cu4  1  0.911070  0.592100  0.380130  1.0  0.9041
  H  H5  1  0.368900  0.753000  0.811200  1.0  0.1222
  H  H6  1  0.465600  0.454200  0.581300  1.0  0.0944
  H  H7  1  0.129900  0.634200  0.750400  1.0  0.1016
  H  H8  1  0.631100  0.253000  0.688800  1.0  0.1222
  H  H9  1  0.534400  0.954200  0.918700  1.0  0.0947
  H  H10  1  0.870100  0.134200  0.749600  1.0  0.1017
  H  H11  1  0.631100  0.247000  0.188800  1.0  0.1222
  H  H12  1  0.534400  0.545800  0.418700  1.0  0.0938
  H  H13  1  0.870100  0.365800  0.249600  1.0  0.102
  H  H14  1  0.368900  0.747000  0.311200  1.0  0.1223
  H  H15  1  0.465600  0.045800  0.081300  1.0  0.0941
  H  H16  1  0.129900  0.865800  0.250400  1.0  0.1018
  C  C17  1  0.724200  0.753800  0.766700  1.0  0.624
  C  C18  1  0.567900  0.674000  0.731000  1.0  0.0213
  C  C19  1  0.593700  0.586500  0.659400  1.0  -0.1175
  C  C20  1  0.391800  0.691700  0.764000  1.0  -0.1436
  C  C21  1  0.446700  0.515900  0.628600  1.0  0.1461
  C  C22  1  0.774600  0.559100  0.613600  1.0  0.7037
  C  C23  1  0.250000  0.620000  0.728200  1.0  0.1579
  C  C24  1  0.275800  0.253800  0.733300  1.0  0.6226
  C  C25  1  0.432100  0.174000  0.769000  1.0  0.0228
  C  C26  1  0.406300  0.086500  0.840600  1.0  -0.1176
  C  C27  1  0.608200  0.191700  0.736000  1.0  -0.1432
  C  C28  1  0.553300  0.015900  0.871400  1.0  0.1472
  C  C29  1  0.225400  0.059100  0.886400  1.0  0.7054
  C  C30  1  0.750000  0.120000  0.771800  1.0  0.1587
  C  C31  1  0.275800  0.246200  0.233300  1.0  0.6224
  C  C32  1  0.432100  0.326000  0.269000  1.0  0.0226
  C  C33  1  0.406300  0.413500  0.340600  1.0  -0.1189
  C  C34  1  0.608200  0.308300  0.236000  1.0  -0.1432
  C  C35  1  0.553300  0.484100  0.371400  1.0  0.1473
  C  C36  1  0.225400  0.440900  0.386400  1.0  0.7061
  C  C37  1  0.750000  0.380000  0.271800  1.0  0.1588
  C  C38  1  0.724200  0.746200  0.266700  1.0  0.6235
  C  C39  1  0.567900  0.826000  0.231000  1.0  0.0217
  C  C40  1  0.593700  0.913500  0.159400  1.0  -0.1178
  C  C41  1  0.391800  0.808300  0.264000  1.0  -0.1435
  C  C42  1  0.446700  0.984100  0.128600  1.0  0.1464
  C  C43  1  0.774600  0.940900  0.113600  1.0  0.7046
  C  C44  1  0.250000  0.880000  0.228200  1.0  0.1584
  N  N45  1  0.277800  0.531100  0.663100  1.0  -0.3007
  N  N46  1  0.722200  0.031100  0.836900  1.0  -0.3006
  N  N47  1  0.722200  0.468900  0.336900  1.0  -0.3004
  N  N48  1  0.277800  0.968900  0.163100  1.0  -0.3002
  O  O49  1  0.731900  0.770400  0.857000  1.0  -0.5664
  O  O50  1  0.788600  0.578100  0.527620  1.0  -0.6237
  O  O51  1  0.894200  0.512000  0.668970  1.0  -0.5885
  O  O52  1  0.828800  0.797800  0.708200  1.0  -0.5365
  O  O53  1  0.268100  0.270400  0.643000  1.0  -0.5651
  O  O54  1  0.211400  0.078100  0.972380  1.0  -0.6252
  O  O55  1  0.105800  0.012000  0.831030  1.0  -0.5885
  O  O56  1  0.171200  0.297800  0.791800  1.0  -0.5373
  O  O57  1  0.268100  0.229600  0.143000  1.0  -0.5664
  O  O58  1  0.211400  0.421900  0.472380  1.0  -0.6253
  O  O59  1  0.105800  0.488000  0.331030  1.0  -0.5887
  O  O60  1  0.171200  0.202200  0.291800  1.0  -0.537
  O  O61  1  0.731900  0.729600  0.357000  1.0  -0.5657
  O  O62  1  0.788600  0.921900  0.027620  1.0  -0.6244
  O  O63  1  0.894200  0.988000  0.168970  1.0  -0.5887
  O  O64  1  0.828800  0.702200  0.208200  1.0  -0.5367
