# generated using pymatgen
data_Zn7H12C40(N4O19)2
_symmetry_space_group_name_H-M   'P 1'
_cell_length_a   18.77890000
_cell_length_b   17.82700000
_cell_length_c   14.36030000
_cell_angle_alpha   90.00000000
_cell_angle_beta   93.82700000
_cell_angle_gamma   90.00000000
_symmetry_Int_Tables_number   1
_chemical_formula_structural   Zn7H12C40(N4O19)2
_chemical_formula_sum   'Zn14 H24 C80 N16 O76'
_cell_volume   4796.69852351
_cell_formula_units_Z   2
loop_
 _symmetry_equiv_pos_site_id
 _symmetry_equiv_pos_as_xyz
  1  'x, y, z'
loop_
 _atom_site_type_symbol
 _atom_site_label
 _atom_site_symmetry_multiplicity
 _atom_site_fract_x
 _atom_site_fract_y
 _atom_site_fract_z
 _atom_site_occupancy
 _atom_site_charge
  Zn  Zn1  1  0.407180  0.088950  0.842310  1.0  1.0728
  Zn  Zn2  1  0.907180  0.588950  0.842310  1.0  1.0728
  Zn  Zn3  1  0.592820  0.088950  0.157690  1.0  1.073
  Zn  Zn4  1  0.092820  0.588950  0.157690  1.0  1.073
  Zn  Zn5  1  0.592820  0.911050  0.157690  1.0  1.0733
  Zn  Zn6  1  0.092820  0.411050  0.157690  1.0  1.0733
  Zn  Zn7  1  0.407180  0.911050  0.842310  1.0  1.0729
  Zn  Zn8  1  0.907180  0.411050  0.842310  1.0  1.0729
  Zn  Zn9  1  0.500000  0.000000  0.000000  1.0  1.029
  Zn  Zn10  1  0.000000  0.500000  0.000000  1.0  1.029
  Zn  Zn11  1  0.338100  0.000000  0.009400  1.0  0.9938
  Zn  Zn12  1  0.838100  0.500000  0.009400  1.0  0.9938
  Zn  Zn13  1  0.661900  0.000000  0.990600  1.0  0.9959
  Zn  Zn14  1  0.161900  0.500000  0.990600  1.0  0.9959
  H  H15  1  0.734800  0.265200  0.778100  1.0  0.156
  H  H16  1  0.669100  0.340700  0.021900  1.0  0.1443
  H  H17  1  0.579000  0.251300  0.016500  1.0  0.1366
  H  H18  1  0.234800  0.765200  0.778100  1.0  0.156
  H  H19  1  0.169100  0.840700  0.021900  1.0  0.1443
  H  H20  1  0.079000  0.751300  0.016500  1.0  0.1366
  H  H21  1  0.265200  0.265200  0.221900  1.0  0.157
  H  H22  1  0.330900  0.340700  0.978100  1.0  0.1438
  H  H23  1  0.421000  0.251300  0.983500  1.0  0.1358
  H  H24  1  0.765200  0.765200  0.221900  1.0  0.157
  H  H25  1  0.830900  0.840700  0.978100  1.0  0.1438
  H  H26  1  0.921000  0.751300  0.983500  1.0  0.1358
  H  H27  1  0.265200  0.734800  0.221900  1.0  0.1572
  H  H28  1  0.330900  0.659300  0.978100  1.0  0.1438
  H  H29  1  0.421000  0.748700  0.983500  1.0  0.1364
  H  H30  1  0.765200  0.234800  0.221900  1.0  0.1572
  H  H31  1  0.830900  0.159300  0.978100  1.0  0.1438
  H  H32  1  0.921000  0.248700  0.983500  1.0  0.1364
  H  H33  1  0.734800  0.734800  0.778100  1.0  0.1559
  H  H34  1  0.669100  0.659300  0.021900  1.0  0.1447
  H  H35  1  0.579000  0.748700  0.016500  1.0  0.137
  H  H36  1  0.234800  0.234800  0.778100  1.0  0.1559
  H  H37  1  0.169100  0.159300  0.021900  1.0  0.1447
  H  H38  1  0.079000  0.248700  0.016500  1.0  0.137
  C  C39  1  0.600500  0.205300  0.893300  1.0  0.0089
  C  C40  1  0.647800  0.211200  0.823800  1.0  0.0059
  C  C41  1  0.702900  0.263300  0.826700  1.0  -0.0713
  C  C42  1  0.710800  0.311900  0.900700  1.0  -0.1343
  C  C43  1  0.664200  0.307100  0.970500  1.0  -0.0144
  C  C44  1  0.610000  0.254000  0.966900  1.0  -0.0744
  C  C45  1  0.543300  0.146000  0.894800  1.0  0.733
  C  C46  1  0.771700  0.366700  0.906700  1.0  0.7406
  C  C47  1  0.483700  0.067100  0.541400  1.0  0.1281
  C  C48  1  0.100500  0.705300  0.893300  1.0  0.0089
  C  C49  1  0.147800  0.711200  0.823800  1.0  0.0059
  C  C50  1  0.202900  0.763300  0.826700  1.0  -0.0713
  C  C51  1  0.210800  0.811900  0.900700  1.0  -0.1343
  C  C52  1  0.164200  0.807100  0.970500  1.0  -0.0144
  C  C53  1  0.110000  0.754000  0.966900  1.0  -0.0744
  C  C54  1  0.043300  0.646000  0.894800  1.0  0.733
  C  C55  1  0.271700  0.866700  0.906700  1.0  0.7406
  C  C56  1  0.983700  0.567100  0.541400  1.0  0.1281
  C  C57  1  0.399500  0.205300  0.106700  1.0  0.0098
  C  C58  1  0.352200  0.211200  0.176200  1.0  0.0076
  C  C59  1  0.297100  0.263300  0.173300  1.0  -0.073
  C  C60  1  0.289200  0.311900  0.099300  1.0  -0.1336
  C  C61  1  0.335800  0.307100  0.029500  1.0  -0.016
  C  C62  1  0.390000  0.254000  0.033100  1.0  -0.0739
  C  C63  1  0.456700  0.146000  0.105200  1.0  0.7334
  C  C64  1  0.228300  0.366700  0.093300  1.0  0.7393
  C  C65  1  0.516300  0.067100  0.458600  1.0  0.1294
  C  C66  1  0.899500  0.705300  0.106700  1.0  0.0098
  C  C67  1  0.852200  0.711200  0.176200  1.0  0.0076
  C  C68  1  0.797100  0.763300  0.173300  1.0  -0.073
  C  C69  1  0.789200  0.811900  0.099300  1.0  -0.1336
  C  C70  1  0.835800  0.807100  0.029500  1.0  -0.016
  C  C71  1  0.890000  0.754000  0.033100  1.0  -0.0739
  C  C72  1  0.956700  0.646000  0.105200  1.0  0.7334
  C  C73  1  0.728300  0.866700  0.093300  1.0  0.7393
  C  C74  1  0.016300  0.567100  0.458600  1.0  0.1294
  C  C75  1  0.399500  0.794700  0.106700  1.0  0.0102
  C  C76  1  0.352200  0.788800  0.176200  1.0  0.007
  C  C77  1  0.297100  0.736700  0.173300  1.0  -0.0737
  C  C78  1  0.289200  0.688100  0.099300  1.0  -0.1333
  C  C79  1  0.335800  0.692900  0.029500  1.0  -0.0154
  C  C80  1  0.390000  0.746000  0.033100  1.0  -0.075
  C  C81  1  0.456700  0.854000  0.105200  1.0  0.7339
  C  C82  1  0.228300  0.633300  0.093300  1.0  0.7376
  C  C83  1  0.516300  0.932900  0.458600  1.0  0.1287
  C  C84  1  0.899500  0.294700  0.106700  1.0  0.0102
  C  C85  1  0.852200  0.288800  0.176200  1.0  0.007
  C  C86  1  0.797100  0.236700  0.173300  1.0  -0.0737
  C  C87  1  0.789200  0.188100  0.099300  1.0  -0.1333
  C  C88  1  0.835800  0.192900  0.029500  1.0  -0.0154
  C  C89  1  0.890000  0.246000  0.033100  1.0  -0.075
  C  C90  1  0.956700  0.354000  0.105200  1.0  0.7339
  C  C91  1  0.728300  0.133300  0.093300  1.0  0.7376
  C  C92  1  0.016300  0.432900  0.458600  1.0  0.1287
  C  C93  1  0.600500  0.794700  0.893300  1.0  0.0088
  C  C94  1  0.647800  0.788800  0.823800  1.0  0.0061
  C  C95  1  0.702900  0.736700  0.826700  1.0  -0.0711
  C  C96  1  0.710800  0.688100  0.900700  1.0  -0.134
  C  C97  1  0.664200  0.692900  0.970500  1.0  -0.0138
  C  C98  1  0.610000  0.746000  0.966900  1.0  -0.074
  C  C99  1  0.543300  0.854000  0.894800  1.0  0.7333
  C  C100  1  0.771700  0.633300  0.906700  1.0  0.7374
  C  C101  1  0.483700  0.932900  0.541400  1.0  0.1275
  C  C102  1  0.100500  0.294700  0.893300  1.0  0.0088
  C  C103  1  0.147800  0.288800  0.823800  1.0  0.0061
  C  C104  1  0.202900  0.236700  0.826700  1.0  -0.0711
  C  C105  1  0.210800  0.188100  0.900700  1.0  -0.134
  C  C106  1  0.164200  0.192900  0.970500  1.0  -0.0138
  C  C107  1  0.110000  0.246000  0.966900  1.0  -0.074
  C  C108  1  0.043300  0.354000  0.894800  1.0  0.7333
  C  C109  1  0.271700  0.133300  0.906700  1.0  0.7374
  C  C110  1  0.983700  0.432900  0.541400  1.0  0.1275
  C  C111  1  0.436000  0.000000  0.678300  1.0  0.7594
  C  C112  1  0.467100  0.000000  0.583300  1.0  -0.0938
  C  C113  1  0.936000  0.500000  0.678300  1.0  0.7594
  C  C114  1  0.967100  0.500000  0.583300  1.0  -0.0938
  C  C115  1  0.564000  0.000000  0.321700  1.0  0.7594
  C  C116  1  0.532900  0.000000  0.416700  1.0  -0.0953
  C  C117  1  0.064000  0.500000  0.321700  1.0  0.7594
  C  C118  1  0.032900  0.500000  0.416700  1.0  -0.0953
  N  N119  1  0.637300  0.166200  0.737600  1.0  0.6632
  N  N120  1  0.470600  0.142800  0.573900  1.0  0.2732
  N  N121  1  0.137300  0.666200  0.737600  1.0  0.6632
  N  N122  1  0.970600  0.642800  0.573900  1.0  0.2732
  N  N123  1  0.362700  0.166200  0.262400  1.0  0.6627
  N  N124  1  0.529400  0.142800  0.426100  1.0  0.274
  N  N125  1  0.862700  0.666200  0.262400  1.0  0.6627
  N  N126  1  0.029400  0.642800  0.426100  1.0  0.274
  N  N127  1  0.362700  0.833800  0.262400  1.0  0.6621
  N  N128  1  0.529400  0.857200  0.426100  1.0  0.273
  N  N129  1  0.862700  0.333800  0.262400  1.0  0.6621
  N  N130  1  0.029400  0.357200  0.426100  1.0  0.273
  N  N131  1  0.637300  0.833800  0.737600  1.0  0.6619
  N  N132  1  0.470600  0.857200  0.573900  1.0  0.2734
  N  N133  1  0.137300  0.333800  0.737600  1.0  0.6619
  N  N134  1  0.970600  0.357200  0.573900  1.0  0.2734
  O  O135  1  0.560830  0.081740  0.922000  1.0  -0.5918
  O  O136  1  0.480270  0.166860  0.872500  1.0  -0.5365
  O  O137  1  0.816460  0.359150  0.845300  1.0  -0.58
  O  O138  1  0.774160  0.413080  0.971600  1.0  -0.5998
  O  O139  1  0.586000  0.125100  0.727100  1.0  -0.3515
  O  O140  1  0.683600  0.167500  0.681600  1.0  -0.3346
  O  O141  1  0.425100  0.063050  0.713900  1.0  -0.5772
  O  O142  1  0.509500  0.184000  0.601000  1.0  -0.32
  O  O143  1  0.405800  0.157000  0.567000  1.0  -0.4134
  O  O144  1  0.060830  0.581740  0.922000  1.0  -0.5918
  O  O145  1  0.980270  0.666860  0.872500  1.0  -0.5365
  O  O146  1  0.316460  0.859150  0.845300  1.0  -0.58
  O  O147  1  0.274160  0.913080  0.971600  1.0  -0.5998
  O  O148  1  0.086000  0.625100  0.727100  1.0  -0.3515
  O  O149  1  0.183600  0.667500  0.681600  1.0  -0.3346
  O  O150  1  0.925100  0.563050  0.713900  1.0  -0.5772
  O  O151  1  0.009500  0.684000  0.601000  1.0  -0.3235
  O  O152  1  0.905800  0.657000  0.567000  1.0  -0.4134
  O  O153  1  0.439170  0.081740  0.078000  1.0  -0.5924
  O  O154  1  0.519730  0.166860  0.127500  1.0  -0.5381
  O  O155  1  0.183540  0.359150  0.154700  1.0  -0.5812
  O  O156  1  0.225840  0.413080  0.028400  1.0  -0.5983
  O  O157  1  0.414000  0.125100  0.272900  1.0  -0.3522
  O  O158  1  0.316400  0.167500  0.318400  1.0  -0.336
  O  O159  1  0.574900  0.063050  0.286100  1.0  -0.5777
  O  O160  1  0.490500  0.184000  0.399000  1.0  -0.319
  O  O161  1  0.594200  0.157000  0.433000  1.0  -0.4131
  O  O162  1  0.939170  0.581740  0.078000  1.0  -0.5924
  O  O163  1  0.019730  0.666860  0.127500  1.0  -0.5381
  O  O164  1  0.683540  0.859150  0.154700  1.0  -0.5812
  O  O165  1  0.725840  0.913080  0.028400  1.0  -0.5983
  O  O166  1  0.914000  0.625100  0.272900  1.0  -0.3522
  O  O167  1  0.816400  0.667500  0.318400  1.0  -0.336
  O  O168  1  0.074900  0.563050  0.286100  1.0  -0.5777
  O  O169  1  0.990500  0.684000  0.399000  1.0  -0.3233
  O  O170  1  0.094200  0.657000  0.433000  1.0  -0.4131
  O  O171  1  0.439170  0.918260  0.078000  1.0  -0.5924
  O  O172  1  0.519730  0.833140  0.127500  1.0  -0.5385
  O  O173  1  0.183540  0.640850  0.154700  1.0  -0.5814
  O  O174  1  0.225840  0.586920  0.028400  1.0  -0.599
  O  O175  1  0.414000  0.874900  0.272900  1.0  -0.3526
  O  O176  1  0.316400  0.832500  0.318400  1.0  -0.3365
  O  O177  1  0.574900  0.936950  0.286100  1.0  -0.5792
  O  O178  1  0.490500  0.816000  0.399000  1.0  -0.3174
  O  O179  1  0.594200  0.843000  0.433000  1.0  -0.4158
  O  O180  1  0.939170  0.418260  0.078000  1.0  -0.5924
  O  O181  1  0.019730  0.333140  0.127500  1.0  -0.5385
  O  O182  1  0.683540  0.140850  0.154700  1.0  -0.5814
  O  O183  1  0.725840  0.086920  0.028400  1.0  -0.599
  O  O184  1  0.914000  0.374900  0.272900  1.0  -0.3526
  O  O185  1  0.816400  0.332500  0.318400  1.0  -0.3365
  O  O186  1  0.074900  0.436950  0.286100  1.0  -0.5792
  O  O187  1  0.990500  0.316000  0.399000  1.0  -0.3174
  O  O188  1  0.094200  0.343000  0.433000  1.0  -0.4158
  O  O189  1  0.560830  0.918260  0.922000  1.0  -0.5913
  O  O190  1  0.480270  0.833140  0.872500  1.0  -0.5364
  O  O191  1  0.816460  0.640850  0.845300  1.0  -0.5797
  O  O192  1  0.774160  0.586920  0.971600  1.0  -0.6016
  O  O193  1  0.586000  0.874900  0.727100  1.0  -0.3514
  O  O194  1  0.683600  0.832500  0.681600  1.0  -0.3344
  O  O195  1  0.425100  0.936950  0.713900  1.0  -0.5779
  O  O196  1  0.509500  0.816000  0.601000  1.0  -0.3178
  O  O197  1  0.405800  0.843000  0.567000  1.0  -0.4133
  O  O198  1  0.060830  0.418260  0.922000  1.0  -0.5913
  O  O199  1  0.980270  0.333140  0.872500  1.0  -0.5364
  O  O200  1  0.316460  0.140850  0.845300  1.0  -0.5797
  O  O201  1  0.274160  0.086920  0.971600  1.0  -0.6016
  O  O202  1  0.086000  0.374900  0.727100  1.0  -0.3514
  O  O203  1  0.183600  0.332500  0.681600  1.0  -0.3344
  O  O204  1  0.925100  0.436950  0.713900  1.0  -0.5779
  O  O205  1  0.009500  0.316000  0.601000  1.0  -0.3178
  O  O206  1  0.905800  0.343000  0.567000  1.0  -0.4133
  O  O207  1  0.411500  0.000000  0.919600  1.0  -1.0924
  O  O208  1  0.911500  0.500000  0.919600  1.0  -1.0924
  O  O209  1  0.588500  0.000000  0.080400  1.0  -1.0917
  O  O210  1  0.088500  0.500000  0.080400  1.0  -1.0917
