# generated using pymatgen
data_CoBH12(C3N2)4
_symmetry_space_group_name_H-M   'P 1'
_cell_length_a   8.37800000
_cell_length_b   14.95890000
_cell_length_c   17.57200000
_cell_angle_alpha   90.00000000
_cell_angle_beta   90.00000000
_cell_angle_gamma   98.34750000
_symmetry_Int_Tables_number   1
_chemical_formula_structural   CoBH12(C3N2)4
_chemical_formula_sum   'Co4 B4 H48 C48 N32'
_cell_volume   2178.89172597
_cell_formula_units_Z   4
loop_
 _symmetry_equiv_pos_site_id
 _symmetry_equiv_pos_as_xyz
  1  'x, y, z'
loop_
 _atom_site_type_symbol
 _atom_site_label
 _atom_site_symmetry_multiplicity
 _atom_site_fract_x
 _atom_site_fract_y
 _atom_site_fract_z
 _atom_site_occupancy
 _atom_site_charge
  Co  Co1  1  0.630130  0.275240  0.078160  1.0  0.2374
  Co  Co2  1  0.869870  0.224760  0.578160  1.0  0.2453
  Co  Co3  1  0.369870  0.724760  0.921840  1.0  0.2456
  Co  Co4  1  0.130130  0.775240  0.421840  1.0  0.2374
  B  B5  1  0.341100  0.149500  0.364100  1.0  0.4552
  B  B6  1  0.158900  0.350500  0.864100  1.0  0.4556
  B  B7  1  0.658900  0.850500  0.635900  1.0  0.4562
  B  B8  1  0.841100  0.649500  0.135900  1.0  0.4558
  H  H9  1  0.141100  0.229000  0.258100  1.0  0.1171
  H  H10  1  0.619000  0.053800  0.340300  1.0  0.1201
  H  H11  1  0.046000  0.080000  0.297000  1.0  0.1106
  H  H12  1  0.254000  0.268000  0.129000  1.0  0.093
  H  H13  1  0.127000  0.116000  0.484000  1.0  0.0793
  H  H14  1  0.303000  0.343000  0.380000  1.0  0.1264
  H  H15  1  0.937000  0.920000  0.320000  1.0  0.0906
  H  H16  1  0.852000  0.086000  0.428000  1.0  0.0862
  H  H17  1  0.101000  0.377000  0.479000  1.0  0.1175
  H  H18  1  0.590000  0.182000  0.248000  1.0  0.068
  H  H19  1  0.503000  0.234000  0.492000  1.0  0.0958
  H  H20  1  0.354000  0.971000  0.424000  1.0  0.0768
  H  H21  1  0.358900  0.271000  0.758100  1.0  0.1166
  H  H22  1  0.881000  0.446200  0.840300  1.0  0.1196
  H  H23  1  0.454000  0.420000  0.797000  1.0  0.1107
  H  H24  1  0.246000  0.232000  0.629000  1.0  0.0937
  H  H25  1  0.373000  0.384000  0.984000  1.0  0.0792
  H  H26  1  0.197000  0.157000  0.880000  1.0  0.1261
  H  H27  1  0.563000  0.580000  0.820000  1.0  0.0924
  H  H28  1  0.648000  0.414000  0.928000  1.0  0.0869
  H  H29  1  0.399000  0.123000  0.979000  1.0  0.1184
  H  H30  1  0.910000  0.318000  0.748000  1.0  0.0665
  H  H31  1  0.997000  0.266000  0.992000  1.0  0.0964
  H  H32  1  0.146000  0.529000  0.924000  1.0  0.0772
  H  H33  1  0.858900  0.771000  0.741900  1.0  0.1166
  H  H34  1  0.381000  0.946200  0.659700  1.0  0.1204
  H  H35  1  0.954000  0.920000  0.703000  1.0  0.1109
  H  H36  1  0.746000  0.732000  0.871000  1.0  0.093
  H  H37  1  0.873000  0.884000  0.516000  1.0  0.0786
  H  H38  1  0.697000  0.657000  0.620000  1.0  0.1261
  H  H39  1  0.063000  0.080000  0.680000  1.0  0.0937
  H  H40  1  0.148000  0.914000  0.572000  1.0  0.0868
  H  H41  1  0.899000  0.623000  0.521000  1.0  0.1182
  H  H42  1  0.410000  0.818000  0.752000  1.0  0.0666
  H  H43  1  0.497000  0.766000  0.508000  1.0  0.096
  H  H44  1  0.646000  0.029000  0.576000  1.0  0.0767
  H  H45  1  0.641100  0.729000  0.241900  1.0  0.1166
  H  H46  1  0.119000  0.553800  0.159700  1.0  0.1207
  H  H47  1  0.546000  0.580000  0.203000  1.0  0.1107
  H  H48  1  0.754000  0.768000  0.371000  1.0  0.0933
  H  H49  1  0.627000  0.616000  0.016000  1.0  0.0793
  H  H50  1  0.803000  0.843000  0.120000  1.0  0.1264
  H  H51  1  0.437000  0.420000  0.180000  1.0  0.0916
  H  H52  1  0.352000  0.586000  0.072000  1.0  0.086
  H  H53  1  0.601000  0.877000  0.021000  1.0  0.1177
  H  H54  1  0.090000  0.682000  0.252000  1.0  0.0684
  H  H55  1  0.003000  0.734000  0.008000  1.0  0.096
  H  H56  1  0.854000  0.471000  0.076000  1.0  0.0761
  C  C57  1  0.239600  0.299500  0.412700  1.0  -0.1158
  C  C58  1  0.245100  0.224100  0.241800  1.0  -0.1112
  C  C59  1  0.306800  0.246400  0.171900  1.0  -0.005
  C  C60  1  0.494300  0.198400  0.237000  1.0  0.1785
  C  C61  1  0.138400  0.175900  0.469800  1.0  0.1722
  C  C62  1  0.566500  0.191700  0.465600  1.0  0.1227
  C  C63  1  0.094600  0.034000  0.321100  1.0  -0.1217
  C  C64  1  0.033700  0.947000  0.337600  1.0  0.0228
  C  C65  1  0.747100  0.111200  0.431200  1.0  0.015
  C  C66  1  0.623800  0.093100  0.381600  1.0  -0.0959
  C  C67  1  0.132800  0.318100  0.467100  1.0  -0.0426
  C  C68  1  0.261700  0.976600  0.394200  1.0  0.1543
  C  C69  1  0.260400  0.200500  0.912700  1.0  -0.1177
  C  C70  1  0.254900  0.275900  0.741800  1.0  -0.1089
  C  C71  1  0.193200  0.253600  0.671900  1.0  -0.0043
  C  C72  1  0.005700  0.301600  0.737000  1.0  0.177
  C  C73  1  0.361600  0.324100  0.969800  1.0  0.1743
  C  C74  1  0.933500  0.308300  0.965600  1.0  0.1243
  C  C75  1  0.405400  0.466000  0.821100  1.0  -0.122
  C  C76  1  0.466300  0.553000  0.837600  1.0  0.0223
  C  C77  1  0.752900  0.388800  0.931200  1.0  0.0149
  C  C78  1  0.876200  0.406900  0.881600  1.0  -0.0965
  C  C79  1  0.367200  0.181900  0.967100  1.0  -0.04
  C  C80  1  0.238300  0.523400  0.894200  1.0  0.1533
  C  C81  1  0.760400  0.700500  0.587300  1.0  -0.1155
  C  C82  1  0.754900  0.775900  0.758200  1.0  -0.1088
  C  C83  1  0.693200  0.753600  0.828100  1.0  -0.0046
  C  C84  1  0.505700  0.801600  0.763000  1.0  0.1771
  C  C85  1  0.861600  0.824100  0.530200  1.0  0.1735
  C  C86  1  0.433500  0.808300  0.534400  1.0  0.125
  C  C87  1  0.905400  0.966000  0.678900  1.0  -0.1188
  C  C88  1  0.966300  0.053000  0.662400  1.0  0.0216
  C  C89  1  0.252900  0.888800  0.568800  1.0  0.014
  C  C90  1  0.376200  0.906900  0.618400  1.0  -0.0971
  C  C91  1  0.867200  0.681900  0.532900  1.0  -0.0389
  C  C92  1  0.738300  0.023400  0.605800  1.0  0.1534
  C  C93  1  0.739600  0.799500  0.087300  1.0  -0.1134
  C  C94  1  0.745100  0.724100  0.258200  1.0  -0.1109
  C  C95  1  0.806800  0.746400  0.328100  1.0  -0.0046
  C  C96  1  0.994300  0.698400  0.263000  1.0  0.1785
  C  C97  1  0.638400  0.675900  0.030200  1.0  0.1732
  C  C98  1  0.066500  0.691700  0.034400  1.0  0.1239
  C  C99  1  0.594600  0.534000  0.178900  1.0  -0.1188
  C  C100  1  0.533700  0.447000  0.162400  1.0  0.0222
  C  C101  1  0.247100  0.611200  0.068800  1.0  0.014
  C  C102  1  0.123800  0.593100  0.118400  1.0  -0.096
  C  C103  1  0.632800  0.818100  0.032900  1.0  -0.0423
  C  C104  1  0.761700  0.476600  0.105800  1.0  0.1543
  N  N105  1  0.242100  0.207500  0.414000  1.0  -0.1949
  N  N106  1  0.505300  0.144100  0.403300  1.0  -0.1959
  N  N107  1  0.242200  0.053700  0.357800  1.0  -0.2045
  N  N108  1  0.465700  0.229800  0.168700  1.0  -0.3379
  N  N109  1  0.364700  0.192700  0.284700  1.0  -0.203
  N  N110  1  0.713300  0.174300  0.484100  1.0  -0.3154
  N  N111  1  0.068800  0.238900  0.502900  1.0  -0.2856
  N  N112  1  0.139300  0.910100  0.383200  1.0  -0.3206
  N  N113  1  0.257900  0.292500  0.914000  1.0  -0.1947
  N  N114  1  0.994700  0.355900  0.903300  1.0  -0.1957
  N  N115  1  0.257800  0.446300  0.857800  1.0  -0.2039
  N  N116  1  0.034300  0.270200  0.668700  1.0  -0.3383
  N  N117  1  0.135300  0.307300  0.784700  1.0  -0.2027
  N  N118  1  0.786700  0.325700  0.984100  1.0  -0.3148
  N  N119  1  0.431200  0.261100  0.002900  1.0  -0.2767
  N  N120  1  0.360700  0.589900  0.883200  1.0  -0.3332
  N  N121  1  0.757900  0.792500  0.586000  1.0  -0.1946
  N  N122  1  0.494700  0.855900  0.596700  1.0  -0.1962
  N  N123  1  0.757800  0.946300  0.642200  1.0  -0.2037
  N  N124  1  0.534300  0.770200  0.831300  1.0  -0.3368
  N  N125  1  0.635300  0.807300  0.715300  1.0  -0.2023
  N  N126  1  0.286700  0.825700  0.515900  1.0  -0.3173
  N  N127  1  0.931200  0.761100  0.497100  1.0  -0.279
  N  N128  1  0.860700  0.089900  0.616800  1.0  -0.3254
  N  N129  1  0.742100  0.707500  0.086000  1.0  -0.1945
  N  N130  1  0.005300  0.644100  0.096700  1.0  -0.1962
  N  N131  1  0.742200  0.553700  0.142200  1.0  -0.2046
  N  N132  1  0.965700  0.729800  0.331300  1.0  -0.3361
  N  N133  1  0.864700  0.692700  0.215300  1.0  -0.2031
  N  N134  1  0.213300  0.674300  0.015900  1.0  -0.3171
  N  N135  1  0.568800  0.738900  0.997100  1.0  -0.2894
  N  N136  1  0.639300  0.410100  0.116800  1.0  -0.3169
