# generated using pymatgen
data_MnH16C24N2O5
_symmetry_space_group_name_H-M   'P 1'
_cell_length_a   9.31700000
_cell_length_b   11.74200000
_cell_length_c   13.25100000
_cell_angle_alpha   90.00000000
_cell_angle_beta   90.19500000
_cell_angle_gamma   90.00000000
_symmetry_Int_Tables_number   1
_chemical_formula_structural   MnH16C24N2O5
_chemical_formula_sum   'Mn2 H32 C48 N4 O10'
_cell_volume   1449.65383995
_cell_formula_units_Z   2
loop_
 _symmetry_equiv_pos_site_id
 _symmetry_equiv_pos_as_xyz
  1  'x, y, z'
loop_
 _atom_site_type_symbol
 _atom_site_label
 _atom_site_symmetry_multiplicity
 _atom_site_fract_x
 _atom_site_fract_y
 _atom_site_fract_z
 _atom_site_occupancy
 _atom_site_charge
  Mn  Mn1  1  0.250000  0.055130  0.000000  1.0  1.0413
  Mn  Mn2  1  0.750000  0.944870  0.000000  1.0  1.0421
  H  H3  1  0.569800  0.793400  0.738700  1.0  0.0988
  H  H4  1  0.473900  0.707200  0.595700  1.0  0.133
  H  H5  1  0.161500  0.941700  0.589500  1.0  0.1263
  H  H6  1  0.258300  0.027600  0.731700  1.0  0.0982
  H  H7  1  0.352900  0.835900  0.127500  1.0  0.0709
  H  H8  1  0.357900  0.642200  0.131200  1.0  0.1317
  H  H9  1  0.426500  0.466000  0.086200  1.0  0.1176
  H  H10  1  0.423800  0.272400  0.080600  1.0  0.0698
  H  H11  1  0.930200  0.793400  0.261300  1.0  0.099
  H  H12  1  0.026100  0.707200  0.404300  1.0  0.1334
  H  H13  1  0.338500  0.941700  0.410500  1.0  0.1252
  H  H14  1  0.241700  0.027600  0.268300  1.0  0.098
  H  H15  1  0.147100  0.835900  0.872500  1.0  0.0712
  H  H16  1  0.142100  0.642200  0.868800  1.0  0.131
  H  H17  1  0.073500  0.466000  0.913800  1.0  0.1167
  H  H18  1  0.076200  0.272400  0.919400  1.0  0.0696
  H  H19  1  0.430200  0.206600  0.261300  1.0  0.0988
  H  H20  1  0.526100  0.292800  0.404300  1.0  0.1335
  H  H21  1  0.838500  0.058300  0.410500  1.0  0.1268
  H  H22  1  0.741700  0.972400  0.268300  1.0  0.0988
  H  H23  1  0.647100  0.164100  0.872500  1.0  0.0712
  H  H24  1  0.642100  0.357800  0.868800  1.0  0.1312
  H  H25  1  0.573500  0.534000  0.913800  1.0  0.1165
  H  H26  1  0.576200  0.727600  0.919400  1.0  0.0693
  H  H27  1  0.069800  0.206600  0.738700  1.0  0.0988
  H  H28  1  0.973900  0.292800  0.595700  1.0  0.1339
  H  H29  1  0.661500  0.058300  0.589500  1.0  0.1252
  H  H30  1  0.758300  0.972400  0.731700  1.0  0.0984
  H  H31  1  0.852900  0.164100  0.127500  1.0  0.0707
  H  H32  1  0.857900  0.357800  0.131200  1.0  0.1314
  H  H33  1  0.926500  0.534000  0.086200  1.0  0.1178
  H  H34  1  0.923800  0.727600  0.080600  1.0  0.0693
  C  C35  1  0.480800  0.971800  0.845600  1.0  0.6863
  C  C36  1  0.423800  0.918500  0.750600  1.0  -0.1863
  C  C37  1  0.487500  0.823300  0.709000  1.0  0.0066
  C  C38  1  0.430600  0.771300  0.623500  1.0  -0.2516
  C  C39  1  0.308300  0.817200  0.580800  1.0  0.2968
  C  C40  1  0.243500  0.911900  0.619700  1.0  -0.2625
  C  C41  1  0.301600  0.963000  0.704900  1.0  0.0197
  C  C42  1  0.310400  0.796200  0.074500  1.0  0.1917
  C  C43  1  0.313500  0.679400  0.077500  1.0  -0.2109
  C  C44  1  0.354400  0.428700  0.050400  1.0  -0.2188
  C  C45  1  0.351200  0.312000  0.047500  1.0  0.1811
  C  C46  1  0.019200  0.971800  0.154400  1.0  0.6858
  C  C47  1  0.076200  0.918500  0.249400  1.0  -0.1814
  C  C48  1  0.012500  0.823300  0.291000  1.0  0.0061
  C  C49  1  0.069400  0.771300  0.376500  1.0  -0.2505
  C  C50  1  0.191700  0.817200  0.419200  1.0  0.297
  C  C51  1  0.256500  0.911900  0.380300  1.0  -0.2595
  C  C52  1  0.198400  0.963000  0.295100  1.0  0.0189
  C  C53  1  0.189600  0.796200  0.925500  1.0  0.192
  C  C54  1  0.186500  0.679400  0.922500  1.0  -0.211
  C  C55  1  0.145600  0.428700  0.949600  1.0  -0.2206
  C  C56  1  0.148800  0.312000  0.952500  1.0  0.1808
  C  C57  1  0.519200  0.028200  0.154400  1.0  0.6792
  C  C58  1  0.576200  0.081500  0.249400  1.0  -0.1813
  C  C59  1  0.512500  0.176700  0.291000  1.0  0.0032
  C  C60  1  0.569400  0.228700  0.376500  1.0  -0.2508
  C  C61  1  0.691700  0.182800  0.419200  1.0  0.2977
  C  C62  1  0.756500  0.088100  0.380300  1.0  -0.259
  C  C63  1  0.698400  0.037000  0.295100  1.0  0.0192
  C  C64  1  0.689600  0.203800  0.925500  1.0  0.1918
  C  C65  1  0.686500  0.320600  0.922500  1.0  -0.2115
  C  C66  1  0.645600  0.571300  0.949600  1.0  -0.2195
  C  C67  1  0.648800  0.688000  0.952500  1.0  0.1807
  C  C68  1  0.980800  0.028200  0.845600  1.0  0.6795
  C  C69  1  0.923800  0.081500  0.750600  1.0  -0.186
  C  C70  1  0.987500  0.176700  0.709000  1.0  0.0054
  C  C71  1  0.930600  0.228700  0.623500  1.0  -0.2507
  C  C72  1  0.808300  0.182800  0.580800  1.0  0.297
  C  C73  1  0.743500  0.088100  0.619700  1.0  -0.2622
  C  C74  1  0.801600  0.037000  0.704900  1.0  0.0199
  C  C75  1  0.810400  0.203800  0.074500  1.0  0.1917
  C  C76  1  0.813500  0.320600  0.077500  1.0  -0.2108
  C  C77  1  0.854400  0.571300  0.050400  1.0  -0.2198
  C  C78  1  0.851200  0.688000  0.047500  1.0  0.181
  C  C79  1  0.250000  0.616700  0.000000  1.0  0.0874
  C  C80  1  0.250000  0.491400  0.000000  1.0  0.0971
  C  C81  1  0.750000  0.383300  0.000000  1.0  0.0877
  C  C82  1  0.750000  0.508600  0.000000  1.0  0.0976
  N  N83  1  0.250000  0.856400  0.000000  1.0  -0.3526
  N  N84  1  0.250000  0.252000  0.000000  1.0  -0.3255
  N  N85  1  0.750000  0.143600  0.000000  1.0  -0.3535
  N  N86  1  0.750000  0.748000  0.000000  1.0  -0.3243
  O  O87  1  0.412600  0.052180  0.884030  1.0  -0.6193
  O  O88  1  0.596600  0.930810  0.879420  1.0  -0.6063
  O  O89  1  0.087400  0.052180  0.115970  1.0  -0.6197
  O  O90  1  0.903400  0.930810  0.120580  1.0  -0.6072
  O  O91  1  0.587400  0.947820  0.115970  1.0  -0.6204
  O  O92  1  0.403400  0.069190  0.120580  1.0  -0.6075
  O  O93  1  0.912600  0.947820  0.884030  1.0  -0.6204
  O  O94  1  0.096600  0.069190  0.879420  1.0  -0.6071
  O  O95  1  0.250000  0.756700  0.500000  1.0  -0.2886
  O  O96  1  0.750000  0.243300  0.500000  1.0  -0.2873
