# generated using pymatgen
data_MnH14C20(NO2)2
_symmetry_space_group_name_H-M   'P 1'
_cell_length_a   10.22400000
_cell_length_b   11.72300000
_cell_length_c   12.22700000
_cell_angle_alpha   65.98000000
_cell_angle_beta   71.30500000
_cell_angle_gamma   84.62200000
_symmetry_Int_Tables_number   1
_chemical_formula_structural   MnH14C20(NO2)2
_chemical_formula_sum   'Mn2 H28 C40 N4 O8'
_cell_volume   1266.80367405
_cell_formula_units_Z   2
loop_
 _symmetry_equiv_pos_site_id
 _symmetry_equiv_pos_as_xyz
  1  'x, y, z'
loop_
 _atom_site_type_symbol
 _atom_site_label
 _atom_site_symmetry_multiplicity
 _atom_site_fract_x
 _atom_site_fract_y
 _atom_site_fract_z
 _atom_site_occupancy
 _atom_site_charge
  Mn  Mn1  1  0.000000  0.500000  0.500000  1.0  0.8736
  Mn  Mn2  1  0.500000  0.500000  0.500000  1.0  0.8491
  H  H3  1  0.875200  0.818400  0.437300  1.0  0.1094
  H  H4  1  0.594300  0.830300  0.529000  1.0  0.0879
  H  H5  1  0.910800  0.005900  0.429900  1.0  0.117
  H  H6  1  0.929300  0.183400  0.465400  1.0  0.0863
  H  H7  1  0.529800  0.161500  0.638700  1.0  0.1012
  H  H8  1  0.513500  0.976600  0.616300  1.0  0.0965
  H  H9  1  0.934100  0.410300  0.310900  1.0  0.0738
  H  H10  1  0.022300  0.408300  0.112000  1.0  0.1213
  H  H11  1  0.378300  0.552500  0.079000  1.0  0.1149
  H  H12  1  0.284200  0.539400  0.282300  1.0  0.0748
  H  H13  1  0.398200  0.641700  0.870200  1.0  0.1213
  H  H14  1  0.493100  0.646000  0.673000  1.0  0.073
  H  H15  1  0.256600  0.361800  0.758000  1.0  0.0812
  H  H16  1  0.156400  0.350000  0.956400  1.0  0.1213
  H  H17  1  0.124800  0.181600  0.562700  1.0  0.1126
  H  H18  1  0.405700  0.169700  0.471000  1.0  0.0881
  H  H19  1  0.089200  0.994100  0.570100  1.0  0.117
  H  H20  1  0.070700  0.816600  0.534600  1.0  0.0861
  H  H21  1  0.470200  0.838500  0.361300  1.0  0.1007
  H  H22  1  0.486500  0.023400  0.383700  1.0  0.0968
  H  H23  1  0.065900  0.589700  0.689100  1.0  0.0743
  H  H24  1  0.977700  0.591700  0.888000  1.0  0.1213
  H  H25  1  0.621700  0.447500  0.921000  1.0  0.1152
  H  H26  1  0.715800  0.460600  0.717700  1.0  0.074
  H  H27  1  0.601800  0.358300  0.129800  1.0  0.1231
  H  H28  1  0.506900  0.354000  0.327000  1.0  0.0724
  H  H29  1  0.743400  0.638200  0.242000  1.0  0.0812
  H  H30  1  0.843600  0.650000  0.043600  1.0  0.1214
  C  C31  1  0.750700  0.679100  0.444500  1.0  0.7038
  C  C32  1  0.783300  0.793300  0.460100  1.0  -0.2958
  C  C33  1  0.685200  0.858700  0.505100  1.0  -0.0321
  C  C34  1  0.707000  0.972500  0.520800  1.0  0.0557
  C  C35  1  0.832900  0.035200  0.473900  1.0  -0.1696
  C  C36  1  0.842600  0.144600  0.493100  1.0  -0.0549
  C  C37  1  0.729900  0.196300  0.550800  1.0  -0.0413
  C  C38  1  0.608700  0.131700  0.596600  1.0  -0.0932
  C  C39  1  0.598900  0.019400  0.581900  1.0  -0.1335
  C  C40  1  0.746000  0.313900  0.569100  1.0  0.6962
  C  C41  1  0.025000  0.438700  0.263900  1.0  0.1623
  C  C42  1  0.076900  0.438900  0.142900  1.0  -0.205
  C  C43  1  0.210000  0.485000  0.070100  1.0  0.0833
  C  C44  1  0.287400  0.522600  0.124100  1.0  -0.2101
  C  C45  1  0.229200  0.515800  0.246800  1.0  0.188
  C  C46  1  0.268300  0.493200  0.938800  1.0  0.0969
  C  C47  1  0.368300  0.582700  0.849700  1.0  -0.195
  C  C48  1  0.424100  0.585500  0.730700  1.0  0.1755
  C  C49  1  0.285800  0.419400  0.780600  1.0  0.1697
  C  C50  1  0.225700  0.410800  0.900500  1.0  -0.2095
  C  C51  1  0.249300  0.320900  0.555500  1.0  0.7016
  C  C52  1  0.216700  0.206700  0.539900  1.0  -0.2974
  C  C53  1  0.314800  0.141300  0.494900  1.0  -0.0309
  C  C54  1  0.293000  0.027500  0.479200  1.0  0.0559
  C  C55  1  0.167100  0.964800  0.526100  1.0  -0.1706
  C  C56  1  0.157400  0.855400  0.506900  1.0  -0.0533
  C  C57  1  0.270100  0.803700  0.449200  1.0  -0.0521
  C  C58  1  0.391300  0.868300  0.403400  1.0  -0.0933
  C  C59  1  0.401100  0.980600  0.418100  1.0  -0.1332
  C  C60  1  0.254000  0.686100  0.430900  1.0  0.6981
  C  C61  1  0.975000  0.561300  0.736100  1.0  0.1614
  C  C62  1  0.923100  0.561100  0.857100  1.0  -0.2035
  C  C63  1  0.790000  0.515000  0.929900  1.0  0.0837
  C  C64  1  0.712600  0.477400  0.875900  1.0  -0.2101
  C  C65  1  0.770800  0.484200  0.753200  1.0  0.1882
  C  C66  1  0.731700  0.506800  0.061200  1.0  0.096
  C  C67  1  0.631700  0.417300  0.150300  1.0  -0.1951
  C  C68  1  0.575900  0.414500  0.269300  1.0  0.1754
  C  C69  1  0.714200  0.580600  0.219400  1.0  0.1707
  C  C70  1  0.774300  0.589200  0.099500  1.0  -0.2092
  N  N71  1  0.099800  0.477400  0.315000  1.0  -0.2941
  N  N72  1  0.384400  0.505100  0.693100  1.0  -0.3233
  N  N73  1  0.900200  0.522600  0.685000  1.0  -0.2965
  N  N74  1  0.615600  0.494900  0.306900  1.0  -0.3234
  O  O75  1  0.851200  0.615400  0.414500  1.0  -0.5793
  O  O76  1  0.628200  0.659200  0.457000  1.0  -0.5633
  O  O77  1  0.867300  0.339200  0.561600  1.0  -0.5925
  O  O78  1  0.642000  0.375000  0.592000  1.0  -0.5773
  O  O79  1  0.148800  0.384600  0.585500  1.0  -0.5797
  O  O80  1  0.371800  0.340800  0.543000  1.0  -0.5631
  O  O81  1  0.132700  0.660800  0.438400  1.0  -0.5906
  O  O82  1  0.358000  0.625000  0.408000  1.0  -0.5775
