# generated using pymatgen
data_Ga2P3H6C3O9F
_symmetry_space_group_name_H-M   'P 1'
_cell_length_a   8.67000000
_cell_length_b   9.74200000
_cell_length_c   10.40600000
_cell_angle_alpha   81.44000000
_cell_angle_beta   65.83000000
_cell_angle_gamma   67.16000000
_symmetry_Int_Tables_number   1
_chemical_formula_structural   Ga2P3H6C3O9F
_chemical_formula_sum   'Ga4 P6 H12 C6 O18 F2'
_cell_volume   738.94623382
_cell_formula_units_Z   2
loop_
 _symmetry_equiv_pos_site_id
 _symmetry_equiv_pos_as_xyz
  1  'x, y, z'
loop_
 _atom_site_type_symbol
 _atom_site_label
 _atom_site_symmetry_multiplicity
 _atom_site_fract_x
 _atom_site_fract_y
 _atom_site_fract_z
 _atom_site_occupancy
 _atom_site_charge
  Ga  Ga1  1  0.132420  0.149300  0.862460  1.0  1.7315
  Ga  Ga2  1  0.119890  0.546310  0.849100  1.0  1.6514
  Ga  Ga3  1  0.867580  0.850700  0.137540  1.0  1.7306
  Ga  Ga4  1  0.880110  0.453690  0.150900  1.0  1.6493
  P  P5  1  0.241200  0.802900  0.882400  1.0  1.621
  P  P6  1  0.199400  0.357900  0.590800  1.0  1.6121
  P  P7  1  0.712300  0.719300  0.990100  1.0  1.6125
  P  P8  1  0.758800  0.197100  0.117600  1.0  1.6208
  P  P9  1  0.800600  0.642100  0.409200  1.0  1.6105
  P  P10  1  0.287700  0.280700  0.009900  1.0  1.6127
  H  H11  1  0.410300  0.850800  0.039700  1.0  0.1825
  H  H12  1  0.529800  0.887000  0.884900  1.0  0.1719
  H  H13  1  0.972800  0.361100  0.525500  1.0  0.1718
  H  H14  1  0.892300  0.484800  0.644500  1.0  0.1669
  H  H15  1  0.457300  0.616200  0.947200  1.0  0.1663
  H  H16  1  0.549600  0.673800  0.792700  1.0  0.1598
  H  H17  1  0.589700  0.149200  0.960300  1.0  0.1831
  H  H18  1  0.470200  0.113000  0.115100  1.0  0.1719
  H  H19  1  0.027200  0.638900  0.474500  1.0  0.1701
  H  H20  1  0.107700  0.515200  0.355500  1.0  0.1675
  H  H21  1  0.542700  0.383800  0.052800  1.0  0.1653
  H  H22  1  0.450400  0.326200  0.207300  1.0  0.1603
  C  C23  1  0.513300  0.805100  0.951500  1.0  -0.4576
  C  C24  1  0.995700  0.440300  0.556100  1.0  -0.4356
  C  C25  1  0.458600  0.706300  0.889000  1.0  -0.3556
  C  C26  1  0.486700  0.194900  0.048500  1.0  -0.4575
  C  C27  1  0.004300  0.559700  0.443900  1.0  -0.4347
  C  C28  1  0.541400  0.293700  0.111000  1.0  -0.3548
  O  O29  1  0.240000  0.948100  0.801900  1.0  -0.7737
  O  O30  1  0.103900  0.840300  0.036500  1.0  -0.8743
  O  O31  1  0.201800  0.708200  0.805200  1.0  -0.8299
  O  O32  1  0.714600  0.849800  0.056800  1.0  -0.9076
  O  O33  1  0.688800  0.593500  0.096500  1.0  -0.8061
  O  O34  1  0.879500  0.665300  0.853400  1.0  -0.7941
  O  O35  1  0.362300  0.304300  0.455500  1.0  -0.6637
  O  O36  1  0.172200  0.224900  0.687200  1.0  -0.9651
  O  O37  1  0.214700  0.474300  0.665400  1.0  -0.8409
  O  O38  1  0.760000  0.051900  0.198100  1.0  -0.7757
  O  O39  1  0.896100  0.159700  0.963500  1.0  -0.8753
  O  O40  1  0.798200  0.291800  0.194800  1.0  -0.8317
  O  O41  1  0.285400  0.150200  0.943200  1.0  -0.9078
  O  O42  1  0.311200  0.406500  0.903500  1.0  -0.8064
  O  O43  1  0.120500  0.334700  0.146600  1.0  -0.7957
  O  O44  1  0.637700  0.695700  0.544500  1.0  -0.6642
  O  O45  1  0.827800  0.775100  0.312800  1.0  -0.9629
  O  O46  1  0.785300  0.525700  0.334600  1.0  -0.8449
  F  F47  1  0.001000  0.392800  0.937100  1.0  -0.5378
  F  F48  1  0.999000  0.607200  0.062900  1.0  -0.5363
