# generated using pymatgen
data_CdH20(C13N3)2
_symmetry_space_group_name_H-M   'P 1'
_cell_length_a   16.38160000
_cell_length_b   16.38160000
_cell_length_c   16.38160000
_cell_angle_alpha   90.89250000
_cell_angle_beta   90.89250000
_cell_angle_gamma   90.89250000
_symmetry_Int_Tables_number   1
_chemical_formula_structural   CdH20(C13N3)2
_chemical_formula_sum   'Cd3 H60 C78 N18'
_cell_volume   4394.49723501
_cell_formula_units_Z   3
loop_
 _symmetry_equiv_pos_site_id
 _symmetry_equiv_pos_as_xyz
  1  'x, y, z'
loop_
 _atom_site_type_symbol
 _atom_site_label
 _atom_site_symmetry_multiplicity
 _atom_site_fract_x
 _atom_site_fract_y
 _atom_site_fract_z
 _atom_site_occupancy
 _atom_site_charge
  Cd  Cd1  1  0.500000  0.500000  0.000000  1.0  0.8106
  Cd  Cd2  1  0.000000  0.500000  0.500000  1.0  0.8108
  Cd  Cd3  1  0.500000  0.000000  0.500000  1.0  0.8106
  H  H4  1  0.429160  0.330900  0.945180  1.0  0.0968
  H  H5  1  0.425020  0.188650  0.991730  1.0  0.0814
  H  H6  1  0.577850  0.260810  0.198190  1.0  0.0896
  H  H7  1  0.573050  0.402910  0.150900  1.0  0.0801
  H  H8  1  0.397580  0.996720  0.109900  1.0  0.0867
  H  H9  1  0.945180  0.429160  0.330900  1.0  0.0967
  H  H10  1  0.991730  0.425020  0.188650  1.0  0.0808
  H  H11  1  0.198190  0.577850  0.260810  1.0  0.0892
  H  H12  1  0.150900  0.573050  0.402910  1.0  0.0778
  H  H13  1  0.109900  0.397580  0.996720  1.0  0.0885
  H  H14  1  0.330900  0.945180  0.429160  1.0  0.0976
  H  H15  1  0.188650  0.991730  0.425020  1.0  0.0813
  H  H16  1  0.260810  0.198190  0.577850  1.0  0.0905
  H  H17  1  0.402910  0.150900  0.573050  1.0  0.0771
  H  H18  1  0.996720  0.109900  0.397580  1.0  0.0873
  H  H19  1  0.672860  0.441970  0.062460  1.0  0.0616
  H  H20  1  0.813040  0.435600  0.015420  1.0  0.0783
  H  H21  1  0.737390  0.552190  0.792700  1.0  0.0815
  H  H22  1  0.595720  0.547270  0.840970  1.0  0.0813
  H  H23  1  0.003480  0.395740  0.888680  1.0  0.0858
  H  H24  1  0.441970  0.062460  0.672860  1.0  0.0621
  H  H25  1  0.435600  0.015420  0.813040  1.0  0.0768
  H  H26  1  0.552190  0.792700  0.737390  1.0  0.0801
  H  H27  1  0.547270  0.840960  0.595720  1.0  0.0826
  H  H28  1  0.395740  0.888680  0.003480  1.0  0.086
  H  H29  1  0.062460  0.672860  0.441970  1.0  0.0614
  H  H30  1  0.015420  0.813040  0.435600  1.0  0.077
  H  H31  1  0.792700  0.737390  0.552190  1.0  0.0826
  H  H32  1  0.840960  0.595720  0.547270  1.0  0.0813
  H  H33  1  0.888680  0.003480  0.395740  1.0  0.0863
  H  H34  1  0.570840  0.669100  0.054820  1.0  0.0988
  H  H35  1  0.574980  0.811350  0.008270  1.0  0.0809
  H  H36  1  0.422150  0.739190  0.801810  1.0  0.0886
  H  H37  1  0.426950  0.597090  0.849100  1.0  0.0813
  H  H38  1  0.602410  0.003280  0.890100  1.0  0.0863
  H  H39  1  0.054820  0.570840  0.669100  1.0  0.0971
  H  H40  1  0.008270  0.574980  0.811350  1.0  0.0803
  H  H41  1  0.801810  0.422150  0.739190  1.0  0.0893
  H  H42  1  0.849100  0.426950  0.597090  1.0  0.0784
  H  H43  1  0.890100  0.602420  0.003280  1.0  0.0886
  H  H44  1  0.669100  0.054820  0.570840  1.0  0.0986
  H  H45  1  0.811350  0.008270  0.574980  1.0  0.0821
  H  H46  1  0.739190  0.801810  0.422150  1.0  0.0895
  H  H47  1  0.597090  0.849100  0.426950  1.0  0.0769
  H  H48  1  0.003280  0.890100  0.602410  1.0  0.0874
  H  H49  1  0.327140  0.558030  0.937540  1.0  0.0615
  H  H50  1  0.186960  0.564400  0.984580  1.0  0.0775
  H  H51  1  0.262610  0.447810  0.207300  1.0  0.0792
  H  H52  1  0.404280  0.452730  0.159040  1.0  0.0817
  H  H53  1  0.996520  0.604260  0.111320  1.0  0.0871
  H  H54  1  0.558030  0.937540  0.327140  1.0  0.0643
  H  H55  1  0.564400  0.984580  0.186960  1.0  0.0771
  H  H56  1  0.447810  0.207300  0.262610  1.0  0.0807
  H  H57  1  0.452730  0.159040  0.404280  1.0  0.0804
  H  H58  1  0.604260  0.111320  0.996520  1.0  0.0857
  H  H59  1  0.937540  0.327140  0.558030  1.0  0.0612
  H  H60  1  0.984580  0.186960  0.564400  1.0  0.0781
  H  H61  1  0.207300  0.262610  0.447810  1.0  0.0799
  H  H62  1  0.159040  0.404280  0.452730  1.0  0.0804
  H  H63  1  0.111320  0.996520  0.604260  1.0  0.0861
  C  C64  1  0.461570  0.315100  0.000610  1.0  0.1399
  C  C65  1  0.459320  0.233870  0.027520  1.0  -0.1752
  C  C66  1  0.501090  0.211490  0.099700  1.0  0.0698
  C  C67  1  0.543600  0.274180  0.143140  1.0  -0.1624
  C  C68  1  0.542650  0.355210  0.115010  1.0  0.1341
  C  C69  1  0.442610  0.998560  0.062260  1.0  -0.1365
  C  C70  1  0.000620  0.461570  0.315100  1.0  0.141
  C  C71  1  0.027520  0.459320  0.233870  1.0  -0.1766
  C  C72  1  0.099700  0.501090  0.211490  1.0  0.0698
  C  C73  1  0.143140  0.543600  0.274180  1.0  -0.169
  C  C74  1  0.115010  0.542650  0.355210  1.0  0.1358
  C  C75  1  0.062270  0.442620  0.998560  1.0  -0.1412
  C  C76  1  0.315100  0.000610  0.461570  1.0  0.1341
  C  C77  1  0.233870  0.027520  0.459320  1.0  -0.1775
  C  C78  1  0.211490  0.099700  0.501090  1.0  0.0684
  C  C79  1  0.274180  0.143140  0.543600  1.0  -0.1685
  C  C80  1  0.355210  0.115010  0.542650  1.0  0.1342
  C  C81  1  0.998560  0.062270  0.442610  1.0  -0.1373
  C  C82  1  0.686250  0.463610  0.002350  1.0  0.104
  C  C83  1  0.767270  0.461270  0.975450  1.0  -0.175
  C  C84  1  0.788950  0.493260  0.899060  1.0  0.0677
  C  C85  1  0.724960  0.524810  0.850950  1.0  -0.1642
  C  C86  1  0.643750  0.522980  0.879020  1.0  0.1283
  C  C87  1  0.001630  0.441650  0.936840  1.0  -0.1484
  C  C88  1  0.463610  0.002350  0.686250  1.0  0.1016
  C  C89  1  0.461260  0.975440  0.767270  1.0  -0.1771
  C  C90  1  0.493260  0.899060  0.788940  1.0  0.0673
  C  C91  1  0.524810  0.850950  0.724960  1.0  -0.1674
  C  C92  1  0.522970  0.879020  0.643750  1.0  0.128
  C  C93  1  0.441650  0.936840  0.001630  1.0  -0.1472
  C  C94  1  0.002350  0.686250  0.463610  1.0  0.1069
  C  C95  1  0.975440  0.767270  0.461260  1.0  -0.1754
  C  C96  1  0.899050  0.788940  0.493260  1.0  0.0681
  C  C97  1  0.850950  0.724960  0.524810  1.0  -0.1616
  C  C98  1  0.879020  0.643750  0.522980  1.0  0.1311
  C  C99  1  0.936840  0.001630  0.441650  1.0  -0.1441
  C  C100  1  0.538430  0.684900  0.999390  1.0  0.14
  C  C101  1  0.540680  0.766130  0.972480  1.0  -0.1762
  C  C102  1  0.498910  0.788510  0.900300  1.0  0.071
  C  C103  1  0.456400  0.725820  0.856860  1.0  -0.1643
  C  C104  1  0.457350  0.644790  0.884990  1.0  0.1336
  C  C105  1  0.557380  0.001440  0.937730  1.0  -0.1353
  C  C106  1  0.999390  0.538430  0.684900  1.0  0.1393
  C  C107  1  0.972480  0.540680  0.766130  1.0  -0.1786
  C  C108  1  0.900300  0.498910  0.788510  1.0  0.0696
  C  C109  1  0.856860  0.456400  0.725820  1.0  -0.1678
  C  C110  1  0.884990  0.457350  0.644790  1.0  0.1342
  C  C111  1  0.937740  0.557380  0.001440  1.0  -0.1401
  C  C112  1  0.684900  0.999390  0.538430  1.0  0.1307
  C  C113  1  0.766130  0.972480  0.540680  1.0  -0.1781
  C  C114  1  0.788510  0.900300  0.498910  1.0  0.0693
  C  C115  1  0.725820  0.856860  0.456400  1.0  -0.1667
  C  C116  1  0.644790  0.884990  0.457350  1.0  0.1336
  C  C117  1  0.001440  0.937740  0.557380  1.0  -0.1378
  C  C118  1  0.313750  0.536390  0.997650  1.0  0.1033
  C  C119  1  0.232730  0.538730  0.024560  1.0  -0.1782
  C  C120  1  0.211060  0.506740  0.100950  1.0  0.0663
  C  C121  1  0.275040  0.475190  0.149050  1.0  -0.1633
  C  C122  1  0.356250  0.477020  0.120980  1.0  0.1295
  C  C123  1  0.998370  0.558350  0.063160  1.0  -0.1496
  C  C124  1  0.536380  0.997650  0.313750  1.0  0.1055
  C  C125  1  0.538730  0.024550  0.232730  1.0  -0.1742
  C  C126  1  0.506740  0.100940  0.211060  1.0  0.0678
  C  C127  1  0.475190  0.149050  0.275040  1.0  -0.1676
  C  C128  1  0.477020  0.120980  0.356250  1.0  0.1274
  C  C129  1  0.558350  0.063160  0.998370  1.0  -0.1491
  C  C130  1  0.997650  0.313750  0.536390  1.0  0.1061
  C  C131  1  0.024550  0.232730  0.538730  1.0  -0.1735
  C  C132  1  0.100940  0.211060  0.506740  1.0  0.0669
  C  C133  1  0.149050  0.275040  0.475190  1.0  -0.1616
  C  C134  1  0.120980  0.356250  0.477020  1.0  0.1292
  C  C135  1  0.063160  0.998370  0.558350  1.0  -0.1453
  C  C136  1  0.501100  0.062450  0.061540  1.0  0.0977
  C  C137  1  0.061540  0.501100  0.062450  1.0  0.0977
  C  C138  1  0.062450  0.061540  0.501100  1.0  0.0977
  C  C139  1  0.938460  0.498900  0.937550  1.0  0.0976
  C  C140  1  0.498900  0.937550  0.938460  1.0  0.0974
  C  C141  1  0.937550  0.938460  0.498900  1.0  0.0971
  N  N142  1  0.503510  0.374400  0.043690  1.0  -0.3581
  N  N143  1  0.043690  0.503510  0.374400  1.0  -0.3585
  N  N144  1  0.374400  0.043690  0.503510  1.0  -0.3563
  N  N145  1  0.625340  0.493570  0.954340  1.0  -0.3749
  N  N146  1  0.493570  0.954330  0.625340  1.0  -0.3773
  N  N147  1  0.954330  0.625340  0.493570  1.0  -0.3777
  N  N148  1  0.496490  0.625600  0.956310  1.0  -0.3578
  N  N149  1  0.956310  0.496490  0.625600  1.0  -0.3582
  N  N150  1  0.625600  0.956310  0.496490  1.0  -0.3569
  N  N151  1  0.374660  0.506430  0.045670  1.0  -0.38
  N  N152  1  0.506430  0.045660  0.374660  1.0  -0.3783
  N  N153  1  0.045660  0.374660  0.506430  1.0  -0.3779
  N  N154  1  0.502920  0.125850  0.125100  1.0  -0.2626
  N  N155  1  0.125100  0.502920  0.125860  1.0  -0.2624
  N  N156  1  0.125850  0.125100  0.502920  1.0  -0.2635
  N  N157  1  0.874900  0.497080  0.874150  1.0  -0.2623
  N  N158  1  0.497080  0.874150  0.874900  1.0  -0.263
  N  N159  1  0.874150  0.874900  0.497080  1.0  -0.2633
