# generated using pymatgen
data_ZnH3(CO2)3
_symmetry_space_group_name_H-M   'P 1'
_cell_length_a   8.71700000
_cell_length_b   11.61700000
_cell_length_c   8.28900000
_cell_angle_alpha   90.00000000
_cell_angle_beta   90.00000000
_cell_angle_gamma   90.00000000
_symmetry_Int_Tables_number   1
_chemical_formula_structural   ZnH3(CO2)3
_chemical_formula_sum   'Zn4 H12 C12 O24'
_cell_volume   839.38880942
_cell_formula_units_Z   4
loop_
 _symmetry_equiv_pos_site_id
 _symmetry_equiv_pos_as_xyz
  1  'x, y, z'
loop_
 _atom_site_type_symbol
 _atom_site_label
 _atom_site_symmetry_multiplicity
 _atom_site_fract_x
 _atom_site_fract_y
 _atom_site_fract_z
 _atom_site_occupancy
 _atom_site_charge
  Zn  Zn1  1  0.235470  0.250000  0.250000  1.0  1.0398
  Zn  Zn2  1  0.264530  0.750000  0.250000  1.0  1.0399
  Zn  Zn3  1  0.764530  0.750000  0.750000  1.0  1.0399
  Zn  Zn4  1  0.735470  0.250000  0.750000  1.0  1.0398
  H  H5  1  0.425000  0.213000  0.938000  1.0  0.0601
  H  H6  1  0.075000  0.787000  0.938000  1.0  0.0607
  H  H7  1  0.075000  0.713000  0.562000  1.0  0.0603
  H  H8  1  0.425000  0.287000  0.562000  1.0  0.0598
  H  H9  1  0.575000  0.787000  0.062000  1.0  0.0603
  H  H10  1  0.925000  0.213000  0.062000  1.0  0.0599
  H  H11  1  0.925000  0.287000  0.438000  1.0  0.0605
  H  H12  1  0.575000  0.713000  0.438000  1.0  0.0602
  H  H13  1  0.250000  0.500000  0.190000  1.0  0.1166
  H  H14  1  0.250000  0.000000  0.310000  1.0  0.1173
  H  H15  1  0.750000  0.500000  0.810000  1.0  0.1173
  H  H16  1  0.750000  0.000000  0.690000  1.0  0.1166
  C  C17  1  0.470110  0.280290  0.977670  1.0  0.712
  C  C18  1  0.029890  0.719710  0.977670  1.0  0.7121
  C  C19  1  0.029890  0.780290  0.522330  1.0  0.7127
  C  C20  1  0.470110  0.219710  0.522330  1.0  0.7117
  C  C21  1  0.529890  0.719710  0.022330  1.0  0.713
  C  C22  1  0.970110  0.280290  0.022330  1.0  0.7126
  C  C23  1  0.970110  0.219710  0.477670  1.0  0.712
  C  C24  1  0.529890  0.780290  0.477670  1.0  0.7131
  C  C25  1  0.250000  0.500000  0.313940  1.0  0.6645
  C  C26  1  0.250000  0.000000  0.186060  1.0  0.666
  C  C27  1  0.750000  0.500000  0.686060  1.0  0.666
  C  C28  1  0.750000  0.000000  0.813940  1.0  0.6645
  O  O29  1  0.412770  0.316780  0.105380  1.0  -0.5671
  O  O30  1  0.083760  0.176540  0.411380  1.0  -0.5624
  O  O31  1  0.237340  0.405080  0.383660  1.0  -0.5546
  O  O32  1  0.087230  0.683220  0.105380  1.0  -0.566
  O  O33  1  0.416240  0.823460  0.411380  1.0  -0.5623
  O  O34  1  0.262660  0.594920  0.383660  1.0  -0.5554
  O  O35  1  0.087230  0.816780  0.394620  1.0  -0.5678
  O  O36  1  0.416240  0.676540  0.088620  1.0  -0.5631
  O  O37  1  0.262660  0.905080  0.116340  1.0  -0.5533
  O  O38  1  0.412770  0.183220  0.394620  1.0  -0.5662
  O  O39  1  0.083760  0.323460  0.088620  1.0  -0.5632
  O  O40  1  0.237340  0.094920  0.116340  1.0  -0.553
  O  O41  1  0.587230  0.683220  0.894620  1.0  -0.5669
  O  O42  1  0.916240  0.823460  0.588620  1.0  -0.5631
  O  O43  1  0.762660  0.594920  0.616340  1.0  -0.5532
  O  O44  1  0.912770  0.316780  0.894620  1.0  -0.5671
  O  O45  1  0.583760  0.176540  0.588620  1.0  -0.5637
  O  O46  1  0.737340  0.405080  0.616340  1.0  -0.5529
  O  O47  1  0.912770  0.183220  0.605380  1.0  -0.5657
  O  O48  1  0.583760  0.323460  0.911380  1.0  -0.5628
  O  O49  1  0.737340  0.094920  0.883660  1.0  -0.5553
  O  O50  1  0.587230  0.816780  0.605380  1.0  -0.5673
  O  O51  1  0.916240  0.676540  0.911380  1.0  -0.562
  O  O52  1  0.762660  0.905080  0.883660  1.0  -0.5548
