# generated using pymatgen
data_ZnH3C3(NO2)2
_symmetry_space_group_name_H-M   'P 1'
_cell_length_a   11.61700000
_cell_length_b   8.71700000
_cell_length_c   8.28900000
_cell_angle_alpha   90.00000000
_cell_angle_beta   90.00000000
_cell_angle_gamma   90.00000000
_symmetry_Int_Tables_number   1
_chemical_formula_structural   ZnH3C3(NO2)2
_chemical_formula_sum   'Zn4 H12 C12 N8 O16'
_cell_volume   839.38880942
_cell_formula_units_Z   4
loop_
 _symmetry_equiv_pos_site_id
 _symmetry_equiv_pos_as_xyz
  1  'x, y, z'
loop_
 _atom_site_type_symbol
 _atom_site_label
 _atom_site_symmetry_multiplicity
 _atom_site_fract_x
 _atom_site_fract_y
 _atom_site_fract_z
 _atom_site_occupancy
 _atom_site_charge
  Zn  Zn1  1  0.250100  0.985430  0.000000  1.0  1.034
  Zn  Zn2  1  0.749900  0.014570  0.000000  1.0  1.0341
  Zn  Zn3  1  0.750100  0.514570  0.500000  1.0  1.0338
  Zn  Zn4  1  0.249900  0.485430  0.500000  1.0  1.0336
  H  H5  1  0.220700  0.166000  0.666100  1.0  0.0483
  H  H6  1  0.222700  0.666000  0.832000  1.0  0.0827
  H  H7  1  0.779300  0.834000  0.666100  1.0  0.0492
  H  H8  1  0.777300  0.334000  0.832000  1.0  0.0824
  H  H9  1  0.720700  0.334000  0.166100  1.0  0.0492
  H  H10  1  0.722700  0.834000  0.332000  1.0  0.082
  H  H11  1  0.279300  0.666000  0.166100  1.0  0.0485
  H  H12  1  0.277300  0.166000  0.332000  1.0  0.0833
  H  H13  1  0.500000  0.000000  0.916100  1.0  0.1026
  H  H14  1  0.000000  0.500000  0.416100  1.0  0.1026
  H  H15  1  0.000000  0.000000  0.082000  1.0  -0.0387
  H  H16  1  0.500000  0.500000  0.582000  1.0  -0.0387
  C  C17  1  0.282500  0.217700  0.733300  1.0  0.6708
  C  C18  1  0.276900  0.722000  0.778700  1.0  0.5832
  C  C19  1  0.717500  0.782300  0.733300  1.0  0.6701
  C  C20  1  0.723100  0.278000  0.778700  1.0  0.5836
  C  C21  1  0.782500  0.282300  0.233300  1.0  0.6714
  C  C22  1  0.776900  0.778000  0.278700  1.0  0.5844
  C  C23  1  0.217500  0.717700  0.233300  1.0  0.6704
  C  C24  1  0.223100  0.222000  0.278700  1.0  0.584
  C  C25  1  0.500000  0.000000  0.056700  1.0  0.7146
  C  C26  1  0.000000  0.500000  0.556700  1.0  0.7146
  C  C27  1  0.000000  0.000000  0.925700  1.0  0.5055
  C  C28  1  0.500000  0.500000  0.425700  1.0  0.5055
  N  N29  1  0.323400  0.334300  0.666667  1.0  -0.3628
  N  N30  1  0.320700  0.660800  0.648800  1.0  -0.3819
  N  N31  1  0.676600  0.665700  0.666667  1.0  -0.3653
  N  N32  1  0.679300  0.339200  0.648800  1.0  -0.382
  N  N33  1  0.823400  0.165700  0.166700  1.0  -0.3632
  N  N34  1  0.820700  0.839200  0.148800  1.0  -0.3814
  N  N35  1  0.176600  0.834300  0.166700  1.0  -0.3642
  N  N36  1  0.179300  0.160800  0.148800  1.0  -0.382
  O  O37  1  0.313000  0.164700  0.860700  1.0  -0.5621
  O  O38  1  0.323500  0.833400  0.843600  1.0  -0.5984
  O  O39  1  0.405200  0.984800  0.137300  1.0  -0.6113
  O  O40  1  0.094600  0.990900  0.870400  1.0  -0.543
  O  O41  1  0.687000  0.835300  0.860700  1.0  -0.5613
  O  O42  1  0.676500  0.166600  0.843600  1.0  -0.6014
  O  O43  1  0.594800  0.015200  0.137300  1.0  -0.6117
  O  O44  1  0.905400  0.009100  0.870400  1.0  -0.5435
  O  O45  1  0.813000  0.335300  0.360700  1.0  -0.5613
  O  O46  1  0.823500  0.666667  0.343600  1.0  -0.5998
  O  O47  1  0.905200  0.515200  0.637300  1.0  -0.6115
  O  O48  1  0.594600  0.509100  0.370400  1.0  -0.5432
  O  O49  1  0.187000  0.664700  0.360700  1.0  -0.5619
  O  O50  1  0.176500  0.333400  0.343600  1.0  -0.5997
  O  O51  1  0.094800  0.484800  0.637300  1.0  -0.6113
  O  O52  1  0.405400  0.490900  0.370400  1.0  -0.5433
