# generated using pymatgen
data_GaPO4
_symmetry_space_group_name_H-M   'P 1'
_cell_length_a   14.36500000
_cell_length_b   16.30500000
_cell_length_c   8.73400000
_cell_angle_alpha   90.00000000
_cell_angle_beta   90.24300000
_cell_angle_gamma   90.00000000
_symmetry_Int_Tables_number   1
_chemical_formula_structural   GaPO4
_chemical_formula_sum   'Ga16 P16 O64'
_cell_volume   2045.67065431
_cell_formula_units_Z   16
loop_
 _symmetry_equiv_pos_site_id
 _symmetry_equiv_pos_as_xyz
  1  'x, y, z'
loop_
 _atom_site_type_symbol
 _atom_site_label
 _atom_site_symmetry_multiplicity
 _atom_site_fract_x
 _atom_site_fract_y
 _atom_site_fract_z
 _atom_site_occupancy
 _atom_site_charge
  Ga  Ga1  1  0.136500  0.034170  0.571630  1.0  1.5752
  Ga  Ga2  1  0.042380  0.271630  0.632400  1.0  1.6555
  Ga  Ga3  1  0.525540  0.126250  0.410420  1.0  1.649
  Ga  Ga4  1  0.365760  0.161590  0.813370  1.0  1.6594
  Ga  Ga5  1  0.863500  0.534170  0.928370  1.0  1.5775
  Ga  Ga6  1  0.957620  0.771630  0.867600  1.0  1.6551
  Ga  Ga7  1  0.474460  0.626250  0.089580  1.0  1.6492
  Ga  Ga8  1  0.634240  0.661590  0.686630  1.0  1.6598
  Ga  Ga9  1  0.863500  0.965830  0.428370  1.0  1.5774
  Ga  Ga10  1  0.957620  0.728370  0.367600  1.0  1.6557
  Ga  Ga11  1  0.474460  0.873750  0.589580  1.0  1.6493
  Ga  Ga12  1  0.634240  0.838410  0.186630  1.0  1.6636
  Ga  Ga13  1  0.136500  0.465830  0.071630  1.0  1.575
  Ga  Ga14  1  0.042380  0.228370  0.132400  1.0  1.6558
  Ga  Ga15  1  0.525540  0.373750  0.910420  1.0  1.6478
  Ga  Ga16  1  0.365760  0.338410  0.313370  1.0  1.6624
  P  P17  1  0.147980  0.151840  0.848540  1.0  2.0129
  P  P18  1  0.640160  0.969290  0.447280  1.0  1.9318
  P  P19  1  0.472750  0.218820  0.109890  1.0  1.898
  P  P20  1  0.971360  0.132410  0.414270  1.0  1.9473
  P  P21  1  0.852020  0.651840  0.651460  1.0  2.0114
  P  P22  1  0.359840  0.469290  0.052720  1.0  1.9304
  P  P23  1  0.527250  0.718820  0.390110  1.0  1.8974
  P  P24  1  0.028640  0.632410  0.085730  1.0  1.9572
  P  P25  1  0.852020  0.848160  0.151460  1.0  2.0153
  P  P26  1  0.359840  0.030710  0.552720  1.0  1.9262
  P  P27  1  0.527250  0.781180  0.890110  1.0  1.8921
  P  P28  1  0.028640  0.867590  0.585730  1.0  1.9644
  P  P29  1  0.147980  0.348160  0.348540  1.0  2.0168
  P  P30  1  0.640160  0.530710  0.947280  1.0  1.9279
  P  P31  1  0.472750  0.281180  0.609890  1.0  1.8924
  P  P32  1  0.971360  0.367590  0.914270  1.0  1.959
  O  O33  1  0.447900  0.163000  0.976500  1.0  -0.8988
  O  O34  1  0.536000  0.170900  0.218700  1.0  -0.8866
  O  O35  1  0.966100  0.197200  0.540900  1.0  -0.9528
  O  O36  1  0.629900  0.062800  0.439300  1.0  -0.835
  O  O37  1  0.963600  0.326500  0.757400  1.0  -0.8878
  O  O38  1  0.249800  0.149300  0.896500  1.0  -0.8799
  O  O39  1  0.135200  0.225100  0.742800  1.0  -0.9921
  O  O40  1  0.088300  0.158700  0.991600  1.0  -1.0003
  O  O41  1  0.118400  0.072700  0.770500  1.0  -0.8092
  O  O42  1  0.384200  0.253000  0.691300  1.0  -0.8501
  O  O43  1  0.419700  0.063800  0.422100  1.0  -0.9168
  O  O44  1  0.062500  0.085600  0.423300  1.0  -0.8716
  O  O45  1  0.259900  0.052100  0.515200  1.0  -0.8865
  O  O46  1  0.392000  0.066400  0.705600  1.0  -0.8716
  O  O47  1  0.529600  0.292800  0.056600  1.0  -0.9532
  O  O48  1  0.113700  0.921900  0.567400  1.0  -0.8409
  O  O49  1  0.552100  0.663000  0.523500  1.0  -0.8989
  O  O50  1  0.464000  0.670900  0.281300  1.0  -0.885
  O  O51  1  0.033900  0.697200  0.959100  1.0  -0.9524
  O  O52  1  0.370100  0.562800  0.060700  1.0  -0.8351
  O  O53  1  0.036400  0.826500  0.742600  1.0  -0.8879
  O  O54  1  0.750200  0.649300  0.603500  1.0  -0.8817
  O  O55  1  0.864800  0.725100  0.757200  1.0  -0.9922
  O  O56  1  0.911700  0.658700  0.508400  1.0  -1.0021
  O  O57  1  0.881600  0.572700  0.729500  1.0  -0.8079
  O  O58  1  0.615800  0.753000  0.808700  1.0  -0.8497
  O  O59  1  0.580300  0.563800  0.077900  1.0  -0.9164
  O  O60  1  0.937500  0.585600  0.076700  1.0  -0.8717
  O  O61  1  0.740100  0.552100  0.984800  1.0  -0.8869
  O  O62  1  0.608000  0.566400  0.794400  1.0  -0.8745
  O  O63  1  0.470400  0.792800  0.443400  1.0  -0.9524
  O  O64  1  0.886300  0.421900  0.932600  1.0  -0.8413
  O  O65  1  0.552100  0.837000  0.023500  1.0  -0.9033
  O  O66  1  0.464000  0.829100  0.781300  1.0  -0.8853
  O  O67  1  0.033900  0.802800  0.459100  1.0  -0.9523
  O  O68  1  0.370100  0.937200  0.560700  1.0  -0.8352
  O  O69  1  0.036400  0.673500  0.242600  1.0  -0.8892
  O  O70  1  0.750200  0.850700  0.103500  1.0  -0.8823
  O  O71  1  0.864800  0.774900  0.257200  1.0  -0.9914
  O  O72  1  0.911700  0.841300  0.008400  1.0  -1.0015
  O  O73  1  0.881600  0.927300  0.229500  1.0  -0.8078
  O  O74  1  0.615800  0.747000  0.308700  1.0  -0.8498
  O  O75  1  0.580300  0.936200  0.577900  1.0  -0.9163
  O  O76  1  0.937500  0.914400  0.576700  1.0  -0.8725
  O  O77  1  0.740100  0.947900  0.484800  1.0  -0.8867
  O  O78  1  0.608000  0.933600  0.294400  1.0  -0.8746
  O  O79  1  0.470400  0.707200  0.943400  1.0  -0.9521
  O  O80  1  0.886300  0.078100  0.432600  1.0  -0.8428
  O  O81  1  0.447900  0.337000  0.476500  1.0  -0.903
  O  O82  1  0.536000  0.329100  0.718700  1.0  -0.8866
  O  O83  1  0.966100  0.302800  0.040900  1.0  -0.9521
  O  O84  1  0.629900  0.437200  0.939300  1.0  -0.8358
  O  O85  1  0.963600  0.173500  0.257400  1.0  -0.8883
  O  O86  1  0.249800  0.350700  0.396500  1.0  -0.8799
  O  O87  1  0.135200  0.274900  0.242800  1.0  -0.9908
  O  O88  1  0.088300  0.341300  0.491600  1.0  -1.0009
  O  O89  1  0.118400  0.427300  0.270500  1.0  -0.8089
  O  O90  1  0.384200  0.247000  0.191300  1.0  -0.8502
  O  O91  1  0.419700  0.436200  0.922100  1.0  -0.9167
  O  O92  1  0.062500  0.414400  0.923300  1.0  -0.8714
  O  O93  1  0.259900  0.447900  0.015200  1.0  -0.8861
  O  O94  1  0.392000  0.433600  0.205600  1.0  -0.8716
  O  O95  1  0.529600  0.207200  0.556600  1.0  -0.9533
  O  O96  1  0.113700  0.578100  0.067400  1.0  -0.8401
