# generated using pymatgen
data_GaPO4
_symmetry_space_group_name_H-M   'P 1'
_cell_length_a   14.32300000
_cell_length_b   16.34000000
_cell_length_c   8.75100000
_cell_angle_alpha   90.00000000
_cell_angle_beta   90.00000000
_cell_angle_gamma   90.00000000
_symmetry_Int_Tables_number   1
_chemical_formula_structural   GaPO4
_chemical_formula_sum   'Ga16 P16 O64'
_cell_volume   2048.06496282
_cell_formula_units_Z   16
loop_
 _symmetry_equiv_pos_site_id
 _symmetry_equiv_pos_as_xyz
  1  'x, y, z'
loop_
 _atom_site_type_symbol
 _atom_site_label
 _atom_site_symmetry_multiplicity
 _atom_site_fract_x
 _atom_site_fract_y
 _atom_site_fract_z
 _atom_site_occupancy
 _atom_site_charge
  Ga  Ga1  1  0.136180  0.034730  0.572560  1.0  1.5782
  Ga  Ga2  1  0.041350  0.271780  0.632900  1.0  1.6577
  Ga  Ga3  1  0.526140  0.126370  0.411430  1.0  1.6449
  Ga  Ga4  1  0.366220  0.160950  0.814150  1.0  1.6651
  Ga  Ga5  1  0.863820  0.534730  0.927440  1.0  1.5796
  Ga  Ga6  1  0.958650  0.771780  0.867100  1.0  1.6573
  Ga  Ga7  1  0.473860  0.626370  0.088570  1.0  1.6445
  Ga  Ga8  1  0.633780  0.660950  0.685850  1.0  1.6655
  Ga  Ga9  1  0.863820  0.965270  0.427440  1.0  1.5787
  Ga  Ga10  1  0.958650  0.728220  0.367100  1.0  1.6578
  Ga  Ga11  1  0.473860  0.873630  0.588570  1.0  1.6446
  Ga  Ga12  1  0.633780  0.839050  0.185850  1.0  1.6678
  Ga  Ga13  1  0.136180  0.465270  0.072560  1.0  1.577
  Ga  Ga14  1  0.041350  0.228220  0.132900  1.0  1.6579
  Ga  Ga15  1  0.526140  0.373630  0.911430  1.0  1.6402
  Ga  Ga16  1  0.366220  0.339050  0.314150  1.0  1.6677
  P  P17  1  0.147400  0.152030  0.848900  1.0  2.0091
  P  P18  1  0.640080  0.968980  0.446700  1.0  1.9049
  P  P19  1  0.473100  0.219150  0.111200  1.0  1.8952
  P  P20  1  0.970740  0.132150  0.415000  1.0  1.9381
  P  P21  1  0.852600  0.652030  0.651100  1.0  2.0074
  P  P22  1  0.359920  0.468980  0.053300  1.0  1.9032
  P  P23  1  0.526900  0.719150  0.388800  1.0  1.895
  P  P24  1  0.029260  0.632150  0.085000  1.0  1.9471
  P  P25  1  0.852600  0.847970  0.151100  1.0  2.0089
  P  P26  1  0.359920  0.031020  0.553300  1.0  1.8987
  P  P27  1  0.526900  0.780850  0.888800  1.0  1.8843
  P  P28  1  0.029260  0.867850  0.585000  1.0  1.9574
  P  P29  1  0.147400  0.347970  0.348900  1.0  2.0106
  P  P30  1  0.640080  0.531020  0.946700  1.0  1.9006
  P  P31  1  0.473100  0.280850  0.611200  1.0  1.8842
  P  P32  1  0.970740  0.367850  0.915000  1.0  1.9525
  O  O33  1  0.447900  0.163700  0.977900  1.0  -0.9018
  O  O34  1  0.536400  0.171300  0.219800  1.0  -0.8844
  O  O35  1  0.964600  0.196800  0.540700  1.0  -0.934
  O  O36  1  0.630500  0.062400  0.440200  1.0  -0.8299
  O  O37  1  0.962100  0.327300  0.757500  1.0  -0.8903
  O  O38  1  0.249400  0.148300  0.896100  1.0  -0.9171
  O  O39  1  0.135200  0.225300  0.744100  1.0  -0.9421
  O  O40  1  0.088400  0.158600  0.991800  1.0  -0.9923
  O  O41  1  0.117100  0.073800  0.769300  1.0  -0.8164
  O  O42  1  0.384200  0.252400  0.691200  1.0  -0.8444
  O  O43  1  0.419800  0.064200  0.422800  1.0  -0.9081
  O  O44  1  0.062600  0.086300  0.423400  1.0  -0.8808
  O  O45  1  0.259600  0.053000  0.517200  1.0  -0.9071
  O  O46  1  0.393200  0.065800  0.706300  1.0  -0.8546
  O  O47  1  0.530800  0.292900  0.058100  1.0  -0.9519
  O  O48  1  0.112900  0.922800  0.566200  1.0  -0.8381
  O  O49  1  0.552100  0.663700  0.522100  1.0  -0.9019
  O  O50  1  0.463600  0.671300  0.280200  1.0  -0.8823
  O  O51  1  0.035400  0.696800  0.959300  1.0  -0.9333
  O  O52  1  0.369500  0.562400  0.059800  1.0  -0.8298
  O  O53  1  0.037900  0.827300  0.742500  1.0  -0.8913
  O  O54  1  0.750600  0.648300  0.603900  1.0  -0.9178
  O  O55  1  0.864800  0.725300  0.755900  1.0  -0.9429
  O  O56  1  0.911600  0.658600  0.508200  1.0  -0.9935
  O  O57  1  0.882900  0.573800  0.730700  1.0  -0.8158
  O  O58  1  0.615800  0.752400  0.808800  1.0  -0.8444
  O  O59  1  0.580200  0.564200  0.077200  1.0  -0.908
  O  O60  1  0.937400  0.586300  0.076600  1.0  -0.8798
  O  O61  1  0.740400  0.553000  0.982800  1.0  -0.9084
  O  O62  1  0.606800  0.565800  0.793700  1.0  -0.8575
  O  O63  1  0.469200  0.792900  0.441900  1.0  -0.9507
  O  O64  1  0.887100  0.422800  0.933800  1.0  -0.8374
  O  O65  1  0.552100  0.836300  0.022100  1.0  -0.9044
  O  O66  1  0.463600  0.828700  0.780200  1.0  -0.8819
  O  O67  1  0.035400  0.803200  0.459300  1.0  -0.9338
  O  O68  1  0.369500  0.937600  0.559800  1.0  -0.8298
  O  O69  1  0.037900  0.672700  0.242500  1.0  -0.8912
  O  O70  1  0.750600  0.851700  0.103900  1.0  -0.919
  O  O71  1  0.864800  0.774700  0.255900  1.0  -0.943
  O  O72  1  0.911600  0.841400  0.008200  1.0  -0.9926
  O  O73  1  0.882900  0.926200  0.230700  1.0  -0.8157
  O  O74  1  0.615800  0.747600  0.308800  1.0  -0.8446
  O  O75  1  0.580200  0.935800  0.577200  1.0  -0.9079
  O  O76  1  0.937400  0.913700  0.576600  1.0  -0.8809
  O  O77  1  0.740400  0.947000  0.482800  1.0  -0.9084
  O  O78  1  0.606800  0.934200  0.293700  1.0  -0.8578
  O  O79  1  0.469200  0.707100  0.941900  1.0  -0.9503
  O  O80  1  0.887100  0.077200  0.433800  1.0  -0.8369
  O  O81  1  0.447900  0.336300  0.477900  1.0  -0.9042
  O  O82  1  0.536400  0.328700  0.719800  1.0  -0.8836
  O  O83  1  0.964600  0.303200  0.040700  1.0  -0.9329
  O  O84  1  0.630500  0.437600  0.940200  1.0  -0.8307
  O  O85  1  0.962100  0.172700  0.257500  1.0  -0.8908
  O  O86  1  0.249400  0.351700  0.396100  1.0  -0.9181
  O  O87  1  0.135200  0.274700  0.244100  1.0  -0.9419
  O  O88  1  0.088400  0.341400  0.491800  1.0  -0.9921
  O  O89  1  0.117100  0.426200  0.269300  1.0  -0.8163
  O  O90  1  0.384200  0.247600  0.191200  1.0  -0.8442
  O  O91  1  0.419800  0.435800  0.922800  1.0  -0.9079
  O  O92  1  0.062600  0.413700  0.923400  1.0  -0.8808
  O  O93  1  0.259600  0.447000  0.017200  1.0  -0.9071
  O  O94  1  0.393200  0.434200  0.206300  1.0  -0.8548
  O  O95  1  0.530800  0.207100  0.558100  1.0  -0.952
  O  O96  1  0.112900  0.577200  0.066200  1.0  -0.8381
