# generated using pymatgen
data_Mn3H11C23NO12
_symmetry_space_group_name_H-M   'P 1'
_cell_length_a   11.84900000
_cell_length_b   17.71100000
_cell_length_c   18.90300000
_cell_angle_alpha   114.86000000
_cell_angle_beta   90.00000000
_cell_angle_gamma   90.00000000
_symmetry_Int_Tables_number   1
_chemical_formula_structural   Mn3H11C23NO12
_chemical_formula_sum   'Mn12 H44 C92 N4 O48'
_cell_volume   3599.35338860
_cell_formula_units_Z   4
loop_
 _symmetry_equiv_pos_site_id
 _symmetry_equiv_pos_as_xyz
  1  'x, y, z'
loop_
 _atom_site_type_symbol
 _atom_site_label
 _atom_site_symmetry_multiplicity
 _atom_site_fract_x
 _atom_site_fract_y
 _atom_site_fract_z
 _atom_site_occupancy
 _atom_site_charge
  Mn  Mn1  1  0.580270  0.711850  0.972370  1.0  1.1428
  Mn  Mn2  1  0.819660  0.833410  0.124350  1.0  1.1686
  Mn  Mn3  1  0.449990  0.721820  0.800130  1.0  1.1299
  Mn  Mn4  1  0.080270  0.288150  0.527630  1.0  1.1427
  Mn  Mn5  1  0.319660  0.166590  0.375650  1.0  1.1682
  Mn  Mn6  1  0.949990  0.278180  0.699870  1.0  1.1291
  Mn  Mn7  1  0.419730  0.288150  0.027630  1.0  1.1425
  Mn  Mn8  1  0.180340  0.166590  0.875650  1.0  1.1683
  Mn  Mn9  1  0.550010  0.278180  0.199870  1.0  1.1285
  Mn  Mn10  1  0.919730  0.711850  0.472370  1.0  1.1428
  Mn  Mn11  1  0.680340  0.833410  0.624350  1.0  1.1687
  Mn  Mn12  1  0.050010  0.721820  0.300130  1.0  1.1295
  H  H13  1  0.655600  0.832100  0.883700  1.0  0.0896
  H  H14  1  0.557900  0.039900  0.867200  1.0  0.102
  H  H15  1  0.678500  0.050500  0.070000  1.0  0.0954
  H  H16  1  0.789200  0.499000  0.761600  1.0  0.1106
  H  H17  1  0.895500  0.521200  0.570400  1.0  0.1096
  H  H18  1  0.699100  0.696300  0.722300  1.0  0.0868
  H  H19  1  0.321400  0.869100  0.777900  1.0  0.071
  H  H20  1  0.173000  0.897300  0.716100  1.0  0.1318
  H  H21  1  0.056200  0.789200  0.641700  1.0  0.0878
  H  H22  1  0.079700  0.660500  0.638100  1.0  0.1234
  H  H23  1  0.223200  0.640700  0.708000  1.0  0.0725
  H  H24  1  0.155600  0.167900  0.616300  1.0  0.09
  H  H25  1  0.057900  0.960100  0.632800  1.0  0.1024
  H  H26  1  0.178500  0.949500  0.430000  1.0  0.0964
  H  H27  1  0.289200  0.501000  0.738400  1.0  0.1108
  H  H28  1  0.395500  0.478800  0.929600  1.0  0.1094
  H  H29  1  0.199100  0.303700  0.777700  1.0  0.0866
  H  H30  1  0.821400  0.130900  0.722100  1.0  0.0715
  H  H31  1  0.673000  0.102700  0.783900  1.0  0.1295
  H  H32  1  0.556200  0.210800  0.858300  1.0  0.0871
  H  H33  1  0.579700  0.339500  0.861900  1.0  0.1247
  H  H34  1  0.723200  0.359300  0.792000  1.0  0.073
  H  H35  1  0.344400  0.167900  0.116300  1.0  0.0901
  H  H36  1  0.442100  0.960100  0.132800  1.0  0.1023
  H  H37  1  0.321500  0.949500  0.930000  1.0  0.097
  H  H38  1  0.210800  0.501000  0.238400  1.0  0.1106
  H  H39  1  0.104500  0.478800  0.429600  1.0  0.1098
  H  H40  1  0.300900  0.303700  0.277700  1.0  0.0863
  H  H41  1  0.678600  0.130900  0.222100  1.0  0.0704
  H  H42  1  0.827000  0.102700  0.283900  1.0  0.1318
  H  H43  1  0.943800  0.210800  0.358300  1.0  0.0875
  H  H44  1  0.920300  0.339500  0.361900  1.0  0.1241
  H  H45  1  0.776800  0.359300  0.292000  1.0  0.0723
  H  H46  1  0.844400  0.832100  0.383700  1.0  0.0899
  H  H47  1  0.942100  0.039900  0.367200  1.0  0.1019
  H  H48  1  0.821500  0.050500  0.570000  1.0  0.0963
  H  H49  1  0.710800  0.499000  0.261600  1.0  0.1105
  H  H50  1  0.604500  0.521200  0.070400  1.0  0.1097
  H  H51  1  0.800900  0.696300  0.222300  1.0  0.0867
  H  H52  1  0.178600  0.869100  0.277900  1.0  0.0704
  H  H53  1  0.327000  0.897300  0.216100  1.0  0.1296
  H  H54  1  0.443800  0.789200  0.141700  1.0  0.0873
  H  H55  1  0.420300  0.660500  0.138100  1.0  0.1234
  H  H56  1  0.276800  0.640700  0.208000  1.0  0.0727
  C  C57  1  0.725100  0.892000  0.033800  1.0  0.6777
  C  C58  1  0.678600  0.933900  0.983700  1.0  -0.1673
  C  C59  1  0.647800  0.889700  0.906400  1.0  0.0153
  C  C60  1  0.605700  0.928400  0.861600  1.0  -0.1635
  C  C61  1  0.577200  0.875700  0.776000  1.0  0.7096
  C  C62  1  0.587000  0.013400  0.896500  1.0  0.0012
  C  C63  1  0.611500  0.059900  0.975400  1.0  -0.1742
  C  C64  1  0.576200  0.151300  0.019600  1.0  0.7117
  C  C65  1  0.659300  0.019600  0.018000  1.0  0.0174
  C  C66  1  0.682500  0.641800  0.835700  1.0  0.6881
  C  C67  1  0.736800  0.605500  0.756200  1.0  -0.1538
  C  C68  1  0.790100  0.528300  0.730800  1.0  0.006
  C  C69  1  0.844100  0.496100  0.659900  1.0  -0.158
  C  C70  1  0.894800  0.409900  0.632100  1.0  0.719
  C  C71  1  0.853100  0.541400  0.616000  1.0  0.0097
  C  C72  1  0.798300  0.617300  0.640500  1.0  -0.1516
  C  C73  1  0.797600  0.668900  0.593400  1.0  0.7138
  C  C74  1  0.739200  0.646900  0.707900  1.0  -0.0112
  C  C75  1  0.271000  0.826700  0.750500  1.0  0.1924
  C  C76  1  0.184300  0.844000  0.712800  1.0  -0.1829
  C  C77  1  0.114600  0.779800  0.669900  1.0  0.0433
  C  C78  1  0.127800  0.704100  0.667200  1.0  -0.1745
  C  C79  1  0.214300  0.693200  0.708600  1.0  0.1845
  C  C80  1  0.225100  0.108000  0.466200  1.0  0.6782
  C  C81  1  0.178600  0.066100  0.516300  1.0  -0.1661
  C  C82  1  0.147800  0.110300  0.593600  1.0  0.0114
  C  C83  1  0.105700  0.071600  0.638400  1.0  -0.1605
  C  C84  1  0.077200  0.124300  0.724000  1.0  0.7106
  C  C85  1  0.087000  0.986600  0.603500  1.0  0.0015
  C  C86  1  0.111500  0.940100  0.524600  1.0  -0.174
  C  C87  1  0.076200  0.848700  0.480400  1.0  0.7153
  C  C88  1  0.159300  0.980400  0.482000  1.0  0.017
  C  C89  1  0.182500  0.358200  0.664300  1.0  0.6874
  C  C90  1  0.236800  0.394500  0.743800  1.0  -0.1525
  C  C91  1  0.290100  0.471700  0.769200  1.0  0.0046
  C  C92  1  0.344100  0.503900  0.840100  1.0  -0.1578
  C  C93  1  0.394800  0.590100  0.867900  1.0  0.7194
  C  C94  1  0.353100  0.458600  0.884000  1.0  0.0111
  C  C95  1  0.298300  0.382700  0.859500  1.0  -0.1524
  C  C96  1  0.297600  0.331100  0.906600  1.0  0.7146
  C  C97  1  0.239200  0.353100  0.792100  1.0  -0.0129
  C  C98  1  0.771000  0.173300  0.749500  1.0  0.1938
  C  C99  1  0.684300  0.156000  0.787200  1.0  -0.1837
  C  C100  1  0.614600  0.220200  0.830100  1.0  0.0451
  C  C101  1  0.627800  0.295900  0.832800  1.0  -0.1749
  C  C102  1  0.714300  0.306800  0.791400  1.0  0.1843
  C  C103  1  0.274900  0.108000  0.966200  1.0  0.68
  C  C104  1  0.321400  0.066100  0.016300  1.0  -0.1672
  C  C105  1  0.352200  0.110300  0.093600  1.0  0.0086
  C  C106  1  0.394300  0.071600  0.138400  1.0  -0.162
  C  C107  1  0.422800  0.124300  0.224000  1.0  0.71
  C  C108  1  0.413000  0.986600  0.103500  1.0  0.0015
  C  C109  1  0.388500  0.940100  0.024600  1.0  -0.1729
  C  C110  1  0.423800  0.848700  0.980400  1.0  0.7127
  C  C111  1  0.340700  0.980400  0.982000  1.0  0.0183
  C  C112  1  0.317500  0.358200  0.164300  1.0  0.6868
  C  C113  1  0.263200  0.394500  0.243800  1.0  -0.1525
  C  C114  1  0.209900  0.471700  0.269200  1.0  0.0048
  C  C115  1  0.155900  0.503900  0.340100  1.0  -0.1578
  C  C116  1  0.105200  0.590100  0.367900  1.0  0.72
  C  C117  1  0.146900  0.458600  0.384000  1.0  0.0108
  C  C118  1  0.201700  0.382700  0.359500  1.0  -0.152
  C  C119  1  0.202400  0.331100  0.406600  1.0  0.7152
  C  C120  1  0.260800  0.353100  0.292100  1.0  -0.0118
  C  C121  1  0.729000  0.173300  0.249500  1.0  0.1936
  C  C122  1  0.815700  0.156000  0.287200  1.0  -0.1837
  C  C123  1  0.885400  0.220200  0.330100  1.0  0.0452
  C  C124  1  0.872200  0.295900  0.332800  1.0  -0.1752
  C  C125  1  0.785700  0.306800  0.291400  1.0  0.1838
  C  C126  1  0.774900  0.892000  0.533800  1.0  0.6789
  C  C127  1  0.821400  0.933900  0.483700  1.0  -0.167
  C  C128  1  0.852200  0.889700  0.406400  1.0  0.0132
  C  C129  1  0.894300  0.928400  0.361600  1.0  -0.1646
  C  C130  1  0.922800  0.875700  0.276000  1.0  0.7095
  C  C131  1  0.913000  0.013400  0.396500  1.0  0.0019
  C  C132  1  0.888500  0.059900  0.475400  1.0  -0.1734
  C  C133  1  0.923800  0.151300  0.519600  1.0  0.7104
  C  C134  1  0.840700  0.019600  0.518000  1.0  0.0186
  C  C135  1  0.817500  0.641800  0.335700  1.0  0.6873
  C  C136  1  0.763200  0.605500  0.256200  1.0  -0.1541
  C  C137  1  0.709900  0.528300  0.230800  1.0  0.0062
  C  C138  1  0.655900  0.496100  0.159900  1.0  -0.1581
  C  C139  1  0.605200  0.409900  0.132100  1.0  0.72
  C  C140  1  0.646900  0.541400  0.116000  1.0  0.009
  C  C141  1  0.701700  0.617300  0.140500  1.0  -0.1513
  C  C142  1  0.702400  0.668900  0.093400  1.0  0.7143
  C  C143  1  0.760800  0.646900  0.207900  1.0  -0.0103
  C  C144  1  0.229000  0.826700  0.250500  1.0  0.1928
  C  C145  1  0.315700  0.844000  0.212800  1.0  -0.1829
  C  C146  1  0.385400  0.779800  0.169900  1.0  0.043
  C  C147  1  0.372200  0.704100  0.167200  1.0  -0.1749
  C  C148  1  0.285700  0.693200  0.208600  1.0  0.184
  N  N149  1  0.287900  0.752200  0.750400  1.0  -0.3708
  N  N150  1  0.787900  0.247800  0.749600  1.0  -0.3749
  N  N151  1  0.712100  0.247800  0.249600  1.0  -0.3664
  N  N152  1  0.212100  0.752200  0.250400  1.0  -0.3647
  O  O153  1  0.716700  0.813100  0.007300  1.0  -0.6692
  O  O154  1  0.770100  0.935500  0.096500  1.0  -0.5841
  O  O155  1  0.541100  0.802700  0.757700  1.0  -0.6545
  O  O156  1  0.594400  0.907700  0.729800  1.0  -0.6246
  O  O157  1  0.529800  0.184700  0.979700  1.0  -0.6148
  O  O158  1  0.596900  0.183500  0.091200  1.0  -0.6125
  O  O159  1  0.603800  0.696400  0.848100  1.0  -0.6772
  O  O160  1  0.715200  0.622100  0.888600  1.0  -0.5743
  O  O161  1  0.870600  0.370500  0.673000  1.0  -0.648
  O  O162  1  0.954700  0.384000  0.572000  1.0  -0.6147
  O  O163  1  0.886500  0.668200  0.557600  1.0  -0.5903
  O  O164  1  0.707700  0.706900  0.594100  1.0  -0.6507
  O  O165  1  0.216700  0.186900  0.492700  1.0  -0.6671
  O  O166  1  0.270100  0.064500  0.403500  1.0  -0.5843
  O  O167  1  0.041100  0.197300  0.742300  1.0  -0.6552
  O  O168  1  0.094400  0.092300  0.770200  1.0  -0.6249
  O  O169  1  0.029800  0.815300  0.520300  1.0  -0.6137
  O  O170  1  0.096900  0.816500  0.408800  1.0  -0.6128
  O  O171  1  0.103800  0.303600  0.651900  1.0  -0.6779
  O  O172  1  0.215200  0.377900  0.611400  1.0  -0.5663
  O  O173  1  0.370600  0.629500  0.827000  1.0  -0.6478
  O  O174  1  0.454700  0.616000  0.928000  1.0  -0.6161
  O  O175  1  0.386500  0.331800  0.942400  1.0  -0.5903
  O  O176  1  0.207700  0.293100  0.905900  1.0  -0.6511
  O  O177  1  0.283300  0.186900  0.992700  1.0  -0.6679
  O  O178  1  0.229900  0.064500  0.903500  1.0  -0.5816
  O  O179  1  0.458900  0.197300  0.242300  1.0  -0.6544
  O  O180  1  0.405600  0.092300  0.270200  1.0  -0.6254
  O  O181  1  0.470200  0.815300  0.020300  1.0  -0.6142
  O  O182  1  0.403100  0.816500  0.908800  1.0  -0.614
  O  O183  1  0.396200  0.303600  0.151900  1.0  -0.6786
  O  O184  1  0.284800  0.377900  0.111400  1.0  -0.5659
  O  O185  1  0.129400  0.629500  0.327000  1.0  -0.6464
  O  O186  1  0.045300  0.616000  0.428000  1.0  -0.6147
  O  O187  1  0.113500  0.331800  0.442400  1.0  -0.5886
  O  O188  1  0.292300  0.293100  0.405900  1.0  -0.6507
  O  O189  1  0.783300  0.813100  0.507300  1.0  -0.6666
  O  O190  1  0.729900  0.935500  0.596500  1.0  -0.5809
  O  O191  1  0.958900  0.802700  0.257700  1.0  -0.6531
  O  O192  1  0.905600  0.907700  0.229800  1.0  -0.6247
  O  O193  1  0.970200  0.184700  0.479700  1.0  -0.6152
  O  O194  1  0.903100  0.183500  0.591200  1.0  -0.6136
  O  O195  1  0.896200  0.696400  0.348100  1.0  -0.6775
  O  O196  1  0.784800  0.622100  0.388600  1.0  -0.5726
  O  O197  1  0.629400  0.370500  0.173000  1.0  -0.6459
  O  O198  1  0.545300  0.384000  0.072000  1.0  -0.6141
  O  O199  1  0.613500  0.668200  0.057600  1.0  -0.5884
  O  O200  1  0.792300  0.706900  0.094100  1.0  -0.6509
