# generated using pymatgen
data_MnH2(C3O2)2
_symmetry_space_group_name_H-M   'P 1'
_cell_length_a   11.79700000
_cell_length_b   17.87600000
_cell_length_c   18.84800000
_cell_angle_alpha   116.35000000
_cell_angle_beta   90.00000000
_cell_angle_gamma   90.00000000
_symmetry_Int_Tables_number   1
_chemical_formula_structural   MnH2(C3O2)2
_chemical_formula_sum   'Mn12 H24 C72 O48'
_cell_volume   3561.74975209
_cell_formula_units_Z   12
loop_
 _symmetry_equiv_pos_site_id
 _symmetry_equiv_pos_as_xyz
  1  'x, y, z'
loop_
 _atom_site_type_symbol
 _atom_site_label
 _atom_site_symmetry_multiplicity
 _atom_site_fract_x
 _atom_site_fract_y
 _atom_site_fract_z
 _atom_site_occupancy
 _atom_site_charge
  Mn  Mn1  1  0.420800  0.785450  0.524000  1.0  1.1204
  Mn  Mn2  1  0.175110  0.666667  0.376720  1.0  1.0901
  Mn  Mn3  1  0.552310  0.787500  0.699290  1.0  1.1377
  Mn  Mn4  1  0.920800  0.214550  0.976000  1.0  1.1195
  Mn  Mn5  1  0.675110  0.333333  0.123280  1.0  1.0898
  Mn  Mn6  1  0.052310  0.212500  0.800710  1.0  1.1365
  Mn  Mn7  1  0.579200  0.214550  0.476000  1.0  1.12
  Mn  Mn8  1  0.824890  0.333333  0.623280  1.0  1.0903
  Mn  Mn9  1  0.447690  0.212500  0.300710  1.0  1.1371
  Mn  Mn10  1  0.079200  0.785450  0.024000  1.0  1.1211
  Mn  Mn11  1  0.324890  0.666667  0.876720  1.0  1.0905
  Mn  Mn12  1  0.947690  0.787500  0.199290  1.0  1.1373
  H  H13  1  0.343300  0.672400  0.615900  1.0  0.1083
  H  H14  1  0.451900  0.467000  0.631000  1.0  0.1259
  H  H15  1  0.317900  0.448600  0.428000  1.0  0.1201
  H  H16  1  0.208100  0.999600  0.741400  1.0  0.1265
  H  H17  1  0.102600  0.972800  0.930900  1.0  0.1244
  H  H18  1  0.305900  0.800600  0.770900  1.0  0.1127
  H  H19  1  0.843300  0.327600  0.884100  1.0  0.1082
  H  H20  1  0.951900  0.533000  0.869000  1.0  0.1256
  H  H21  1  0.817900  0.551400  0.072000  1.0  0.1206
  H  H22  1  0.708100  0.000400  0.758600  1.0  0.1267
  H  H23  1  0.602600  0.027200  0.569100  1.0  0.1236
  H  H24  1  0.805900  0.199400  0.729100  1.0  0.1127
  H  H25  1  0.656700  0.327600  0.384100  1.0  0.1086
  H  H26  1  0.548100  0.533000  0.369000  1.0  0.1255
  H  H27  1  0.682100  0.551400  0.572000  1.0  0.1198
  H  H28  1  0.791900  0.000400  0.258600  1.0  0.1265
  H  H29  1  0.897400  0.027200  0.069100  1.0  0.1237
  H  H30  1  0.694100  0.199400  0.229100  1.0  0.1127
  H  H31  1  0.156700  0.672400  0.115900  1.0  0.108
  H  H32  1  0.048100  0.467000  0.131000  1.0  0.1254
  H  H33  1  0.182100  0.448600  0.928000  1.0  0.1194
  H  H34  1  0.291900  0.999600  0.241400  1.0  0.1266
  H  H35  1  0.397400  0.972800  0.430900  1.0  0.124
  H  H36  1  0.194100  0.800600  0.270900  1.0  0.1127
  C  C37  1  0.274300  0.606900  0.466000  1.0  0.6584
  C  C38  1  0.322100  0.566800  0.514600  1.0  -0.1493
  C  C39  1  0.353800  0.614900  0.592900  1.0  -0.0041
  C  C40  1  0.400900  0.578000  0.637400  1.0  -0.1216
  C  C41  1  0.433100  0.631800  0.723100  1.0  0.7559
  C  C42  1  0.419700  0.492100  0.601900  1.0  -0.0011
  C  C43  1  0.390400  0.443500  0.522800  1.0  -0.1586
  C  C44  1  0.421700  0.351600  0.479500  1.0  0.7503
  C  C45  1  0.340000  0.481100  0.480100  1.0  0.0317
  C  C46  1  0.316300  0.857100  0.662100  1.0  0.7144
  C  C47  1  0.262200  0.893300  0.742100  1.0  -0.1207
  C  C48  1  0.207600  0.969500  0.770900  1.0  0.0153
  C  C49  1  0.151900  0.001600  0.843400  1.0  -0.1578
  C  C50  1  0.102300  0.087700  0.874200  1.0  0.7435
  C  C51  1  0.145800  0.954200  0.885000  1.0  0.0292
  C  C52  1  0.203700  0.879300  0.858200  1.0  -0.1158
  C  C53  1  0.206000  0.827700  0.903600  1.0  0.7442
  C  C54  1  0.264100  0.849600  0.787700  1.0  0.0008
  C  C55  1  0.774300  0.393100  0.034000  1.0  0.6584
  C  C56  1  0.822100  0.433200  0.985400  1.0  -0.1497
  C  C57  1  0.853800  0.385100  0.907100  1.0  -0.0024
  C  C58  1  0.900900  0.422000  0.862600  1.0  -0.1239
  C  C59  1  0.933100  0.368200  0.776900  1.0  0.7548
  C  C60  1  0.919700  0.507900  0.898100  1.0  0.0014
  C  C61  1  0.890400  0.556500  0.977200  1.0  -0.1588
  C  C62  1  0.921700  0.648400  0.020500  1.0  0.7493
  C  C63  1  0.840000  0.518900  0.019900  1.0  0.0328
  C  C64  1  0.816300  0.142900  0.837900  1.0  0.7147
  C  C65  1  0.762200  0.106700  0.757900  1.0  -0.1217
  C  C66  1  0.707600  0.030500  0.729100  1.0  0.0173
  C  C67  1  0.651900  0.998400  0.656600  1.0  -0.1585
  C  C68  1  0.602300  0.912300  0.625800  1.0  0.7443
  C  C69  1  0.645800  0.045800  0.615000  1.0  0.0295
  C  C70  1  0.703700  0.120700  0.641800  1.0  -0.1158
  C  C71  1  0.706000  0.172300  0.596400  1.0  0.7464
  C  C72  1  0.764100  0.150400  0.712300  1.0  0.0006
  C  C73  1  0.725700  0.393100  0.534000  1.0  0.6581
  C  C74  1  0.677900  0.433200  0.485400  1.0  -0.1515
  C  C75  1  0.646200  0.385100  0.407100  1.0  -0.0026
  C  C76  1  0.599100  0.422000  0.362600  1.0  -0.1236
  C  C77  1  0.566900  0.368200  0.276900  1.0  0.7555
  C  C78  1  0.580300  0.507900  0.398100  1.0  1e-04
  C  C79  1  0.609600  0.556500  0.477200  1.0  -0.1576
  C  C80  1  0.578300  0.648400  0.520500  1.0  0.7488
  C  C81  1  0.660000  0.518900  0.519900  1.0  0.0326
  C  C82  1  0.683700  0.142900  0.337900  1.0  0.7153
  C  C83  1  0.737800  0.106700  0.257900  1.0  -0.1218
  C  C84  1  0.792400  0.030500  0.229100  1.0  0.0172
  C  C85  1  0.848100  0.998400  0.156600  1.0  -0.1583
  C  C86  1  0.897700  0.912300  0.125800  1.0  0.7429
  C  C87  1  0.854200  0.045800  0.115000  1.0  0.0291
  C  C88  1  0.796300  0.120700  0.141800  1.0  -0.1157
  C  C89  1  0.794000  0.172300  0.096400  1.0  0.7465
  C  C90  1  0.735900  0.150400  0.212300  1.0  0.0
  C  C91  1  0.225700  0.606900  0.966000  1.0  0.6566
  C  C92  1  0.177900  0.566800  0.014600  1.0  -0.1501
  C  C93  1  0.146200  0.614900  0.092900  1.0  -0.0056
  C  C94  1  0.099100  0.578000  0.137400  1.0  -0.1198
  C  C95  1  0.066900  0.631800  0.223100  1.0  0.7542
  C  C96  1  0.080300  0.492100  0.101900  1.0  -1e-04
  C  C97  1  0.109600  0.443500  0.022800  1.0  -0.1582
  C  C98  1  0.078300  0.351600  0.979500  1.0  0.752
  C  C99  1  0.160000  0.481100  0.980100  1.0  0.0328
  C  C100  1  0.183700  0.857100  0.162100  1.0  0.715
  C  C101  1  0.237800  0.893300  0.242100  1.0  -0.121
  C  C102  1  0.292400  0.969500  0.270900  1.0  0.0152
  C  C103  1  0.348100  0.001600  0.343400  1.0  -0.1579
  C  C104  1  0.397700  0.087700  0.374200  1.0  0.7432
  C  C105  1  0.354200  0.954200  0.385000  1.0  0.0293
  C  C106  1  0.296300  0.879300  0.358200  1.0  -0.1156
  C  C107  1  0.294000  0.827700  0.403600  1.0  0.7443
  C  C108  1  0.235900  0.849600  0.287700  1.0  0.0003
  O  O109  1  0.283100  0.685150  0.490140  1.0  -0.6799
  O  O110  1  0.225700  0.561530  0.401270  1.0  -0.5974
  O  O111  1  0.469700  0.703910  0.741930  1.0  -0.711
  O  O112  1  0.418200  0.600510  0.770790  1.0  -0.6083
  O  O113  1  0.468800  0.319160  0.519430  1.0  -0.6321
  O  O114  1  0.400500  0.316550  0.407190  1.0  -0.669
  O  O115  1  0.397900  0.805040  0.648520  1.0  -0.6673
  O  O116  1  0.281100  0.875350  0.609640  1.0  -0.5816
  O  O117  1  0.128500  0.127550  0.835910  1.0  -0.6513
  O  O118  1  0.041100  0.113510  0.934750  1.0  -0.6006
  O  O119  1  0.116500  0.825300  0.938060  1.0  -0.6109
  O  O120  1  0.297800  0.791820  0.902970  1.0  -0.6651
  O  O121  1  0.783100  0.314850  0.009860  1.0  -0.6769
  O  O122  1  0.725700  0.438470  0.098730  1.0  -0.5977
  O  O123  1  0.969700  0.296090  0.758070  1.0  -0.7103
  O  O124  1  0.918200  0.399490  0.729210  1.0  -0.6126
  O  O125  1  0.968800  0.680840  0.980570  1.0  -0.6362
  O  O126  1  0.900500  0.683450  0.092810  1.0  -0.6717
  O  O127  1  0.897900  0.194960  0.851480  1.0  -0.6664
  O  O128  1  0.781100  0.124650  0.890360  1.0  -0.5841
  O  O129  1  0.628500  0.872450  0.664090  1.0  -0.6557
  O  O130  1  0.541100  0.886490  0.565250  1.0  -0.5995
  O  O131  1  0.616500  0.174700  0.561940  1.0  -0.6104
  O  O132  1  0.797800  0.208180  0.597030  1.0  -0.6648
  O  O133  1  0.716900  0.314850  0.509860  1.0  -0.6796
  O  O134  1  0.774300  0.438470  0.598730  1.0  -0.5975
  O  O135  1  0.530300  0.296090  0.258070  1.0  -0.7092
  O  O136  1  0.581800  0.399490  0.229210  1.0  -0.6124
  O  O137  1  0.531200  0.680840  0.480570  1.0  -0.6354
  O  O138  1  0.599500  0.683450  0.592810  1.0  -0.6678
  O  O139  1  0.602100  0.194960  0.351480  1.0  -0.666
  O  O140  1  0.718900  0.124650  0.390360  1.0  -0.5861
  O  O141  1  0.871500  0.872450  0.164090  1.0  -0.6579
  O  O142  1  0.958900  0.886490  0.065250  1.0  -0.6008
  O  O143  1  0.883500  0.174700  0.061940  1.0  -0.609
  O  O144  1  0.702200  0.208180  0.097030  1.0  -0.6657
  O  O145  1  0.216900  0.685150  0.990140  1.0  -0.6768
  O  O146  1  0.274300  0.561530  0.901270  1.0  -0.5954
  O  O147  1  0.030300  0.703910  0.241930  1.0  -0.7096
  O  O148  1  0.081800  0.600510  0.270790  1.0  -0.6084
  O  O149  1  0.031200  0.319160  0.019430  1.0  -0.6333
  O  O150  1  0.099500  0.316550  0.907190  1.0  -0.6662
  O  O151  1  0.102100  0.805040  0.148520  1.0  -0.6665
  O  O152  1  0.218900  0.875350  0.109640  1.0  -0.5826
  O  O153  1  0.371500  0.127550  0.335910  1.0  -0.6554
  O  O154  1  0.458900  0.113510  0.434750  1.0  -0.6026
  O  O155  1  0.383500  0.825300  0.438060  1.0  -0.6118
  O  O156  1  0.202200  0.791820  0.402970  1.0  -0.6654
