# generated using pymatgen
data_ZnH3C7NO4
_symmetry_space_group_name_H-M   'P 1'
_cell_length_a   14.21600000
_cell_length_b   14.44700000
_cell_length_c   27.86500000
_cell_angle_alpha   90.00000000
_cell_angle_beta   90.00000000
_cell_angle_gamma   90.00000000
_symmetry_Int_Tables_number   1
_chemical_formula_structural   ZnH3C7NO4
_chemical_formula_sum   'Zn16 H48 C112 N16 O64'
_cell_volume   5722.87335148
_cell_formula_units_Z   16
loop_
 _symmetry_equiv_pos_site_id
 _symmetry_equiv_pos_as_xyz
  1  'x, y, z'
loop_
 _atom_site_type_symbol
 _atom_site_label
 _atom_site_symmetry_multiplicity
 _atom_site_fract_x
 _atom_site_fract_y
 _atom_site_fract_z
 _atom_site_occupancy
 _atom_site_charge
  Zn  Zn1  1  0.209470  0.100070  0.098550  1.0  0.9491
  Zn  Zn2  1  0.213080  0.483530  0.845020  1.0  0.8756
  Zn  Zn3  1  0.290530  0.899930  0.598550  1.0  0.949
  Zn  Zn4  1  0.286920  0.516470  0.345020  1.0  0.8751
  Zn  Zn5  1  0.790530  0.600070  0.401450  1.0  0.9493
  Zn  Zn6  1  0.786920  0.983530  0.654980  1.0  0.875
  Zn  Zn7  1  0.709470  0.399930  0.901450  1.0  0.9487
  Zn  Zn8  1  0.713080  0.016470  0.154980  1.0  0.8753
  Zn  Zn9  1  0.790530  0.899930  0.901450  1.0  0.9489
  Zn  Zn10  1  0.786920  0.516470  0.154980  1.0  0.8749
  Zn  Zn11  1  0.709470  0.100070  0.401450  1.0  0.949
  Zn  Zn12  1  0.713080  0.483530  0.654980  1.0  0.8755
  Zn  Zn13  1  0.209470  0.399930  0.598550  1.0  0.9487
  Zn  Zn14  1  0.213080  0.016470  0.345020  1.0  0.8755
  Zn  Zn15  1  0.290530  0.600070  0.098550  1.0  0.9495
  Zn  Zn16  1  0.286920  0.983530  0.845020  1.0  0.8753
  H  H17  1  0.212900  0.281800  0.852100  1.0  0.0935
  H  H18  1  0.200000  0.355200  0.011300  1.0  0.1258
  H  H19  1  0.193400  0.467200  0.953200  1.0  0.0887
  H  H20  1  0.917000  0.053400  0.139400  1.0  0.0916
  H  H21  1  0.902500  0.054700  0.303600  1.0  0.122
  H  H22  1  0.769800  0.037000  0.257800  1.0  0.0889
  H  H23  1  0.287100  0.718200  0.352100  1.0  0.0938
  H  H24  1  0.300000  0.644800  0.511300  1.0  0.1259
  H  H25  1  0.306600  0.532800  0.453200  1.0  0.0893
  H  H26  1  0.583000  0.946600  0.639400  1.0  0.0911
  H  H27  1  0.597500  0.945300  0.803600  1.0  0.122
  H  H28  1  0.730200  0.963000  0.757800  1.0  0.0891
  H  H29  1  0.787100  0.781800  0.647900  1.0  0.0933
  H  H30  1  0.800000  0.855200  0.488700  1.0  0.1262
  H  H31  1  0.806600  0.967200  0.546800  1.0  0.0887
  H  H32  1  0.083000  0.553400  0.360600  1.0  0.091
  H  H33  1  0.097500  0.554700  0.196400  1.0  0.122
  H  H34  1  0.230200  0.537000  0.242200  1.0  0.088
  H  H35  1  0.712900  0.218200  0.147900  1.0  0.0939
  H  H36  1  0.700000  0.144800  0.988700  1.0  0.1262
  H  H37  1  0.693400  0.032800  0.046800  1.0  0.0891
  H  H38  1  0.417000  0.446600  0.860600  1.0  0.0912
  H  H39  1  0.402500  0.445300  0.696400  1.0  0.1223
  H  H40  1  0.269800  0.463000  0.742200  1.0  0.0884
  H  H41  1  0.787100  0.718200  0.147900  1.0  0.0937
  H  H42  1  0.800000  0.644800  0.988700  1.0  0.1261
  H  H43  1  0.806600  0.532800  0.046800  1.0  0.0891
  H  H44  1  0.083000  0.946600  0.860600  1.0  0.0907
  H  H45  1  0.097500  0.945300  0.696400  1.0  0.122
  H  H46  1  0.230200  0.963000  0.742200  1.0  0.0883
  H  H47  1  0.712900  0.281800  0.647900  1.0  0.0935
  H  H48  1  0.700000  0.355200  0.488700  1.0  0.1261
  H  H49  1  0.693400  0.467200  0.546800  1.0  0.0888
  H  H50  1  0.417000  0.053400  0.360600  1.0  0.0907
  H  H51  1  0.402500  0.054700  0.196400  1.0  0.1223
  H  H52  1  0.269800  0.037000  0.242200  1.0  0.088
  H  H53  1  0.212900  0.218200  0.352100  1.0  0.0939
  H  H54  1  0.200000  0.144800  0.511300  1.0  0.126
  H  H55  1  0.193400  0.032800  0.453200  1.0  0.0891
  H  H56  1  0.917000  0.446600  0.639400  1.0  0.091
  H  H57  1  0.902500  0.445300  0.803600  1.0  0.1219
  H  H58  1  0.769800  0.463000  0.757800  1.0  0.0889
  H  H59  1  0.287100  0.781800  0.852100  1.0  0.0932
  H  H60  1  0.300000  0.855200  0.011300  1.0  0.1259
  H  H61  1  0.306600  0.967200  0.953200  1.0  0.0887
  H  H62  1  0.583000  0.553400  0.139400  1.0  0.0907
  H  H63  1  0.597500  0.554700  0.303600  1.0  0.1221
  H  H64  1  0.730200  0.537000  0.257800  1.0  0.0891
  C  C65  1  0.211200  0.296600  0.884600  1.0  0.1701
  C  C66  1  0.216500  0.224700  0.917800  1.0  -0.1244
  C  C67  1  0.215600  0.247500  0.966700  1.0  0.0115
  C  C68  1  0.204500  0.338500  0.979100  1.0  -0.1577
  C  C69  1  0.199700  0.405600  0.944000  1.0  0.1699
  C  C70  1  0.220700  0.126400  0.899700  1.0  0.667
  C  C71  1  0.236600  0.174700  0.004700  1.0  0.653
  C  C72  1  0.914600  0.053300  0.172800  1.0  0.1904
  C  C73  1  0.998000  0.065000  0.198200  1.0  -0.1658
  C  C74  1  0.994600  0.064900  0.248400  1.0  0.062
  C  C75  1  0.907200  0.054400  0.270300  1.0  -0.1668
  C  C76  1  0.827600  0.043500  0.242600  1.0  0.1865
  C  C77  1  0.088800  0.069800  0.170800  1.0  0.6741
  C  C78  1  0.082100  0.079400  0.278300  1.0  0.6314
  C  C79  1  0.288800  0.703400  0.384600  1.0  0.1709
  C  C80  1  0.283500  0.775300  0.417800  1.0  -0.1249
  C  C81  1  0.284400  0.752500  0.466700  1.0  0.0126
  C  C82  1  0.295500  0.661500  0.479100  1.0  -0.1571
  C  C83  1  0.300300  0.594400  0.444000  1.0  0.1694
  C  C84  1  0.279300  0.873600  0.399700  1.0  0.667
  C  C85  1  0.263400  0.825300  0.504700  1.0  0.6514
  C  C86  1  0.585400  0.946700  0.672800  1.0  0.19
  C  C87  1  0.502000  0.935000  0.698200  1.0  -0.1676
  C  C88  1  0.505400  0.935100  0.748400  1.0  0.0617
  C  C89  1  0.592800  0.945600  0.770300  1.0  -0.1679
  C  C90  1  0.672400  0.956500  0.742600  1.0  0.188
  C  C91  1  0.411200  0.930200  0.670800  1.0  0.6748
  C  C92  1  0.417900  0.920600  0.778300  1.0  0.6313
  C  C93  1  0.788800  0.796600  0.615400  1.0  0.1692
  C  C94  1  0.783500  0.724700  0.582200  1.0  -0.1255
  C  C95  1  0.784400  0.747500  0.533300  1.0  0.009
  C  C96  1  0.795500  0.838500  0.520900  1.0  -0.1561
  C  C97  1  0.800300  0.905600  0.556000  1.0  0.1702
  C  C98  1  0.779300  0.626400  0.600300  1.0  0.6673
  C  C99  1  0.763400  0.674700  0.495300  1.0  0.6536
  C  C100  1  0.085400  0.553300  0.327200  1.0  0.19
  C  C101  1  0.002000  0.565000  0.301800  1.0  -0.1685
  C  C102  1  0.005400  0.564900  0.251600  1.0  0.061
  C  C103  1  0.092800  0.554400  0.229700  1.0  -0.1694
  C  C104  1  0.172400  0.543500  0.257400  1.0  0.1879
  C  C105  1  0.911200  0.569800  0.329200  1.0  0.6739
  C  C106  1  0.917900  0.579400  0.221700  1.0  0.631
  C  C107  1  0.711200  0.203400  0.115400  1.0  0.1687
  C  C108  1  0.716500  0.275300  0.082200  1.0  -0.1235
  C  C109  1  0.715600  0.252500  0.033300  1.0  0.0102
  C  C110  1  0.704500  0.161500  0.020900  1.0  -0.1546
  C  C111  1  0.699700  0.094400  0.056000  1.0  0.1702
  C  C112  1  0.720700  0.373600  0.100300  1.0  0.6673
  C  C113  1  0.736600  0.325300  0.995300  1.0  0.6527
  C  C114  1  0.414600  0.446700  0.827200  1.0  0.1899
  C  C115  1  0.498000  0.435000  0.801800  1.0  -0.1676
  C  C116  1  0.494600  0.435100  0.751600  1.0  0.0604
  C  C117  1  0.407200  0.445600  0.729700  1.0  -0.1683
  C  C118  1  0.327600  0.456500  0.757400  1.0  0.187
  C  C119  1  0.588800  0.430200  0.829200  1.0  0.6741
  C  C120  1  0.582100  0.420600  0.721700  1.0  0.6309
  C  C121  1  0.788800  0.703400  0.115400  1.0  0.1691
  C  C122  1  0.783500  0.775300  0.082200  1.0  -0.1246
  C  C123  1  0.784400  0.752500  0.033300  1.0  0.0106
  C  C124  1  0.795500  0.661500  0.020900  1.0  -0.1555
  C  C125  1  0.800300  0.594400  0.056000  1.0  0.17
  C  C126  1  0.779300  0.873600  0.100300  1.0  0.6672
  C  C127  1  0.763400  0.825300  0.995300  1.0  0.6532
  C  C128  1  0.085400  0.946700  0.827200  1.0  0.19
  C  C129  1  0.002000  0.935000  0.801800  1.0  -0.1689
  C  C130  1  0.005400  0.935100  0.751600  1.0  0.0606
  C  C131  1  0.092800  0.945600  0.729700  1.0  -0.1694
  C  C132  1  0.172400  0.956500  0.757400  1.0  0.1884
  C  C133  1  0.911200  0.930200  0.829200  1.0  0.6739
  C  C134  1  0.917900  0.920600  0.721700  1.0  0.6307
  C  C135  1  0.711200  0.296600  0.615400  1.0  0.169
  C  C136  1  0.716500  0.224700  0.582200  1.0  -0.1243
  C  C137  1  0.715600  0.247500  0.533300  1.0  0.0086
  C  C138  1  0.704500  0.338500  0.520900  1.0  -0.1551
  C  C139  1  0.699700  0.405600  0.556000  1.0  0.1704
  C  C140  1  0.720700  0.126400  0.600300  1.0  0.6674
  C  C141  1  0.736600  0.174700  0.495300  1.0  0.6528
  C  C142  1  0.414600  0.053300  0.327200  1.0  0.1899
  C  C143  1  0.498000  0.065000  0.301800  1.0  -0.1675
  C  C144  1  0.494600  0.064900  0.251600  1.0  0.0607
  C  C145  1  0.407200  0.054400  0.229700  1.0  -0.1684
  C  C146  1  0.327600  0.043500  0.257400  1.0  0.1866
  C  C147  1  0.588800  0.069800  0.329200  1.0  0.6741
  C  C148  1  0.582100  0.079400  0.221700  1.0  0.6312
  C  C149  1  0.211200  0.203400  0.384600  1.0  0.1704
  C  C150  1  0.216500  0.275300  0.417800  1.0  -0.1238
  C  C151  1  0.215600  0.252500  0.466700  1.0  0.0122
  C  C152  1  0.204500  0.161500  0.479100  1.0  -0.1574
  C  C153  1  0.199700  0.094400  0.444000  1.0  0.1694
  C  C154  1  0.220700  0.373600  0.399700  1.0  0.6671
  C  C155  1  0.236600  0.325300  0.504700  1.0  0.6526
  C  C156  1  0.914600  0.446700  0.672800  1.0  0.1905
  C  C157  1  0.998000  0.435000  0.698200  1.0  -0.1661
  C  C158  1  0.994600  0.435100  0.748400  1.0  0.0618
  C  C159  1  0.907200  0.445600  0.770300  1.0  -0.1668
  C  C160  1  0.827600  0.456500  0.742600  1.0  0.1866
  C  C161  1  0.088800  0.430200  0.670800  1.0  0.6741
  C  C162  1  0.082100  0.420600  0.778300  1.0  0.6318
  C  C163  1  0.288800  0.796600  0.884600  1.0  0.1705
  C  C164  1  0.283500  0.724700  0.917800  1.0  -0.1255
  C  C165  1  0.284400  0.747500  0.966700  1.0  0.012
  C  C166  1  0.295500  0.838500  0.979100  1.0  -0.1572
  C  C167  1  0.300300  0.905600  0.944000  1.0  0.1698
  C  C168  1  0.279300  0.626400  0.899700  1.0  0.667
  C  C169  1  0.263400  0.674700  0.004700  1.0  0.6522
  C  C170  1  0.585400  0.553300  0.172800  1.0  0.19
  C  C171  1  0.502000  0.565000  0.198200  1.0  -0.1672
  C  C172  1  0.505400  0.564900  0.248400  1.0  0.0619
  C  C173  1  0.592800  0.554400  0.270300  1.0  -0.1679
  C  C174  1  0.672400  0.543500  0.242600  1.0  0.1879
  C  C175  1  0.411200  0.569800  0.170800  1.0  0.6748
  C  C176  1  0.417900  0.579400  0.278300  1.0  0.631
  N  N177  1  0.203900  0.385500  0.897000  1.0  -0.3417
  N  N178  1  0.830700  0.041800  0.194190  1.0  -0.3499
  N  N179  1  0.296100  0.614500  0.397000  1.0  -0.3426
  N  N180  1  0.669300  0.958200  0.694190  1.0  -0.3492
  N  N181  1  0.796100  0.885500  0.603000  1.0  -0.3421
  N  N182  1  0.169300  0.541800  0.305810  1.0  -0.3493
  N  N183  1  0.703900  0.114500  0.103000  1.0  -0.3413
  N  N184  1  0.330700  0.458200  0.805810  1.0  -0.3489
  N  N185  1  0.796100  0.614500  0.103000  1.0  -0.3417
  N  N186  1  0.169300  0.958200  0.805810  1.0  -0.3488
  N  N187  1  0.703900  0.385500  0.603000  1.0  -0.3418
  N  N188  1  0.330700  0.041800  0.305810  1.0  -0.3495
  N  N189  1  0.203900  0.114500  0.397000  1.0  -0.3424
  N  N190  1  0.830700  0.458200  0.694190  1.0  -0.3493
  N  N191  1  0.296100  0.885500  0.897000  1.0  -0.342
  N  N192  1  0.669300  0.541800  0.194190  1.0  -0.3496
  O  O193  1  0.286100  0.109400  0.869800  1.0  -0.5897
  O  O194  1  0.161400  0.070700  0.913520  1.0  -0.595
  O  O195  1  0.296100  0.116000  0.996140  1.0  -0.546
  O  O196  1  0.189500  0.183200  0.042770  1.0  -0.561
  O  O197  1  0.101300  0.010000  0.305330  1.0  -0.5976
  O  O198  1  0.124700  0.151900  0.276550  1.0  -0.5631
  O  O199  1  0.158300  0.026700  0.185660  1.0  -0.5499
  O  O200  1  0.088200  0.119100  0.133110  1.0  -0.5396
  O  O201  1  0.213900  0.890600  0.369800  1.0  -0.5891
  O  O202  1  0.338600  0.929300  0.413520  1.0  -0.5949
  O  O203  1  0.203900  0.884000  0.496140  1.0  -0.545
  O  O204  1  0.310500  0.816800  0.542770  1.0  -0.5617
  O  O205  1  0.398700  0.990000  0.805330  1.0  -0.5966
  O  O206  1  0.375300  0.848100  0.776550  1.0  -0.5613
  O  O207  1  0.341700  0.973300  0.685660  1.0  -0.5498
  O  O208  1  0.411800  0.880900  0.633110  1.0  -0.5413
  O  O209  1  0.713900  0.609400  0.630200  1.0  -0.5897
  O  O210  1  0.838600  0.570700  0.586480  1.0  -0.5947
  O  O211  1  0.703900  0.616000  0.503860  1.0  -0.545
  O  O212  1  0.810500  0.683200  0.457230  1.0  -0.5628
  O  O213  1  0.898700  0.510000  0.194670  1.0  -0.5969
  O  O214  1  0.875300  0.651900  0.223450  1.0  -0.5611
  O  O215  1  0.841700  0.526700  0.314340  1.0  -0.5497
  O  O216  1  0.911800  0.619100  0.366890  1.0  -0.5398
  O  O217  1  0.786100  0.390600  0.130200  1.0  -0.5898
  O  O218  1  0.661400  0.429300  0.086480  1.0  -0.5956
  O  O219  1  0.796100  0.384000  0.003860  1.0  -0.5458
  O  O220  1  0.689500  0.316800  0.957230  1.0  -0.5624
  O  O221  1  0.601300  0.490000  0.694670  1.0  -0.5967
  O  O222  1  0.624700  0.348100  0.723450  1.0  -0.5624
  O  O223  1  0.658300  0.473300  0.814340  1.0  -0.5501
  O  O224  1  0.588200  0.380900  0.866890  1.0  -0.5408
  O  O225  1  0.713900  0.890600  0.130200  1.0  -0.5895
  O  O226  1  0.838600  0.929300  0.086480  1.0  -0.5953
  O  O227  1  0.703900  0.884000  0.003860  1.0  -0.545
  O  O228  1  0.810500  0.816800  0.957230  1.0  -0.5629
  O  O229  1  0.898700  0.990000  0.694670  1.0  -0.5962
  O  O230  1  0.875300  0.848100  0.723450  1.0  -0.5608
  O  O231  1  0.841700  0.973300  0.814340  1.0  -0.5494
  O  O232  1  0.911800  0.880900  0.866890  1.0  -0.5413
  O  O233  1  0.786100  0.109400  0.630200  1.0  -0.5902
  O  O234  1  0.661400  0.070700  0.586480  1.0  -0.596
  O  O235  1  0.796100  0.116000  0.503860  1.0  -0.5453
  O  O236  1  0.689500  0.183200  0.457230  1.0  -0.5622
  O  O237  1  0.601300  0.010000  0.194670  1.0  -0.5969
  O  O238  1  0.624700  0.151900  0.223450  1.0  -0.5625
  O  O239  1  0.658300  0.026700  0.314340  1.0  -0.5501
  O  O240  1  0.588200  0.119100  0.366890  1.0  -0.5393
  O  O241  1  0.286100  0.390600  0.369800  1.0  -0.5894
  O  O242  1  0.161400  0.429300  0.413520  1.0  -0.5948
  O  O243  1  0.296100  0.384000  0.496140  1.0  -0.5462
  O  O244  1  0.189500  0.316800  0.542770  1.0  -0.5609
  O  O245  1  0.101300  0.490000  0.805330  1.0  -0.5972
  O  O246  1  0.124700  0.348100  0.776550  1.0  -0.5631
  O  O247  1  0.158300  0.473300  0.685660  1.0  -0.5502
  O  O248  1  0.088200  0.380900  0.633110  1.0  -0.5409
  O  O249  1  0.213900  0.609400  0.869800  1.0  -0.5897
  O  O250  1  0.338600  0.570700  0.913520  1.0  -0.5939
  O  O251  1  0.203900  0.616000  0.996140  1.0  -0.5457
  O  O252  1  0.310500  0.683200  0.042770  1.0  -0.5617
  O  O253  1  0.398700  0.510000  0.305330  1.0  -0.5976
  O  O254  1  0.375300  0.651900  0.276550  1.0  -0.5614
  O  O255  1  0.341700  0.526700  0.185660  1.0  -0.5498
  O  O256  1  0.411800  0.619100  0.133110  1.0  -0.5401
