# generated using pymatgen
data_Eu2H15C28O15
_symmetry_space_group_name_H-M   'P 1'
_cell_length_a   26.40640000
_cell_length_b   14.44120000
_cell_length_c   25.37770000
_cell_angle_alpha   90.00000000
_cell_angle_beta   113.33300000
_cell_angle_gamma   90.00000000
_symmetry_Int_Tables_number   1
_chemical_formula_structural   Eu2H15C28O15
_chemical_formula_sum   'Eu16 H120 C224 O120'
_cell_volume   8886.09058135
_cell_formula_units_Z   8
loop_
 _symmetry_equiv_pos_site_id
 _symmetry_equiv_pos_as_xyz
  1  'x, y, z'
loop_
 _atom_site_type_symbol
 _atom_site_label
 _atom_site_symmetry_multiplicity
 _atom_site_fract_x
 _atom_site_fract_y
 _atom_site_fract_z
 _atom_site_occupancy
 _atom_site_charge
  Eu  Eu1  1  0.334760  0.584320  0.301700  1.0  2.1613
  Eu  Eu2  1  0.286450  0.363950  0.189900  1.0  2.1389
  Eu  Eu3  1  0.834760  0.084320  0.301700  1.0  2.1613
  Eu  Eu4  1  0.786450  0.863950  0.189900  1.0  2.1389
  Eu  Eu5  1  0.665240  0.584320  0.198300  1.0  2.1612
  Eu  Eu6  1  0.713550  0.363950  0.310100  1.0  2.1386
  Eu  Eu7  1  0.165240  0.084320  0.198300  1.0  2.1612
  Eu  Eu8  1  0.213550  0.863950  0.310100  1.0  2.1386
  Eu  Eu9  1  0.665240  0.415680  0.698300  1.0  2.1626
  Eu  Eu10  1  0.713550  0.636050  0.810100  1.0  2.1385
  Eu  Eu11  1  0.165240  0.915680  0.698300  1.0  2.1626
  Eu  Eu12  1  0.213550  0.136050  0.810100  1.0  2.1385
  Eu  Eu13  1  0.334760  0.415680  0.801700  1.0  2.1604
  Eu  Eu14  1  0.286450  0.636050  0.689900  1.0  2.1387
  Eu  Eu15  1  0.834760  0.915680  0.801700  1.0  2.1604
  Eu  Eu16  1  0.786450  0.136050  0.689900  1.0  2.1387
  H  H17  1  0.428100  0.300300  0.258800  1.0  0.1321
  H  H18  1  0.260900  0.263700  0.088800  1.0  0.4481
  H  H19  1  0.346200  0.671900  0.494400  1.0  0.12
  H  H20  1  0.205500  0.484300  0.231600  1.0  0.0955
  H  H21  1  0.241600  0.713900  0.194300  1.0  0.1147
  H  H22  1  0.096800  0.610200  0.281000  1.0  0.1308
  H  H23  1  0.076700  0.340900  0.234300  1.0  0.1305
  H  H24  1  0.047500  0.473400  0.267100  1.0  0.1173
  H  H25  1  0.452500  0.476500  0.490800  1.0  0.1122
  H  H26  1  0.422300  0.512800  0.632500  1.0  0.1118
  H  H27  1  0.159500  0.864100  0.053700  1.0  0.123
  H  H28  1  0.471300  0.440500  0.585400  1.0  0.1253
  H  H29  1  0.204100  0.601400  0.039600  1.0  0.131
  H  H30  1  0.161700  0.739400  0.997300  1.0  0.1218
  H  H31  1  0.928100  0.800300  0.258800  1.0  0.1321
  H  H32  1  0.760900  0.763700  0.088800  1.0  0.4481
  H  H33  1  0.846200  0.171900  0.494400  1.0  0.12
  H  H34  1  0.705500  0.984300  0.231600  1.0  0.0955
  H  H35  1  0.741600  0.213900  0.194300  1.0  0.1147
  H  H36  1  0.596800  0.110200  0.281000  1.0  0.1308
  H  H37  1  0.576700  0.840900  0.234300  1.0  0.1305
  H  H38  1  0.547500  0.973400  0.267100  1.0  0.1173
  H  H39  1  0.952500  0.976500  0.490800  1.0  0.1122
  H  H40  1  0.922300  0.012800  0.632500  1.0  0.1118
  H  H41  1  0.659500  0.364100  0.053700  1.0  0.123
  H  H42  1  0.971300  0.940500  0.585400  1.0  0.1253
  H  H43  1  0.704100  0.101400  0.039600  1.0  0.131
  H  H44  1  0.661700  0.239400  0.997300  1.0  0.1218
  H  H45  1  0.571900  0.300300  0.241200  1.0  0.1321
  H  H46  1  0.739100  0.263700  0.411200  1.0  0.4463
  H  H47  1  0.653800  0.671900  0.005600  1.0  0.1197
  H  H48  1  0.794500  0.484300  0.268400  1.0  0.0969
  H  H49  1  0.758400  0.713900  0.305700  1.0  0.1145
  H  H50  1  0.903200  0.610200  0.219000  1.0  0.1313
  H  H51  1  0.923300  0.340900  0.265700  1.0  0.1303
  H  H52  1  0.952500  0.473400  0.232900  1.0  0.1169
  H  H53  1  0.547500  0.476500  0.009200  1.0  0.1125
  H  H54  1  0.577700  0.512800  0.867500  1.0  0.1122
  H  H55  1  0.840500  0.864100  0.446300  1.0  0.1224
  H  H56  1  0.528700  0.440500  0.914600  1.0  0.1251
  H  H57  1  0.795900  0.601400  0.460400  1.0  0.1318
  H  H58  1  0.838300  0.739400  0.502700  1.0  0.1232
  H  H59  1  0.071900  0.800300  0.241200  1.0  0.1321
  H  H60  1  0.239100  0.763700  0.411200  1.0  0.4463
  H  H61  1  0.153800  0.171900  0.005600  1.0  0.1197
  H  H62  1  0.294500  0.984300  0.268400  1.0  0.0969
  H  H63  1  0.258400  0.213900  0.305700  1.0  0.1145
  H  H64  1  0.403200  0.110200  0.219000  1.0  0.1313
  H  H65  1  0.423300  0.840900  0.265700  1.0  0.1303
  H  H66  1  0.452500  0.973400  0.232900  1.0  0.1169
  H  H67  1  0.047500  0.976500  0.009200  1.0  0.1125
  H  H68  1  0.077700  0.012800  0.867500  1.0  0.1122
  H  H69  1  0.340500  0.364100  0.446300  1.0  0.1224
  H  H70  1  0.028700  0.940500  0.914600  1.0  0.1251
  H  H71  1  0.295900  0.101400  0.460400  1.0  0.1318
  H  H72  1  0.338300  0.239400  0.502700  1.0  0.1232
  H  H73  1  0.571900  0.699700  0.741200  1.0  0.132
  H  H74  1  0.739100  0.736300  0.911200  1.0  0.4466
  H  H75  1  0.653800  0.328100  0.505600  1.0  0.1199
  H  H76  1  0.794500  0.515700  0.768400  1.0  0.0971
  H  H77  1  0.758400  0.286100  0.805700  1.0  0.1143
  H  H78  1  0.903200  0.389800  0.719000  1.0  0.1312
  H  H79  1  0.923300  0.659100  0.765700  1.0  0.1308
  H  H80  1  0.952500  0.526600  0.732900  1.0  0.1171
  H  H81  1  0.547500  0.523500  0.509200  1.0  0.1133
  H  H82  1  0.577700  0.487200  0.367500  1.0  0.1121
  H  H83  1  0.840500  0.135900  0.946300  1.0  0.1231
  H  H84  1  0.528700  0.559500  0.414600  1.0  0.1255
  H  H85  1  0.795900  0.398600  0.960400  1.0  0.1322
  H  H86  1  0.838300  0.260600  0.002700  1.0  0.1231
  H  H87  1  0.071900  0.199700  0.741200  1.0  0.132
  H  H88  1  0.239100  0.236300  0.911200  1.0  0.4466
  H  H89  1  0.153800  0.828100  0.505600  1.0  0.1199
  H  H90  1  0.294500  0.015700  0.768400  1.0  0.0971
  H  H91  1  0.258400  0.786100  0.805700  1.0  0.1143
  H  H92  1  0.403200  0.889800  0.719000  1.0  0.1312
  H  H93  1  0.423300  0.159100  0.765700  1.0  0.1308
  H  H94  1  0.452500  0.026600  0.732900  1.0  0.1171
  H  H95  1  0.047500  0.023500  0.509200  1.0  0.1133
  H  H96  1  0.077700  0.987200  0.367500  1.0  0.1121
  H  H97  1  0.340500  0.635900  0.946300  1.0  0.1231
  H  H98  1  0.028700  0.059500  0.414600  1.0  0.1255
  H  H99  1  0.295900  0.898600  0.960400  1.0  0.1322
  H  H100  1  0.338300  0.760600  0.002700  1.0  0.1231
  H  H101  1  0.428100  0.699700  0.758800  1.0  0.1322
  H  H102  1  0.260900  0.736300  0.588800  1.0  0.448
  H  H103  1  0.346200  0.328100  0.994400  1.0  0.1197
  H  H104  1  0.205500  0.515700  0.731600  1.0  0.0957
  H  H105  1  0.241600  0.286100  0.694300  1.0  0.1144
  H  H106  1  0.096800  0.389800  0.781000  1.0  0.1313
  H  H107  1  0.076700  0.659100  0.734300  1.0  0.1309
  H  H108  1  0.047500  0.526600  0.767100  1.0  0.1173
  H  H109  1  0.452500  0.523500  0.990800  1.0  0.1133
  H  H110  1  0.422300  0.487200  0.132500  1.0  0.1119
  H  H111  1  0.159500  0.135900  0.553700  1.0  0.1224
  H  H112  1  0.471300  0.559500  0.085400  1.0  0.125
  H  H113  1  0.204100  0.398600  0.539600  1.0  0.1318
  H  H114  1  0.161700  0.260600  0.497300  1.0  0.1216
  H  H115  1  0.928100  0.199700  0.758800  1.0  0.1322
  H  H116  1  0.760900  0.236300  0.588800  1.0  0.448
  H  H117  1  0.846200  0.828100  0.994400  1.0  0.1197
  H  H118  1  0.705500  0.015700  0.731600  1.0  0.0957
  H  H119  1  0.741600  0.786100  0.694300  1.0  0.1144
  H  H120  1  0.596800  0.889800  0.781000  1.0  0.1313
  H  H121  1  0.576700  0.159100  0.734300  1.0  0.1309
  H  H122  1  0.547500  0.026600  0.767100  1.0  0.1173
  H  H123  1  0.952500  0.023500  0.990800  1.0  0.1133
  H  H124  1  0.922300  0.987200  0.132500  1.0  0.1119
  H  H125  1  0.659500  0.635900  0.553700  1.0  0.1224
  H  H126  1  0.971300  0.059500  0.085400  1.0  0.125
  H  H127  1  0.704100  0.898600  0.539600  1.0  0.1318
  H  H128  1  0.661700  0.760600  0.497300  1.0  0.1216
  H  H129  1  0.500000  0.541800  0.250000  1.0  0.1294
  H  H130  1  0.500000  0.222800  0.250000  1.0  0.1141
  H  H131  1  0.000000  0.041800  0.250000  1.0  0.1294
  H  H132  1  0.000000  0.722800  0.250000  1.0  0.1141
  H  H133  1  0.500000  0.458200  0.750000  1.0  0.1296
  H  H134  1  0.500000  0.777200  0.750000  1.0  0.1134
  H  H135  1  0.000000  0.958200  0.750000  1.0  0.1296
  H  H136  1  0.000000  0.277200  0.750000  1.0  0.1134
  C  C137  1  0.457100  0.333000  0.255500  1.0  -0.0674
  C  C138  1  0.457400  0.428800  0.256100  1.0  -0.1112
  C  C139  1  0.249900  0.552200  0.147800  1.0  0.7241
  C  C140  1  0.411900  0.480200  0.265800  1.0  0.6981
  C  C141  1  0.163600  0.317500  0.205500  1.0  0.7802
  C  C142  1  0.200500  0.802000  0.129100  1.0  -0.1316
  C  C143  1  0.157300  0.558300  0.259700  1.0  -0.1139
  C  C144  1  0.194200  0.643300  0.275500  1.0  0.7593
  C  C145  1  0.397200  0.577900  0.482800  1.0  -0.1643
  C  C146  1  0.370500  0.624200  0.512500  1.0  0.0341
  C  C147  1  0.173500  0.481800  0.238600  1.0  -1e-04
  C  C148  1  0.347500  0.652300  0.597100  1.0  0.7251
  C  C149  1  0.225300  0.718600  0.154500  1.0  0.0137
  C  C150  1  0.383900  0.597600  0.420900  1.0  0.7106
  C  C151  1  0.109000  0.557100  0.268900  1.0  -0.0654
  C  C152  1  0.142900  0.400200  0.227400  1.0  -0.1569
  C  C153  1  0.225900  0.644100  0.121400  1.0  -0.1289
  C  C154  1  0.379200  0.601000  0.568200  1.0  -0.1322
  C  C155  1  0.096500  0.395900  0.239500  1.0  -0.0469
  C  C156  1  0.079300  0.475500  0.259700  1.0  -0.0725
  C  C157  1  0.434600  0.508100  0.510300  1.0  -0.0015
  C  C158  1  0.416500  0.530300  0.595300  1.0  -0.0375
  C  C159  1  0.176600  0.809200  0.070800  1.0  -0.0292
  C  C160  1  0.445200  0.485500  0.566600  1.0  -0.0779
  C  C161  1  0.202900  0.651200  0.062300  1.0  -0.0313
  C  C162  1  0.177700  0.734300  0.037000  1.0  -0.1118
  C  C163  1  0.201600  0.881800  0.167900  1.0  0.752
  C  C164  1  0.957100  0.833000  0.255500  1.0  -0.0674
  C  C165  1  0.957400  0.928800  0.256100  1.0  -0.1112
  C  C166  1  0.749900  0.052200  0.147800  1.0  0.7241
  C  C167  1  0.911900  0.980200  0.265800  1.0  0.6981
  C  C168  1  0.663600  0.817500  0.205500  1.0  0.7802
  C  C169  1  0.700500  0.302000  0.129100  1.0  -0.1316
  C  C170  1  0.657300  0.058300  0.259700  1.0  -0.1139
  C  C171  1  0.694200  0.143300  0.275500  1.0  0.7593
  C  C172  1  0.897200  0.077900  0.482800  1.0  -0.1643
  C  C173  1  0.870500  0.124200  0.512500  1.0  0.0341
  C  C174  1  0.673500  0.981800  0.238600  1.0  -1e-04
  C  C175  1  0.847500  0.152300  0.597100  1.0  0.7251
  C  C176  1  0.725300  0.218600  0.154500  1.0  0.0137
  C  C177  1  0.883900  0.097600  0.420900  1.0  0.7106
  C  C178  1  0.609000  0.057100  0.268900  1.0  -0.0654
  C  C179  1  0.642900  0.900200  0.227400  1.0  -0.1569
  C  C180  1  0.725900  0.144100  0.121400  1.0  -0.1289
  C  C181  1  0.879200  0.101000  0.568200  1.0  -0.1322
  C  C182  1  0.596500  0.895900  0.239500  1.0  -0.0469
  C  C183  1  0.579300  0.975500  0.259700  1.0  -0.0725
  C  C184  1  0.934600  0.008100  0.510300  1.0  -0.0015
  C  C185  1  0.916500  0.030300  0.595300  1.0  -0.0375
  C  C186  1  0.676600  0.309200  0.070800  1.0  -0.0292
  C  C187  1  0.945200  0.985500  0.566600  1.0  -0.0779
  C  C188  1  0.702900  0.151200  0.062300  1.0  -0.0313
  C  C189  1  0.677700  0.234300  0.037000  1.0  -0.1118
  C  C190  1  0.701600  0.381800  0.167900  1.0  0.752
  C  C191  1  0.542900  0.333000  0.244500  1.0  -0.0679
  C  C192  1  0.542600  0.428800  0.243900  1.0  -0.1109
  C  C193  1  0.750100  0.552200  0.352200  1.0  0.7242
  C  C194  1  0.588100  0.480200  0.234200  1.0  0.7009
  C  C195  1  0.836400  0.317500  0.294500  1.0  0.7798
  C  C196  1  0.799500  0.802000  0.370900  1.0  -0.1316
  C  C197  1  0.842700  0.558300  0.240300  1.0  -0.114
  C  C198  1  0.805800  0.643300  0.224500  1.0  0.7606
  C  C199  1  0.602800  0.577900  0.017200  1.0  -0.1649
  C  C200  1  0.629500  0.624200  0.987500  1.0  0.0343
  C  C201  1  0.826500  0.481800  0.261400  1.0  0.0003
  C  C202  1  0.652500  0.652300  0.902900  1.0  0.7252
  C  C203  1  0.774700  0.718600  0.345500  1.0  0.0123
  C  C204  1  0.616100  0.597600  0.079100  1.0  0.7098
  C  C205  1  0.891000  0.557100  0.231100  1.0  -0.0655
  C  C206  1  0.857100  0.400200  0.272600  1.0  -0.1581
  C  C207  1  0.774100  0.644100  0.378600  1.0  -0.1295
  C  C208  1  0.620800  0.601000  0.931800  1.0  -0.1329
  C  C209  1  0.903500  0.395900  0.260500  1.0  -0.0471
  C  C210  1  0.920700  0.475500  0.240300  1.0  -0.0701
  C  C211  1  0.565400  0.508100  0.989700  1.0  -0.0003
  C  C212  1  0.583500  0.530300  0.904700  1.0  -0.0381
  C  C213  1  0.823400  0.809200  0.429200  1.0  -0.0283
  C  C214  1  0.554800  0.485500  0.933400  1.0  -0.0782
  C  C215  1  0.797100  0.651200  0.437700  1.0  -0.0314
  C  C216  1  0.822300  0.734300  0.463000  1.0  -0.112
  C  C217  1  0.798400  0.881800  0.332100  1.0  0.7518
  C  C218  1  0.042900  0.833000  0.244500  1.0  -0.0679
  C  C219  1  0.042600  0.928800  0.243900  1.0  -0.1109
  C  C220  1  0.250100  0.052200  0.352200  1.0  0.7242
  C  C221  1  0.088100  0.980200  0.234200  1.0  0.7009
  C  C222  1  0.336400  0.817500  0.294500  1.0  0.7798
  C  C223  1  0.299500  0.302000  0.370900  1.0  -0.1316
  C  C224  1  0.342700  0.058300  0.240300  1.0  -0.114
  C  C225  1  0.305800  0.143300  0.224500  1.0  0.7606
  C  C226  1  0.102800  0.077900  0.017200  1.0  -0.1649
  C  C227  1  0.129500  0.124200  0.987500  1.0  0.0343
  C  C228  1  0.326500  0.981800  0.261400  1.0  0.0003
  C  C229  1  0.152500  0.152300  0.902900  1.0  0.7252
  C  C230  1  0.274700  0.218600  0.345500  1.0  0.0123
  C  C231  1  0.116100  0.097600  0.079100  1.0  0.7098
  C  C232  1  0.391000  0.057100  0.231100  1.0  -0.0655
  C  C233  1  0.357100  0.900200  0.272600  1.0  -0.1581
  C  C234  1  0.274100  0.144100  0.378600  1.0  -0.1295
  C  C235  1  0.120800  0.101000  0.931800  1.0  -0.1329
  C  C236  1  0.403500  0.895900  0.260500  1.0  -0.0471
  C  C237  1  0.420700  0.975500  0.240300  1.0  -0.0701
  C  C238  1  0.065400  0.008100  0.989700  1.0  -0.0003
  C  C239  1  0.083500  0.030300  0.904700  1.0  -0.0381
  C  C240  1  0.323400  0.309200  0.429200  1.0  -0.0283
  C  C241  1  0.054800  0.985500  0.933400  1.0  -0.0782
  C  C242  1  0.297100  0.151200  0.437700  1.0  -0.0314
  C  C243  1  0.322300  0.234300  0.463000  1.0  -0.112
  C  C244  1  0.298400  0.381800  0.332100  1.0  0.7518
  C  C245  1  0.542900  0.667000  0.744500  1.0  -0.0662
  C  C246  1  0.542600  0.571200  0.743900  1.0  -0.1117
  C  C247  1  0.750100  0.447800  0.852200  1.0  0.7238
  C  C248  1  0.588100  0.519800  0.734200  1.0  0.7005
  C  C249  1  0.836400  0.682500  0.794500  1.0  0.7801
  C  C250  1  0.799500  0.198000  0.870900  1.0  -0.1309
  C  C251  1  0.842700  0.441700  0.740300  1.0  -0.1133
  C  C252  1  0.805800  0.356700  0.724500  1.0  0.76
  C  C253  1  0.602800  0.422100  0.517200  1.0  -0.1644
  C  C254  1  0.629500  0.375800  0.487500  1.0  0.0336
  C  C255  1  0.826500  0.518200  0.761400  1.0  0.0003
  C  C256  1  0.652500  0.347700  0.402900  1.0  0.7249
  C  C257  1  0.774700  0.281400  0.845500  1.0  0.0127
  C  C258  1  0.616100  0.402400  0.579100  1.0  0.71
  C  C259  1  0.891000  0.442900  0.731100  1.0  -0.065
  C  C260  1  0.857100  0.599800  0.772600  1.0  -0.1581
  C  C261  1  0.774100  0.355900  0.878600  1.0  -0.1292
  C  C262  1  0.620800  0.399000  0.431800  1.0  -0.1336
  C  C263  1  0.903500  0.604100  0.760500  1.0  -0.047
  C  C264  1  0.920700  0.524500  0.740300  1.0  -0.0701
  C  C265  1  0.565400  0.491900  0.489700  1.0  -0.0003
  C  C266  1  0.583500  0.469700  0.404700  1.0  -0.0382
  C  C267  1  0.823400  0.190800  0.929200  1.0  -0.0284
  C  C268  1  0.554800  0.514500  0.433400  1.0  -0.0781
  C  C269  1  0.797100  0.348800  0.937700  1.0  -0.0311
  C  C270  1  0.822300  0.265700  0.963000  1.0  -0.1121
  C  C271  1  0.798400  0.118200  0.832100  1.0  0.7514
  C  C272  1  0.042900  0.167000  0.744500  1.0  -0.0662
  C  C273  1  0.042600  0.071200  0.743900  1.0  -0.1117
  C  C274  1  0.250100  0.947800  0.852200  1.0  0.7238
  C  C275  1  0.088100  0.019800  0.734200  1.0  0.7005
  C  C276  1  0.336400  0.182500  0.794500  1.0  0.7801
  C  C277  1  0.299500  0.698000  0.870900  1.0  -0.1309
  C  C278  1  0.342700  0.941700  0.740300  1.0  -0.1133
  C  C279  1  0.305800  0.856700  0.724500  1.0  0.76
  C  C280  1  0.102800  0.922100  0.517200  1.0  -0.1644
  C  C281  1  0.129500  0.875800  0.487500  1.0  0.0336
  C  C282  1  0.326500  0.018200  0.761400  1.0  0.0003
  C  C283  1  0.152500  0.847700  0.402900  1.0  0.7249
  C  C284  1  0.274700  0.781400  0.845500  1.0  0.0127
  C  C285  1  0.116100  0.902400  0.579100  1.0  0.71
  C  C286  1  0.391000  0.942900  0.731100  1.0  -0.065
  C  C287  1  0.357100  0.099800  0.772600  1.0  -0.1581
  C  C288  1  0.274100  0.855900  0.878600  1.0  -0.1292
  C  C289  1  0.120800  0.899000  0.431800  1.0  -0.1336
  C  C290  1  0.403500  0.104100  0.760500  1.0  -0.047
  C  C291  1  0.420700  0.024500  0.740300  1.0  -0.0701
  C  C292  1  0.065400  0.991900  0.489700  1.0  -0.0003
  C  C293  1  0.083500  0.969700  0.404700  1.0  -0.0382
  C  C294  1  0.323400  0.690800  0.929200  1.0  -0.0284
  C  C295  1  0.054800  0.014500  0.433400  1.0  -0.0781
  C  C296  1  0.297100  0.848800  0.937700  1.0  -0.0311
  C  C297  1  0.322300  0.765700  0.963000  1.0  -0.1121
  C  C298  1  0.298400  0.618200  0.832100  1.0  0.7514
  C  C299  1  0.457100  0.667000  0.755500  1.0  -0.0688
  C  C300  1  0.457400  0.571200  0.756100  1.0  -0.1115
  C  C301  1  0.249900  0.447800  0.647800  1.0  0.7231
  C  C302  1  0.411900  0.519800  0.765800  1.0  0.6989
  C  C303  1  0.163600  0.682500  0.705500  1.0  0.7809
  C  C304  1  0.200500  0.198000  0.629100  1.0  -0.1313
  C  C305  1  0.157300  0.441700  0.759700  1.0  -0.1134
  C  C306  1  0.194200  0.356700  0.775500  1.0  0.7584
  C  C307  1  0.397200  0.422100  0.982800  1.0  -0.1646
  C  C308  1  0.370500  0.375800  0.012500  1.0  0.0334
  C  C309  1  0.173500  0.518200  0.738600  1.0  -0.0002
  C  C310  1  0.347500  0.347700  0.097100  1.0  0.7252
  C  C311  1  0.225300  0.281400  0.654500  1.0  0.0138
  C  C312  1  0.383900  0.402400  0.920900  1.0  0.7105
  C  C313  1  0.109000  0.442900  0.768900  1.0  -0.0659
  C  C314  1  0.142900  0.599800  0.727400  1.0  -0.1561
  C  C315  1  0.225900  0.355900  0.621400  1.0  -0.1287
  C  C316  1  0.379200  0.399000  0.068200  1.0  -0.1325
  C  C317  1  0.096500  0.604100  0.739500  1.0  -0.0479
  C  C318  1  0.079300  0.524500  0.759700  1.0  -0.0724
  C  C319  1  0.434600  0.491900  0.010300  1.0  -0.0019
  C  C320  1  0.416500  0.469700  0.095300  1.0  -0.038
  C  C321  1  0.176600  0.190800  0.570800  1.0  -0.0279
  C  C322  1  0.445200  0.514500  0.066600  1.0  -0.0771
  C  C323  1  0.202900  0.348800  0.562300  1.0  -0.0323
  C  C324  1  0.177700  0.265700  0.537000  1.0  -0.1127
  C  C325  1  0.201600  0.118200  0.667900  1.0  0.7516
  C  C326  1  0.957100  0.167000  0.755500  1.0  -0.0688
  C  C327  1  0.957400  0.071200  0.756100  1.0  -0.1115
  C  C328  1  0.749900  0.947800  0.647800  1.0  0.7231
  C  C329  1  0.911900  0.019800  0.765800  1.0  0.6989
  C  C330  1  0.663600  0.182500  0.705500  1.0  0.7809
  C  C331  1  0.700500  0.698000  0.629100  1.0  -0.1313
  C  C332  1  0.657300  0.941700  0.759700  1.0  -0.1134
  C  C333  1  0.694200  0.856700  0.775500  1.0  0.7584
  C  C334  1  0.897200  0.922100  0.982800  1.0  -0.1646
  C  C335  1  0.870500  0.875800  0.012500  1.0  0.0334
  C  C336  1  0.673500  0.018200  0.738600  1.0  -0.0002
  C  C337  1  0.847500  0.847700  0.097100  1.0  0.7252
  C  C338  1  0.725300  0.781400  0.654500  1.0  0.0138
  C  C339  1  0.883900  0.902400  0.920900  1.0  0.7105
  C  C340  1  0.609000  0.942900  0.768900  1.0  -0.0659
  C  C341  1  0.642900  0.099800  0.727400  1.0  -0.1561
  C  C342  1  0.725900  0.855900  0.621400  1.0  -0.1287
  C  C343  1  0.879200  0.899000  0.068200  1.0  -0.1325
  C  C344  1  0.596500  0.104100  0.739500  1.0  -0.0479
  C  C345  1  0.579300  0.024500  0.759700  1.0  -0.0724
  C  C346  1  0.934600  0.991900  0.010300  1.0  -0.0019
  C  C347  1  0.916500  0.969700  0.095300  1.0  -0.038
  C  C348  1  0.676600  0.690800  0.570800  1.0  -0.0279
  C  C349  1  0.945200  0.014500  0.066600  1.0  -0.0771
  C  C350  1  0.702900  0.848800  0.562300  1.0  -0.0323
  C  C351  1  0.677700  0.765700  0.537000  1.0  -0.1127
  C  C352  1  0.701600  0.618200  0.667900  1.0  0.7516
  C  C353  1  0.500000  0.477400  0.250000  1.0  -0.0402
  C  C354  1  0.500000  0.287200  0.250000  1.0  -0.1029
  C  C355  1  0.000000  0.977400  0.250000  1.0  -0.0402
  C  C356  1  0.000000  0.787200  0.250000  1.0  -0.1029
  C  C357  1  0.500000  0.522600  0.750000  1.0  -0.0387
  C  C358  1  0.500000  0.712800  0.750000  1.0  -0.1017
  C  C359  1  0.000000  0.022600  0.750000  1.0  -0.0387
  C  C360  1  0.000000  0.212800  0.750000  1.0  -0.1017
  O  O361  1  0.244100  0.632700  0.283200  1.0  -0.6971
  O  O362  1  0.370300  0.436000  0.266100  1.0  -0.8056
  O  O363  1  0.235900  0.480100  0.118200  1.0  -0.6836
  O  O364  1  0.414600  0.566100  0.273800  1.0  -0.627
  O  O365  1  0.282300  0.547700  0.201100  1.0  -0.8256
  O  O366  1  0.340200  0.644600  0.392800  1.0  -0.6092
  O  O367  1  0.185300  0.958100  0.146200  1.0  -0.592
  O  O368  1  0.344300  0.615900  0.641500  1.0  -0.6501
  O  O369  1  0.172600  0.719600  0.278600  1.0  -0.6421
  O  O370  1  0.413200  0.567300  0.396400  1.0  -0.6062
  O  O371  1  0.240300  0.271500  0.105600  1.0  -0.7082
  O  O372  1  0.195800  0.330500  0.180700  1.0  -0.7392
  O  O373  1  0.325000  0.726300  0.575500  1.0  -0.5523
  O  O374  1  0.217600  0.865900  0.220400  1.0  -0.6661
  O  O375  1  0.147400  0.237900  0.213400  1.0  -0.6825
  O  O376  1  0.744100  0.132700  0.283200  1.0  -0.6971
  O  O377  1  0.870300  0.936000  0.266100  1.0  -0.8056
  O  O378  1  0.735900  0.980100  0.118200  1.0  -0.6836
  O  O379  1  0.914600  0.066100  0.273800  1.0  -0.627
  O  O380  1  0.782300  0.047700  0.201100  1.0  -0.8256
  O  O381  1  0.840200  0.144600  0.392800  1.0  -0.6092
  O  O382  1  0.685300  0.458100  0.146200  1.0  -0.592
  O  O383  1  0.844300  0.115900  0.641500  1.0  -0.6501
  O  O384  1  0.672600  0.219600  0.278600  1.0  -0.6421
  O  O385  1  0.913200  0.067300  0.396400  1.0  -0.6062
  O  O386  1  0.740300  0.771500  0.105600  1.0  -0.7082
  O  O387  1  0.695800  0.830500  0.180700  1.0  -0.7392
  O  O388  1  0.825000  0.226300  0.575500  1.0  -0.5523
  O  O389  1  0.717600  0.365900  0.220400  1.0  -0.6661
  O  O390  1  0.647400  0.737900  0.213400  1.0  -0.6825
  O  O391  1  0.755900  0.632700  0.216800  1.0  -0.6951
  O  O392  1  0.629700  0.436000  0.233900  1.0  -0.8043
  O  O393  1  0.764100  0.480100  0.381800  1.0  -0.6807
  O  O394  1  0.585400  0.566100  0.226200  1.0  -0.628
  O  O395  1  0.717700  0.547700  0.298900  1.0  -0.8262
  O  O396  1  0.659800  0.644600  0.107200  1.0  -0.6115
  O  O397  1  0.814700  0.958100  0.353800  1.0  -0.5915
  O  O398  1  0.655700  0.615900  0.858500  1.0  -0.6483
  O  O399  1  0.827400  0.719600  0.221400  1.0  -0.6415
  O  O400  1  0.586800  0.567300  0.103600  1.0  -0.607
  O  O401  1  0.759700  0.271500  0.394400  1.0  -0.7058
  O  O402  1  0.804200  0.330500  0.319300  1.0  -0.7367
  O  O403  1  0.675000  0.726300  0.924500  1.0  -0.553
  O  O404  1  0.782400  0.865900  0.279600  1.0  -0.666
  O  O405  1  0.852600  0.237900  0.286600  1.0  -0.6806
  O  O406  1  0.255900  0.132700  0.216800  1.0  -0.6951
  O  O407  1  0.129700  0.936000  0.233900  1.0  -0.8043
  O  O408  1  0.264100  0.980100  0.381800  1.0  -0.6807
  O  O409  1  0.085400  0.066100  0.226200  1.0  -0.628
  O  O410  1  0.217700  0.047700  0.298900  1.0  -0.8262
  O  O411  1  0.159800  0.144600  0.107200  1.0  -0.6115
  O  O412  1  0.314700  0.458100  0.353800  1.0  -0.5915
  O  O413  1  0.155700  0.115900  0.858500  1.0  -0.6483
  O  O414  1  0.327400  0.219600  0.221400  1.0  -0.6415
  O  O415  1  0.086800  0.067300  0.103600  1.0  -0.607
  O  O416  1  0.259700  0.771500  0.394400  1.0  -0.7058
  O  O417  1  0.304200  0.830500  0.319300  1.0  -0.7367
  O  O418  1  0.175000  0.226300  0.924500  1.0  -0.553
  O  O419  1  0.282400  0.365900  0.279600  1.0  -0.666
  O  O420  1  0.352600  0.737900  0.286600  1.0  -0.6806
  O  O421  1  0.755900  0.367300  0.716800  1.0  -0.6953
  O  O422  1  0.629700  0.564000  0.733900  1.0  -0.8036
  O  O423  1  0.764100  0.519900  0.881800  1.0  -0.6806
  O  O424  1  0.585400  0.433900  0.726200  1.0  -0.6299
  O  O425  1  0.717700  0.452300  0.798900  1.0  -0.8259
  O  O426  1  0.659800  0.355400  0.607200  1.0  -0.6119
  O  O427  1  0.814700  0.041900  0.853800  1.0  -0.5915
  O  O428  1  0.655700  0.384100  0.358500  1.0  -0.6481
  O  O429  1  0.827400  0.280400  0.721400  1.0  -0.6409
  O  O430  1  0.586800  0.432700  0.603600  1.0  -0.6063
  O  O431  1  0.759700  0.728500  0.894400  1.0  -0.7057
  O  O432  1  0.804200  0.669500  0.819300  1.0  -0.7363
  O  O433  1  0.675000  0.273700  0.424500  1.0  -0.5548
  O  O434  1  0.782400  0.134100  0.779600  1.0  -0.6656
  O  O435  1  0.852600  0.762100  0.786600  1.0  -0.6813
  O  O436  1  0.255900  0.867300  0.716800  1.0  -0.6953
  O  O437  1  0.129700  0.064000  0.733900  1.0  -0.8036
  O  O438  1  0.264100  0.019900  0.881800  1.0  -0.6806
  O  O439  1  0.085400  0.933900  0.726200  1.0  -0.6299
  O  O440  1  0.217700  0.952300  0.798900  1.0  -0.8259
  O  O441  1  0.159800  0.855400  0.607200  1.0  -0.6119
  O  O442  1  0.314700  0.541900  0.853800  1.0  -0.5915
  O  O443  1  0.155700  0.884100  0.358500  1.0  -0.6481
  O  O444  1  0.327400  0.780400  0.721400  1.0  -0.6409
  O  O445  1  0.086800  0.932700  0.603600  1.0  -0.6063
  O  O446  1  0.259700  0.228500  0.894400  1.0  -0.7057
  O  O447  1  0.304200  0.169500  0.819300  1.0  -0.7363
  O  O448  1  0.175000  0.773700  0.424500  1.0  -0.5548
  O  O449  1  0.282400  0.634100  0.779600  1.0  -0.6656
  O  O450  1  0.352600  0.262100  0.786600  1.0  -0.6813
  O  O451  1  0.244100  0.367300  0.783200  1.0  -0.6973
  O  O452  1  0.370300  0.564000  0.766100  1.0  -0.8058
  O  O453  1  0.235900  0.519900  0.618200  1.0  -0.6838
  O  O454  1  0.414600  0.433900  0.773800  1.0  -0.6301
  O  O455  1  0.282300  0.452300  0.701100  1.0  -0.8255
  O  O456  1  0.340200  0.355400  0.892800  1.0  -0.6104
  O  O457  1  0.185300  0.041900  0.646200  1.0  -0.5915
  O  O458  1  0.344300  0.384100  0.141500  1.0  -0.65
  O  O459  1  0.172600  0.280400  0.778600  1.0  -0.6414
  O  O460  1  0.413200  0.432700  0.896400  1.0  -0.6063
  O  O461  1  0.240300  0.728500  0.605600  1.0  -0.708
  O  O462  1  0.195800  0.669500  0.680700  1.0  -0.7395
  O  O463  1  0.325000  0.273700  0.075500  1.0  -0.5543
  O  O464  1  0.217600  0.134100  0.720400  1.0  -0.6661
  O  O465  1  0.147400  0.762100  0.713400  1.0  -0.6824
  O  O466  1  0.744100  0.867300  0.783200  1.0  -0.6973
  O  O467  1  0.870300  0.064000  0.766100  1.0  -0.8058
  O  O468  1  0.735900  0.019900  0.618200  1.0  -0.6838
  O  O469  1  0.914600  0.933900  0.773800  1.0  -0.6301
  O  O470  1  0.782300  0.952300  0.701100  1.0  -0.8255
  O  O471  1  0.840200  0.855400  0.892800  1.0  -0.6104
  O  O472  1  0.685300  0.541900  0.646200  1.0  -0.5915
  O  O473  1  0.844300  0.884100  0.141500  1.0  -0.65
  O  O474  1  0.672600  0.780400  0.778600  1.0  -0.6414
  O  O475  1  0.913200  0.932700  0.896400  1.0  -0.6063
  O  O476  1  0.740300  0.228500  0.605600  1.0  -0.708
  O  O477  1  0.695800  0.169500  0.680700  1.0  -0.7395
  O  O478  1  0.825000  0.773700  0.075500  1.0  -0.5543
  O  O479  1  0.717600  0.634100  0.720400  1.0  -0.6661
  O  O480  1  0.647400  0.262100  0.713400  1.0  -0.6824
