# generated using pymatgen
data_SmH7(C2O)7
_symmetry_space_group_name_H-M   'P 1'
_cell_length_a   26.37970000
_cell_length_b   14.43780000
_cell_length_c   25.42310000
_cell_angle_alpha   90.00000000
_cell_angle_beta   113.63100000
_cell_angle_gamma   90.00000000
_symmetry_Int_Tables_number   1
_chemical_formula_structural   SmH7(C2O)7
_chemical_formula_sum   'Sm16 H112 C224 O112'
_cell_volume   8870.82603602
_cell_formula_units_Z   16
loop_
 _symmetry_equiv_pos_site_id
 _symmetry_equiv_pos_as_xyz
  1  'x, y, z'
loop_
 _atom_site_type_symbol
 _atom_site_label
 _atom_site_symmetry_multiplicity
 _atom_site_fract_x
 _atom_site_fract_y
 _atom_site_fract_z
 _atom_site_occupancy
 _atom_site_charge
  Sm  Sm1  1  0.213760  0.635000  0.310060  1.0  2.3368
  Sm  Sm2  1  0.164960  0.414390  0.197940  1.0  2.2979
  Sm  Sm3  1  0.713760  0.135000  0.310060  1.0  2.3368
  Sm  Sm4  1  0.664960  0.914390  0.197940  1.0  2.2979
  Sm  Sm5  1  0.786240  0.635000  0.189940  1.0  2.3378
  Sm  Sm6  1  0.835040  0.414390  0.302060  1.0  2.2939
  Sm  Sm7  1  0.286240  0.135000  0.189940  1.0  2.3378
  Sm  Sm8  1  0.335040  0.914390  0.302060  1.0  2.2939
  Sm  Sm9  1  0.786240  0.365000  0.689940  1.0  2.3365
  Sm  Sm10  1  0.835040  0.585610  0.802060  1.0  2.2994
  Sm  Sm11  1  0.286240  0.865000  0.689940  1.0  2.3365
  Sm  Sm12  1  0.335040  0.085610  0.802060  1.0  2.2994
  Sm  Sm13  1  0.213760  0.365000  0.810060  1.0  2.3384
  Sm  Sm14  1  0.164960  0.585610  0.697940  1.0  2.2934
  Sm  Sm15  1  0.713760  0.865000  0.810060  1.0  2.3384
  Sm  Sm16  1  0.664960  0.085610  0.697940  1.0  2.2934
  H  H17  1  0.403000  0.391600  0.217800  1.0  0.1087
  H  H18  1  0.451300  0.526800  0.231400  1.0  0.1062
  H  H19  1  0.423400  0.657300  0.264800  1.0  0.1302
  H  H20  1  0.296300  0.512500  0.270800  1.0  0.0837
  H  H21  1  0.299900  0.397500  0.462000  1.0  0.1247
  H  H22  1  0.338200  0.256700  0.502200  1.0  0.105
  H  H23  1  0.341700  0.133600  0.446500  1.0  0.1251
  H  H24  1  0.258900  0.286100  0.305700  1.0  0.1078
  H  H25  1  0.076900  0.513600  0.367000  1.0  0.1093
  H  H26  1  0.029900  0.440100  0.413800  1.0  0.1127
  H  H27  1  0.045000  0.479500  0.506700  1.0  0.1094
  H  H28  1  0.153400  0.672800  0.505500  1.0  0.1144
  H  H29  1  0.071500  0.697400  0.241800  1.0  0.1028
  H  H30  1  0.903000  0.891600  0.217800  1.0  0.1087
  H  H31  1  0.951300  0.026800  0.231400  1.0  0.1062
  H  H32  1  0.923400  0.157300  0.264800  1.0  0.1302
  H  H33  1  0.796300  0.012500  0.270800  1.0  0.0837
  H  H34  1  0.799900  0.897500  0.462000  1.0  0.1247
  H  H35  1  0.838200  0.756700  0.502200  1.0  0.105
  H  H36  1  0.841700  0.633600  0.446500  1.0  0.1251
  H  H37  1  0.758900  0.786100  0.305700  1.0  0.1078
  H  H38  1  0.576900  0.013600  0.367000  1.0  0.1093
  H  H39  1  0.529900  0.940100  0.413800  1.0  0.1127
  H  H40  1  0.545000  0.979500  0.506700  1.0  0.1094
  H  H41  1  0.653400  0.172800  0.505500  1.0  0.1144
  H  H42  1  0.571500  0.197400  0.241800  1.0  0.1028
  H  H43  1  0.597000  0.391600  0.282200  1.0  0.1092
  H  H44  1  0.548700  0.526800  0.268600  1.0  0.106
  H  H45  1  0.576600  0.657300  0.235200  1.0  0.1299
  H  H46  1  0.703700  0.512500  0.229200  1.0  0.0829
  H  H47  1  0.700100  0.397500  0.038000  1.0  0.1241
  H  H48  1  0.661800  0.256700  0.997800  1.0  0.1038
  H  H49  1  0.658300  0.133600  0.053500  1.0  0.1249
  H  H50  1  0.741100  0.286100  0.194300  1.0  0.1079
  H  H51  1  0.923100  0.513600  0.133000  1.0  0.1088
  H  H52  1  0.970100  0.440100  0.086200  1.0  0.1133
  H  H53  1  0.955000  0.479500  0.993300  1.0  0.1098
  H  H54  1  0.846600  0.672800  0.994500  1.0  0.1148
  H  H55  1  0.928500  0.697400  0.258200  1.0  0.1034
  H  H56  1  0.097000  0.891600  0.282200  1.0  0.1092
  H  H57  1  0.048700  0.026800  0.268600  1.0  0.106
  H  H58  1  0.076600  0.157300  0.235200  1.0  0.1299
  H  H59  1  0.203700  0.012500  0.229200  1.0  0.0829
  H  H60  1  0.200100  0.897500  0.038000  1.0  0.1241
  H  H61  1  0.161800  0.756700  0.997800  1.0  0.1038
  H  H62  1  0.158300  0.633600  0.053500  1.0  0.1249
  H  H63  1  0.241100  0.786100  0.194300  1.0  0.1079
  H  H64  1  0.423100  0.013600  0.133000  1.0  0.1088
  H  H65  1  0.470100  0.940100  0.086200  1.0  0.1133
  H  H66  1  0.455000  0.979500  0.993300  1.0  0.1098
  H  H67  1  0.346600  0.172800  0.994500  1.0  0.1148
  H  H68  1  0.428500  0.197400  0.258200  1.0  0.1034
  H  H69  1  0.597000  0.608400  0.782200  1.0  0.109
  H  H70  1  0.548700  0.473200  0.768600  1.0  0.106
  H  H71  1  0.576600  0.342700  0.735200  1.0  0.1298
  H  H72  1  0.703700  0.487500  0.729200  1.0  0.0827
  H  H73  1  0.700100  0.602500  0.538000  1.0  0.1238
  H  H74  1  0.661800  0.743300  0.497800  1.0  0.1039
  H  H75  1  0.658300  0.866400  0.553500  1.0  0.1251
  H  H76  1  0.741100  0.713900  0.694300  1.0  0.1079
  H  H77  1  0.923100  0.486400  0.633000  1.0  0.1089
  H  H78  1  0.970100  0.559900  0.586200  1.0  0.1131
  H  H79  1  0.955000  0.520500  0.493300  1.0  0.1098
  H  H80  1  0.846600  0.327200  0.494500  1.0  0.1142
  H  H81  1  0.928500  0.302600  0.758200  1.0  0.1035
  H  H82  1  0.097000  0.108400  0.782200  1.0  0.109
  H  H83  1  0.048700  0.973200  0.768600  1.0  0.106
  H  H84  1  0.076600  0.842700  0.735200  1.0  0.1298
  H  H85  1  0.203700  0.987500  0.729200  1.0  0.0827
  H  H86  1  0.200100  0.102500  0.538000  1.0  0.1238
  H  H87  1  0.161800  0.243300  0.497800  1.0  0.1039
  H  H88  1  0.158300  0.366400  0.553500  1.0  0.1251
  H  H89  1  0.241100  0.213900  0.694300  1.0  0.1079
  H  H90  1  0.423100  0.986400  0.633000  1.0  0.1089
  H  H91  1  0.470100  0.059900  0.586200  1.0  0.1131
  H  H92  1  0.455000  0.020500  0.493300  1.0  0.1098
  H  H93  1  0.346600  0.827200  0.494500  1.0  0.1142
  H  H94  1  0.428500  0.802600  0.758200  1.0  0.1035
  H  H95  1  0.403000  0.608400  0.717800  1.0  0.1087
  H  H96  1  0.451300  0.473200  0.731400  1.0  0.106
  H  H97  1  0.423400  0.342700  0.764800  1.0  0.13
  H  H98  1  0.296300  0.487500  0.770800  1.0  0.0836
  H  H99  1  0.299900  0.602500  0.962000  1.0  0.1248
  H  H100  1  0.338200  0.743300  0.002200  1.0  0.1051
  H  H101  1  0.341700  0.866400  0.946500  1.0  0.1249
  H  H102  1  0.258900  0.713900  0.805700  1.0  0.1077
  H  H103  1  0.076900  0.486400  0.867000  1.0  0.1093
  H  H104  1  0.029900  0.559900  0.913800  1.0  0.1133
  H  H105  1  0.045000  0.520500  0.006700  1.0  0.1092
  H  H106  1  0.153400  0.327200  0.005500  1.0  0.1143
  H  H107  1  0.071500  0.302600  0.741800  1.0  0.1029
  H  H108  1  0.903000  0.108400  0.717800  1.0  0.1087
  H  H109  1  0.951300  0.973200  0.731400  1.0  0.106
  H  H110  1  0.923400  0.842700  0.764800  1.0  0.13
  H  H111  1  0.796300  0.987500  0.770800  1.0  0.0836
  H  H112  1  0.799900  0.102500  0.962000  1.0  0.1248
  H  H113  1  0.838200  0.243300  0.002200  1.0  0.1051
  H  H114  1  0.841700  0.366400  0.946500  1.0  0.1249
  H  H115  1  0.758900  0.213900  0.805700  1.0  0.1077
  H  H116  1  0.576900  0.986400  0.867000  1.0  0.1093
  H  H117  1  0.529900  0.059900  0.913800  1.0  0.1133
  H  H118  1  0.545000  0.020500  0.006700  1.0  0.1092
  H  H119  1  0.653400  0.827200  0.005500  1.0  0.1143
  H  H120  1  0.571500  0.802600  0.741800  1.0  0.1029
  H  H121  1  0.000000  0.777300  0.250000  1.0  0.1176
  H  H122  1  0.000000  0.457600  0.250000  1.0  0.1114
  H  H123  1  0.500000  0.277300  0.250000  1.0  0.1176
  H  H124  1  0.500000  0.957600  0.250000  1.0  0.1114
  H  H125  1  0.000000  0.222700  0.750000  1.0  0.118
  H  H126  1  0.000000  0.542400  0.750000  1.0  0.111
  H  H127  1  0.500000  0.722700  0.750000  1.0  0.118
  H  H128  1  0.500000  0.042400  0.750000  1.0  0.111
  C  C129  1  0.306900  0.356300  0.225800  1.0  0.7553
  C  C130  1  0.342800  0.439400  0.240300  1.0  -0.1378
  C  C131  1  0.390600  0.443900  0.230500  1.0  -0.0524
  C  C132  1  0.419800  0.524400  0.239300  1.0  -0.081
  C  C133  1  0.403500  0.602500  0.259500  1.0  -0.0776
  C  C134  1  0.356700  0.598100  0.272100  1.0  -0.1738
  C  C135  1  0.327400  0.515900  0.262200  1.0  -0.0696
  C  C136  1  0.336500  0.681600  0.294800  1.0  0.7663
  C  C137  1  0.251100  0.446300  0.352300  1.0  0.707
  C  C138  1  0.274500  0.355100  0.379700  1.0  -0.1373
  C  C139  1  0.299100  0.347500  0.438700  1.0  -0.1023
  C  C140  1  0.322900  0.263000  0.462500  1.0  -0.0962
  C  C141  1  0.324600  0.188500  0.429400  1.0  -0.082
  C  C142  1  0.300200  0.197100  0.370100  1.0  -0.162
  C  C143  1  0.275200  0.280400  0.345500  1.0  0.0171
  C  C144  1  0.299900  0.117300  0.332800  1.0  0.7611
  C  C145  1  0.153200  0.652300  0.403400  1.0  0.7253
  C  C146  1  0.121700  0.601000  0.432200  1.0  -0.1033
  C  C147  1  0.083300  0.530300  0.404400  1.0  -0.0643
  C  C148  1  0.055300  0.486300  0.432500  1.0  -0.0864
  C  C149  1  0.064500  0.509600  0.488200  1.0  -0.0415
  C  C150  1  0.102300  0.577600  0.516700  1.0  -0.1454
  C  C151  1  0.129500  0.624500  0.487300  1.0  0.0249
  C  C152  1  0.115900  0.600400  0.578600  1.0  0.6983
  C  C153  1  0.087600  0.517000  0.234000  1.0  0.7063
  C  C154  1  0.042800  0.568600  0.243700  1.0  -0.2016
  C  C155  1  0.042300  0.664900  0.244700  1.0  -0.0265
  C  C156  1  0.806900  0.856300  0.225800  1.0  0.7553
  C  C157  1  0.842800  0.939400  0.240300  1.0  -0.1378
  C  C158  1  0.890600  0.943900  0.230500  1.0  -0.0524
  C  C159  1  0.919800  0.024400  0.239300  1.0  -0.081
  C  C160  1  0.903500  0.102500  0.259500  1.0  -0.0776
  C  C161  1  0.856700  0.098100  0.272100  1.0  -0.1738
  C  C162  1  0.827400  0.015900  0.262200  1.0  -0.0696
  C  C163  1  0.836500  0.181600  0.294800  1.0  0.7663
  C  C164  1  0.751100  0.946300  0.352300  1.0  0.707
  C  C165  1  0.774500  0.855100  0.379700  1.0  -0.1373
  C  C166  1  0.799100  0.847500  0.438700  1.0  -0.1023
  C  C167  1  0.822900  0.763000  0.462500  1.0  -0.0962
  C  C168  1  0.824600  0.688500  0.429400  1.0  -0.082
  C  C169  1  0.800200  0.697100  0.370100  1.0  -0.162
  C  C170  1  0.775200  0.780400  0.345500  1.0  0.0171
  C  C171  1  0.799900  0.617300  0.332800  1.0  0.7611
  C  C172  1  0.653200  0.152300  0.403400  1.0  0.7253
  C  C173  1  0.621700  0.101000  0.432200  1.0  -0.1033
  C  C174  1  0.583300  0.030300  0.404400  1.0  -0.0643
  C  C175  1  0.555300  0.986300  0.432500  1.0  -0.0864
  C  C176  1  0.564500  0.009600  0.488200  1.0  -0.0415
  C  C177  1  0.602300  0.077600  0.516700  1.0  -0.1454
  C  C178  1  0.629500  0.124500  0.487300  1.0  0.0249
  C  C179  1  0.615900  0.100400  0.578600  1.0  0.6983
  C  C180  1  0.587600  0.017000  0.234000  1.0  0.7063
  C  C181  1  0.542800  0.068600  0.243700  1.0  -0.2016
  C  C182  1  0.542300  0.164900  0.244700  1.0  -0.0265
  C  C183  1  0.693100  0.356300  0.274200  1.0  0.7543
  C  C184  1  0.657200  0.439400  0.259700  1.0  -0.1374
  C  C185  1  0.609400  0.443900  0.269500  1.0  -0.0537
  C  C186  1  0.580200  0.524400  0.260700  1.0  -0.0832
  C  C187  1  0.596500  0.602500  0.240500  1.0  -0.0779
  C  C188  1  0.643300  0.598100  0.227900  1.0  -0.1701
  C  C189  1  0.672600  0.515900  0.237800  1.0  -0.0695
  C  C190  1  0.663500  0.681600  0.205200  1.0  0.7656
  C  C191  1  0.748900  0.446300  0.147700  1.0  0.7056
  C  C192  1  0.725500  0.355100  0.120300  1.0  -0.1359
  C  C193  1  0.700900  0.347500  0.061300  1.0  -0.1037
  C  C194  1  0.677100  0.263000  0.037500  1.0  -0.0997
  C  C195  1  0.675400  0.188500  0.070600  1.0  -0.0818
  C  C196  1  0.699800  0.197100  0.129900  1.0  -0.1644
  C  C197  1  0.724800  0.280400  0.154500  1.0  0.0153
  C  C198  1  0.700100  0.117300  0.167200  1.0  0.7469
  C  C199  1  0.846800  0.652300  0.096600  1.0  0.727
  C  C200  1  0.878300  0.601000  0.067800  1.0  -0.1031
  C  C201  1  0.916700  0.530300  0.095600  1.0  -0.0625
  C  C202  1  0.944700  0.486300  0.067500  1.0  -0.086
  C  C203  1  0.935500  0.509600  0.011800  1.0  -0.0422
  C  C204  1  0.897700  0.577600  0.983300  1.0  -0.145
  C  C205  1  0.870500  0.624500  0.012700  1.0  0.0238
  C  C206  1  0.884100  0.600400  0.921400  1.0  0.6999
  C  C207  1  0.912400  0.517000  0.266000  1.0  0.7073
  C  C208  1  0.957200  0.568600  0.256300  1.0  -0.2009
  C  C209  1  0.957700  0.664900  0.255300  1.0  -0.0266
  C  C210  1  0.193100  0.856300  0.274200  1.0  0.7543
  C  C211  1  0.157200  0.939400  0.259700  1.0  -0.1374
  C  C212  1  0.109400  0.943900  0.269500  1.0  -0.0537
  C  C213  1  0.080200  0.024400  0.260700  1.0  -0.0832
  C  C214  1  0.096500  0.102500  0.240500  1.0  -0.0779
  C  C215  1  0.143300  0.098100  0.227900  1.0  -0.1701
  C  C216  1  0.172600  0.015900  0.237800  1.0  -0.0695
  C  C217  1  0.163500  0.181600  0.205200  1.0  0.7656
  C  C218  1  0.248900  0.946300  0.147700  1.0  0.7056
  C  C219  1  0.225500  0.855100  0.120300  1.0  -0.1359
  C  C220  1  0.200900  0.847500  0.061300  1.0  -0.1037
  C  C221  1  0.177100  0.763000  0.037500  1.0  -0.0997
  C  C222  1  0.175400  0.688500  0.070600  1.0  -0.0818
  C  C223  1  0.199800  0.697100  0.129900  1.0  -0.1644
  C  C224  1  0.224800  0.780400  0.154500  1.0  0.0153
  C  C225  1  0.200100  0.617300  0.167200  1.0  0.7469
  C  C226  1  0.346800  0.152300  0.096600  1.0  0.727
  C  C227  1  0.378300  0.101000  0.067800  1.0  -0.1031
  C  C228  1  0.416700  0.030300  0.095600  1.0  -0.0625
  C  C229  1  0.444700  0.986300  0.067500  1.0  -0.086
  C  C230  1  0.435500  0.009600  0.011800  1.0  -0.0422
  C  C231  1  0.397700  0.077600  0.983300  1.0  -0.145
  C  C232  1  0.370500  0.124500  0.012700  1.0  0.0238
  C  C233  1  0.384100  0.100400  0.921400  1.0  0.6999
  C  C234  1  0.412400  0.017000  0.266000  1.0  0.7073
  C  C235  1  0.457200  0.068600  0.256300  1.0  -0.2009
  C  C236  1  0.457700  0.164900  0.255300  1.0  -0.0266
  C  C237  1  0.693100  0.643700  0.774200  1.0  0.7549
  C  C238  1  0.657200  0.560600  0.759700  1.0  -0.1367
  C  C239  1  0.609400  0.556100  0.769500  1.0  -0.0541
  C  C240  1  0.580200  0.475600  0.760700  1.0  -0.0827
  C  C241  1  0.596500  0.397500  0.740500  1.0  -0.0784
  C  C242  1  0.643300  0.401900  0.727900  1.0  -0.1706
  C  C243  1  0.672600  0.484100  0.737800  1.0  -0.0694
  C  C244  1  0.663500  0.318400  0.705200  1.0  0.765
  C  C245  1  0.748900  0.553700  0.647700  1.0  0.7062
  C  C246  1  0.725500  0.644900  0.620300  1.0  -0.1359
  C  C247  1  0.700900  0.652500  0.561300  1.0  -0.1041
  C  C248  1  0.677100  0.737000  0.537500  1.0  -0.099
  C  C249  1  0.675400  0.811500  0.570600  1.0  -0.0826
  C  C250  1  0.699800  0.802900  0.629900  1.0  -0.1637
  C  C251  1  0.724800  0.719600  0.654500  1.0  0.0151
  C  C252  1  0.700100  0.882700  0.667200  1.0  0.7604
  C  C253  1  0.846800  0.347700  0.596600  1.0  0.7284
  C  C254  1  0.878300  0.399000  0.567800  1.0  -0.1034
  C  C255  1  0.916700  0.469700  0.595600  1.0  -0.0628
  C  C256  1  0.944700  0.513700  0.567500  1.0  -0.0861
  C  C257  1  0.935500  0.490400  0.511800  1.0  -0.042
  C  C258  1  0.897700  0.422400  0.483300  1.0  -0.1448
  C  C259  1  0.870500  0.375500  0.512700  1.0  0.0243
  C  C260  1  0.884100  0.399600  0.421400  1.0  0.6991
  C  C261  1  0.912400  0.483000  0.766000  1.0  0.706
  C  C262  1  0.957200  0.431400  0.756300  1.0  -0.2005
  C  C263  1  0.957700  0.335100  0.755300  1.0  -0.0272
  C  C264  1  0.193100  0.143700  0.774200  1.0  0.7549
  C  C265  1  0.157200  0.060600  0.759700  1.0  -0.1367
  C  C266  1  0.109400  0.056100  0.769500  1.0  -0.0541
  C  C267  1  0.080200  0.975600  0.760700  1.0  -0.0827
  C  C268  1  0.096500  0.897500  0.740500  1.0  -0.0784
  C  C269  1  0.143300  0.901900  0.727900  1.0  -0.1706
  C  C270  1  0.172600  0.984100  0.737800  1.0  -0.0694
  C  C271  1  0.163500  0.818400  0.705200  1.0  0.765
  C  C272  1  0.248900  0.053700  0.647700  1.0  0.7062
  C  C273  1  0.225500  0.144900  0.620300  1.0  -0.1359
  C  C274  1  0.200900  0.152500  0.561300  1.0  -0.1041
  C  C275  1  0.177100  0.237000  0.537500  1.0  -0.099
  C  C276  1  0.175400  0.311500  0.570600  1.0  -0.0826
  C  C277  1  0.199800  0.302900  0.629900  1.0  -0.1637
  C  C278  1  0.224800  0.219600  0.654500  1.0  0.0151
  C  C279  1  0.200100  0.382700  0.667200  1.0  0.7604
  C  C280  1  0.346800  0.847700  0.596600  1.0  0.7284
  C  C281  1  0.378300  0.899000  0.567800  1.0  -0.1034
  C  C282  1  0.416700  0.969700  0.595600  1.0  -0.0628
  C  C283  1  0.444700  0.013700  0.567500  1.0  -0.0861
  C  C284  1  0.435500  0.990400  0.511800  1.0  -0.042
  C  C285  1  0.397700  0.922400  0.483300  1.0  -0.1448
  C  C286  1  0.370500  0.875500  0.512700  1.0  0.0243
  C  C287  1  0.384100  0.899600  0.421400  1.0  0.6991
  C  C288  1  0.412400  0.983000  0.766000  1.0  0.706
  C  C289  1  0.457200  0.931400  0.756300  1.0  -0.2005
  C  C290  1  0.457700  0.835100  0.755300  1.0  -0.0272
  C  C291  1  0.306900  0.643700  0.725800  1.0  0.7565
  C  C292  1  0.342800  0.560600  0.740300  1.0  -0.137
  C  C293  1  0.390600  0.556100  0.730500  1.0  -0.0533
  C  C294  1  0.419800  0.475600  0.739300  1.0  -0.0807
  C  C295  1  0.403500  0.397500  0.759500  1.0  -0.0794
  C  C296  1  0.356700  0.401900  0.772100  1.0  -0.1731
  C  C297  1  0.327400  0.484100  0.762200  1.0  -0.0697
  C  C298  1  0.336500  0.318400  0.794800  1.0  0.7671
  C  C299  1  0.251100  0.553700  0.852300  1.0  0.7071
  C  C300  1  0.274500  0.644900  0.879700  1.0  -0.1374
  C  C301  1  0.299100  0.652500  0.938700  1.0  -0.1033
  C  C302  1  0.322900  0.737000  0.962500  1.0  -0.0957
  C  C303  1  0.324600  0.811500  0.929400  1.0  -0.0821
  C  C304  1  0.300200  0.802900  0.870100  1.0  -0.1625
  C  C305  1  0.275200  0.719600  0.845500  1.0  0.0169
  C  C306  1  0.299900  0.882700  0.832800  1.0  0.7477
  C  C307  1  0.153200  0.347700  0.903400  1.0  0.7266
  C  C308  1  0.121700  0.399000  0.932200  1.0  -0.1034
  C  C309  1  0.083300  0.469700  0.904400  1.0  -0.0644
  C  C310  1  0.055300  0.513700  0.932500  1.0  -0.0862
  C  C311  1  0.064500  0.490400  0.988200  1.0  -0.0413
  C  C312  1  0.102300  0.422400  0.016700  1.0  -0.145
  C  C313  1  0.129500  0.375500  0.987300  1.0  0.0248
  C  C314  1  0.115900  0.399600  0.078600  1.0  0.698
  C  C315  1  0.087600  0.483000  0.734000  1.0  0.7061
  C  C316  1  0.042800  0.431400  0.743700  1.0  -0.2008
  C  C317  1  0.042300  0.335100  0.744700  1.0  -0.0261
  C  C318  1  0.806900  0.143700  0.725800  1.0  0.7565
  C  C319  1  0.842800  0.060600  0.740300  1.0  -0.137
  C  C320  1  0.890600  0.056100  0.730500  1.0  -0.0533
  C  C321  1  0.919800  0.975600  0.739300  1.0  -0.0807
  C  C322  1  0.903500  0.897500  0.759500  1.0  -0.0794
  C  C323  1  0.856700  0.901900  0.772100  1.0  -0.1731
  C  C324  1  0.827400  0.984100  0.762200  1.0  -0.0697
  C  C325  1  0.836500  0.818400  0.794800  1.0  0.7671
  C  C326  1  0.751100  0.053700  0.852300  1.0  0.7071
  C  C327  1  0.774500  0.144900  0.879700  1.0  -0.1374
  C  C328  1  0.799100  0.152500  0.938700  1.0  -0.1033
  C  C329  1  0.822900  0.237000  0.962500  1.0  -0.0957
  C  C330  1  0.824600  0.311500  0.929400  1.0  -0.0821
  C  C331  1  0.800200  0.302900  0.870100  1.0  -0.1625
  C  C332  1  0.775200  0.219600  0.845500  1.0  0.0169
  C  C333  1  0.799900  0.382700  0.832800  1.0  0.7477
  C  C334  1  0.653200  0.847700  0.903400  1.0  0.7266
  C  C335  1  0.621700  0.899000  0.932200  1.0  -0.1034
  C  C336  1  0.583300  0.969700  0.904400  1.0  -0.0644
  C  C337  1  0.555300  0.013700  0.932500  1.0  -0.0862
  C  C338  1  0.564500  0.990400  0.988200  1.0  -0.0413
  C  C339  1  0.602300  0.922400  0.016700  1.0  -0.145
  C  C340  1  0.629500  0.875500  0.987300  1.0  0.0248
  C  C341  1  0.615900  0.899600  0.078600  1.0  0.698
  C  C342  1  0.587600  0.983000  0.734000  1.0  0.7061
  C  C343  1  0.542800  0.931400  0.743700  1.0  -0.2008
  C  C344  1  0.542300  0.835100  0.744700  1.0  -0.0261
  C  C345  1  0.000000  0.712900  0.250000  1.0  -0.1309
  C  C346  1  0.000000  0.522000  0.250000  1.0  -0.0391
  C  C347  1  0.500000  0.212900  0.250000  1.0  -0.1309
  C  C348  1  0.500000  0.022000  0.250000  1.0  -0.0391
  C  C349  1  0.000000  0.287100  0.750000  1.0  -0.1323
  C  C350  1  0.000000  0.478000  0.750000  1.0  -0.04
  C  C351  1  0.500000  0.787100  0.750000  1.0  -0.1323
  C  C352  1  0.500000  0.978000  0.750000  1.0  -0.04
  O  O353  1  0.328000  0.280200  0.222000  1.0  -0.6424
  O  O354  1  0.255800  0.365500  0.216900  1.0  -0.7423
  O  O355  1  0.304300  0.668400  0.319200  1.0  -0.7695
  O  O356  1  0.353800  0.760400  0.286500  1.0  -0.6864
  O  O357  1  0.217600  0.450000  0.299500  1.0  -0.8342
  O  O358  1  0.265200  0.517900  0.381900  1.0  -0.6339
  O  O359  1  0.316300  0.040500  0.354500  1.0  -0.5988
  O  O360  1  0.282200  0.132600  0.279800  1.0  -0.6892
  O  O361  1  0.155500  0.614800  0.358600  1.0  -0.6549
  O  O362  1  0.175700  0.725900  0.425100  1.0  -0.5011
  O  O363  1  0.159500  0.645800  0.606000  1.0  -0.631
  O  O364  1  0.086800  0.570000  0.603000  1.0  -0.6071
  O  O365  1  0.129700  0.563000  0.234000  1.0  -0.8101
  O  O366  1  0.083800  0.432400  0.225000  1.0  -0.6119
  O  O367  1  0.828000  0.780200  0.222000  1.0  -0.6424
  O  O368  1  0.755800  0.865500  0.216900  1.0  -0.7423
  O  O369  1  0.804300  0.168400  0.319200  1.0  -0.7695
  O  O370  1  0.853800  0.260400  0.286500  1.0  -0.6864
  O  O371  1  0.717600  0.950000  0.299500  1.0  -0.8342
  O  O372  1  0.765200  0.017900  0.381900  1.0  -0.6339
  O  O373  1  0.816300  0.540500  0.354500  1.0  -0.5988
  O  O374  1  0.782200  0.632600  0.279800  1.0  -0.6892
  O  O375  1  0.655500  0.114800  0.358600  1.0  -0.6549
  O  O376  1  0.675700  0.225900  0.425100  1.0  -0.5011
  O  O377  1  0.659500  0.145800  0.606000  1.0  -0.631
  O  O378  1  0.586800  0.070000  0.603000  1.0  -0.6071
  O  O379  1  0.629700  0.063000  0.234000  1.0  -0.8101
  O  O380  1  0.583800  0.932400  0.225000  1.0  -0.6119
  O  O381  1  0.672000  0.280200  0.278000  1.0  -0.6421
  O  O382  1  0.744200  0.365500  0.283100  1.0  -0.7437
  O  O383  1  0.695700  0.668400  0.180800  1.0  -0.7695
  O  O384  1  0.646200  0.760400  0.213500  1.0  -0.6877
  O  O385  1  0.782400  0.450000  0.200500  1.0  -0.834
  O  O386  1  0.734800  0.517900  0.118100  1.0  -0.6339
  O  O387  1  0.683700  0.040500  0.145500  1.0  -0.5982
  O  O388  1  0.717800  0.132600  0.220200  1.0  -0.69
  O  O389  1  0.844500  0.614800  0.141400  1.0  -0.6549
  O  O390  1  0.824300  0.725900  0.074900  1.0  -0.5002
  O  O391  1  0.840500  0.645800  0.894000  1.0  -0.6282
  O  O392  1  0.913200  0.570000  0.897000  1.0  -0.6052
  O  O393  1  0.870300  0.563000  0.266000  1.0  -0.8113
  O  O394  1  0.916200  0.432400  0.275000  1.0  -0.6117
  O  O395  1  0.172000  0.780200  0.278000  1.0  -0.6421
  O  O396  1  0.244200  0.865500  0.283100  1.0  -0.7437
  O  O397  1  0.195700  0.168400  0.180800  1.0  -0.7695
  O  O398  1  0.146200  0.260400  0.213500  1.0  -0.6877
  O  O399  1  0.282400  0.950000  0.200500  1.0  -0.834
  O  O400  1  0.234800  0.017900  0.118100  1.0  -0.6339
  O  O401  1  0.183700  0.540500  0.145500  1.0  -0.5982
  O  O402  1  0.217800  0.632600  0.220200  1.0  -0.69
  O  O403  1  0.344500  0.114800  0.141400  1.0  -0.6549
  O  O404  1  0.324300  0.225900  0.074900  1.0  -0.5002
  O  O405  1  0.340500  0.145800  0.894000  1.0  -0.6282
  O  O406  1  0.413200  0.070000  0.897000  1.0  -0.6052
  O  O407  1  0.370300  0.063000  0.266000  1.0  -0.8113
  O  O408  1  0.416200  0.932400  0.275000  1.0  -0.6117
  O  O409  1  0.672000  0.719800  0.778000  1.0  -0.6423
  O  O410  1  0.744200  0.634500  0.783100  1.0  -0.7436
  O  O411  1  0.695700  0.331600  0.680800  1.0  -0.7692
  O  O412  1  0.646200  0.239600  0.713500  1.0  -0.6882
  O  O413  1  0.782400  0.550000  0.700500  1.0  -0.834
  O  O414  1  0.734800  0.482100  0.618100  1.0  -0.6338
  O  O415  1  0.683700  0.959500  0.645500  1.0  -0.5983
  O  O416  1  0.717800  0.867400  0.720200  1.0  -0.6899
  O  O417  1  0.844500  0.385200  0.641400  1.0  -0.6552
  O  O418  1  0.824300  0.274100  0.574900  1.0  -0.503
  O  O419  1  0.840500  0.354200  0.394000  1.0  -0.629
  O  O420  1  0.913200  0.430000  0.397000  1.0  -0.6053
  O  O421  1  0.870300  0.437000  0.766000  1.0  -0.811
  O  O422  1  0.916200  0.567600  0.775000  1.0  -0.6108
  O  O423  1  0.172000  0.219800  0.778000  1.0  -0.6423
  O  O424  1  0.244200  0.134500  0.783100  1.0  -0.7436
  O  O425  1  0.195700  0.831600  0.680800  1.0  -0.7692
  O  O426  1  0.146200  0.739600  0.713500  1.0  -0.6882
  O  O427  1  0.282400  0.050000  0.700500  1.0  -0.834
  O  O428  1  0.234800  0.982100  0.618100  1.0  -0.6338
  O  O429  1  0.183700  0.459500  0.645500  1.0  -0.5983
  O  O430  1  0.217800  0.367400  0.720200  1.0  -0.6899
  O  O431  1  0.344500  0.885200  0.641400  1.0  -0.6552
  O  O432  1  0.324300  0.774100  0.574900  1.0  -0.503
  O  O433  1  0.340500  0.854200  0.394000  1.0  -0.629
  O  O434  1  0.413200  0.930000  0.397000  1.0  -0.6053
  O  O435  1  0.370300  0.937000  0.766000  1.0  -0.811
  O  O436  1  0.416200  0.067600  0.775000  1.0  -0.6108
  O  O437  1  0.328000  0.719800  0.722000  1.0  -0.6432
  O  O438  1  0.255800  0.634500  0.716900  1.0  -0.7416
  O  O439  1  0.304300  0.331600  0.819200  1.0  -0.7694
  O  O440  1  0.353800  0.239600  0.786500  1.0  -0.6862
  O  O441  1  0.217600  0.550000  0.799500  1.0  -0.8342
  O  O442  1  0.265200  0.482100  0.881900  1.0  -0.6343
  O  O443  1  0.316300  0.959500  0.854500  1.0  -0.5988
  O  O444  1  0.282200  0.867400  0.779800  1.0  -0.6893
  O  O445  1  0.155500  0.385200  0.858600  1.0  -0.6555
  O  O446  1  0.175700  0.274100  0.925100  1.0  -0.5028
  O  O447  1  0.159500  0.354200  0.106000  1.0  -0.6312
  O  O448  1  0.086800  0.430000  0.103000  1.0  -0.6065
  O  O449  1  0.129700  0.437000  0.734000  1.0  -0.8108
  O  O450  1  0.083800  0.567600  0.725000  1.0  -0.6121
  O  O451  1  0.828000  0.219800  0.722000  1.0  -0.6432
  O  O452  1  0.755800  0.134500  0.716900  1.0  -0.7416
  O  O453  1  0.804300  0.831600  0.819200  1.0  -0.7694
  O  O454  1  0.853800  0.739600  0.786500  1.0  -0.6862
  O  O455  1  0.717600  0.050000  0.799500  1.0  -0.8342
  O  O456  1  0.765200  0.982100  0.881900  1.0  -0.6343
  O  O457  1  0.816300  0.459500  0.854500  1.0  -0.5988
  O  O458  1  0.782200  0.367400  0.779800  1.0  -0.6893
  O  O459  1  0.655500  0.885200  0.858600  1.0  -0.6555
  O  O460  1  0.675700  0.774100  0.925100  1.0  -0.5028
  O  O461  1  0.659500  0.854200  0.106000  1.0  -0.6312
  O  O462  1  0.586800  0.930000  0.103000  1.0  -0.6065
  O  O463  1  0.629700  0.937000  0.734000  1.0  -0.8108
  O  O464  1  0.583800  0.067600  0.725000  1.0  -0.6121
