# generated using pymatgen
data_Nd2H15C28O15
_symmetry_space_group_name_H-M   'P 1'
_cell_length_a   26.49380000
_cell_length_b   14.52140000
_cell_length_c   25.60710000
_cell_angle_alpha   90.00000000
_cell_angle_beta   114.28500000
_cell_angle_gamma   90.00000000
_symmetry_Int_Tables_number   1
_chemical_formula_structural   Nd2H15C28O15
_chemical_formula_sum   'Nd16 H120 C224 O120'
_cell_volume   8979.97326689
_cell_formula_units_Z   8
loop_
 _symmetry_equiv_pos_site_id
 _symmetry_equiv_pos_as_xyz
  1  'x, y, z'
loop_
 _atom_site_type_symbol
 _atom_site_label
 _atom_site_symmetry_multiplicity
 _atom_site_fract_x
 _atom_site_fract_y
 _atom_site_fract_z
 _atom_site_occupancy
 _atom_site_charge
  Nd  Nd1  1  0.214140  0.867390  0.310030  1.0  2.304
  Nd  Nd2  1  0.164550  0.088410  0.197150  1.0  2.312
  Nd  Nd3  1  0.714140  0.367390  0.310030  1.0  2.304
  Nd  Nd4  1  0.664550  0.588410  0.197150  1.0  2.312
  Nd  Nd5  1  0.785860  0.867390  0.189970  1.0  2.3042
  Nd  Nd6  1  0.835450  0.088410  0.302850  1.0  2.3113
  Nd  Nd7  1  0.285860  0.367390  0.189970  1.0  2.3042
  Nd  Nd8  1  0.335450  0.588410  0.302850  1.0  2.3113
  Nd  Nd9  1  0.785860  0.132610  0.689970  1.0  2.304
  Nd  Nd10  1  0.835450  0.911590  0.802850  1.0  2.3134
  Nd  Nd11  1  0.285860  0.632610  0.689970  1.0  2.304
  Nd  Nd12  1  0.335450  0.411590  0.802850  1.0  2.3134
  Nd  Nd13  1  0.214140  0.132610  0.810030  1.0  2.304
  Nd  Nd14  1  0.164550  0.911590  0.697150  1.0  2.3122
  Nd  Nd15  1  0.714140  0.632610  0.810030  1.0  2.304
  Nd  Nd16  1  0.664550  0.411590  0.697150  1.0  2.3122
  H  H17  1  0.241500  0.765400  0.412600  1.0  0.4544
  H  H18  1  0.259700  0.216100  0.306400  1.0  0.1181
  H  H19  1  0.153900  0.826000  0.505100  1.0  0.12
  H  H20  1  0.078600  0.985500  0.367400  1.0  0.1054
  H  H21  1  0.069700  0.805800  0.240600  1.0  0.1089
  H  H22  1  0.028700  0.056900  0.412100  1.0  0.1295
  H  H23  1  0.297700  0.988400  0.271400  1.0  0.0911
  H  H24  1  0.344000  0.366300  0.447400  1.0  0.1154
  H  H25  1  0.423500  0.844200  0.266300  1.0  0.1391
  H  H26  1  0.044400  0.018500  0.504600  1.0  0.1132
  H  H27  1  0.403600  0.111200  0.217600  1.0  0.1363
  H  H28  1  0.302200  0.106800  0.461600  1.0  0.1216
  H  H29  1  0.450800  0.973000  0.231400  1.0  0.1106
  H  H30  1  0.342500  0.242200  0.503500  1.0  0.1311
  H  H31  1  0.741500  0.265400  0.412600  1.0  0.4544
  H  H32  1  0.759700  0.716100  0.306400  1.0  0.1181
  H  H33  1  0.653900  0.326000  0.505100  1.0  0.12
  H  H34  1  0.578600  0.485500  0.367400  1.0  0.1054
  H  H35  1  0.569700  0.305800  0.240600  1.0  0.1089
  H  H36  1  0.528700  0.556900  0.412100  1.0  0.1295
  H  H37  1  0.797700  0.488400  0.271400  1.0  0.0911
  H  H38  1  0.844000  0.866300  0.447400  1.0  0.1154
  H  H39  1  0.923500  0.344200  0.266300  1.0  0.1391
  H  H40  1  0.544400  0.518500  0.504600  1.0  0.1132
  H  H41  1  0.903600  0.611200  0.217600  1.0  0.1363
  H  H42  1  0.802200  0.606800  0.461600  1.0  0.1216
  H  H43  1  0.950800  0.473000  0.231400  1.0  0.1106
  H  H44  1  0.842500  0.742200  0.503500  1.0  0.1311
  H  H45  1  0.758500  0.765400  0.087400  1.0  0.4551
  H  H46  1  0.740300  0.216100  0.193600  1.0  0.1187
  H  H47  1  0.846100  0.826000  0.994900  1.0  0.1197
  H  H48  1  0.921400  0.985500  0.132600  1.0  0.1048
  H  H49  1  0.930300  0.805800  0.259400  1.0  0.1089
  H  H50  1  0.971300  0.056900  0.087900  1.0  0.1292
  H  H51  1  0.702300  0.988400  0.228600  1.0  0.0908
  H  H52  1  0.656000  0.366300  0.052600  1.0  0.1156
  H  H53  1  0.576500  0.844200  0.233700  1.0  0.139
  H  H54  1  0.955600  0.018500  0.995400  1.0  0.1137
  H  H55  1  0.596400  0.111200  0.282400  1.0  0.1361
  H  H56  1  0.697800  0.106800  0.038400  1.0  0.1207
  H  H57  1  0.549200  0.973000  0.268600  1.0  0.1112
  H  H58  1  0.657500  0.242200  0.996500  1.0  0.13
  H  H59  1  0.258500  0.265400  0.087400  1.0  0.4551
  H  H60  1  0.240300  0.716100  0.193600  1.0  0.1187
  H  H61  1  0.346100  0.326000  0.994900  1.0  0.1197
  H  H62  1  0.421400  0.485500  0.132600  1.0  0.1048
  H  H63  1  0.430300  0.305800  0.259400  1.0  0.1089
  H  H64  1  0.471300  0.556900  0.087900  1.0  0.1292
  H  H65  1  0.202300  0.488400  0.228600  1.0  0.0908
  H  H66  1  0.156000  0.866300  0.052600  1.0  0.1156
  H  H67  1  0.076500  0.344200  0.233700  1.0  0.139
  H  H68  1  0.455600  0.518500  0.995400  1.0  0.1137
  H  H69  1  0.096400  0.611200  0.282400  1.0  0.1361
  H  H70  1  0.197800  0.606800  0.038400  1.0  0.1207
  H  H71  1  0.049200  0.473000  0.268600  1.0  0.1112
  H  H72  1  0.157500  0.742200  0.996500  1.0  0.13
  H  H73  1  0.758500  0.234600  0.587400  1.0  0.4546
  H  H74  1  0.740300  0.783900  0.693600  1.0  0.1185
  H  H75  1  0.846100  0.174000  0.494900  1.0  0.1203
  H  H76  1  0.921400  0.014500  0.632600  1.0  0.1045
  H  H77  1  0.930300  0.194200  0.759400  1.0  0.1091
  H  H78  1  0.971300  0.943100  0.587900  1.0  0.129
  H  H79  1  0.702300  0.011600  0.728600  1.0  0.0909
  H  H80  1  0.656000  0.633700  0.552600  1.0  0.1153
  H  H81  1  0.576500  0.155800  0.733700  1.0  0.1397
  H  H82  1  0.955600  0.981500  0.495400  1.0  0.1136
  H  H83  1  0.596400  0.888800  0.782400  1.0  0.1367
  H  H84  1  0.697800  0.893200  0.538400  1.0  0.121
  H  H85  1  0.549200  0.027000  0.768600  1.0  0.1113
  H  H86  1  0.657500  0.757800  0.496500  1.0  0.1299
  H  H87  1  0.258500  0.734600  0.587400  1.0  0.4546
  H  H88  1  0.240300  0.283900  0.693600  1.0  0.1185
  H  H89  1  0.346100  0.674000  0.494900  1.0  0.1203
  H  H90  1  0.421400  0.514500  0.632600  1.0  0.1045
  H  H91  1  0.430300  0.694200  0.759400  1.0  0.1091
  H  H92  1  0.471300  0.443100  0.587900  1.0  0.129
  H  H93  1  0.202300  0.511600  0.728600  1.0  0.0909
  H  H94  1  0.156000  0.133700  0.552600  1.0  0.1153
  H  H95  1  0.076500  0.655800  0.733700  1.0  0.1397
  H  H96  1  0.455600  0.481500  0.495400  1.0  0.1136
  H  H97  1  0.096400  0.388800  0.782400  1.0  0.1367
  H  H98  1  0.197800  0.393200  0.538400  1.0  0.121
  H  H99  1  0.049200  0.527000  0.768600  1.0  0.1113
  H  H100  1  0.157500  0.257800  0.496500  1.0  0.1299
  H  H101  1  0.241500  0.234600  0.912600  1.0  0.4541
  H  H102  1  0.259700  0.783900  0.806400  1.0  0.118
  H  H103  1  0.153900  0.174000  0.005100  1.0  0.1198
  H  H104  1  0.078600  0.014500  0.867400  1.0  0.1052
  H  H105  1  0.069700  0.194200  0.740600  1.0  0.1088
  H  H106  1  0.028700  0.943100  0.912100  1.0  0.1285
  H  H107  1  0.297700  0.011600  0.771400  1.0  0.0912
  H  H108  1  0.344000  0.633700  0.947400  1.0  0.1155
  H  H109  1  0.423500  0.155800  0.766300  1.0  0.1395
  H  H110  1  0.044400  0.981500  0.004600  1.0  0.1136
  H  H111  1  0.403600  0.888800  0.717600  1.0  0.136
  H  H112  1  0.302200  0.893200  0.961600  1.0  0.1216
  H  H113  1  0.450800  0.027000  0.731400  1.0  0.1108
  H  H114  1  0.342500  0.757800  0.003500  1.0  0.1308
  H  H115  1  0.741500  0.734600  0.912600  1.0  0.4541
  H  H116  1  0.759700  0.283900  0.806400  1.0  0.118
  H  H117  1  0.653900  0.674000  0.005100  1.0  0.1198
  H  H118  1  0.578600  0.514500  0.867400  1.0  0.1052
  H  H119  1  0.569700  0.694200  0.740600  1.0  0.1088
  H  H120  1  0.528700  0.443100  0.912100  1.0  0.1285
  H  H121  1  0.797700  0.511600  0.771400  1.0  0.0912
  H  H122  1  0.844000  0.133700  0.947400  1.0  0.1155
  H  H123  1  0.923500  0.655800  0.766300  1.0  0.1395
  H  H124  1  0.544400  0.481500  0.004600  1.0  0.1136
  H  H125  1  0.903600  0.388800  0.717600  1.0  0.136
  H  H126  1  0.802200  0.393200  0.961600  1.0  0.1216
  H  H127  1  0.950800  0.527000  0.731400  1.0  0.1108
  H  H128  1  0.842500  0.257800  0.003500  1.0  0.1308
  H  H129  1  0.000000  0.043900  0.250000  1.0  0.1193
  H  H130  1  0.000000  0.726600  0.250000  1.0  0.1385
  H  H131  1  0.500000  0.543900  0.250000  1.0  0.1193
  H  H132  1  0.500000  0.226600  0.250000  1.0  0.1385
  H  H133  1  0.000000  0.956100  0.750000  1.0  0.1207
  H  H134  1  0.000000  0.273400  0.750000  1.0  0.1387
  H  H135  1  0.500000  0.456100  0.750000  1.0  0.1207
  H  H136  1  0.500000  0.773400  0.750000  1.0  0.1387
  C  C137  1  0.301200  0.305900  0.371400  1.0  -0.108
  C  C138  1  0.153200  0.848600  0.403000  1.0  0.7223
  C  C139  1  0.253200  0.057600  0.353700  1.0  0.7162
  C  C140  1  0.276500  0.221500  0.346100  1.0  0.0088
  C  C141  1  0.042600  0.933700  0.243000  1.0  -0.1805
  C  C142  1  0.277000  0.147300  0.379800  1.0  -0.1469
  C  C143  1  0.129200  0.873000  0.486500  1.0  0.0339
  C  C144  1  0.101100  0.918800  0.515300  1.0  -0.1468
  C  C145  1  0.114200  0.897300  0.576400  1.0  0.6887
  C  C146  1  0.120600  0.896900  0.431000  1.0  -0.1509
  C  C147  1  0.087100  0.986700  0.233600  1.0  0.7342
  C  C148  1  0.083800  0.967400  0.404100  1.0  -0.0287
  C  C149  1  0.041100  0.838500  0.244100  1.0  -0.021
  C  C150  1  0.054400  0.011500  0.431300  1.0  -0.0867
  C  C151  1  0.357300  0.905900  0.272400  1.0  -0.1335
  C  C152  1  0.343300  0.062700  0.240300  1.0  -0.144
  C  C153  1  0.307800  0.147300  0.226300  1.0  0.7672
  C  C154  1  0.328500  0.985300  0.262700  1.0  -0.0307
  C  C155  1  0.300900  0.384300  0.334400  1.0  0.7737
  C  C156  1  0.326600  0.311900  0.430100  1.0  -0.0492
  C  C157  1  0.338100  0.823000  0.294800  1.0  0.7697
  C  C158  1  0.403800  0.899000  0.260500  1.0  -0.0823
  C  C159  1  0.063600  0.987900  0.486400  1.0  -0.0143
  C  C160  1  0.391200  0.059400  0.230200  1.0  -0.0963
  C  C161  1  0.302000  0.156600  0.438600  1.0  -0.0227
  C  C162  1  0.419800  0.976600  0.239500  1.0  -0.0744
  C  C163  1  0.326200  0.237200  0.463800  1.0  -0.1193
  C  C164  1  0.801200  0.805900  0.371400  1.0  -0.108
  C  C165  1  0.653200  0.348600  0.403000  1.0  0.7223
  C  C166  1  0.753200  0.557600  0.353700  1.0  0.7162
  C  C167  1  0.776500  0.721500  0.346100  1.0  0.0088
  C  C168  1  0.542600  0.433700  0.243000  1.0  -0.1805
  C  C169  1  0.777000  0.647300  0.379800  1.0  -0.1469
  C  C170  1  0.629200  0.373000  0.486500  1.0  0.0339
  C  C171  1  0.601100  0.418800  0.515300  1.0  -0.1468
  C  C172  1  0.614200  0.397300  0.576400  1.0  0.6887
  C  C173  1  0.620600  0.396900  0.431000  1.0  -0.1509
  C  C174  1  0.587100  0.486700  0.233600  1.0  0.7342
  C  C175  1  0.583800  0.467400  0.404100  1.0  -0.0287
  C  C176  1  0.541100  0.338500  0.244100  1.0  -0.021
  C  C177  1  0.554400  0.511500  0.431300  1.0  -0.0867
  C  C178  1  0.857300  0.405900  0.272400  1.0  -0.1335
  C  C179  1  0.843300  0.562700  0.240300  1.0  -0.144
  C  C180  1  0.807800  0.647300  0.226300  1.0  0.7672
  C  C181  1  0.828500  0.485300  0.262700  1.0  -0.0307
  C  C182  1  0.800900  0.884300  0.334400  1.0  0.7737
  C  C183  1  0.826600  0.811900  0.430100  1.0  -0.0492
  C  C184  1  0.838100  0.323000  0.294800  1.0  0.7697
  C  C185  1  0.903800  0.399000  0.260500  1.0  -0.0823
  C  C186  1  0.563600  0.487900  0.486400  1.0  -0.0143
  C  C187  1  0.891200  0.559400  0.230200  1.0  -0.0963
  C  C188  1  0.802000  0.656600  0.438600  1.0  -0.0227
  C  C189  1  0.919800  0.476600  0.239500  1.0  -0.0744
  C  C190  1  0.826200  0.737200  0.463800  1.0  -0.1193
  C  C191  1  0.698800  0.305900  0.128600  1.0  -0.1079
  C  C192  1  0.846800  0.848600  0.097000  1.0  0.7233
  C  C193  1  0.746800  0.057600  0.146300  1.0  0.7164
  C  C194  1  0.723500  0.221500  0.153900  1.0  0.0084
  C  C195  1  0.957400  0.933700  0.257000  1.0  -0.1798
  C  C196  1  0.723000  0.147300  0.120200  1.0  -0.1468
  C  C197  1  0.870800  0.873000  0.013500  1.0  0.0333
  C  C198  1  0.898900  0.918800  0.984700  1.0  -0.1472
  C  C199  1  0.885800  0.897300  0.923600  1.0  0.6895
  C  C200  1  0.879400  0.896900  0.069000  1.0  -0.1507
  C  C201  1  0.912900  0.986700  0.266400  1.0  0.7355
  C  C202  1  0.916200  0.967400  0.095900  1.0  -0.0267
  C  C203  1  0.958900  0.838500  0.255900  1.0  -0.021
  C  C204  1  0.945600  0.011500  0.068700  1.0  -0.0861
  C  C205  1  0.642700  0.905900  0.227600  1.0  -0.1329
  C  C206  1  0.656700  0.062700  0.259700  1.0  -0.1444
  C  C207  1  0.692200  0.147300  0.273700  1.0  0.7665
  C  C208  1  0.671500  0.985300  0.237300  1.0  -0.0297
  C  C209  1  0.699100  0.384300  0.165600  1.0  0.759
  C  C210  1  0.673400  0.311900  0.069900  1.0  -0.049
  C  C211  1  0.661900  0.823000  0.205200  1.0  0.771
  C  C212  1  0.596200  0.899000  0.239500  1.0  -0.0822
  C  C213  1  0.936400  0.987900  0.013600  1.0  -0.0153
  C  C214  1  0.608800  0.059400  0.269800  1.0  -0.0965
  C  C215  1  0.698000  0.156600  0.061400  1.0  -0.0215
  C  C216  1  0.580200  0.976600  0.260500  1.0  -0.0776
  C  C217  1  0.673800  0.237200  0.036200  1.0  -0.1181
  C  C218  1  0.198800  0.805900  0.128600  1.0  -0.1079
  C  C219  1  0.346800  0.348600  0.097000  1.0  0.7233
  C  C220  1  0.246800  0.557600  0.146300  1.0  0.7164
  C  C221  1  0.223500  0.721500  0.153900  1.0  0.0084
  C  C222  1  0.457400  0.433700  0.257000  1.0  -0.1798
  C  C223  1  0.223000  0.647300  0.120200  1.0  -0.1468
  C  C224  1  0.370800  0.373000  0.013500  1.0  0.0333
  C  C225  1  0.398900  0.418800  0.984700  1.0  -0.1472
  C  C226  1  0.385800  0.397300  0.923600  1.0  0.6895
  C  C227  1  0.379400  0.396900  0.069000  1.0  -0.1507
  C  C228  1  0.412900  0.486700  0.266400  1.0  0.7355
  C  C229  1  0.416200  0.467400  0.095900  1.0  -0.0267
  C  C230  1  0.458900  0.338500  0.255900  1.0  -0.021
  C  C231  1  0.445600  0.511500  0.068700  1.0  -0.0861
  C  C232  1  0.142700  0.405900  0.227600  1.0  -0.1329
  C  C233  1  0.156700  0.562700  0.259700  1.0  -0.1444
  C  C234  1  0.192200  0.647300  0.273700  1.0  0.7665
  C  C235  1  0.171500  0.485300  0.237300  1.0  -0.0297
  C  C236  1  0.199100  0.884300  0.165600  1.0  0.759
  C  C237  1  0.173400  0.811900  0.069900  1.0  -0.049
  C  C238  1  0.161900  0.323000  0.205200  1.0  0.771
  C  C239  1  0.096200  0.399000  0.239500  1.0  -0.0822
  C  C240  1  0.436400  0.487900  0.013600  1.0  -0.0153
  C  C241  1  0.108800  0.559400  0.269800  1.0  -0.0965
  C  C242  1  0.198000  0.656600  0.061400  1.0  -0.0215
  C  C243  1  0.080200  0.476600  0.260500  1.0  -0.0776
  C  C244  1  0.173800  0.737200  0.036200  1.0  -0.1181
  C  C245  1  0.698800  0.694100  0.628600  1.0  -0.1075
  C  C246  1  0.846800  0.151400  0.597000  1.0  0.723
  C  C247  1  0.746800  0.942400  0.646300  1.0  0.7156
  C  C248  1  0.723500  0.778500  0.653900  1.0  0.0083
  C  C249  1  0.957400  0.066300  0.757000  1.0  -0.1793
  C  C250  1  0.723000  0.852700  0.620200  1.0  -0.147
  C  C251  1  0.870800  0.127000  0.513500  1.0  0.033
  C  C252  1  0.898900  0.081200  0.484700  1.0  -0.1473
  C  C253  1  0.885800  0.102700  0.423600  1.0  0.6905
  C  C254  1  0.879400  0.103100  0.569000  1.0  -0.1499
  C  C255  1  0.912900  0.013300  0.766400  1.0  0.7375
  C  C256  1  0.916200  0.032600  0.595900  1.0  -0.0264
  C  C257  1  0.958900  0.161500  0.755900  1.0  -0.0208
  C  C258  1  0.945600  0.988500  0.568700  1.0  -0.0863
  C  C259  1  0.642700  0.094100  0.727600  1.0  -0.1319
  C  C260  1  0.656700  0.937300  0.759700  1.0  -0.144
  C  C261  1  0.692200  0.852700  0.773700  1.0  0.766
  C  C262  1  0.671500  0.014700  0.737300  1.0  -0.0299
  C  C263  1  0.699100  0.615700  0.665600  1.0  0.7746
  C  C264  1  0.673400  0.688100  0.569900  1.0  -0.0487
  C  C265  1  0.661900  0.177000  0.705200  1.0  0.7726
  C  C266  1  0.596200  0.101000  0.739500  1.0  -0.0829
  C  C267  1  0.936400  0.012100  0.513600  1.0  -0.0154
  C  C268  1  0.608800  0.940600  0.769800  1.0  -0.0956
  C  C269  1  0.698000  0.843400  0.561400  1.0  -0.0219
  C  C270  1  0.580200  0.023400  0.760500  1.0  -0.0777
  C  C271  1  0.673800  0.762800  0.536200  1.0  -0.1189
  C  C272  1  0.198800  0.194100  0.628600  1.0  -0.1075
  C  C273  1  0.346800  0.651400  0.597000  1.0  0.723
  C  C274  1  0.246800  0.442400  0.646300  1.0  0.7156
  C  C275  1  0.223500  0.278500  0.653900  1.0  0.0083
  C  C276  1  0.457400  0.566300  0.757000  1.0  -0.1793
  C  C277  1  0.223000  0.352700  0.620200  1.0  -0.147
  C  C278  1  0.370800  0.627000  0.513500  1.0  0.033
  C  C279  1  0.398900  0.581200  0.484700  1.0  -0.1473
  C  C280  1  0.385800  0.602700  0.423600  1.0  0.6905
  C  C281  1  0.379400  0.603100  0.569000  1.0  -0.1499
  C  C282  1  0.412900  0.513300  0.766400  1.0  0.7375
  C  C283  1  0.416200  0.532600  0.595900  1.0  -0.0264
  C  C284  1  0.458900  0.661500  0.755900  1.0  -0.0208
  C  C285  1  0.445600  0.488500  0.568700  1.0  -0.0863
  C  C286  1  0.142700  0.594100  0.727600  1.0  -0.1319
  C  C287  1  0.156700  0.437300  0.759700  1.0  -0.144
  C  C288  1  0.192200  0.352700  0.773700  1.0  0.766
  C  C289  1  0.171500  0.514700  0.737300  1.0  -0.0299
  C  C290  1  0.199100  0.115700  0.665600  1.0  0.7746
  C  C291  1  0.173400  0.188100  0.569900  1.0  -0.0487
  C  C292  1  0.161900  0.677000  0.705200  1.0  0.7726
  C  C293  1  0.096200  0.601000  0.739500  1.0  -0.0829
  C  C294  1  0.436400  0.512100  0.513600  1.0  -0.0154
  C  C295  1  0.108800  0.440600  0.769800  1.0  -0.0956
  C  C296  1  0.198000  0.343400  0.561400  1.0  -0.0219
  C  C297  1  0.080200  0.523400  0.760500  1.0  -0.0777
  C  C298  1  0.173800  0.262800  0.536200  1.0  -0.1189
  C  C299  1  0.301200  0.694100  0.871400  1.0  -0.1069
  C  C300  1  0.153200  0.151400  0.903000  1.0  0.7225
  C  C301  1  0.253200  0.942400  0.853700  1.0  0.716
  C  C302  1  0.276500  0.778500  0.846100  1.0  0.009
  C  C303  1  0.042600  0.066300  0.743000  1.0  -0.1811
  C  C304  1  0.277000  0.852700  0.879800  1.0  -0.1473
  C  C305  1  0.129200  0.127000  0.986500  1.0  0.0339
  C  C306  1  0.101100  0.081200  0.015300  1.0  -0.1478
  C  C307  1  0.114200  0.102700  0.076400  1.0  0.6888
  C  C308  1  0.120600  0.103100  0.931000  1.0  -0.1501
  C  C309  1  0.087100  0.013300  0.733600  1.0  0.7348
  C  C310  1  0.083800  0.032600  0.904100  1.0  -0.0285
  C  C311  1  0.041100  0.161500  0.744100  1.0  -0.0224
  C  C312  1  0.054400  0.988500  0.931300  1.0  -0.0869
  C  C313  1  0.357300  0.094100  0.772400  1.0  -0.1336
  C  C314  1  0.343300  0.937300  0.740300  1.0  -0.1432
  C  C315  1  0.307800  0.852700  0.726300  1.0  0.7669
  C  C316  1  0.328500  0.014700  0.762700  1.0  -0.0308
  C  C317  1  0.300900  0.615700  0.834400  1.0  0.7595
  C  C318  1  0.326600  0.688100  0.930100  1.0  -0.0499
  C  C319  1  0.338100  0.177000  0.794800  1.0  0.7695
  C  C320  1  0.403800  0.101000  0.760500  1.0  -0.0823
  C  C321  1  0.063600  0.012100  0.986400  1.0  -0.0142
  C  C322  1  0.391200  0.940600  0.730200  1.0  -0.0948
  C  C323  1  0.302000  0.843400  0.938600  1.0  -0.0217
  C  C324  1  0.419800  0.023400  0.739500  1.0  -0.0745
  C  C325  1  0.326200  0.762800  0.963800  1.0  -0.1195
  C  C326  1  0.801200  0.194100  0.871400  1.0  -0.1069
  C  C327  1  0.653200  0.651400  0.903000  1.0  0.7225
  C  C328  1  0.753200  0.442400  0.853700  1.0  0.716
  C  C329  1  0.776500  0.278500  0.846100  1.0  0.009
  C  C330  1  0.542600  0.566300  0.743000  1.0  -0.1811
  C  C331  1  0.777000  0.352700  0.879800  1.0  -0.1473
  C  C332  1  0.629200  0.627000  0.986500  1.0  0.0339
  C  C333  1  0.601100  0.581200  0.015300  1.0  -0.1478
  C  C334  1  0.614200  0.602700  0.076400  1.0  0.6888
  C  C335  1  0.620600  0.603100  0.931000  1.0  -0.1501
  C  C336  1  0.587100  0.513300  0.733600  1.0  0.7348
  C  C337  1  0.583800  0.532600  0.904100  1.0  -0.0285
  C  C338  1  0.541100  0.661500  0.744100  1.0  -0.0224
  C  C339  1  0.554400  0.488500  0.931300  1.0  -0.0869
  C  C340  1  0.857300  0.594100  0.772400  1.0  -0.1336
  C  C341  1  0.843300  0.437300  0.740300  1.0  -0.1432
  C  C342  1  0.807800  0.352700  0.726300  1.0  0.7669
  C  C343  1  0.828500  0.514700  0.762700  1.0  -0.0308
  C  C344  1  0.800900  0.115700  0.834400  1.0  0.7595
  C  C345  1  0.826600  0.188100  0.930100  1.0  -0.0499
  C  C346  1  0.838100  0.677000  0.794800  1.0  0.7695
  C  C347  1  0.903800  0.601000  0.760500  1.0  -0.0823
  C  C348  1  0.563600  0.512100  0.986400  1.0  -0.0142
  C  C349  1  0.891200  0.440600  0.730200  1.0  -0.0948
  C  C350  1  0.802000  0.343400  0.938600  1.0  -0.0217
  C  C351  1  0.919800  0.523400  0.739500  1.0  -0.0745
  C  C352  1  0.826200  0.262800  0.963800  1.0  -0.1195
  C  C353  1  0.000000  0.979800  0.250000  1.0  -0.0373
  C  C354  1  0.000000  0.790600  0.250000  1.0  -0.1287
  C  C355  1  0.500000  0.479800  0.250000  1.0  -0.0373
  C  C356  1  0.500000  0.290600  0.250000  1.0  -0.1287
  C  C357  1  0.000000  0.020200  0.750000  1.0  -0.0368
  C  C358  1  0.000000  0.209400  0.750000  1.0  -0.1257
  C  C359  1  0.500000  0.520200  0.750000  1.0  -0.0368
  C  C360  1  0.500000  0.709400  0.750000  1.0  -0.1257
  O  O361  1  0.128000  0.940900  0.233400  1.0  -0.797
  O  O362  1  0.218700  0.053500  0.300000  1.0  -0.8143
  O  O363  1  0.283200  0.371000  0.281200  1.0  -0.727
  O  O364  1  0.082400  0.070300  0.223600  1.0  -0.6458
  O  O365  1  0.267200  0.986800  0.383100  1.0  -0.6637
  O  O366  1  0.084800  0.925700  0.600300  1.0  -0.6012
  O  O367  1  0.262000  0.773500  0.396300  1.0  -0.734
  O  O368  1  0.158900  0.852000  0.604600  1.0  -0.6145
  O  O369  1  0.176800  0.775600  0.425200  1.0  -0.5503
  O  O370  1  0.329600  0.222200  0.223100  1.0  -0.629
  O  O371  1  0.306300  0.835800  0.319500  1.0  -0.7523
  O  O372  1  0.155900  0.885400  0.359400  1.0  -0.6527
  O  O373  1  0.257700  0.137900  0.217900  1.0  -0.7148
  O  O374  1  0.354600  0.743100  0.287400  1.0  -0.7204
  O  O375  1  0.317300  0.461200  0.356400  1.0  -0.6136
  O  O376  1  0.628000  0.440900  0.233400  1.0  -0.797
  O  O377  1  0.718700  0.553500  0.300000  1.0  -0.8143
  O  O378  1  0.783200  0.871000  0.281200  1.0  -0.727
  O  O379  1  0.582400  0.570300  0.223600  1.0  -0.6458
  O  O380  1  0.767200  0.486800  0.383100  1.0  -0.6637
  O  O381  1  0.584800  0.425700  0.600300  1.0  -0.6012
  O  O382  1  0.762000  0.273500  0.396300  1.0  -0.734
  O  O383  1  0.658900  0.352000  0.604600  1.0  -0.6145
  O  O384  1  0.676800  0.275600  0.425200  1.0  -0.5503
  O  O385  1  0.829600  0.722200  0.223100  1.0  -0.629
  O  O386  1  0.806300  0.335800  0.319500  1.0  -0.7523
  O  O387  1  0.655900  0.385400  0.359400  1.0  -0.6527
  O  O388  1  0.757700  0.637900  0.217900  1.0  -0.7148
  O  O389  1  0.854600  0.243100  0.287400  1.0  -0.7204
  O  O390  1  0.817300  0.961200  0.356400  1.0  -0.6136
  O  O391  1  0.872000  0.940900  0.266600  1.0  -0.7979
  O  O392  1  0.781300  0.053500  0.200000  1.0  -0.8145
  O  O393  1  0.716800  0.371000  0.218800  1.0  -0.7275
  O  O394  1  0.917600  0.070300  0.276400  1.0  -0.6446
  O  O395  1  0.732800  0.986800  0.116900  1.0  -0.6646
  O  O396  1  0.915200  0.925700  0.899700  1.0  -0.6015
  O  O397  1  0.738000  0.773500  0.103700  1.0  -0.7375
  O  O398  1  0.841100  0.852000  0.895400  1.0  -0.6127
  O  O399  1  0.823200  0.775600  0.074800  1.0  -0.5482
  O  O400  1  0.670400  0.222200  0.276900  1.0  -0.6287
  O  O401  1  0.693700  0.835800  0.180500  1.0  -0.7541
  O  O402  1  0.844100  0.885400  0.140600  1.0  -0.6548
  O  O403  1  0.742300  0.137900  0.282100  1.0  -0.7154
  O  O404  1  0.645400  0.743100  0.212600  1.0  -0.722
  O  O405  1  0.682700  0.461200  0.143600  1.0  -0.613
  O  O406  1  0.372000  0.440900  0.266600  1.0  -0.7979
  O  O407  1  0.281300  0.553500  0.200000  1.0  -0.8145
  O  O408  1  0.216800  0.871000  0.218800  1.0  -0.7275
  O  O409  1  0.417600  0.570300  0.276400  1.0  -0.6446
  O  O410  1  0.232800  0.486800  0.116900  1.0  -0.6646
  O  O411  1  0.415200  0.425700  0.899700  1.0  -0.6015
  O  O412  1  0.238000  0.273500  0.103700  1.0  -0.7375
  O  O413  1  0.341100  0.352000  0.895400  1.0  -0.6127
  O  O414  1  0.323200  0.275600  0.074800  1.0  -0.5482
  O  O415  1  0.170400  0.722200  0.276900  1.0  -0.6287
  O  O416  1  0.193700  0.335800  0.180500  1.0  -0.7541
  O  O417  1  0.344100  0.385400  0.140600  1.0  -0.6548
  O  O418  1  0.242300  0.637900  0.282100  1.0  -0.7154
  O  O419  1  0.145400  0.243100  0.212600  1.0  -0.722
  O  O420  1  0.182700  0.961200  0.143600  1.0  -0.613
  O  O421  1  0.872000  0.059100  0.766600  1.0  -0.798
  O  O422  1  0.781300  0.946500  0.700000  1.0  -0.8145
  O  O423  1  0.716800  0.629000  0.718800  1.0  -0.7276
  O  O424  1  0.917600  0.929700  0.776400  1.0  -0.6451
  O  O425  1  0.732800  0.013200  0.616900  1.0  -0.6646
  O  O426  1  0.915200  0.074300  0.399700  1.0  -0.6005
  O  O427  1  0.738000  0.226500  0.603700  1.0  -0.7371
  O  O428  1  0.841100  0.148000  0.395400  1.0  -0.6128
  O  O429  1  0.823200  0.224400  0.574800  1.0  -0.5468
  O  O430  1  0.670400  0.777800  0.776900  1.0  -0.6287
  O  O431  1  0.693700  0.164200  0.680500  1.0  -0.7543
  O  O432  1  0.844100  0.114600  0.640600  1.0  -0.6549
  O  O433  1  0.742300  0.862100  0.782100  1.0  -0.7156
  O  O434  1  0.645400  0.256900  0.712600  1.0  -0.7213
  O  O435  1  0.682700  0.538800  0.643600  1.0  -0.6143
  O  O436  1  0.372000  0.559100  0.766600  1.0  -0.798
  O  O437  1  0.281300  0.446500  0.700000  1.0  -0.8145
  O  O438  1  0.216800  0.129000  0.718800  1.0  -0.7276
  O  O439  1  0.417600  0.429700  0.776400  1.0  -0.6451
  O  O440  1  0.232800  0.513200  0.616900  1.0  -0.6646
  O  O441  1  0.415200  0.574300  0.399700  1.0  -0.6005
  O  O442  1  0.238000  0.726500  0.603700  1.0  -0.7371
  O  O443  1  0.341100  0.648000  0.395400  1.0  -0.6128
  O  O444  1  0.323200  0.724400  0.574800  1.0  -0.5468
  O  O445  1  0.170400  0.277800  0.776900  1.0  -0.6287
  O  O446  1  0.193700  0.664200  0.680500  1.0  -0.7543
  O  O447  1  0.344100  0.614600  0.640600  1.0  -0.6549
  O  O448  1  0.242300  0.362100  0.782100  1.0  -0.7156
  O  O449  1  0.145400  0.756900  0.712600  1.0  -0.7213
  O  O450  1  0.182700  0.038800  0.643600  1.0  -0.6143
  O  O451  1  0.128000  0.059100  0.733400  1.0  -0.7966
  O  O452  1  0.218700  0.946500  0.800000  1.0  -0.8144
  O  O453  1  0.283200  0.629000  0.781200  1.0  -0.727
  O  O454  1  0.082400  0.929700  0.723600  1.0  -0.6454
  O  O455  1  0.267200  0.013200  0.883100  1.0  -0.6633
  O  O456  1  0.084800  0.074300  0.100300  1.0  -0.6016
  O  O457  1  0.262000  0.226500  0.896300  1.0  -0.734
  O  O458  1  0.158900  0.148000  0.104600  1.0  -0.6146
  O  O459  1  0.176800  0.224400  0.925200  1.0  -0.5493
  O  O460  1  0.329600  0.777800  0.723100  1.0  -0.628
  O  O461  1  0.306300  0.164200  0.819500  1.0  -0.7519
  O  O462  1  0.155900  0.114600  0.859400  1.0  -0.6528
  O  O463  1  0.257700  0.862100  0.717900  1.0  -0.715
  O  O464  1  0.354600  0.256900  0.787400  1.0  -0.7208
  O  O465  1  0.317300  0.538800  0.856400  1.0  -0.615
  O  O466  1  0.628000  0.559100  0.733400  1.0  -0.7966
  O  O467  1  0.718700  0.446500  0.800000  1.0  -0.8144
  O  O468  1  0.783200  0.129000  0.781200  1.0  -0.727
  O  O469  1  0.582400  0.429700  0.723600  1.0  -0.6454
  O  O470  1  0.767200  0.513200  0.883100  1.0  -0.6633
  O  O471  1  0.584800  0.574300  0.100300  1.0  -0.6016
  O  O472  1  0.762000  0.726500  0.896300  1.0  -0.734
  O  O473  1  0.658900  0.648000  0.104600  1.0  -0.6146
  O  O474  1  0.676800  0.724400  0.925200  1.0  -0.5493
  O  O475  1  0.829600  0.277800  0.723100  1.0  -0.628
  O  O476  1  0.806300  0.664200  0.819500  1.0  -0.7519
  O  O477  1  0.655900  0.614600  0.859400  1.0  -0.6528
  O  O478  1  0.757700  0.362100  0.717900  1.0  -0.715
  O  O479  1  0.854600  0.756900  0.787400  1.0  -0.7208
  O  O480  1  0.817300  0.038800  0.856400  1.0  -0.615
