# generated using pymatgen
data_Cu2H9C10N4O3
_symmetry_space_group_name_H-M   'P 1'
_cell_length_a   8.29000000
_cell_length_b   13.82210000
_cell_length_c   17.06740000
_cell_angle_alpha   77.18790000
_cell_angle_beta   75.94460000
_cell_angle_gamma   72.54950000
_symmetry_Int_Tables_number   1
_chemical_formula_structural   Cu2H9C10N4O3
_chemical_formula_sum   'Cu8 H36 C40 N16 O12'
_cell_volume   1786.22031281
_cell_formula_units_Z   4
loop_
 _symmetry_equiv_pos_site_id
 _symmetry_equiv_pos_as_xyz
  1  'x, y, z'
loop_
 _atom_site_type_symbol
 _atom_site_label
 _atom_site_symmetry_multiplicity
 _atom_site_fract_x
 _atom_site_fract_y
 _atom_site_fract_z
 _atom_site_occupancy
 _atom_site_charge
  Cu  Cu1  1  0.901390  0.544970  0.156310  1.0  0.6666
  Cu  Cu2  1  0.733150  0.524570  0.355670  1.0  0.6361
  Cu  Cu3  1  0.602670  0.955030  0.343690  1.0  0.6667
  Cu  Cu4  1  0.613390  0.975430  0.144330  1.0  0.6354
  Cu  Cu5  1  0.098610  0.455030  0.843690  1.0  0.6667
  Cu  Cu6  1  0.266850  0.475430  0.644330  1.0  0.6369
  Cu  Cu7  1  0.397330  0.044970  0.656310  1.0  0.6653
  Cu  Cu8  1  0.386610  0.024570  0.855670  1.0  0.6353
  H  H9  1  0.262000  0.618700  0.086500  1.0  0.0876
  H  H10  1  0.415200  0.639000  0.955800  1.0  0.128
  H  H11  1  0.372200  0.570000  0.850200  1.0  0.0769
  H  H12  1  0.877200  0.601400  0.479400  1.0  0.0863
  H  H13  1  0.775300  0.627200  0.621800  1.0  0.1222
  H  H14  1  0.513700  0.580000  0.697400  1.0  0.0887
  H  H15  1  0.225500  0.647900  0.274100  1.0  0.0971
  H  H16  1  0.089800  0.715900  0.334100  1.0  0.1108
  H  H17  1  0.588400  0.559600  0.237200  1.0  0.3113
  H  H18  1  0.967200  0.881300  0.413500  1.0  0.0884
  H  H19  1  0.010000  0.861000  0.544200  1.0  0.1279
  H  H20  1  0.792400  0.930000  0.649800  1.0  0.0787
  H  H21  1  0.958000  0.898600  0.020600  1.0  0.0864
  H  H22  1  0.024300  0.872800  0.878200  1.0  0.1226
  H  H23  1  0.791100  0.920000  0.802600  1.0  0.0883
  H  H24  1  0.147500  0.852100  0.225900  1.0  0.0965
  H  H25  1  0.139800  0.784100  0.165900  1.0  0.1104
  H  H26  1  0.385200  0.940400  0.262800  1.0  0.3115
  H  H27  1  0.738000  0.381300  0.913500  1.0  0.0873
  H  H28  1  0.584800  0.361000  0.044200  1.0  0.1318
  H  H29  1  0.627800  0.430000  0.149800  1.0  0.0769
  H  H30  1  0.122800  0.398600  0.520600  1.0  0.0863
  H  H31  1  0.224700  0.372800  0.378200  1.0  0.122
  H  H32  1  0.486300  0.420000  0.302600  1.0  0.0884
  H  H33  1  0.774500  0.352100  0.725900  1.0  0.0969
  H  H34  1  0.910200  0.284100  0.665900  1.0  0.1106
  H  H35  1  0.411600  0.440400  0.762800  1.0  0.3117
  H  H36  1  0.032800  0.118700  0.586500  1.0  0.088
  H  H37  1  0.990000  0.139000  0.455800  1.0  0.1303
  H  H38  1  0.207600  0.070000  0.350200  1.0  0.0775
  H  H39  1  0.042000  0.101400  0.979400  1.0  0.0863
  H  H40  1  0.975700  0.127200  0.121800  1.0  0.1206
  H  H41  1  0.208900  0.080000  0.197400  1.0  0.0892
  H  H42  1  0.852500  0.147900  0.774100  1.0  0.0967
  H  H43  1  0.860200  0.215900  0.834100  1.0  0.1106
  H  H44  1  0.614800  0.059600  0.737200  1.0  0.3116
  C  C45  1  0.219300  0.603600  0.041200  1.0  0.1951
  C  C46  1  0.328900  0.608100  0.966500  1.0  -0.3186
  C  C47  1  0.298600  0.570300  0.905100  1.0  0.1932
  C  C48  1  0.770500  0.587600  0.511800  1.0  0.2153
  C  C49  1  0.711100  0.602200  0.592400  1.0  -0.2735
  C  C50  1  0.563900  0.573800  0.634000  1.0  0.1759
  C  C51  1  0.074800  0.517000  0.992600  1.0  0.2608
  C  C52  1  0.546600  0.521400  0.520200  1.0  0.2817
  C  C53  1  0.993500  0.635100  0.271700  1.0  0.7164
  C  C54  1  0.103200  0.700000  0.280400  1.0  -0.2801
  C  C55  1  0.864100  0.896400  0.458800  1.0  0.1939
  C  C56  1  0.903500  0.891900  0.533500  1.0  -0.3097
  C  C57  1  0.774000  0.929700  0.594900  1.0  0.1967
  C  C58  1  0.869900  0.912400  0.988200  1.0  0.2113
  C  C59  1  0.905700  0.897800  0.907600  1.0  -0.2724
  C  C60  1  0.771700  0.926200  0.866000  1.0  0.1784
  C  C61  1  0.584400  0.983000  0.507400  1.0  0.2616
  C  C62  1  0.588200  0.978600  0.979800  1.0  0.2815
  C  C63  1  0.900300  0.864900  0.228300  1.0  0.7158
  C  C64  1  0.083600  0.800000  0.219600  1.0  -0.2754
  C  C65  1  0.780700  0.396400  0.958800  1.0  0.1944
  C  C66  1  0.671100  0.391900  0.033500  1.0  -0.3218
  C  C67  1  0.701400  0.429700  0.094900  1.0  0.1943
  C  C68  1  0.229500  0.412400  0.488200  1.0  0.215
  C  C69  1  0.288900  0.397800  0.407600  1.0  -0.2746
  C  C70  1  0.436100  0.426200  0.366000  1.0  0.1801
  C  C71  1  0.925200  0.483000  0.007400  1.0  0.2624
  C  C72  1  0.453400  0.478600  0.479800  1.0  0.2802
  C  C73  1  0.006500  0.364900  0.728300  1.0  0.7161
  C  C74  1  0.896800  0.300000  0.719600  1.0  -0.2778
  C  C75  1  0.135900  0.103600  0.541200  1.0  0.1961
  C  C76  1  0.096500  0.108100  0.466500  1.0  -0.3209
  C  C77  1  0.226000  0.070300  0.405100  1.0  0.1954
  C  C78  1  0.130100  0.087600  0.011800  1.0  0.2107
  C  C79  1  0.094300  0.102200  0.092400  1.0  -0.2758
  C  C80  1  0.228300  0.073800  0.134000  1.0  0.1807
  C  C81  1  0.415600  0.017000  0.492600  1.0  0.2614
  C  C82  1  0.411800  0.021400  0.020200  1.0  0.2805
  C  C83  1  0.099700  0.135100  0.771700  1.0  0.7157
  C  C84  1  0.916400  0.200000  0.780400  1.0  -0.2762
  N  N85  1  0.088200  0.561200  0.054200  1.0  -0.404
  N  N86  1  0.168700  0.527000  0.918200  1.0  -0.3889
  N  N87  1  0.687400  0.546600  0.475400  1.0  -0.3818
  N  N88  1  0.481800  0.531900  0.597700  1.0  -0.3842
  N  N89  1  0.703600  0.938800  0.445800  1.0  -0.4034
  N  N90  1  0.613900  0.973000  0.581800  1.0  -0.3863
  N  N91  1  0.709400  0.953400  0.024600  1.0  -0.3811
  N  N92  1  0.611400  0.968100  0.902300  1.0  -0.385
  N  N93  1  0.911800  0.438800  0.945800  1.0  -0.4015
  N  N94  1  0.831300  0.473000  0.081800  1.0  -0.3874
  N  N95  1  0.312600  0.453400  0.524600  1.0  -0.3801
  N  N96  1  0.518200  0.468100  0.402300  1.0  -0.3834
  N  N97  1  0.296400  0.061200  0.554200  1.0  -0.4051
  N  N98  1  0.386100  0.027000  0.418200  1.0  -0.3862
  N  N99  1  0.290600  0.046600  0.975400  1.0  -0.3803
  N  N100  1  0.388600  0.031900  0.097700  1.0  -0.3861
  O  O101  1  0.983900  0.633300  0.200100  1.0  -0.5935
  O  O102  1  0.923600  0.587300  0.335500  1.0  -0.6047
  O  O103  1  0.718800  0.526200  0.245400  1.0  -0.8321
  O  O104  1  0.817300  0.866700  0.299900  1.0  -0.5929
  O  O105  1  0.846400  0.912700  0.164500  1.0  -0.6037
  O  O106  1  0.490400  0.973800  0.254600  1.0  -0.8314
  O  O107  1  0.016100  0.366700  0.799900  1.0  -0.5917
  O  O108  1  0.076400  0.412700  0.664500  1.0  -0.6028
  O  O109  1  0.281200  0.473800  0.754600  1.0  -0.83
  O  O110  1  0.182700  0.133300  0.700100  1.0  -0.5928
  O  O111  1  0.153600  0.087300  0.835500  1.0  -0.6043
  O  O112  1  0.509600  0.026200  0.745400  1.0  -0.8302
