# generated using pymatgen
data_MnH16C20(NO3)2
_symmetry_space_group_name_H-M   'P 1'
_cell_length_a   9.87100000
_cell_length_b   11.50700000
_cell_length_c   23.25400000
_cell_angle_alpha   90.00000000
_cell_angle_beta   90.00000000
_cell_angle_gamma   96.41800000
_symmetry_Int_Tables_number   1
_chemical_formula_structural   MnH16C20(NO3)2
_chemical_formula_sum   'Mn4 H64 C80 N8 O24'
_cell_volume   2624.76593027
_cell_formula_units_Z   4
loop_
 _symmetry_equiv_pos_site_id
 _symmetry_equiv_pos_as_xyz
  1  'x, y, z'
loop_
 _atom_site_type_symbol
 _atom_site_label
 _atom_site_symmetry_multiplicity
 _atom_site_fract_x
 _atom_site_fract_y
 _atom_site_fract_z
 _atom_site_occupancy
 _atom_site_charge
  Mn  Mn1  1  0.749550  0.500020  0.232930  1.0  1.0579
  Mn  Mn2  1  0.750450  0.499980  0.732930  1.0  1.0575
  Mn  Mn3  1  0.250450  0.499980  0.767070  1.0  1.0576
  Mn  Mn4  1  0.249550  0.500020  0.267070  1.0  1.0577
  H  H5  1  0.893300  0.381700  0.348700  1.0  0.114
  H  H6  1  0.887000  0.389300  0.447900  1.0  0.1206
  H  H7  1  0.605400  0.614200  0.441600  1.0  0.1216
  H  H8  1  0.620300  0.614000  0.342200  1.0  0.0838
  H  H9  1  0.938200  0.460000  0.534300  1.0  0.1085
  H  H10  1  0.929900  0.459500  0.632600  1.0  0.0888
  H  H11  1  0.551900  0.555600  0.629400  1.0  0.1025
  H  H12  1  0.561300  0.556300  0.529400  1.0  0.1039
  H  H13  1  0.239800  0.006800  0.353700  1.0  0.1372
  H  H14  1  0.085500  0.886500  0.201300  1.0  0.1312
  H  H15  1  0.262600  0.001900  0.154100  1.0  0.0945
  H  H16  1  0.410600  0.132100  0.204800  1.0  0.1223
  H  H17  1  0.589300  0.261300  0.320500  1.0  0.118
  H  H18  1  0.571500  0.189100  0.263700  1.0  0.103
  H  H19  1  0.898500  0.756500  0.310900  1.0  0.1166
  H  H20  1  0.928200  0.824400  0.253500  1.0  0.0858
  H  H21  1  0.606700  0.618300  0.848700  1.0  0.1143
  H  H22  1  0.613000  0.610700  0.947900  1.0  0.121
  H  H23  1  0.894600  0.385800  0.941600  1.0  0.1211
  H  H24  1  0.879700  0.386000  0.842200  1.0  0.0841
  H  H25  1  0.561800  0.540000  0.034300  1.0  0.1084
  H  H26  1  0.570100  0.540500  0.132600  1.0  0.0887
  H  H27  1  0.948100  0.444400  0.129400  1.0  0.1025
  H  H28  1  0.938700  0.443700  0.029400  1.0  0.1041
  H  H29  1  0.260200  0.993200  0.853700  1.0  0.1375
  H  H30  1  0.414500  0.113500  0.701300  1.0  0.1309
  H  H31  1  0.237400  0.998100  0.654100  1.0  0.0951
  H  H32  1  0.089400  0.867900  0.704800  1.0  0.1226
  H  H33  1  0.910700  0.738700  0.820500  1.0  0.1177
  H  H34  1  0.928500  0.810900  0.763700  1.0  0.1034
  H  H35  1  0.601500  0.243500  0.810900  1.0  0.1175
  H  H36  1  0.571800  0.175600  0.753500  1.0  0.0855
  H  H37  1  0.106700  0.618300  0.651300  1.0  0.1138
  H  H38  1  0.113000  0.610700  0.552100  1.0  0.1212
  H  H39  1  0.394600  0.385800  0.558400  1.0  0.1208
  H  H40  1  0.379700  0.386000  0.657800  1.0  0.0839
  H  H41  1  0.061800  0.540000  0.465700  1.0  0.1084
  H  H42  1  0.070100  0.540500  0.367400  1.0  0.0889
  H  H43  1  0.448100  0.444400  0.370600  1.0  0.1019
  H  H44  1  0.438700  0.443700  0.470600  1.0  0.1046
  H  H45  1  0.760200  0.993200  0.646300  1.0  0.1341
  H  H46  1  0.914500  0.113500  0.798700  1.0  0.1311
  H  H47  1  0.737400  0.998100  0.845900  1.0  0.094
  H  H48  1  0.589400  0.867900  0.795200  1.0  0.1227
  H  H49  1  0.410700  0.738700  0.679500  1.0  0.1173
  H  H50  1  0.428500  0.810900  0.736300  1.0  0.1033
  H  H51  1  0.101500  0.243500  0.689100  1.0  0.117
  H  H52  1  0.071800  0.175600  0.746500  1.0  0.087
  H  H53  1  0.393300  0.381700  0.151300  1.0  0.1133
  H  H54  1  0.387000  0.389300  0.052100  1.0  0.1202
  H  H55  1  0.105400  0.614200  0.058400  1.0  0.1218
  H  H56  1  0.120300  0.614000  0.157800  1.0  0.0836
  H  H57  1  0.438200  0.460000  0.965700  1.0  0.1087
  H  H58  1  0.429900  0.459500  0.867400  1.0  0.0889
  H  H59  1  0.051900  0.555600  0.870600  1.0  0.1024
  H  H60  1  0.061300  0.556300  0.970600  1.0  0.104
  H  H61  1  0.739800  0.006800  0.146300  1.0  0.1342
  H  H62  1  0.585500  0.886500  0.298700  1.0  0.1312
  H  H63  1  0.762600  0.001900  0.345900  1.0  0.0938
  H  H64  1  0.910600  0.132100  0.295200  1.0  0.1226
  H  H65  1  0.089300  0.261300  0.179500  1.0  0.1161
  H  H66  1  0.071500  0.189100  0.236300  1.0  0.1036
  H  H67  1  0.398500  0.756500  0.189100  1.0  0.118
  H  H68  1  0.428200  0.824400  0.246500  1.0  0.0864
  C  C69  1  0.837700  0.429900  0.367350  1.0  0.1401
  C  C70  1  0.832600  0.434600  0.426750  1.0  -0.191
  C  C71  1  0.749100  0.504800  0.456350  1.0  0.0714
  C  C72  1  0.665900  0.569700  0.423480  1.0  -0.1915
  C  C73  1  0.673500  0.567700  0.363340  1.0  0.174
  C  C74  1  0.754600  0.512300  0.520340  1.0  0.0733
  C  C75  1  0.860800  0.480800  0.552720  1.0  -0.1895
  C  C76  1  0.855400  0.479200  0.611680  1.0  0.1646
  C  C77  1  0.629100  0.536700  0.610170  1.0  0.1561
  C  C78  1  0.636400  0.538000  0.550340  1.0  -0.1786
  C  C79  1  0.344300  0.080100  0.284300  1.0  0.3234
  C  C80  1  0.243100  0.006600  0.313740  1.0  -0.3726
  C  C81  1  0.150300  0.935500  0.283010  1.0  0.3322
  C  C82  1  0.151200  0.933500  0.221970  1.0  -0.3177
  C  C83  1  0.255500  0.005400  0.193970  1.0  0.0032
  C  C84  1  0.347000  0.080700  0.224220  1.0  -0.2892
  C  C85  1  0.523000  0.230900  0.291900  1.0  -0.0963
  C  C86  1  0.475600  0.330100  0.262990  1.0  0.6707
  C  C87  1  0.970100  0.783000  0.283870  1.0  -0.0719
  C  C88  1  0.019400  0.676700  0.257640  1.0  0.6777
  C  C89  1  0.662300  0.570100  0.867350  1.0  0.1394
  C  C90  1  0.667400  0.565400  0.926750  1.0  -0.1905
  C  C91  1  0.750900  0.495200  0.956350  1.0  0.0714
  C  C92  1  0.834100  0.430300  0.923480  1.0  -0.1932
  C  C93  1  0.826500  0.432300  0.863340  1.0  0.1744
  C  C94  1  0.745400  0.487700  0.020340  1.0  0.0737
  C  C95  1  0.639200  0.519200  0.052720  1.0  -0.1896
  C  C96  1  0.644600  0.520800  0.111680  1.0  0.165
  C  C97  1  0.870900  0.463300  0.110170  1.0  0.156
  C  C98  1  0.863600  0.462000  0.050340  1.0  -0.1835
  C  C99  1  0.155700  0.919900  0.784300  1.0  0.3234
  C  C100  1  0.256900  0.993400  0.813740  1.0  -0.3725
  C  C101  1  0.349700  0.064500  0.783010  1.0  0.3326
  C  C102  1  0.348800  0.066500  0.721970  1.0  -0.3183
  C  C103  1  0.244500  0.994600  0.693970  1.0  0.0017
  C  C104  1  0.153000  0.919300  0.724220  1.0  -0.2884
  C  C105  1  0.977000  0.769100  0.791900  1.0  -0.097
  C  C106  1  0.024400  0.669900  0.762990  1.0  0.6705
  C  C107  1  0.529900  0.217000  0.783870  1.0  -0.0696
  C  C108  1  0.480600  0.323300  0.757640  1.0  0.6763
  C  C109  1  0.162300  0.570100  0.632650  1.0  0.1349
  C  C110  1  0.167400  0.565400  0.573250  1.0  -0.1897
  C  C111  1  0.250900  0.495200  0.543650  1.0  0.0711
  C  C112  1  0.334100  0.430300  0.576520  1.0  -0.1936
  C  C113  1  0.326500  0.432300  0.636660  1.0  0.1736
  C  C114  1  0.245400  0.487700  0.479660  1.0  0.0735
  C  C115  1  0.139200  0.519200  0.447280  1.0  -0.1896
  C  C116  1  0.144600  0.520800  0.388320  1.0  0.1653
  C  C117  1  0.370900  0.463300  0.389830  1.0  0.1585
  C  C118  1  0.363600  0.462000  0.449660  1.0  -0.1835
  C  C119  1  0.655700  0.919900  0.715700  1.0  0.3221
  C  C120  1  0.756900  0.993400  0.686260  1.0  -0.3713
  C  C121  1  0.849700  0.064500  0.716990  1.0  0.3294
  C  C122  1  0.848800  0.066500  0.778030  1.0  -0.3164
  C  C123  1  0.744500  0.994600  0.806030  1.0  0.0214
  C  C124  1  0.653000  0.919300  0.775780  1.0  -0.2888
  C  C125  1  0.477000  0.769100  0.708100  1.0  -0.0975
  C  C126  1  0.524400  0.669900  0.737010  1.0  0.6709
  C  C127  1  0.029900  0.217000  0.716130  1.0  -0.0721
  C  C128  1  0.980600  0.323300  0.742360  1.0  0.6762
  C  C129  1  0.337700  0.429900  0.132650  1.0  0.1367
  C  C130  1  0.332600  0.434600  0.073250  1.0  -0.1904
  C  C131  1  0.249100  0.504800  0.043650  1.0  0.0711
  C  C132  1  0.165900  0.569700  0.076520  1.0  -0.1919
  C  C133  1  0.173500  0.567700  0.136660  1.0  0.1725
  C  C134  1  0.254600  0.512300  0.979660  1.0  0.0733
  C  C135  1  0.360800  0.480800  0.947280  1.0  -0.1893
  C  C136  1  0.355400  0.479200  0.888320  1.0  0.164
  C  C137  1  0.129100  0.536700  0.889830  1.0  0.159
  C  C138  1  0.136400  0.538000  0.949660  1.0  -0.179
  C  C139  1  0.844300  0.080100  0.215700  1.0  0.3222
  C  C140  1  0.743100  0.006600  0.186260  1.0  -0.3709
  C  C141  1  0.650300  0.935500  0.216990  1.0  0.3293
  C  C142  1  0.651200  0.933500  0.278030  1.0  -0.3175
  C  C143  1  0.755500  0.005400  0.306030  1.0  0.0221
  C  C144  1  0.847000  0.080700  0.275780  1.0  -0.2885
  C  C145  1  0.023000  0.230900  0.208100  1.0  -0.0958
  C  C146  1  0.975600  0.330100  0.237010  1.0  0.6711
  C  C147  1  0.470100  0.783000  0.216130  1.0  -0.074
  C  C148  1  0.519400  0.676700  0.242360  1.0  0.6773
  N  N149  1  0.754500  0.501400  0.335510  1.0  -0.3862
  N  N150  1  0.742000  0.506010  0.639990  1.0  -0.3233
  N  N151  1  0.745500  0.498600  0.835510  1.0  -0.3858
  N  N152  1  0.758000  0.493990  0.139990  1.0  -0.3232
  N  N153  1  0.245500  0.498600  0.664490  1.0  -0.3849
  N  N154  1  0.258000  0.493990  0.360010  1.0  -0.3233
  N  N155  1  0.254500  0.501400  0.164490  1.0  -0.3846
  N  N156  1  0.242000  0.506010  0.860010  1.0  -0.3233
  O  O157  1  0.430870  0.150010  0.318950  1.0  -0.2737
  O  O158  1  0.555870  0.384410  0.230350  1.0  -0.6038
  O  O159  1  0.347480  0.343040  0.265320  1.0  -0.6283
  O  O160  1  0.059900  0.862060  0.311630  1.0  -0.2556
  O  O161  1  0.126990  0.651310  0.275990  1.0  -0.5751
  O  O162  1  0.936700  0.607160  0.227090  1.0  -0.6595
  O  O163  1  0.069130  0.849990  0.818950  1.0  -0.272
  O  O164  1  0.944130  0.615590  0.730350  1.0  -0.604
  O  O165  1  0.152520  0.656960  0.765320  1.0  -0.6271
  O  O166  1  0.440100  0.137940  0.811630  1.0  -0.2562
  O  O167  1  0.373010  0.348690  0.775990  1.0  -0.5748
  O  O168  1  0.563300  0.392840  0.727090  1.0  -0.6598
  O  O169  1  0.569130  0.849990  0.681050  1.0  -0.2663
  O  O170  1  0.444130  0.615590  0.769650  1.0  -0.604
  O  O171  1  0.652520  0.656960  0.734680  1.0  -0.6273
  O  O172  1  0.940100  0.137940  0.688370  1.0  -0.2562
  O  O173  1  0.873010  0.348690  0.724010  1.0  -0.5748
  O  O174  1  0.063300  0.392840  0.772910  1.0  -0.6603
  O  O175  1  0.930870  0.150010  0.181050  1.0  -0.2673
  O  O176  1  0.055870  0.384410  0.269650  1.0  -0.6035
  O  O177  1  0.847480  0.343040  0.234680  1.0  -0.6282
  O  O178  1  0.559900  0.862060  0.188370  1.0  -0.2557
  O  O179  1  0.626990  0.651310  0.224010  1.0  -0.5742
  O  O180  1  0.436700  0.607160  0.272910  1.0  -0.6604
