# generated using pymatgen
data_Co3Mo12P8H16C20(N2O25)2
_symmetry_space_group_name_H-M   'P 1'
_cell_length_a   27.64400000
_cell_length_b   16.01700000
_cell_length_c   22.90200000
_cell_angle_alpha   90.00000000
_cell_angle_beta   90.00000000
_cell_angle_gamma   90.00000000
_symmetry_Int_Tables_number   1
_chemical_formula_structural   Co3Mo12P8H16C20(N2O25)2
_chemical_formula_sum   'Co12 Mo48 P32 H64 C80 N16 O200'
_cell_volume   10140.40895710
_cell_formula_units_Z   4
loop_
 _symmetry_equiv_pos_site_id
 _symmetry_equiv_pos_as_xyz
  1  'x, y, z'
loop_
 _atom_site_type_symbol
 _atom_site_label
 _atom_site_symmetry_multiplicity
 _atom_site_fract_x
 _atom_site_fract_y
 _atom_site_fract_z
 _atom_site_occupancy
 _atom_site_charge
  Co  Co1  1  0.000000  0.000000  0.500000  1.0  0.9344
  Co  Co2  1  0.500000  0.500000  0.500000  1.0  0.9344
  Co  Co3  1  0.000000  0.500000  0.000000  1.0  0.9344
  Co  Co4  1  0.500000  0.000000  0.000000  1.0  0.9344
  Co  Co5  1  0.750000  0.750000  0.342700  1.0  0.9312
  Co  Co6  1  0.250000  0.250000  0.157300  1.0  0.9315
  Co  Co7  1  0.250000  0.250000  0.657300  1.0  0.9315
  Co  Co8  1  0.750000  0.750000  0.842700  1.0  0.9312
  Co  Co9  1  0.250000  0.750000  0.333470  1.0  0.895
  Co  Co10  1  0.750000  0.250000  0.166530  1.0  0.8956
  Co  Co11  1  0.750000  0.250000  0.666530  1.0  0.8956
  Co  Co12  1  0.250000  0.750000  0.833470  1.0  0.895
  Mo  Mo13  1  0.049380  0.798520  0.438150  1.0  1.2449
  Mo  Mo14  1  0.109860  0.982020  0.396570  1.0  1.2439
  Mo  Mo15  1  0.060090  0.113890  0.370140  1.0  1.2457
  Mo  Mo16  1  0.932930  0.104970  0.374370  1.0  1.2699
  Mo  Mo17  1  0.889060  0.968580  0.403700  1.0  1.292
  Mo  Mo18  1  0.955680  0.792200  0.442710  1.0  1.2759
  Mo  Mo19  1  0.450620  0.701480  0.438150  1.0  1.2479
  Mo  Mo20  1  0.390140  0.517980  0.396570  1.0  1.2473
  Mo  Mo21  1  0.439910  0.386110  0.370140  1.0  1.2456
  Mo  Mo22  1  0.567070  0.395030  0.374370  1.0  1.2672
  Mo  Mo23  1  0.610940  0.531420  0.403700  1.0  1.2895
  Mo  Mo24  1  0.544320  0.707800  0.442710  1.0  1.2761
  Mo  Mo25  1  0.950620  0.298520  0.061850  1.0  1.2492
  Mo  Mo26  1  0.890140  0.482020  0.103430  1.0  1.247
  Mo  Mo27  1  0.939910  0.613890  0.129860  1.0  1.2467
  Mo  Mo28  1  0.067070  0.604970  0.125630  1.0  1.2681
  Mo  Mo29  1  0.110940  0.468580  0.096300  1.0  1.2903
  Mo  Mo30  1  0.044320  0.292200  0.057290  1.0  1.2762
  Mo  Mo31  1  0.549380  0.201480  0.061850  1.0  1.2484
  Mo  Mo32  1  0.609860  0.017980  0.103430  1.0  1.2443
  Mo  Mo33  1  0.560090  0.886110  0.129860  1.0  1.245
  Mo  Mo34  1  0.432930  0.895030  0.125630  1.0  1.2695
  Mo  Mo35  1  0.389060  0.031420  0.096300  1.0  1.2924
  Mo  Mo36  1  0.455680  0.207800  0.057290  1.0  1.2755
  Mo  Mo37  1  0.950620  0.201480  0.561850  1.0  1.2502
  Mo  Mo38  1  0.890140  0.017980  0.603430  1.0  1.247
  Mo  Mo39  1  0.939910  0.886110  0.629860  1.0  1.2455
  Mo  Mo40  1  0.067070  0.895030  0.625630  1.0  1.2677
  Mo  Mo41  1  0.110940  0.031420  0.596300  1.0  1.2902
  Mo  Mo42  1  0.044320  0.207800  0.557290  1.0  1.2746
  Mo  Mo43  1  0.549380  0.298520  0.561850  1.0  1.2482
  Mo  Mo44  1  0.609860  0.482020  0.603430  1.0  1.2441
  Mo  Mo45  1  0.560090  0.613890  0.629860  1.0  1.2459
  Mo  Mo46  1  0.432930  0.604970  0.625630  1.0  1.2693
  Mo  Mo47  1  0.389060  0.468580  0.596300  1.0  1.2927
  Mo  Mo48  1  0.455680  0.292200  0.557290  1.0  1.2773
  Mo  Mo49  1  0.049380  0.701480  0.938150  1.0  1.2465
  Mo  Mo50  1  0.109860  0.517980  0.896570  1.0  1.2444
  Mo  Mo51  1  0.060090  0.386110  0.870140  1.0  1.2447
  Mo  Mo52  1  0.932930  0.395030  0.874370  1.0  1.2693
  Mo  Mo53  1  0.889060  0.531420  0.903700  1.0  1.2922
  Mo  Mo54  1  0.955680  0.707800  0.942710  1.0  1.2766
  Mo  Mo55  1  0.450620  0.798520  0.938150  1.0  1.2455
  Mo  Mo56  1  0.390140  0.982020  0.896570  1.0  1.247
  Mo  Mo57  1  0.439910  0.113890  0.870140  1.0  1.2468
  Mo  Mo58  1  0.567070  0.104970  0.874370  1.0  1.268
  Mo  Mo59  1  0.610940  0.968580  0.903700  1.0  1.2895
  Mo  Mo60  1  0.544320  0.792200  0.942710  1.0  1.2751
  P  P61  1  0.991260  0.188060  0.262470  1.0  1.7013
  P  P62  1  0.868670  0.780900  0.343510  1.0  1.7837
  P  P63  1  0.133160  0.796910  0.334760  1.0  1.785
  P  P64  1  0.997900  0.933740  0.340070  1.0  1.8463
  P  P65  1  0.508740  0.311940  0.262470  1.0  1.7015
  P  P66  1  0.631330  0.719100  0.343510  1.0  1.7845
  P  P67  1  0.366840  0.703090  0.334760  1.0  1.7865
  P  P68  1  0.502100  0.566260  0.340070  1.0  1.8463
  P  P69  1  0.008740  0.688060  0.237530  1.0  1.7011
  P  P70  1  0.131330  0.280900  0.156490  1.0  1.7845
  P  P71  1  0.866840  0.296910  0.165240  1.0  1.788
  P  P72  1  0.002100  0.433740  0.159930  1.0  1.8456
  P  P73  1  0.491260  0.811940  0.237530  1.0  1.7009
  P  P74  1  0.368670  0.219100  0.156490  1.0  1.785
  P  P75  1  0.633160  0.203090  0.165240  1.0  1.7863
  P  P76  1  0.497900  0.066260  0.159930  1.0  1.8457
  P  P77  1  0.008740  0.811940  0.737530  1.0  1.7011
  P  P78  1  0.131330  0.219100  0.656490  1.0  1.785
  P  P79  1  0.866840  0.203090  0.665240  1.0  1.7878
  P  P80  1  0.002100  0.066260  0.659930  1.0  1.8455
  P  P81  1  0.491260  0.688060  0.737530  1.0  1.7009
  P  P82  1  0.368670  0.280900  0.656490  1.0  1.7846
  P  P83  1  0.633160  0.296910  0.665240  1.0  1.7864
  P  P84  1  0.497900  0.433740  0.659930  1.0  1.8458
  P  P85  1  0.991260  0.311940  0.762470  1.0  1.7013
  P  P86  1  0.868670  0.719100  0.843510  1.0  1.7845
  P  P87  1  0.133160  0.703090  0.834760  1.0  1.785
  P  P88  1  0.997900  0.566260  0.840070  1.0  1.8465
  P  P89  1  0.508740  0.188060  0.762470  1.0  1.7015
  P  P90  1  0.631330  0.780900  0.843510  1.0  1.7837
  P  P91  1  0.366840  0.796910  0.834760  1.0  1.7865
  P  P92  1  0.502100  0.933740  0.840070  1.0  1.8461
  H  H93  1  0.797000  0.660600  0.238600  1.0  0.1323
  H  H94  1  0.797900  0.658000  0.138200  1.0  0.1571
  H  H95  1  0.808900  0.684300  0.949000  1.0  0.1165
  H  H96  1  0.810900  0.682600  0.048200  1.0  0.1637
  H  H97  1  0.193800  0.678100  0.229200  1.0  0.1307
  H  H98  1  0.193300  0.674100  0.128800  1.0  0.1553
  H  H99  1  0.185100  0.706500  0.939100  1.0  0.1171
  H  H100  1  0.183900  0.699300  0.039000  1.0  0.1645
  H  H101  1  0.703000  0.839400  0.238600  1.0  0.1321
  H  H102  1  0.702100  0.842000  0.138200  1.0  0.1576
  H  H103  1  0.691100  0.815700  0.949000  1.0  0.1161
  H  H104  1  0.689100  0.817400  0.048200  1.0  0.1636
  H  H105  1  0.306200  0.821900  0.229200  1.0  0.1313
  H  H106  1  0.306700  0.825900  0.128800  1.0  0.155
  H  H107  1  0.314900  0.793500  0.939100  1.0  0.1165
  H  H108  1  0.316100  0.800700  0.039000  1.0  0.1646
  H  H109  1  0.203000  0.160600  0.261400  1.0  0.1318
  H  H110  1  0.202100  0.158000  0.361800  1.0  0.1574
  H  H111  1  0.191100  0.184300  0.551000  1.0  0.1162
  H  H112  1  0.189100  0.182600  0.451800  1.0  0.1634
  H  H113  1  0.806200  0.178100  0.270800  1.0  0.1315
  H  H114  1  0.806700  0.174100  0.371200  1.0  0.1553
  H  H115  1  0.814900  0.206500  0.560900  1.0  0.1162
  H  H116  1  0.816100  0.199300  0.461000  1.0  0.1646
  H  H117  1  0.297000  0.339400  0.261400  1.0  0.1326
  H  H118  1  0.297900  0.342000  0.361800  1.0  0.1576
  H  H119  1  0.308900  0.315700  0.551000  1.0  0.1162
  H  H120  1  0.310900  0.317400  0.451800  1.0  0.1638
  H  H121  1  0.693800  0.321900  0.270800  1.0  0.1318
  H  H122  1  0.693300  0.325900  0.371200  1.0  0.1553
  H  H123  1  0.685100  0.293500  0.560900  1.0  0.1166
  H  H124  1  0.683900  0.300700  0.461000  1.0  0.1641
  H  H125  1  0.203000  0.339400  0.761400  1.0  0.1324
  H  H126  1  0.202100  0.342000  0.861800  1.0  0.1579
  H  H127  1  0.191100  0.315700  0.051000  1.0  0.1159
  H  H128  1  0.189100  0.317400  0.951800  1.0  0.1636
  H  H129  1  0.806200  0.321900  0.770800  1.0  0.1321
  H  H130  1  0.806700  0.325900  0.871200  1.0  0.1551
  H  H131  1  0.814900  0.293500  0.060900  1.0  0.1162
  H  H132  1  0.816100  0.300700  0.961000  1.0  0.1646
  H  H133  1  0.297000  0.160600  0.761400  1.0  0.132
  H  H134  1  0.297900  0.158000  0.861800  1.0  0.1573
  H  H135  1  0.308900  0.184300  0.051000  1.0  0.1166
  H  H136  1  0.310900  0.182600  0.951800  1.0  0.1634
  H  H137  1  0.693800  0.178100  0.770800  1.0  0.1312
  H  H138  1  0.693300  0.174100  0.871200  1.0  0.1554
  H  H139  1  0.685100  0.206500  0.060900  1.0  0.1167
  H  H140  1  0.683900  0.199300  0.961000  1.0  0.164
  H  H141  1  0.797000  0.839400  0.738600  1.0  0.1323
  H  H142  1  0.797900  0.842000  0.638200  1.0  0.1573
  H  H143  1  0.808900  0.815700  0.449000  1.0  0.1162
  H  H144  1  0.810900  0.817400  0.548200  1.0  0.1638
  H  H145  1  0.193800  0.821900  0.729200  1.0  0.1308
  H  H146  1  0.193300  0.825900  0.628800  1.0  0.1554
  H  H147  1  0.185100  0.793500  0.439100  1.0  0.1172
  H  H148  1  0.183900  0.800700  0.539000  1.0  0.1643
  H  H149  1  0.703000  0.660600  0.738600  1.0  0.1321
  H  H150  1  0.702100  0.658000  0.638200  1.0  0.1574
  H  H151  1  0.691100  0.684300  0.449000  1.0  0.1163
  H  H152  1  0.689100  0.682600  0.548200  1.0  0.1637
  H  H153  1  0.306200  0.678100  0.729200  1.0  0.1311
  H  H154  1  0.306700  0.674100  0.628800  1.0  0.1551
  H  H155  1  0.314900  0.706500  0.439100  1.0  0.1164
  H  H156  1  0.316100  0.699300  0.539000  1.0  0.1649
  C  C157  1  0.777400  0.697700  0.218300  1.0  0.204
  C  C158  1  0.778200  0.696000  0.157500  1.0  -0.1283
  C  C159  1  0.784400  0.711700  0.969300  1.0  0.2174
  C  C160  1  0.785900  0.710200  0.029000  1.0  -0.1532
  C  C161  1  0.217300  0.707700  0.208800  1.0  0.2102
  C  C162  1  0.216500  0.705700  0.148100  1.0  -0.1453
  C  C163  1  0.212400  0.723900  0.959700  1.0  0.2254
  C  C164  1  0.210900  0.720800  0.020000  1.0  -0.1617
  C  C165  1  0.722600  0.802300  0.218300  1.0  0.204
  C  C166  1  0.721800  0.804000  0.157500  1.0  -0.1283
  C  C167  1  0.715600  0.788300  0.969300  1.0  0.2182
  C  C168  1  0.714100  0.789800  0.029000  1.0  -0.1531
  C  C169  1  0.282700  0.792300  0.208800  1.0  0.2091
  C  C170  1  0.283500  0.794300  0.148100  1.0  -0.1455
  C  C171  1  0.287600  0.776100  0.959700  1.0  0.2246
  C  C172  1  0.289100  0.779200  0.020000  1.0  -0.1608
  C  C173  1  0.222600  0.197700  0.281700  1.0  0.2045
  C  C174  1  0.221800  0.196000  0.342500  1.0  -0.127
  C  C175  1  0.215600  0.211700  0.530700  1.0  0.2187
  C  C176  1  0.214100  0.210200  0.471000  1.0  -0.153
  C  C177  1  0.782700  0.207700  0.291200  1.0  0.2098
  C  C178  1  0.783500  0.205700  0.351900  1.0  -0.1455
  C  C179  1  0.787600  0.223900  0.540300  1.0  0.2243
  C  C180  1  0.789100  0.220800  0.480000  1.0  -0.1608
  C  C181  1  0.277400  0.302300  0.281700  1.0  0.2045
  C  C182  1  0.278200  0.304000  0.342500  1.0  -0.1292
  C  C183  1  0.284400  0.288300  0.530700  1.0  0.2174
  C  C184  1  0.285900  0.289800  0.471000  1.0  -0.1531
  C  C185  1  0.717300  0.292300  0.291200  1.0  0.2098
  C  C186  1  0.716500  0.294300  0.351900  1.0  -0.1462
  C  C187  1  0.712400  0.276100  0.540300  1.0  0.2252
  C  C188  1  0.710900  0.279200  0.480000  1.0  -0.1609
  C  C189  1  0.222600  0.302300  0.781700  1.0  0.2044
  C  C190  1  0.221800  0.304000  0.842500  1.0  -0.1285
  C  C191  1  0.215600  0.288300  0.030700  1.0  0.2181
  C  C192  1  0.214100  0.289800  0.971000  1.0  -0.1531
  C  C193  1  0.782700  0.292300  0.791200  1.0  0.2101
  C  C194  1  0.783500  0.294300  0.851900  1.0  -0.1457
  C  C195  1  0.787600  0.276100  0.040300  1.0  0.2244
  C  C196  1  0.789100  0.279200  0.980000  1.0  -0.1608
  C  C197  1  0.277400  0.197700  0.781700  1.0  0.2038
  C  C198  1  0.278200  0.196000  0.842500  1.0  -0.1283
  C  C199  1  0.284400  0.211700  0.030700  1.0  0.218
  C  C200  1  0.285900  0.210200  0.971000  1.0  -0.1534
  C  C201  1  0.717300  0.207700  0.791200  1.0  0.2103
  C  C202  1  0.716500  0.205700  0.851900  1.0  -0.1454
  C  C203  1  0.712400  0.223900  0.040300  1.0  0.2253
  C  C204  1  0.710900  0.220800  0.980000  1.0  -0.1614
  C  C205  1  0.777400  0.802300  0.718300  1.0  0.2043
  C  C206  1  0.778200  0.804000  0.657500  1.0  -0.1291
  C  C207  1  0.784400  0.788300  0.469300  1.0  0.2173
  C  C208  1  0.785900  0.789800  0.529000  1.0  -0.1531
  C  C209  1  0.217300  0.792300  0.708800  1.0  0.2086
  C  C210  1  0.216500  0.794300  0.648100  1.0  -0.1458
  C  C211  1  0.212400  0.776100  0.459700  1.0  0.2256
  C  C212  1  0.210900  0.779200  0.520000  1.0  -0.1613
  C  C213  1  0.722600  0.697700  0.718300  1.0  0.2047
  C  C214  1  0.721800  0.696000  0.657500  1.0  -0.127
  C  C215  1  0.715600  0.711700  0.469300  1.0  0.2182
  C  C216  1  0.714100  0.710200  0.529000  1.0  -0.1529
  C  C217  1  0.282700  0.707700  0.708800  1.0  0.2099
  C  C218  1  0.283500  0.705700  0.648100  1.0  -0.1456
  C  C219  1  0.287600  0.723900  0.459700  1.0  0.2245
  C  C220  1  0.289100  0.720800  0.520000  1.0  -0.1607
  C  C221  1  0.750000  0.750000  0.126100  1.0  0.1259
  C  C222  1  0.750000  0.750000  0.060800  1.0  0.1528
  C  C223  1  0.250000  0.250000  0.373900  1.0  0.1258
  C  C224  1  0.250000  0.250000  0.439200  1.0  0.1533
  C  C225  1  0.250000  0.250000  0.873900  1.0  0.1258
  C  C226  1  0.250000  0.250000  0.939200  1.0  0.1533
  C  C227  1  0.750000  0.750000  0.626100  1.0  0.1259
  C  C228  1  0.750000  0.750000  0.560800  1.0  0.1528
  C  C229  1  0.250000  0.750000  0.116500  1.0  0.1315
  C  C230  1  0.250000  0.750000  0.051900  1.0  0.1409
  C  C231  1  0.750000  0.250000  0.383500  1.0  0.1314
  C  C232  1  0.750000  0.250000  0.448100  1.0  0.141
  C  C233  1  0.750000  0.250000  0.883500  1.0  0.1314
  C  C234  1  0.750000  0.250000  0.948100  1.0  0.141
  C  C235  1  0.250000  0.750000  0.616500  1.0  0.1315
  C  C236  1  0.250000  0.750000  0.551900  1.0  0.1409
  N  N237  1  0.750000  0.750000  0.248400  1.0  -0.2743
  N  N238  1  0.750000  0.750000  0.938200  1.0  -0.3216
  N  N239  1  0.250000  0.250000  0.251600  1.0  -0.274
  N  N240  1  0.250000  0.250000  0.561800  1.0  -0.321
  N  N241  1  0.250000  0.250000  0.751600  1.0  -0.274
  N  N242  1  0.250000  0.250000  0.061800  1.0  -0.321
  N  N243  1  0.750000  0.750000  0.748400  1.0  -0.2743
  N  N244  1  0.750000  0.750000  0.438200  1.0  -0.3216
  N  N245  1  0.250000  0.750000  0.238600  1.0  -0.2645
  N  N246  1  0.250000  0.750000  0.929500  1.0  -0.3346
  N  N247  1  0.750000  0.250000  0.261400  1.0  -0.2657
  N  N248  1  0.750000  0.250000  0.570500  1.0  -0.3343
  N  N249  1  0.750000  0.250000  0.761400  1.0  -0.2657
  N  N250  1  0.750000  0.250000  0.070500  1.0  -0.3343
  N  N251  1  0.250000  0.750000  0.738600  1.0  -0.2645
  N  N252  1  0.250000  0.750000  0.429500  1.0  -0.3346
  O  O253  1  0.896180  0.024500  0.329780  1.0  -0.6371
  O  O254  1  0.939990  0.032700  0.444360  1.0  -0.7524
  O  O255  1  0.001930  0.739700  0.391000  1.0  -0.6672
  O  O256  1  0.097340  0.036900  0.323080  1.0  -0.644
  O  O257  1  0.057960  0.040100  0.439970  1.0  -0.7326
  O  O258  1  0.901500  0.875900  0.465900  1.0  -0.6069
  O  O259  1  0.997380  0.028700  0.346880  1.0  -0.8359
  O  O260  1  0.002060  0.872700  0.476090  1.0  -0.7614
  O  O261  1  0.903990  0.745100  0.388020  1.0  -0.6851
  O  O262  1  0.101070  0.887700  0.458390  1.0  -0.6082
  O  O263  1  0.893840  0.780200  0.281570  1.0  -0.5218
  O  O264  1  0.993700  0.917400  0.273860  1.0  -0.5551
  O  O265  1  0.097600  0.757400  0.377780  1.0  -0.7305
  O  O266  1  0.109940  0.797600  0.272300  1.0  -0.5117
  O  O267  1  0.857390  0.873100  0.355390  1.0  -0.7574
  O  O268  1  0.144630  0.888100  0.350710  1.0  -0.7558
  O  O269  1  0.995620  0.167800  0.401010  1.0  -0.599
  O  O270  1  0.044580  0.899200  0.365940  1.0  -0.8102
  O  O271  1  0.981030  0.279700  0.256200  1.0  -0.6008
  O  O272  1  0.948000  0.149100  0.293230  1.0  -0.7795
  O  O273  1  0.177810  0.744800  0.331320  1.0  -0.7951
  O  O274  1  0.823290  0.729300  0.341130  1.0  -0.7421
  O  O275  1  0.039420  0.168900  0.291840  1.0  -0.7506
  O  O276  1  0.954710  0.895300  0.372160  1.0  -0.8161
  O  O277  1  0.992870  0.146800  0.200200  1.0  -0.502
  O  O278  1  0.603820  0.475500  0.329780  1.0  -0.6379
  O  O279  1  0.560010  0.467300  0.444360  1.0  -0.7526
  O  O280  1  0.498070  0.760300  0.391000  1.0  -0.6611
  O  O281  1  0.402660  0.463100  0.323080  1.0  -0.6427
  O  O282  1  0.442040  0.459900  0.439970  1.0  -0.7328
  O  O283  1  0.598500  0.624100  0.465900  1.0  -0.6076
  O  O284  1  0.502620  0.471300  0.346880  1.0  -0.8362
  O  O285  1  0.497940  0.627300  0.476090  1.0  -0.7625
  O  O286  1  0.596010  0.754900  0.388020  1.0  -0.6858
  O  O287  1  0.398930  0.612300  0.458390  1.0  -0.6075
  O  O288  1  0.606160  0.719800  0.281570  1.0  -0.5211
  O  O289  1  0.506300  0.582600  0.273860  1.0  -0.5552
  O  O290  1  0.402400  0.742600  0.377780  1.0  -0.7315
  O  O291  1  0.390060  0.702400  0.272300  1.0  -0.5113
  O  O292  1  0.642610  0.626900  0.355390  1.0  -0.7557
  O  O293  1  0.355370  0.611900  0.350710  1.0  -0.7555
  O  O294  1  0.504380  0.332200  0.401010  1.0  -0.6065
  O  O295  1  0.455420  0.600800  0.365940  1.0  -0.8093
  O  O296  1  0.518970  0.220300  0.256200  1.0  -0.6018
  O  O297  1  0.552000  0.350900  0.293230  1.0  -0.7796
  O  O298  1  0.322190  0.755200  0.331320  1.0  -0.7957
  O  O299  1  0.676710  0.770700  0.341130  1.0  -0.7425
  O  O300  1  0.460580  0.331100  0.291840  1.0  -0.7482
  O  O301  1  0.545290  0.604700  0.372160  1.0  -0.8159
  O  O302  1  0.507130  0.353200  0.200200  1.0  -0.5045
  O  O303  1  0.103820  0.524500  0.170220  1.0  -0.6379
  O  O304  1  0.060010  0.532700  0.055640  1.0  -0.7526
  O  O305  1  0.998070  0.239700  0.109000  1.0  -0.6673
  O  O306  1  0.902660  0.536900  0.176920  1.0  -0.6449
  O  O307  1  0.942040  0.540100  0.060030  1.0  -0.7335
  O  O308  1  0.098500  0.375900  0.034100  1.0  -0.6079
  O  O309  1  0.002620  0.528700  0.153120  1.0  -0.8385
  O  O310  1  0.997940  0.372700  0.023910  1.0  -0.7618
  O  O311  1  0.096010  0.245100  0.111980  1.0  -0.6859
  O  O312  1  0.898930  0.387700  0.041610  1.0  -0.6085
  O  O313  1  0.106160  0.280200  0.218430  1.0  -0.52
  O  O314  1  0.006300  0.417400  0.226140  1.0  -0.5488
  O  O315  1  0.902400  0.257400  0.122220  1.0  -0.7299
  O  O316  1  0.890060  0.297600  0.227700  1.0  -0.5092
  O  O317  1  0.142610  0.373100  0.144610  1.0  -0.7561
  O  O318  1  0.855370  0.388100  0.149290  1.0  -0.7552
  O  O319  1  0.004380  0.667800  0.098990  1.0  -0.6007
  O  O320  1  0.955420  0.399200  0.134060  1.0  -0.8099
  O  O321  1  0.018970  0.779700  0.243800  1.0  -0.6019
  O  O322  1  0.052000  0.649100  0.206770  1.0  -0.7809
  O  O323  1  0.822190  0.244800  0.168680  1.0  -0.7952
  O  O324  1  0.176710  0.229300  0.158870  1.0  -0.7433
  O  O325  1  0.960580  0.668900  0.208160  1.0  -0.7483
  O  O326  1  0.045290  0.395300  0.127840  1.0  -0.8152
  O  O327  1  0.007130  0.646800  0.299800  1.0  -0.5019
  O  O328  1  0.396180  0.975500  0.170220  1.0  -0.6366
  O  O329  1  0.439990  0.967300  0.055640  1.0  -0.7539
  O  O330  1  0.501930  0.260300  0.109000  1.0  -0.6607
  O  O331  1  0.597340  0.963100  0.176920  1.0  -0.6437
  O  O332  1  0.557960  0.959900  0.060030  1.0  -0.7343
  O  O333  1  0.401500  0.124100  0.034100  1.0  -0.6062
  O  O334  1  0.497380  0.971300  0.153120  1.0  -0.8379
  O  O335  1  0.502060  0.127300  0.023910  1.0  -0.7623
  O  O336  1  0.403990  0.254900  0.111980  1.0  -0.6846
  O  O337  1  0.601070  0.112300  0.041610  1.0  -0.6088
  O  O338  1  0.393840  0.219800  0.218430  1.0  -0.5199
  O  O339  1  0.493700  0.082600  0.226140  1.0  -0.5487
  O  O340  1  0.597600  0.242600  0.122220  1.0  -0.7313
  O  O341  1  0.609940  0.202400  0.227700  1.0  -0.5094
  O  O342  1  0.357390  0.126900  0.144610  1.0  -0.7556
  O  O343  1  0.644630  0.111900  0.149290  1.0  -0.7554
  O  O344  1  0.495620  0.832200  0.098990  1.0  -0.6055
  O  O345  1  0.544580  0.100800  0.134060  1.0  -0.811
  O  O346  1  0.481030  0.720300  0.243800  1.0  -0.6014
  O  O347  1  0.448000  0.850900  0.206770  1.0  -0.7788
  O  O348  1  0.677810  0.255200  0.168680  1.0  -0.7959
  O  O349  1  0.323290  0.270700  0.158870  1.0  -0.7429
  O  O350  1  0.539420  0.831100  0.208160  1.0  -0.7511
  O  O351  1  0.454710  0.104700  0.127840  1.0  -0.8161
  O  O352  1  0.492870  0.853200  0.299800  1.0  -0.5031
  O  O353  1  0.103820  0.975500  0.670220  1.0  -0.6375
  O  O354  1  0.060010  0.967300  0.555640  1.0  -0.7529
  O  O355  1  0.998070  0.260300  0.609000  1.0  -0.6607
  O  O356  1  0.902660  0.963100  0.676920  1.0  -0.644
  O  O357  1  0.942040  0.959900  0.560030  1.0  -0.7342
  O  O358  1  0.098500  0.124100  0.534100  1.0  -0.6076
  O  O359  1  0.002620  0.971300  0.653120  1.0  -0.8379
  O  O360  1  0.997940  0.127300  0.523910  1.0  -0.7629
  O  O361  1  0.096010  0.254900  0.611980  1.0  -0.6855
  O  O362  1  0.898930  0.112300  0.541610  1.0  -0.6079
  O  O363  1  0.106160  0.219800  0.718430  1.0  -0.5205
  O  O364  1  0.006300  0.082600  0.726140  1.0  -0.5488
  O  O365  1  0.902400  0.242600  0.622220  1.0  -0.7313
  O  O366  1  0.890060  0.202400  0.727700  1.0  -0.5093
  O  O367  1  0.142610  0.126900  0.644610  1.0  -0.7549
  O  O368  1  0.855370  0.111900  0.649290  1.0  -0.7546
  O  O369  1  0.004380  0.832200  0.598990  1.0  -0.6055
  O  O370  1  0.955420  0.100800  0.634060  1.0  -0.8099
  O  O371  1  0.018970  0.720300  0.743800  1.0  -0.6011
  O  O372  1  0.052000  0.850900  0.706770  1.0  -0.7799
  O  O373  1  0.822190  0.255200  0.668680  1.0  -0.7959
  O  O374  1  0.176710  0.270700  0.658870  1.0  -0.7429
  O  O375  1  0.960580  0.831100  0.708160  1.0  -0.7484
  O  O376  1  0.045290  0.104700  0.627840  1.0  -0.8157
  O  O377  1  0.007130  0.853200  0.799800  1.0  -0.5029
  O  O378  1  0.396180  0.524500  0.670220  1.0  -0.6367
  O  O379  1  0.439990  0.532700  0.555640  1.0  -0.7532
  O  O380  1  0.501930  0.239700  0.609000  1.0  -0.6672
  O  O381  1  0.597340  0.536900  0.676920  1.0  -0.6443
  O  O382  1  0.557960  0.540100  0.560030  1.0  -0.7339
  O  O383  1  0.401500  0.375900  0.534100  1.0  -0.6064
  O  O384  1  0.497380  0.528700  0.653120  1.0  -0.8383
  O  O385  1  0.502060  0.372700  0.523910  1.0  -0.7613
  O  O386  1  0.403990  0.245100  0.611980  1.0  -0.685
  O  O387  1  0.601070  0.387700  0.541610  1.0  -0.609
  O  O388  1  0.393840  0.280200  0.718430  1.0  -0.5205
  O  O389  1  0.493700  0.417400  0.726140  1.0  -0.5487
  O  O390  1  0.597600  0.257400  0.622220  1.0  -0.7297
  O  O391  1  0.609940  0.297600  0.727700  1.0  -0.5094
  O  O392  1  0.357390  0.373100  0.644610  1.0  -0.7569
  O  O393  1  0.644630  0.388100  0.649290  1.0  -0.7554
  O  O394  1  0.495620  0.667800  0.598990  1.0  -0.6007
  O  O395  1  0.544580  0.399200  0.634060  1.0  -0.8108
  O  O396  1  0.481030  0.779700  0.743800  1.0  -0.6022
  O  O397  1  0.448000  0.649100  0.706770  1.0  -0.7793
  O  O398  1  0.677810  0.244800  0.668680  1.0  -0.7953
  O  O399  1  0.323290  0.229300  0.658870  1.0  -0.7428
  O  O400  1  0.539420  0.668900  0.708160  1.0  -0.7506
  O  O401  1  0.454710  0.395300  0.627840  1.0  -0.8159
  O  O402  1  0.492870  0.646800  0.799800  1.0  -0.5021
  O  O403  1  0.896180  0.475500  0.829780  1.0  -0.6368
  O  O404  1  0.939990  0.467300  0.944360  1.0  -0.7533
  O  O405  1  0.001930  0.760300  0.891000  1.0  -0.661
  O  O406  1  0.097340  0.463100  0.823080  1.0  -0.6431
  O  O407  1  0.057960  0.459900  0.939970  1.0  -0.7331
  O  O408  1  0.901500  0.624100  0.965900  1.0  -0.607
  O  O409  1  0.997380  0.471300  0.846880  1.0  -0.8361
  O  O410  1  0.002060  0.627300  0.976090  1.0  -0.7622
  O  O411  1  0.903990  0.754900  0.888020  1.0  -0.6852
  O  O412  1  0.101070  0.612300  0.958390  1.0  -0.6078
  O  O413  1  0.893840  0.719800  0.781570  1.0  -0.5213
  O  O414  1  0.993700  0.582600  0.773860  1.0  -0.5549
  O  O415  1  0.097600  0.742600  0.877780  1.0  -0.7314
  O  O416  1  0.109940  0.702400  0.772300  1.0  -0.5115
  O  O417  1  0.857390  0.626900  0.855390  1.0  -0.7569
  O  O418  1  0.144630  0.611900  0.850710  1.0  -0.7558
  O  O419  1  0.995620  0.332200  0.901010  1.0  -0.6065
  O  O420  1  0.044580  0.600800  0.865940  1.0  -0.8103
  O  O421  1  0.981030  0.220300  0.756200  1.0  -0.6019
  O  O422  1  0.948000  0.350900  0.793230  1.0  -0.7789
  O  O423  1  0.177810  0.755200  0.831320  1.0  -0.7957
  O  O424  1  0.823290  0.770700  0.841130  1.0  -0.7424
  O  O425  1  0.039420  0.331100  0.791840  1.0  -0.751
  O  O426  1  0.954710  0.604700  0.872160  1.0  -0.8161
  O  O427  1  0.992870  0.353200  0.700200  1.0  -0.5046
  O  O428  1  0.603820  0.024500  0.829780  1.0  -0.6383
  O  O429  1  0.560010  0.032700  0.944360  1.0  -0.7521
  O  O430  1  0.498070  0.739700  0.891000  1.0  -0.6672
  O  O431  1  0.402660  0.036900  0.823080  1.0  -0.6435
  O  O432  1  0.442040  0.040100  0.939970  1.0  -0.7319
  O  O433  1  0.598500  0.875900  0.965900  1.0  -0.6077
  O  O434  1  0.502620  0.028700  0.846880  1.0  -0.8361
  O  O435  1  0.497940  0.872700  0.976090  1.0  -0.7615
  O  O436  1  0.596010  0.745100  0.888020  1.0  -0.6862
  O  O437  1  0.398930  0.887700  0.958390  1.0  -0.6079
  O  O438  1  0.606160  0.780200  0.781570  1.0  -0.5207
  O  O439  1  0.506300  0.917400  0.773860  1.0  -0.5554
  O  O440  1  0.402400  0.757400  0.877780  1.0  -0.7306
  O  O441  1  0.390060  0.797600  0.772300  1.0  -0.5119
  O  O442  1  0.642610  0.873100  0.855390  1.0  -0.756
  O  O443  1  0.355370  0.888100  0.850710  1.0  -0.7562
  O  O444  1  0.504380  0.167800  0.901010  1.0  -0.599
  O  O445  1  0.455420  0.899200  0.865940  1.0  -0.8094
  O  O446  1  0.518970  0.279700  0.756200  1.0  -0.6007
  O  O447  1  0.552000  0.149100  0.793230  1.0  -0.7805
  O  O448  1  0.322190  0.744800  0.831320  1.0  -0.7949
  O  O449  1  0.676710  0.729300  0.841130  1.0  -0.7427
  O  O450  1  0.460580  0.168900  0.791840  1.0  -0.748
  O  O451  1  0.545290  0.895300  0.872160  1.0  -0.8154
  O  O452  1  0.507130  0.146800  0.700200  1.0  -0.5018
