# generated using pymatgen
data_Cd5Mo12P8H16C20(N2O25)2
_symmetry_space_group_name_H-M   'P 1'
_cell_length_a   12.80600000
_cell_length_b   13.80900000
_cell_length_c   14.50800000
_cell_angle_alpha   113.57000000
_cell_angle_beta   96.71000000
_cell_angle_gamma   106.21000000
_symmetry_Int_Tables_number   1
_chemical_formula_structural   Cd5Mo12P8H16C20(N2O25)2
_chemical_formula_sum   'Cd5 Mo12 P8 H16 C20 N4 O50'
_cell_volume   2180.63587282
_cell_formula_units_Z   1
loop_
 _symmetry_equiv_pos_site_id
 _symmetry_equiv_pos_as_xyz
  1  'x, y, z'
loop_
 _atom_site_type_symbol
 _atom_site_label
 _atom_site_symmetry_multiplicity
 _atom_site_fract_x
 _atom_site_fract_y
 _atom_site_fract_z
 _atom_site_occupancy
 _atom_site_charge
  Cd  Cd1  1  0.915200  0.753440  0.184800  1.0  1.0292
  Cd  Cd2  1  0.511950  0.639290  0.082840  1.0  0.9946
  Cd  Cd3  1  0.084800  0.246560  0.815200  1.0  1.0295
  Cd  Cd4  1  0.488050  0.360710  0.917160  1.0  0.993
  Cd  Cd5  1  0.000000  0.500000  0.500000  1.0  1.0479
  Mo  Mo6  1  0.056880  0.424960  0.225060  1.0  1.2594
  Mo  Mo7  1  0.847100  0.406090  0.210160  1.0  1.2435
  Mo  Mo8  1  0.730820  0.349510  0.554730  1.0  1.2195
  Mo  Mo9  1  0.785670  0.202380  0.406240  1.0  1.2657
  Mo  Mo10  1  0.070930  0.232760  0.428770  1.0  1.2631
  Mo  Mo11  1  0.226750  0.397640  0.591980  1.0  1.2756
  Mo  Mo12  1  0.943120  0.575040  0.774940  1.0  1.2588
  Mo  Mo13  1  0.152900  0.593910  0.789840  1.0  1.2433
  Mo  Mo14  1  0.269180  0.650490  0.445270  1.0  1.2182
  Mo  Mo15  1  0.214330  0.797620  0.593760  1.0  1.2638
  Mo  Mo16  1  0.929070  0.767240  0.571230  1.0  1.2625
  Mo  Mo17  1  0.773250  0.602360  0.408020  1.0  1.2754
  P  P18  1  0.029020  0.683390  0.352050  1.0  1.8148
  P  P19  1  0.871170  0.987450  0.366480  1.0  1.8155
  P  P20  1  0.280390  0.597160  0.201170  1.0  1.6814
  P  P21  1  0.682750  0.538180  0.156440  1.0  1.8266
  P  P22  1  0.970980  0.316610  0.647950  1.0  1.8181
  P  P23  1  0.128830  0.012550  0.633520  1.0  1.8142
  P  P24  1  0.719610  0.402840  0.798830  1.0  1.6813
  P  P25  1  0.317250  0.461820  0.843560  1.0  1.8268
  H  H26  1  0.313900  0.350500  0.063100  1.0  0.1283
  H  H27  1  0.203700  0.234900  0.119700  1.0  0.1588
  H  H28  1  0.269700  0.975700  0.914900  1.0  0.1659
  H  H29  1  0.379700  0.100100  0.867000  1.0  0.1123
  H  H30  1  0.113800  0.776200  0.070700  1.0  0.1123
  H  H31  1  0.228900  0.895200  0.020500  1.0  0.1599
  H  H32  1  0.063500  0.107700  0.124100  1.0  0.1631
  H  H33  1  0.958500  0.986100  0.179400  1.0  0.1129
  H  H34  1  0.686100  0.649500  0.936900  1.0  0.1278
  H  H35  1  0.796300  0.765100  0.880300  1.0  0.1585
  H  H36  1  0.730300  0.024300  0.085100  1.0  0.165
  H  H37  1  0.620300  0.899900  0.133000  1.0  0.1124
  H  H38  1  0.886200  0.223800  0.929300  1.0  0.1122
  H  H39  1  0.771100  0.104800  0.979500  1.0  0.1598
  H  H40  1  0.936500  0.892300  0.875900  1.0  0.1622
  H  H41  1  0.041500  0.013900  0.820600  1.0  0.113
  C  C42  1  0.306800  0.274800  0.034900  1.0  0.1919
  C  C43  1  0.240200  0.205800  0.069200  1.0  -0.1436
  C  C44  1  0.228300  0.091700  0.027200  1.0  0.133
  C  C45  1  0.279400  0.052000  0.948200  1.0  -0.1699
  C  C46  1  0.345300  0.128100  0.919600  1.0  0.2083
  C  C47  1  0.103900  0.843900  0.081800  1.0  0.1854
  C  C48  1  0.172900  0.914600  0.050700  1.0  -0.1599
  C  C49  1  0.158000  0.015200  0.064900  1.0  0.1275
  C  C50  1  0.075900  0.041100  0.113000  1.0  -0.1688
  C  C51  1  0.011700  0.966500  0.144600  1.0  0.198
  C  C52  1  0.693200  0.725200  0.965100  1.0  0.1905
  C  C53  1  0.759800  0.794200  0.930800  1.0  -0.1447
  C  C54  1  0.771700  0.908300  0.972800  1.0  0.1357
  C  C55  1  0.720600  0.948000  0.051800  1.0  -0.1731
  C  C56  1  0.654700  0.871900  0.080400  1.0  0.2083
  C  C57  1  0.896100  0.156100  0.918200  1.0  0.1857
  C  C58  1  0.827100  0.085400  0.949300  1.0  -0.1631
  C  C59  1  0.842000  0.984800  0.935100  1.0  0.1275
  C  C60  1  0.924100  0.958900  0.887000  1.0  -0.1711
  C  C61  1  0.988300  0.033500  0.855400  1.0  0.1974
  N  N62  1  0.362600  0.236700  0.961500  1.0  -0.2958
  N  N63  1  0.023300  0.868300  0.127200  1.0  -0.2758
  N  N64  1  0.637400  0.763300  0.038500  1.0  -0.2975
  N  N65  1  0.976700  0.131700  0.872800  1.0  -0.2781
  O  O66  1  0.235300  0.685500  0.180500  1.0  -0.537
  O  O67  1  0.560500  0.487100  0.089400  1.0  -0.8717
  O  O68  1  0.837800  0.877400  0.267900  1.0  -0.8188
  O  O69  1  0.056000  0.754600  0.471300  1.0  -0.8373
  O  O70  1  0.047100  0.754600  0.295500  1.0  -0.7749
  O  O71  1  0.784800  0.044400  0.365700  1.0  -0.7485
  O  O72  1  0.367000  0.580900  0.142800  1.0  -0.8286
  O  O73  1  0.869700  0.964800  0.463400  1.0  -0.487
  O  O74  1  0.329800  0.650100  0.318700  1.0  -0.7304
  O  O75  1  0.710000  0.191500  0.513300  1.0  -0.6845
  O  O76  1  0.747400  0.633600  0.136300  1.0  -0.8116
  O  O77  1  0.905300  0.598100  0.313500  1.0  -0.817
  O  O78  1  0.677000  0.578400  0.271300  1.0  -0.7661
  O  O79  1  0.990200  0.065500  0.381800  1.0  -0.7766
  O  O80  1  0.953000  0.451900  0.137700  1.0  -0.5923
  O  O81  1  0.732600  0.443500  0.129000  1.0  -0.7809
  O  O82  1  0.178400  0.487800  0.161000  1.0  -0.7384
  O  O83  1  0.108000  0.614100  0.331100  1.0  -0.8208
  O  O84  1  0.194600  0.474300  0.349300  1.0  -0.6466
  O  O85  1  0.751300  0.432100  0.319900  1.0  -0.5837
  O  O86  1  0.108600  0.396600  0.492800  1.0  -0.7403
  O  O87  1  0.921000  0.217700  0.339100  1.0  -0.6072
  O  O88  1  0.962000  0.417200  0.321000  1.0  -0.7356
  O  O89  1  0.164700  0.235800  0.546500  1.0  -0.6281
  O  O90  1  0.834300  0.368200  0.468900  1.0  -0.7836
  O  O91  1  0.764700  0.314500  0.819500  1.0  -0.5377
  O  O92  1  0.439500  0.512900  0.910600  1.0  -0.8701
  O  O93  1  0.162200  0.122600  0.732100  1.0  -0.8172
  O  O94  1  0.944000  0.245400  0.528700  1.0  -0.8369
  O  O95  1  0.952900  0.245400  0.704500  1.0  -0.775
  O  O96  1  0.215200  0.955600  0.634300  1.0  -0.7493
  O  O97  1  0.633000  0.419100  0.857200  1.0  -0.8299
  O  O98  1  0.130300  0.035200  0.536600  1.0  -0.486
  O  O99  1  0.670200  0.349900  0.681300  1.0  -0.7319
  O  O100  1  0.290000  0.808500  0.486700  1.0  -0.6865
  O  O101  1  0.252600  0.366400  0.863700  1.0  -0.8111
  O  O102  1  0.094700  0.401900  0.686500  1.0  -0.8195
  O  O103  1  0.323000  0.421600  0.728700  1.0  -0.7668
  O  O104  1  0.009800  0.934500  0.618200  1.0  -0.7774
  O  O105  1  0.047000  0.548100  0.862300  1.0  -0.591
  O  O106  1  0.267400  0.556500  0.871000  1.0  -0.782
  O  O107  1  0.821600  0.512200  0.839000  1.0  -0.7408
  O  O108  1  0.892000  0.385900  0.668900  1.0  -0.8213
  O  O109  1  0.805400  0.525700  0.650700  1.0  -0.6471
  O  O110  1  0.248700  0.567900  0.680100  1.0  -0.584
  O  O111  1  0.891400  0.603400  0.507200  1.0  -0.7398
  O  O112  1  0.079000  0.782300  0.660900  1.0  -0.6056
  O  O113  1  0.038000  0.582800  0.679000  1.0  -0.7355
  O  O114  1  0.835300  0.764200  0.453500  1.0  -0.6178
  O  O115  1  0.165700  0.631800  0.531100  1.0  -0.7859
