# generated using pymatgen
data_KCdH2Ru2C4O13
_symmetry_space_group_name_H-M   'P 1'
_cell_length_a   9.36110000
_cell_length_b   9.92100000
_cell_length_c   10.01500000
_cell_angle_alpha   85.03000000
_cell_angle_beta   85.81000000
_cell_angle_gamma   65.09000000
_symmetry_Int_Tables_number   1
_chemical_formula_structural   KCdH2Ru2C4O13
_chemical_formula_sum   'K2 Cd2 H4 Ru4 C8 O26'
_cell_volume   839.71988252
_cell_formula_units_Z   2
loop_
 _symmetry_equiv_pos_site_id
 _symmetry_equiv_pos_as_xyz
  1  'x, y, z'
loop_
 _atom_site_type_symbol
 _atom_site_label
 _atom_site_symmetry_multiplicity
 _atom_site_fract_x
 _atom_site_fract_y
 _atom_site_fract_z
 _atom_site_occupancy
 _atom_site_charge
  K  K1  1  0.500000  0.500000  0.000000  1.0  0.9523
  K  K2  1  0.000000  0.500000  0.500000  1.0  0.9492
  Cd  Cd3  1  0.560270  0.039460  0.823620  1.0  1.0629
  Cd  Cd4  1  0.439730  0.960540  0.176380  1.0  1.0601
  H  H5  1  0.610600  0.279100  0.868200  1.0  0.4476
  H  H6  1  0.613300  0.207200  0.993800  1.0  0.4448
  H  H7  1  0.389400  0.720900  0.131800  1.0  0.4484
  H  H8  1  0.386700  0.792800  0.006200  1.0  0.4444
  Ru  Ru9  1  0.580250  0.482620  0.584520  1.0  1.0104
  Ru  Ru10  1  0.947240  0.455340  0.088260  1.0  0.9432
  Ru  Ru11  1  0.419750  0.517380  0.415480  1.0  1.0121
  Ru  Ru12  1  0.052760  0.544660  0.911740  1.0  0.9413
  C  C13  1  0.481700  0.244400  0.575300  1.0  0.9157
  C  C14  1  0.750000  0.381700  0.333333  1.0  0.8892
  C  C15  1  0.235500  0.232600  0.972300  1.0  0.8928
  C  C16  1  0.826500  0.443600  0.833700  1.0  0.8941
  C  C17  1  0.518300  0.755600  0.424700  1.0  0.9165
  C  C18  1  0.250000  0.618300  0.666667  1.0  0.889
  C  C19  1  0.764500  0.767400  0.027700  1.0  0.8921
  C  C20  1  0.173500  0.556400  0.166300  1.0  0.8943
  O  O21  1  0.868800  0.328600  0.254100  1.0  -0.6831
  O  O22  1  0.455700  0.133800  0.623800  1.0  -0.6289
  O  O23  1  0.574400  0.283300  0.634500  1.0  -0.5908
  O  O24  1  0.414500  0.317000  0.465600  1.0  -0.6605
  O  O25  1  0.768100  0.393800  0.458000  1.0  -0.6328
  O  O26  1  0.609300  0.424200  0.288700  1.0  -0.6683
  O  O27  1  0.743500  0.410600  0.758900  1.0  -0.7047
  O  O28  1  0.123400  0.251800  0.063300  1.0  -0.5943
  O  O29  1  0.229600  0.340400  0.888200  1.0  -0.5875
  O  O30  1  0.815300  0.415100  0.961200  1.0  -0.6234
  O  O31  1  0.920800  0.501500  0.782700  1.0  -0.6344
  O  O32  1  0.347500  0.104100  0.968800  1.0  -0.6551
  O  O33  1  0.646400  0.195400  0.912500  1.0  -0.7887
  O  O34  1  0.131200  0.671400  0.745900  1.0  -0.6862
  O  O35  1  0.544300  0.866200  0.376200  1.0  -0.6281
  O  O36  1  0.425600  0.716700  0.365500  1.0  -0.59
  O  O37  1  0.585500  0.683000  0.534400  1.0  -0.6604
  O  O38  1  0.231900  0.606200  0.542000  1.0  -0.6335
  O  O39  1  0.390700  0.575800  0.711300  1.0  -0.6655
  O  O40  1  0.256500  0.589400  0.241100  1.0  -0.7037
  O  O41  1  0.876600  0.748200  0.936700  1.0  -0.5936
  O  O42  1  0.770400  0.659600  0.111800  1.0  -0.5867
  O  O43  1  0.184700  0.584900  0.038800  1.0  -0.6242
  O  O44  1  0.079200  0.498500  0.217300  1.0  -0.6346
  O  O45  1  0.652500  0.895900  0.031200  1.0  -0.6533
  O  O46  1  0.353600  0.804600  0.087500  1.0  -0.7882
