# generated using pymatgen
data_EuH16C22(I2O5)2
_symmetry_space_group_name_H-M   'P 1'
_cell_length_a   9.69310000
_cell_length_b   12.64530000
_cell_length_c   26.41100000
_cell_angle_alpha   91.39100000
_cell_angle_beta   90.00000000
_cell_angle_gamma   90.00000000
_symmetry_Int_Tables_number   1
_chemical_formula_structural   EuH16C22(I2O5)2
_chemical_formula_sum   'Eu4 H64 C88 I16 O40'
_cell_volume   3236.29928070
_cell_formula_units_Z   4
loop_
 _symmetry_equiv_pos_site_id
 _symmetry_equiv_pos_as_xyz
  1  'x, y, z'
loop_
 _atom_site_type_symbol
 _atom_site_label
 _atom_site_symmetry_multiplicity
 _atom_site_fract_x
 _atom_site_fract_y
 _atom_site_fract_z
 _atom_site_occupancy
 _atom_site_charge
  Eu  Eu1  1  0.197080  0.858270  0.753280  1.0  2.181
  Eu  Eu2  1  0.697080  0.641730  0.746720  1.0  2.1809
  Eu  Eu3  1  0.802920  0.141730  0.246720  1.0  2.181
  Eu  Eu4  1  0.302920  0.358270  0.253280  1.0  2.1809
  H  H5  1  0.172400  0.425700  0.506100  1.0  0.1341
  H  H6  1  0.415500  0.637500  0.437000  1.0  0.1302
  H  H7  1  0.270300  0.692000  0.635200  1.0  0.1325
  H  H8  1  0.357200  0.771700  0.601200  1.0  0.1387
  H  H9  1  0.158800  0.434200  0.418200  1.0  0.1345
  H  H10  1  0.307300  0.454300  0.393800  1.0  0.1326
  H  H11  1  0.087700  0.605100  0.398900  1.0  0.1555
  H  H12  1  0.238900  0.634500  0.379800  1.0  0.1354
  H  H13  1  0.928800  0.837500  0.436000  1.0  0.1241
  H  H14  1  0.672300  0.072300  0.483000  1.0  0.132
  H  H15  1  0.829200  0.772400  0.612000  1.0  0.1283
  H  H16  1  0.743700  0.869400  0.636600  1.0  0.1325
  H  H17  1  0.685300  0.041100  0.398000  1.0  0.1216
  H  H18  1  0.840000  0.016900  0.380400  1.0  0.1378
  H  H19  1  0.622100  0.868200  0.379600  1.0  0.1473
  H  H20  1  0.777900  0.838700  0.365300  1.0  0.1364
  H  H21  1  0.672400  0.074300  0.993900  1.0  0.1342
  H  H22  1  0.915500  0.862500  0.063000  1.0  0.1304
  H  H23  1  0.770300  0.808000  0.864800  1.0  0.1325
  H  H24  1  0.857200  0.728300  0.898800  1.0  0.1395
  H  H25  1  0.658800  0.065800  0.081800  1.0  0.1347
  H  H26  1  0.807300  0.045700  0.106200  1.0  0.1319
  H  H27  1  0.587700  0.894900  0.101100  1.0  0.1552
  H  H28  1  0.738900  0.865500  0.120200  1.0  0.1351
  H  H29  1  0.428800  0.662500  0.064000  1.0  0.1242
  H  H30  1  0.172300  0.427700  0.017000  1.0  0.1314
  H  H31  1  0.329200  0.727600  0.888000  1.0  0.1283
  H  H32  1  0.243700  0.630600  0.863400  1.0  0.1331
  H  H33  1  0.185300  0.458900  0.102000  1.0  0.122
  H  H34  1  0.340000  0.483100  0.119600  1.0  0.1382
  H  H35  1  0.122100  0.631800  0.120400  1.0  0.1469
  H  H36  1  0.277900  0.661300  0.134700  1.0  0.1367
  H  H37  1  0.827600  0.574300  0.493900  1.0  0.1342
  H  H38  1  0.584500  0.362500  0.563000  1.0  0.1304
  H  H39  1  0.729700  0.308000  0.364800  1.0  0.1306
  H  H40  1  0.642800  0.228300  0.398800  1.0  0.1394
  H  H41  1  0.841200  0.565800  0.581800  1.0  0.134
  H  H42  1  0.692700  0.545700  0.606200  1.0  0.1313
  H  H43  1  0.912300  0.394900  0.601100  1.0  0.1542
  H  H44  1  0.761100  0.365500  0.620200  1.0  0.1359
  H  H45  1  0.071200  0.162500  0.564000  1.0  0.1241
  H  H46  1  0.327700  0.927700  0.517000  1.0  0.1295
  H  H47  1  0.170800  0.227600  0.388000  1.0  0.1283
  H  H48  1  0.256300  0.130600  0.363400  1.0  0.1323
  H  H49  1  0.314700  0.958900  0.602000  1.0  0.122
  H  H50  1  0.160000  0.983100  0.619600  1.0  0.1383
  H  H51  1  0.377900  0.131800  0.620400  1.0  0.1467
  H  H52  1  0.222100  0.161300  0.634700  1.0  0.1376
  H  H53  1  0.327600  0.925700  0.006100  1.0  0.1344
  H  H54  1  0.084500  0.137500  0.937000  1.0  0.1302
  H  H55  1  0.229700  0.192000  0.135200  1.0  0.1308
  H  H56  1  0.142800  0.271700  0.101200  1.0  0.1386
  H  H57  1  0.341200  0.934200  0.918200  1.0  0.1343
  H  H58  1  0.192700  0.954300  0.893800  1.0  0.1325
  H  H59  1  0.412300  0.105100  0.898900  1.0  0.1547
  H  H60  1  0.261100  0.134500  0.879800  1.0  0.1369
  H  H61  1  0.571200  0.337500  0.936000  1.0  0.124
  H  H62  1  0.827700  0.572300  0.983000  1.0  0.1294
  H  H63  1  0.670800  0.272400  0.112000  1.0  0.1281
  H  H64  1  0.756300  0.369400  0.136600  1.0  0.1318
  H  H65  1  0.814700  0.541100  0.898000  1.0  0.1215
  H  H66  1  0.660000  0.516900  0.880400  1.0  0.1387
  H  H67  1  0.877900  0.368200  0.879600  1.0  0.1464
  H  H68  1  0.722100  0.338700  0.865300  1.0  0.1369
  C  C69  1  0.387600  0.595000  0.558370  1.0  0.2318
  C  C70  1  0.291800  0.513300  0.554340  1.0  -0.0678
  C  C71  1  0.239400  0.480500  0.507770  1.0  -0.0625
  C  C72  1  0.283700  0.526600  0.463630  1.0  0.1217
  C  C73  1  0.382000  0.606400  0.467030  1.0  -0.0564
  C  C74  1  0.431700  0.641100  0.513860  1.0  -0.0786
  C  C75  1  0.364700  0.715000  0.626310  1.0  -0.0736
  C  C76  1  0.436900  0.757000  0.673000  1.0  0.7557
  C  C77  1  0.230800  0.488400  0.412900  1.0  -0.2642
  C  C78  1  0.170500  0.576500  0.381400  1.0  -0.377
  C  C79  1  0.130900  0.543800  0.328300  1.0  0.7584
  C  C80  1  0.870600  0.924200  0.552010  1.0  0.2843
  C  C81  1  0.925100  0.862100  0.512530  1.0  -0.0803
  C  C82  1  0.889300  0.879900  0.462370  1.0  -0.0446
  C  C83  1  0.795700  0.959800  0.450500  1.0  0.1599
  C  C84  1  0.738400  0.019200  0.490000  1.0  -0.0626
  C  C85  1  0.776900  0.001800  0.539540  1.0  -0.0801
  C  C86  1  0.837700  0.841000  0.630570  1.0  -0.0487
  C  C87  1  0.909300  0.824900  0.680750  1.0  0.7696
  C  C88  1  0.758000  0.986100  0.396900  1.0  -0.2494
  C  C89  1  0.708300  0.895900  0.364800  1.0  -0.3096
  C  C90  1  0.681400  0.924800  0.310700  1.0  0.8116
  C  C91  1  0.887600  0.905000  0.941630  1.0  0.2312
  C  C92  1  0.791800  0.986700  0.945660  1.0  -0.0736
  C  C93  1  0.739400  0.019500  0.992230  1.0  -0.0635
  C  C94  1  0.783700  0.973400  0.036370  1.0  0.1217
  C  C95  1  0.882000  0.893600  0.032970  1.0  -0.0555
  C  C96  1  0.931700  0.858900  0.986140  1.0  -0.077
  C  C97  1  0.864700  0.785000  0.873690  1.0  -0.0743
  C  C98  1  0.936900  0.743000  0.827000  1.0  0.756
  C  C99  1  0.730800  0.011600  0.087100  1.0  -0.2627
  C  C100  1  0.670500  0.923500  0.118600  1.0  -0.379
  C  C101  1  0.630900  0.956200  0.171700  1.0  0.7575
  C  C102  1  0.370600  0.575800  0.947990  1.0  0.2834
  C  C103  1  0.425100  0.637900  0.987470  1.0  -0.0803
  C  C104  1  0.389300  0.620100  0.037630  1.0  -0.0423
  C  C105  1  0.295700  0.540200  0.049500  1.0  0.1605
  C  C106  1  0.238400  0.480800  0.010000  1.0  -0.0622
  C  C107  1  0.276900  0.498200  0.960460  1.0  -0.0806
  C  C108  1  0.337700  0.659000  0.869430  1.0  -0.0485
  C  C109  1  0.409300  0.675100  0.819250  1.0  0.7692
  C  C110  1  0.258000  0.513900  0.103100  1.0  -0.2503
  C  C111  1  0.208300  0.604100  0.135200  1.0  -0.3106
  C  C112  1  0.181400  0.575200  0.189300  1.0  0.813
  C  C113  1  0.612400  0.405000  0.441630  1.0  0.2312
  C  C114  1  0.708200  0.486700  0.445660  1.0  -0.0727
  C  C115  1  0.760600  0.519500  0.492230  1.0  -0.0633
  C  C116  1  0.716300  0.473400  0.536370  1.0  0.1222
  C  C117  1  0.618000  0.393600  0.532970  1.0  -0.056
  C  C118  1  0.568300  0.358900  0.486140  1.0  -0.0779
  C  C119  1  0.635300  0.285000  0.373690  1.0  -0.0731
  C  C120  1  0.563100  0.243000  0.327000  1.0  0.7559
  C  C121  1  0.769200  0.511600  0.587100  1.0  -0.2619
  C  C122  1  0.829500  0.423500  0.618600  1.0  -0.3812
  C  C123  1  0.869100  0.456200  0.671700  1.0  0.7579
  C  C124  1  0.129400  0.075800  0.447990  1.0  0.2841
  C  C125  1  0.074900  0.137900  0.487470  1.0  -0.0808
  C  C126  1  0.110700  0.120100  0.537630  1.0  -0.0428
  C  C127  1  0.204300  0.040200  0.549500  1.0  0.1609
  C  C128  1  0.261600  0.980800  0.510000  1.0  -0.0626
  C  C129  1  0.223100  0.998200  0.460460  1.0  -0.0791
  C  C130  1  0.162300  0.159000  0.369430  1.0  -0.05
  C  C131  1  0.090700  0.175100  0.319250  1.0  0.7684
  C  C132  1  0.242000  0.013900  0.603100  1.0  -0.2488
  C  C133  1  0.291700  0.104100  0.635200  1.0  -0.3113
  C  C134  1  0.318600  0.075200  0.689300  1.0  0.8118
  C  C135  1  0.112400  0.095000  0.058370  1.0  0.2321
  C  C136  1  0.208200  0.013300  0.054340  1.0  -0.0651
  C  C137  1  0.260600  0.980500  0.007770  1.0  -0.0618
  C  C138  1  0.216300  0.026600  0.963630  1.0  0.1222
  C  C139  1  0.118000  0.106400  0.967030  1.0  -0.0577
  C  C140  1  0.068300  0.141100  0.013860  1.0  -0.0787
  C  C141  1  0.135300  0.215000  0.126310  1.0  -0.0735
  C  C142  1  0.063100  0.257000  0.173000  1.0  0.7553
  C  C143  1  0.269200  0.988400  0.912900  1.0  -0.2633
  C  C144  1  0.329500  0.076500  0.881400  1.0  -0.3799
  C  C145  1  0.369100  0.043800  0.828300  1.0  0.7575
  C  C146  1  0.629400  0.424200  0.052010  1.0  0.2851
  C  C147  1  0.574900  0.362100  0.012530  1.0  -0.0811
  C  C148  1  0.610700  0.379900  0.962370  1.0  -0.0442
  C  C149  1  0.704300  0.459800  0.950500  1.0  0.1605
  C  C150  1  0.761600  0.519200  0.990000  1.0  -0.0623
  C  C151  1  0.723100  0.501800  0.039540  1.0  -0.0793
  C  C152  1  0.662300  0.341000  0.130570  1.0  -0.0501
  C  C153  1  0.590700  0.324900  0.180750  1.0  0.7685
  C  C154  1  0.742000  0.486100  0.896900  1.0  -0.2479
  C  C155  1  0.791700  0.395900  0.864800  1.0  -0.3117
  C  C156  1  0.818600  0.424800  0.810700  1.0  0.8107
  I  I157  1  0.576610  0.763430  0.517160  1.0  -0.1798
  I  I158  1  0.235830  0.434090  0.619900  1.0  -0.1619
  I  I159  1  0.062410  0.739940  0.528310  1.0  -0.1827
  I  I160  1  0.696270  0.102270  0.596640  1.0  -0.1635
  I  I161  1  0.076610  0.736570  0.982840  1.0  -0.1792
  I  I162  1  0.735830  0.065910  0.880100  1.0  -0.1648
  I  I163  1  0.562410  0.760060  0.971690  1.0  -0.1832
  I  I164  1  0.196270  0.397730  0.903360  1.0  -0.1631
  I  I165  1  0.423390  0.236570  0.482840  1.0  -0.1816
  I  I166  1  0.764170  0.565910  0.380100  1.0  -0.1623
  I  I167  1  0.937590  0.260060  0.471690  1.0  -0.1854
  I  I168  1  0.303730  0.897730  0.403360  1.0  -0.1634
  I  I169  1  0.923390  0.263430  0.017160  1.0  -0.182
  I  I170  1  0.264170  0.934090  0.119900  1.0  -0.1598
  I  I171  1  0.437590  0.239940  0.028310  1.0  -0.1852
  I  I172  1  0.803730  0.602270  0.096640  1.0  -0.1636
  O  O173  1  0.440600  0.627000  0.604630  1.0  -0.3012
  O  O174  1  0.376800  0.834700  0.694880  1.0  -0.6857
  O  O175  1  0.546400  0.715000  0.686870  1.0  -0.6988
  O  O176  1  0.152100  0.454800  0.310840  1.0  -0.6806
  O  O177  1  0.076500  0.619000  0.302950  1.0  -0.4785
  O  O178  1  0.916000  0.913700  0.600950  1.0  -0.2456
  O  O179  1  0.019100  0.871100  0.690800  1.0  -0.687
  O  O180  1  0.849900  0.760700  0.708800  1.0  -0.6947
  O  O181  1  0.770300  0.974100  0.286710  1.0  -0.691
  O  O182  1  0.567000  0.896100  0.291260  1.0  -0.5129
  O  O183  1  0.940600  0.873000  0.895370  1.0  -0.3029
  O  O184  1  0.876800  0.665300  0.805120  1.0  -0.6875
  O  O185  1  0.046400  0.785000  0.813130  1.0  -0.6984
  O  O186  1  0.652100  0.045200  0.189160  1.0  -0.6807
  O  O187  1  0.576500  0.881000  0.197050  1.0  -0.4784
  O  O188  1  0.416000  0.586300  0.899050  1.0  -0.2465
  O  O189  1  0.519100  0.628900  0.809200  1.0  -0.686
  O  O190  1  0.349900  0.739300  0.791200  1.0  -0.6952
  O  O191  1  0.270300  0.525900  0.213290  1.0  -0.6906
  O  O192  1  0.067000  0.603900  0.208740  1.0  -0.5124
  O  O193  1  0.559400  0.373000  0.395370  1.0  -0.2999
  O  O194  1  0.623200  0.165300  0.305120  1.0  -0.6888
  O  O195  1  0.453600  0.285000  0.313130  1.0  -0.6979
  O  O196  1  0.847900  0.545200  0.689160  1.0  -0.6797
  O  O197  1  0.923500  0.381000  0.697050  1.0  -0.4797
  O  O198  1  0.084000  0.086300  0.399050  1.0  -0.2455
  O  O199  1  0.980900  0.128900  0.309200  1.0  -0.6866
  O  O200  1  0.150100  0.239300  0.291200  1.0  -0.6956
  O  O201  1  0.229700  0.025900  0.713290  1.0  -0.6915
  O  O202  1  0.433000  0.103900  0.708740  1.0  -0.5126
  O  O203  1  0.059400  0.127000  0.104630  1.0  -0.2993
  O  O204  1  0.123200  0.334700  0.194880  1.0  -0.6874
  O  O205  1  0.953600  0.215000  0.186870  1.0  -0.6984
  O  O206  1  0.347900  0.954800  0.810840  1.0  -0.6802
  O  O207  1  0.423500  0.119000  0.802950  1.0  -0.479
  O  O208  1  0.584000  0.413700  0.100950  1.0  -0.2442
  O  O209  1  0.480900  0.371100  0.190800  1.0  -0.6865
  O  O210  1  0.650100  0.260700  0.208800  1.0  -0.6952
  O  O211  1  0.729700  0.474100  0.786710  1.0  -0.6903
  O  O212  1  0.933000  0.396100  0.791260  1.0  -0.5114
