# generated using pymatgen
data_V2CoH10C12N2O5
_symmetry_space_group_name_H-M   'P 1'
_cell_length_a   7.77450000
_cell_length_b   11.46350000
_cell_length_c   13.53770000
_cell_angle_alpha   96.80300000
_cell_angle_beta   105.71000000
_cell_angle_gamma   99.22500000
_symmetry_Int_Tables_number   1
_chemical_formula_structural   V2CoH10C12N2O5
_chemical_formula_sum   'V4 Co2 H20 C24 N4 O10'
_cell_volume   1129.67212229
_cell_formula_units_Z   2
loop_
 _symmetry_equiv_pos_site_id
 _symmetry_equiv_pos_as_xyz
  1  'x, y, z'
loop_
 _atom_site_type_symbol
 _atom_site_label
 _atom_site_symmetry_multiplicity
 _atom_site_fract_x
 _atom_site_fract_y
 _atom_site_fract_z
 _atom_site_occupancy
 _atom_site_charge
  V  V1  1  0.857570  0.676610  0.974770  1.0  2.1548
  V  V2  1  0.794450  0.419530  0.860440  1.0  1.3234
  V  V3  1  0.142430  0.323390  0.025230  1.0  2.154
  V  V4  1  0.205550  0.580470  0.139560  1.0  1.322
  Co  Co5  1  0.500000  0.500000  0.000000  1.0  0.9944
  Co  Co6  1  0.000000  0.000000  0.000000  1.0  0.8396
  H  H7  1  0.078100  0.863900  0.818400  1.0  0.0754
  H  H8  1  0.082000  0.873600  0.651300  1.0  0.1185
  H  H9  1  0.872900  0.170700  0.667600  1.0  0.1172
  H  H10  1  0.868700  0.148800  0.833500  1.0  0.0691
  H  H11  1  0.949200  0.107700  0.510500  1.0  0.0908
  H  H12  1  0.663300  0.655700  0.217300  1.0  0.073
  H  H13  1  0.819500  0.642000  0.386600  1.0  0.1133
  H  H14  1  0.913600  0.327500  0.273400  1.0  0.1006
  H  H15  1  0.730800  0.341000  0.113600  1.0  0.0748
  H  H16  1  0.059100  0.405700  0.457300  1.0  0.0971
  H  H17  1  0.921900  0.136100  0.181600  1.0  0.0762
  H  H18  1  0.918000  0.126400  0.348700  1.0  0.1184
  H  H19  1  0.127100  0.829300  0.332400  1.0  0.1164
  H  H20  1  0.131300  0.851200  0.166500  1.0  0.071
  H  H21  1  0.050800  0.892300  0.489500  1.0  0.0906
  H  H22  1  0.336700  0.344300  0.782700  1.0  0.0729
  H  H23  1  0.180500  0.358000  0.613400  1.0  0.1129
  H  H24  1  0.086400  0.672500  0.726600  1.0  0.1008
  H  H25  1  0.269200  0.659000  0.886400  1.0  0.0742
  H  H26  1  0.940900  0.594300  0.542700  1.0  0.0972
  C  C27  1  0.036100  0.926220  0.787350  1.0  0.1711
  C  C28  1  0.039300  0.931570  0.686900  1.0  -0.2103
  C  C29  1  0.978100  0.024510  0.638820  1.0  0.1254
  C  C30  1  0.914700  0.106960  0.696230  1.0  -0.1994
  C  C31  1  0.914200  0.093750  0.796640  1.0  0.1679
  C  C32  1  0.979800  0.038200  0.533050  1.0  -0.1437
  C  C33  1  0.709100  0.587070  0.230020  1.0  0.1493
  C  C34  1  0.807400  0.580700  0.332200  1.0  -0.2154
  C  C35  1  0.886800  0.481600  0.351400  1.0  0.113
  C  C36  1  0.859100  0.393700  0.265500  1.0  -0.2125
  C  C37  1  0.751500  0.403600  0.168500  1.0  0.1817
  C  C38  1  0.993700  0.467000  0.454660  1.0  -0.1342
  C  C39  1  0.963900  0.073780  0.212650  1.0  0.1719
  C  C40  1  0.960700  0.068430  0.313100  1.0  -0.2104
  C  C41  1  0.021900  0.975490  0.361180  1.0  0.1251
  C  C42  1  0.085300  0.893040  0.303770  1.0  -0.2018
  C  C43  1  0.085800  0.906250  0.203360  1.0  0.1674
  C  C44  1  0.020200  0.961800  0.466950  1.0  -0.1443
  C  C45  1  0.290900  0.412930  0.769980  1.0  0.1502
  C  C46  1  0.192600  0.419300  0.667800  1.0  -0.2149
  C  C47  1  0.113200  0.518400  0.648600  1.0  0.1136
  C  C48  1  0.140900  0.606300  0.734500  1.0  -0.2134
  C  C49  1  0.248500  0.596400  0.831500  1.0  0.1812
  C  C50  1  0.006300  0.533000  0.545340  1.0  -0.1361
  N  N51  1  0.975600  0.006100  0.842590  1.0  -0.3348
  N  N52  1  0.676100  0.497650  0.149540  1.0  -0.3126
  N  N53  1  0.024400  0.993900  0.157410  1.0  -0.3367
  N  N54  1  0.323900  0.502350  0.850460  1.0  -0.3098
  O  O55  1  0.654090  0.403660  0.932610  1.0  -0.7666
  O  O56  1  0.650560  0.663480  0.989790  1.0  -0.8514
  O  O57  1  0.001540  0.632580  0.083050  1.0  -0.9808
  O  O58  1  0.938050  0.815640  0.966820  1.0  -0.9425
  O  O59  1  0.847350  0.578480  0.858800  1.0  -0.9255
  O  O60  1  0.345910  0.596340  0.067390  1.0  -0.7667
  O  O61  1  0.349440  0.336520  0.010210  1.0  -0.8521
  O  O62  1  0.998460  0.367420  0.916950  1.0  -0.9805
  O  O63  1  0.061950  0.184360  0.033180  1.0  -0.943
  O  O64  1  0.152650  0.421520  0.141200  1.0  -0.9271
