# generated using pymatgen
data_V2NiH10C12N2O5
_symmetry_space_group_name_H-M   'P 1'
_cell_length_a   7.70860000
_cell_length_b   11.40070000
_cell_length_c   13.49900000
_cell_angle_alpha   96.39500000
_cell_angle_beta   105.61900000
_cell_angle_gamma   99.33900000
_symmetry_Int_Tables_number   1
_chemical_formula_structural   V2NiH10C12N2O5
_chemical_formula_sum   'V4 Ni2 H20 C24 N4 O10'
_cell_volume   1112.27578420
_cell_formula_units_Z   2
loop_
 _symmetry_equiv_pos_site_id
 _symmetry_equiv_pos_as_xyz
  1  'x, y, z'
loop_
 _atom_site_type_symbol
 _atom_site_label
 _atom_site_symmetry_multiplicity
 _atom_site_fract_x
 _atom_site_fract_y
 _atom_site_fract_z
 _atom_site_occupancy
 _atom_site_charge
  V  V1  1  0.857070  0.677110  0.974660  1.0  2.1304
  V  V2  1  0.794020  0.420400  0.859220  1.0  1.3265
  V  V3  1  0.142930  0.322890  0.025340  1.0  2.1293
  V  V4  1  0.205980  0.579600  0.140780  1.0  1.3247
  Ni  Ni5  1  0.500000  0.500000  0.000000  1.0  0.9645
  Ni  Ni6  1  0.000000  0.000000  0.000000  1.0  0.5902
  H  H7  1  0.091400  0.867200  0.822900  1.0  0.0815
  H  H8  1  0.095600  0.877800  0.654700  1.0  0.1184
  H  H9  1  0.870200  0.171400  0.667600  1.0  0.1193
  H  H10  1  0.863300  0.147700  0.833800  1.0  0.0743
  H  H11  1  0.957300  0.111700  0.511100  1.0  0.1012
  H  H12  1  0.651500  0.654500  0.217800  1.0  0.0779
  H  H13  1  0.820500  0.645300  0.384100  1.0  0.1137
  H  H14  1  0.915900  0.327400  0.274700  1.0  0.112
  H  H15  1  0.735500  0.342000  0.112500  1.0  0.0815
  H  H16  1  0.061400  0.406100  0.457400  1.0  0.0986
  H  H17  1  0.908600  0.132800  0.177100  1.0  0.0806
  H  H18  1  0.904400  0.122200  0.345300  1.0  0.1189
  H  H19  1  0.129800  0.828600  0.332400  1.0  0.1184
  H  H20  1  0.136700  0.852300  0.166200  1.0  0.0759
  H  H21  1  0.042700  0.888300  0.488900  1.0  0.1007
  H  H22  1  0.348500  0.345500  0.782200  1.0  0.078
  H  H23  1  0.179500  0.354700  0.615900  1.0  0.1136
  H  H24  1  0.084100  0.672600  0.725300  1.0  0.1126
  H  H25  1  0.264500  0.658000  0.887500  1.0  0.0813
  H  H26  1  0.938600  0.593900  0.542600  1.0  0.0977
  C  C27  1  0.045700  0.928560  0.790820  1.0  0.1781
  C  C28  1  0.049400  0.934480  0.689630  1.0  -0.2161
  C  C29  1  0.982800  0.026810  0.640430  1.0  0.1209
  C  C30  1  0.914400  0.108150  0.697050  1.0  -0.1945
  C  C31  1  0.912800  0.094170  0.797730  1.0  0.166
  C  C32  1  0.983000  0.040530  0.533580  1.0  -0.1376
  C  C33  1  0.702300  0.586930  0.229920  1.0  0.1688
  C  C34  1  0.805300  0.582420  0.330370  1.0  -0.2067
  C  C35  1  0.886400  0.482970  0.350760  1.0  0.1149
  C  C36  1  0.860700  0.393670  0.265710  1.0  -0.1953
  C  C37  1  0.752800  0.403550  0.167660  1.0  0.187
  C  C38  1  0.994600  0.467270  0.454710  1.0  -0.1367
  C  C39  1  0.954300  0.071440  0.209180  1.0  0.1787
  C  C40  1  0.950600  0.065520  0.310370  1.0  -0.2164
  C  C41  1  0.017200  0.973190  0.359570  1.0  0.1214
  C  C42  1  0.085600  0.891850  0.302950  1.0  -0.1934
  C  C43  1  0.087200  0.905830  0.202270  1.0  0.1669
  C  C44  1  0.017000  0.959470  0.466420  1.0  -0.1385
  C  C45  1  0.297700  0.413070  0.770080  1.0  0.171
  C  C46  1  0.194700  0.417580  0.669630  1.0  -0.2044
  C  C47  1  0.113600  0.517030  0.649240  1.0  0.1148
  C  C48  1  0.139300  0.606330  0.734290  1.0  -0.1951
  C  C49  1  0.247200  0.596450  0.832340  1.0  0.187
  C  C50  1  0.005400  0.532730  0.545290  1.0  -0.1406
  N  N51  1  0.979400  0.006870  0.844950  1.0  -0.3154
  N  N52  1  0.672360  0.497930  0.149060  1.0  -0.3247
  N  N53  1  0.020600  0.993130  0.155050  1.0  -0.3163
  N  N54  1  0.327640  0.502070  0.850940  1.0  -0.3222
  O  O55  1  0.652990  0.404360  0.932450  1.0  -0.7593
  O  O56  1  0.646920  0.664580  0.989100  1.0  -0.8649
  O  O57  1  0.999590  0.631700  0.084180  1.0  -0.9685
  O  O58  1  0.940850  0.816690  0.967000  1.0  -0.908
  O  O59  1  0.847510  0.580340  0.857780  1.0  -0.9222
  O  O60  1  0.347010  0.595640  0.067550  1.0  -0.7593
  O  O61  1  0.353080  0.335420  0.010900  1.0  -0.8644
  O  O62  1  0.000410  0.368300  0.915820  1.0  -0.9663
  O  O63  1  0.059150  0.183310  0.033000  1.0  -0.9083
  O  O64  1  0.152490  0.419660  0.142220  1.0  -0.922
