# generated using pymatgen
data_CdH12C23Br4(N3O2)2
_symmetry_space_group_name_H-M   'P 1'
_cell_length_a   13.57030000
_cell_length_b   14.40800000
_cell_length_c   19.48790000
_cell_angle_alpha   93.93700000
_cell_angle_beta   109.85600000
_cell_angle_gamma   93.50500000
_symmetry_Int_Tables_number   1
_chemical_formula_structural   CdH12C23Br4(N3O2)2
_chemical_formula_sum   'Cd4 H48 C92 Br16 N24 O16'
_cell_volume   3560.79778639
_cell_formula_units_Z   4
loop_
 _symmetry_equiv_pos_site_id
 _symmetry_equiv_pos_as_xyz
  1  'x, y, z'
loop_
 _atom_site_type_symbol
 _atom_site_label
 _atom_site_symmetry_multiplicity
 _atom_site_fract_x
 _atom_site_fract_y
 _atom_site_fract_z
 _atom_site_occupancy
 _atom_site_charge
  Cd  Cd1  1  0.942100  0.454710  0.201410  1.0  0.9773
  Cd  Cd2  1  0.471660  0.885080  0.591580  1.0  1.082
  Cd  Cd3  1  0.057900  0.545290  0.798590  1.0  0.9771
  Cd  Cd4  1  0.528340  0.114920  0.408420  1.0  1.0824
  H  H5  1  0.172100  0.434100  0.169400  1.0  0.1012
  H  H6  1  0.894900  0.402800  0.014500  1.0  0.0997
  H  H7  1  0.017200  0.332000  0.960800  1.0  0.1361
  H  H8  1  0.202000  0.350400  0.954100  1.0  0.1417
  H  H9  1  0.468100  0.226700  0.056300  1.0  0.1164
  H  H10  1  0.283000  0.308400  0.170000  1.0  0.116
  H  H11  1  0.367300  0.175600  0.243500  1.0  0.0973
  H  H12  1  0.610200  0.260000  0.183800  1.0  0.1279
  H  H13  1  0.677600  0.198200  0.304800  1.0  0.1149
  H  H14  1  0.225800  0.311300  0.849600  1.0  0.0975
  H  H15  1  0.476400  0.220200  0.821100  1.0  0.0914
  H  H16  1  0.507800  0.231700  0.950700  1.0  0.1223
  H  H17  1  0.091300  0.447800  0.380400  1.0  0.0924
  H  H18  1  0.124300  0.269800  0.227800  1.0  0.1178
  H  H19  1  0.247000  0.234500  0.348200  1.0  0.1312
  H  H20  1  0.266500  0.600900  0.609900  1.0  0.1387
  H  H21  1  0.183200  0.669900  0.691900  1.0  0.1086
  H  H22  1  0.156700  0.396900  0.702800  1.0  0.1071
  H  H23  1  0.203600  0.469100  0.502300  1.0  0.1461
  H  H24  1  0.265200  0.199700  0.467200  1.0  0.1473
  H  H25  1  0.303400  0.310400  0.673500  1.0  0.1252
  H  H26  1  0.389700  0.095700  0.531600  1.0  0.0954
  H  H27  1  0.281300  0.144300  0.694000  1.0  0.1168
  H  H28  1  0.351300  0.991600  0.704900  1.0  0.1101
  H  H29  1  0.827900  0.565900  0.830600  1.0  0.101
  H  H30  1  0.105100  0.597200  0.985500  1.0  0.1002
  H  H31  1  0.982800  0.668000  0.039200  1.0  0.1356
  H  H32  1  0.798000  0.649600  0.045900  1.0  0.1415
  H  H33  1  0.531900  0.773300  0.943700  1.0  0.113
  H  H34  1  0.717000  0.691600  0.830000  1.0  0.1155
  H  H35  1  0.632700  0.824400  0.756500  1.0  0.0977
  H  H36  1  0.389800  0.740000  0.816200  1.0  0.1273
  H  H37  1  0.322400  0.801800  0.695200  1.0  0.1156
  H  H38  1  0.774200  0.688700  0.150400  1.0  0.0975
  H  H39  1  0.523600  0.779800  0.178900  1.0  0.0903
  H  H40  1  0.492200  0.768300  0.049300  1.0  0.1215
  H  H41  1  0.908700  0.552200  0.619600  1.0  0.0922
  H  H42  1  0.875700  0.730200  0.772200  1.0  0.1176
  H  H43  1  0.753000  0.765500  0.651800  1.0  0.1312
  H  H44  1  0.733500  0.399100  0.390100  1.0  0.1391
  H  H45  1  0.816800  0.330100  0.308100  1.0  0.1089
  H  H46  1  0.843300  0.603100  0.297200  1.0  0.1063
  H  H47  1  0.796400  0.530900  0.497700  1.0  0.1462
  H  H48  1  0.734800  0.800300  0.532800  1.0  0.1468
  H  H49  1  0.696600  0.689600  0.326500  1.0  0.1255
  H  H50  1  0.610300  0.904300  0.468400  1.0  0.0961
  H  H51  1  0.718700  0.855700  0.306000  1.0  0.1155
  H  H52  1  0.648700  0.008400  0.295100  1.0  0.1098
  C  C53  1  0.118100  0.417100  0.125000  1.0  0.1473
  C  C54  1  0.966300  0.399400  0.039500  1.0  0.0473
  C  C55  1  0.033500  0.360100  0.008300  1.0  -0.1158
  C  C56  1  0.226000  0.332600  0.062500  1.0  0.1416
  C  C57  1  0.246800  0.327100  0.995600  1.0  -0.1842
  C  C58  1  0.338000  0.284900  0.994100  1.0  0.164
  C  C59  1  0.408100  0.253400  0.057800  1.0  -0.1392
  C  C60  1  0.387400  0.262200  0.123200  1.0  0.157
  C  C61  1  0.296200  0.302300  0.126200  1.0  -0.1961
  C  C62  1  0.435500  0.188400  0.243900  1.0  0.1323
  C  C63  1  0.569900  0.236600  0.210000  1.0  -0.1112
  C  C64  1  0.606900  0.200600  0.277200  1.0  0.023
  C  C65  1  0.291400  0.289200  0.857700  1.0  0.1791
  C  C66  1  0.429000  0.240200  0.842700  1.0  0.0393
  C  C67  1  0.446600  0.245300  0.914600  1.0  -0.1449
  C  C68  1  0.114900  0.400100  0.357100  1.0  0.1761
  C  C69  1  0.133600  0.301800  0.273000  1.0  -0.0118
  C  C70  1  0.201300  0.281400  0.340500  1.0  -0.0827
  C  C71  1  0.234800  0.569200  0.638100  1.0  -0.1305
  C  C72  1  0.188400  0.606300  0.683700  1.0  0.035
  C  C73  1  0.173200  0.455500  0.690300  1.0  0.1686
  C  C74  1  0.246800  0.399000  0.596300  1.0  0.1704
  C  C75  1  0.222600  0.412100  0.520000  1.0  -0.205
  C  C76  1  0.228700  0.336200  0.473700  1.0  0.162
  C  C77  1  0.262100  0.249600  0.499100  1.0  -0.1215
  C  C78  1  0.290600  0.242500  0.575900  1.0  0.1625
  C  C79  1  0.283500  0.316400  0.623500  1.0  -0.1748
  C  C80  1  0.371600  0.088400  0.573000  1.0  0.164
  C  C81  1  0.311500  0.116200  0.662600  1.0  -0.0721
  C  C82  1  0.350200  0.030900  0.668800  1.0  -0.0111
  C  C83  1  0.464900  0.693400  0.541000  1.0  0.6447
  C  C84  1  0.482700  0.593700  0.519900  1.0  -0.1137
  C  C85  1  0.518000  0.529700  0.573700  1.0  0.0311
  C  C86  1  0.534400  0.436600  0.554000  1.0  0.0151
  C  C87  1  0.698300  0.419200  0.085300  1.0  0.6525
  C  C88  1  0.595500  0.462800  0.040600  1.0  -0.1044
  C  C89  1  0.527800  0.493000  0.075300  1.0  0.0459
  C  C90  1  0.433200  0.530800  0.035200  1.0  0.0449
  C  C91  1  0.020900  0.666900  0.234600  1.0  0.6434
  C  C92  1  0.096200  0.753500  0.268500  1.0  -0.0928
  C  C93  1  0.185000  0.769600  0.248900  1.0  0.0105
  C  C94  1  0.272800  0.838200  0.297900  1.0  0.0537
  C  C95  1  0.268400  0.888200  0.357000  1.0  -0.0687
  C  C96  1  0.168500  0.876600  0.373100  1.0  0.0405
  C  C97  1  0.077700  0.818700  0.319500  1.0  0.0215
  C  C98  1  0.359100  0.956200  0.408600  1.0  0.6622
  C  C99  1  0.881900  0.582900  0.875000  1.0  0.148
  C  C100  1  0.033700  0.600600  0.960500  1.0  0.0484
  C  C101  1  0.966500  0.639900  0.991700  1.0  -0.1172
  C  C102  1  0.774000  0.667400  0.937500  1.0  0.1403
  C  C103  1  0.753200  0.672900  0.004400  1.0  -0.1812
  C  C104  1  0.662000  0.715100  0.005900  1.0  0.1644
  C  C105  1  0.591900  0.746600  0.942200  1.0  -0.1541
  C  C106  1  0.612600  0.737800  0.876800  1.0  0.157
  C  C107  1  0.703800  0.697700  0.873800  1.0  -0.1941
  C  C108  1  0.564500  0.811600  0.756100  1.0  0.1306
  C  C109  1  0.430100  0.763400  0.790000  1.0  -0.113
  C  C110  1  0.393100  0.799400  0.722800  1.0  0.0221
  C  C111  1  0.708600  0.710800  0.142300  1.0  0.1808
  C  C112  1  0.571000  0.759800  0.157300  1.0  0.0403
  C  C113  1  0.553400  0.754700  0.085400  1.0  -0.137
  C  C114  1  0.885100  0.599900  0.642900  1.0  0.176
  C  C115  1  0.866400  0.698200  0.727000  1.0  -0.0116
  C  C116  1  0.798700  0.718600  0.659500  1.0  -0.0795
  C  C117  1  0.765200  0.430800  0.361900  1.0  -0.13
  C  C118  1  0.811600  0.393700  0.316300  1.0  0.0325
  C  C119  1  0.826800  0.544500  0.309700  1.0  0.168
  C  C120  1  0.753200  0.601000  0.403700  1.0  0.1705
  C  C121  1  0.777400  0.587900  0.480000  1.0  -0.2036
  C  C122  1  0.771300  0.663800  0.526300  1.0  0.162
  C  C123  1  0.737900  0.750400  0.500900  1.0  -0.1336
  C  C124  1  0.709400  0.757500  0.424100  1.0  0.1622
  C  C125  1  0.716500  0.683600  0.376500  1.0  -0.173
  C  C126  1  0.628400  0.911600  0.427000  1.0  0.1652
  C  C127  1  0.688500  0.883800  0.337400  1.0  -0.0711
  C  C128  1  0.649800  0.969100  0.331200  1.0  -0.0075
  C  C129  1  0.535100  0.306600  0.459000  1.0  0.6451
  C  C130  1  0.517300  0.406300  0.480100  1.0  -0.1132
  C  C131  1  0.482000  0.470300  0.426300  1.0  0.0234
  C  C132  1  0.465600  0.563400  0.446000  1.0  0.0228
  C  C133  1  0.301700  0.580800  0.914700  1.0  0.6523
  C  C134  1  0.404500  0.537200  0.959400  1.0  -0.1042
  C  C135  1  0.472200  0.507000  0.924700  1.0  0.0445
  C  C136  1  0.566800  0.469200  0.964800  1.0  0.0446
  C  C137  1  0.979100  0.333100  0.765400  1.0  0.644
  C  C138  1  0.903800  0.246500  0.731500  1.0  -0.0926
  C  C139  1  0.815000  0.230400  0.751100  1.0  0.0106
  C  C140  1  0.727200  0.161800  0.702100  1.0  0.0556
  C  C141  1  0.731600  0.111800  0.643000  1.0  -0.0684
  C  C142  1  0.831500  0.123400  0.626900  1.0  0.0404
  C  C143  1  0.922300  0.181300  0.680500  1.0  0.0229
  C  C144  1  0.640900  0.043800  0.591400  1.0  0.6616
  Br  Br145  1  0.537430  0.570270  0.673780  1.0  -0.0615
  Br  Br146  1  0.578410  0.349800  0.626420  1.0  -0.033
  Br  Br147  1  0.564720  0.485020  0.179800  1.0  -0.0683
  Br  Br148  1  0.340890  0.576270  0.084010  1.0  -0.073
  Br  Br149  1  0.955190  0.798500  0.345250  1.0  -0.062
  Br  Br150  1  0.156200  0.958800  0.451300  1.0  -0.0624
  Br  Br151  1  0.207940  0.683070  0.179680  1.0  -0.0409
  Br  Br152  1  0.396400  0.859600  0.270710  1.0  -0.078
  Br  Br153  1  0.462570  0.429730  0.326220  1.0  -0.059
  Br  Br154  1  0.421590  0.650200  0.373580  1.0  -0.0369
  Br  Br155  1  0.435280  0.514980  0.820200  1.0  -0.0729
  Br  Br156  1  0.659110  0.423730  0.915990  1.0  -0.0701
  Br  Br157  1  0.044810  0.201500  0.654750  1.0  -0.0607
  Br  Br158  1  0.843800  0.041200  0.548700  1.0  -0.0634
  Br  Br159  1  0.792060  0.316930  0.820320  1.0  -0.0403
  Br  Br160  1  0.603600  0.140400  0.729290  1.0  -0.0774
  N  N161  1  0.017200  0.433000  0.111900  1.0  -0.3981
  N  N162  1  0.131700  0.372200  0.064400  1.0  0.004
  N  N163  1  0.358400  0.274200  0.925700  1.0  0.0045
  N  N164  1  0.330000  0.268800  0.803900  1.0  -0.4289
  N  N165  1  0.460400  0.230900  0.189000  1.0  0.0084
  N  N166  1  0.522500  0.168200  0.297600  1.0  -0.3953
  N  N167  1  0.081100  0.380000  0.285000  1.0  -0.3794
  N  N168  1  0.189200  0.342300  0.393800  1.0  0.0086
  N  N169  1  0.224600  0.471700  0.642500  1.0  0.0078
  N  N170  1  0.149400  0.537500  0.717000  1.0  -0.3955
  N  N171  1  0.323700  0.154400  0.603200  1.0  -0.0003
  N  N172  1  0.388500  0.013100  0.610500  1.0  -0.4183
  N  N173  1  0.982800  0.567000  0.888100  1.0  -0.3991
  N  N174  1  0.868300  0.627800  0.935600  1.0  0.0002
  N  N175  1  0.641600  0.725800  0.074300  1.0  0.0048
  N  N176  1  0.670000  0.731200  0.196100  1.0  -0.4302
  N  N177  1  0.539600  0.769100  0.811000  1.0  0.0076
  N  N178  1  0.477500  0.831800  0.702400  1.0  -0.3939
  N  N179  1  0.918900  0.620000  0.715000  1.0  -0.3794
  N  N180  1  0.810800  0.657700  0.606200  1.0  0.0088
  N  N181  1  0.775400  0.528300  0.357500  1.0  0.0075
  N  N182  1  0.850600  0.462500  0.283000  1.0  -0.3947
  N  N183  1  0.676300  0.845600  0.396800  1.0  -0.0002
  N  N184  1  0.611500  0.986900  0.389500  1.0  -0.4169
  O  O185  1  0.781000  0.472600  0.107900  1.0  -0.6106
  O  O186  1  0.687400  0.332100  0.089800  1.0  -0.5955
  O  O187  1  0.040100  0.595900  0.270300  1.0  -0.6113
  O  O188  1  0.950700  0.672000  0.172100  1.0  -0.5873
  O  O189  1  0.543700  0.753600  0.560700  1.0  -0.5855
  O  O190  1  0.373700  0.710900  0.538800  1.0  -0.5812
  O  O191  1  0.367300  0.033700  0.386900  1.0  -0.5895
  O  O192  1  0.407800  0.915800  0.466100  1.0  -0.6768
  O  O193  1  0.219000  0.527400  0.892100  1.0  -0.6103
  O  O194  1  0.312600  0.667900  0.910200  1.0  -0.5943
  O  O195  1  0.959900  0.404100  0.729700  1.0  -0.6123
  O  O196  1  0.049300  0.328000  0.827900  1.0  -0.5866
  O  O197  1  0.456300  0.246400  0.439300  1.0  -0.5851
  O  O198  1  0.626300  0.289100  0.461200  1.0  -0.5827
  O  O199  1  0.632700  0.966300  0.613100  1.0  -0.5886
  O  O200  1  0.592200  0.084200  0.533900  1.0  -0.6897
