# generated using pymatgen
data_Cu3H6C10I2(NO)4
_symmetry_space_group_name_H-M   'P 1'
_cell_length_a   7.66640000
_cell_length_b   15.48100000
_cell_length_c   31.95100000
_cell_angle_alpha   90.00000000
_cell_angle_beta   90.00000000
_cell_angle_gamma   90.00000000
_symmetry_Int_Tables_number   1
_chemical_formula_structural   Cu3H6C10I2(NO)4
_chemical_formula_sum   'Cu24 H48 C80 I16 N32 O32'
_cell_volume   3792.05773542
_cell_formula_units_Z   8
loop_
 _symmetry_equiv_pos_site_id
 _symmetry_equiv_pos_as_xyz
  1  'x, y, z'
loop_
 _atom_site_type_symbol
 _atom_site_label
 _atom_site_symmetry_multiplicity
 _atom_site_fract_x
 _atom_site_fract_y
 _atom_site_fract_z
 _atom_site_occupancy
 _atom_site_charge
  Cu  Cu1  1  0.914400  0.674280  0.561740  1.0  0.2446
  Cu  Cu2  1  0.078100  0.530520  0.534110  1.0  0.1735
  Cu  Cu3  1  0.749100  0.626320  0.770890  1.0  0.6989
  Cu  Cu4  1  0.585600  0.174280  0.938260  1.0  0.246
  Cu  Cu5  1  0.421900  0.030520  0.965890  1.0  0.1742
  Cu  Cu6  1  0.750900  0.126320  0.729110  1.0  0.6982
  Cu  Cu7  1  0.085600  0.825720  0.561740  1.0  0.2446
  Cu  Cu8  1  0.921900  0.969480  0.534110  1.0  0.1736
  Cu  Cu9  1  0.250900  0.873680  0.770890  1.0  0.6988
  Cu  Cu10  1  0.414400  0.325720  0.938260  1.0  0.2464
  Cu  Cu11  1  0.578100  0.469480  0.965890  1.0  0.1745
  Cu  Cu12  1  0.249100  0.373680  0.729110  1.0  0.6987
  Cu  Cu13  1  0.085600  0.325720  0.438260  1.0  0.2459
  Cu  Cu14  1  0.921900  0.469480  0.465890  1.0  0.1746
  Cu  Cu15  1  0.250900  0.373680  0.229110  1.0  0.6985
  Cu  Cu16  1  0.414400  0.825720  0.061740  1.0  0.2452
  Cu  Cu17  1  0.578100  0.969480  0.034110  1.0  0.1734
  Cu  Cu18  1  0.249100  0.873680  0.270890  1.0  0.699
  Cu  Cu19  1  0.914400  0.174280  0.438260  1.0  0.2462
  Cu  Cu20  1  0.078100  0.030520  0.465890  1.0  0.1741
  Cu  Cu21  1  0.749100  0.126320  0.229110  1.0  0.6987
  Cu  Cu22  1  0.585600  0.674280  0.061740  1.0  0.2441
  Cu  Cu23  1  0.421900  0.530520  0.034110  1.0  0.1736
  Cu  Cu24  1  0.750900  0.626320  0.270890  1.0  0.6985
  H  H25  1  0.417100  0.606200  0.829200  1.0  0.0866
  H  H26  1  0.373700  0.554800  0.895700  1.0  0.1066
  H  H27  1  0.615700  0.655400  0.625300  1.0  0.0962
  H  H28  1  0.119900  0.641200  0.641200  1.0  0.0755
  H  H29  1  0.084700  0.626900  0.711000  1.0  0.1137
  H  H30  1  0.875000  0.511300  0.905800  1.0  0.0963
  H  H31  1  0.082900  0.106200  0.670800  1.0  0.0863
  H  H32  1  0.126300  0.054800  0.604300  1.0  0.1063
  H  H33  1  0.884300  0.155400  0.874700  1.0  0.0965
  H  H34  1  0.380100  0.141200  0.858800  1.0  0.0757
  H  H35  1  0.415300  0.126900  0.789000  1.0  0.1133
  H  H36  1  0.625000  0.011300  0.594200  1.0  0.0966
  H  H37  1  0.582900  0.893800  0.829200  1.0  0.0864
  H  H38  1  0.626300  0.945200  0.895700  1.0  0.1065
  H  H39  1  0.384300  0.844600  0.625300  1.0  0.0958
  H  H40  1  0.880100  0.858800  0.641200  1.0  0.0752
  H  H41  1  0.915300  0.873100  0.711000  1.0  0.113
  H  H42  1  0.125000  0.988700  0.905800  1.0  0.0967
  H  H43  1  0.917100  0.393800  0.670800  1.0  0.0867
  H  H44  1  0.873700  0.445200  0.604300  1.0  0.1068
  H  H45  1  0.115700  0.344600  0.874700  1.0  0.0962
  H  H46  1  0.619900  0.358800  0.858800  1.0  0.0759
  H  H47  1  0.584700  0.373100  0.789000  1.0  0.1133
  H  H48  1  0.375000  0.488700  0.594200  1.0  0.0965
  H  H49  1  0.582900  0.393800  0.170800  1.0  0.0867
  H  H50  1  0.626300  0.445200  0.104300  1.0  0.1065
  H  H51  1  0.384300  0.344600  0.374700  1.0  0.0966
  H  H52  1  0.880100  0.358800  0.358800  1.0  0.0756
  H  H53  1  0.915300  0.373100  0.289000  1.0  0.1132
  H  H54  1  0.125000  0.488700  0.094200  1.0  0.0966
  H  H55  1  0.917100  0.893800  0.329200  1.0  0.0865
  H  H56  1  0.873700  0.945200  0.395700  1.0  0.1064
  H  H57  1  0.115700  0.844600  0.125300  1.0  0.0959
  H  H58  1  0.619900  0.858800  0.141200  1.0  0.0755
  H  H59  1  0.584700  0.873100  0.211000  1.0  0.1133
  H  H60  1  0.375000  0.988700  0.405800  1.0  0.0966
  H  H61  1  0.417100  0.106200  0.170800  1.0  0.0865
  H  H62  1  0.373700  0.054800  0.104300  1.0  0.1066
  H  H63  1  0.615700  0.155400  0.374700  1.0  0.0963
  H  H64  1  0.119900  0.141200  0.358800  1.0  0.0759
  H  H65  1  0.084700  0.126900  0.289000  1.0  0.1134
  H  H66  1  0.875000  0.011300  0.094200  1.0  0.0964
  H  H67  1  0.082900  0.606200  0.329200  1.0  0.0863
  H  H68  1  0.126300  0.554800  0.395700  1.0  0.1066
  H  H69  1  0.884300  0.655400  0.125300  1.0  0.096
  H  H70  1  0.380100  0.641200  0.141200  1.0  0.0754
  H  H71  1  0.415300  0.626900  0.211000  1.0  0.1133
  H  H72  1  0.625000  0.511300  0.405800  1.0  0.0964
  C  C73  1  0.512000  0.586800  0.844700  1.0  0.1364
  C  C74  1  0.515000  0.640200  0.705700  1.0  0.6455
  C  C75  1  0.979000  0.568900  0.829700  1.0  0.6711
  C  C76  1  0.486000  0.557200  0.884800  1.0  0.1202
  C  C77  1  0.689300  0.640500  0.685300  1.0  0.0946
  C  C78  1  0.713000  0.650500  0.642600  1.0  0.1711
  C  C79  1  0.007000  0.642400  0.652100  1.0  0.1616
  C  C80  1  0.987000  0.633000  0.693900  1.0  0.1119
  C  C81  1  0.780100  0.533000  0.891100  1.0  0.1549
  C  C82  1  0.804300  0.565400  0.851900  1.0  0.1074
  C  C83  1  0.988000  0.086800  0.655300  1.0  0.1371
  C  C84  1  0.985000  0.140200  0.794300  1.0  0.6468
  C  C85  1  0.521000  0.068900  0.670300  1.0  0.6712
  C  C86  1  0.014000  0.057200  0.615200  1.0  0.1197
  C  C87  1  0.810700  0.140500  0.814700  1.0  0.0937
  C  C88  1  0.787000  0.150500  0.857400  1.0  0.1714
  C  C89  1  0.493000  0.142400  0.847900  1.0  0.1624
  C  C90  1  0.513000  0.133000  0.806100  1.0  0.111
  C  C91  1  0.719900  0.033000  0.608900  1.0  0.1561
  C  C92  1  0.695700  0.065400  0.648100  1.0  0.1068
  C  C93  1  0.488000  0.913200  0.844700  1.0  0.1342
  C  C94  1  0.485000  0.859800  0.705700  1.0  0.6476
  C  C95  1  0.021000  0.931100  0.829700  1.0  0.6705
  C  C96  1  0.514000  0.942800  0.884800  1.0  0.12
  C  C97  1  0.310700  0.859500  0.685300  1.0  0.0937
  C  C98  1  0.287000  0.849500  0.642600  1.0  0.1704
  C  C99  1  0.993000  0.857600  0.652100  1.0  0.162
  C  C100  1  0.013000  0.867000  0.693900  1.0  0.1111
  C  C101  1  0.219900  0.967000  0.891100  1.0  0.1547
  C  C102  1  0.195700  0.934600  0.851900  1.0  0.1067
  C  C103  1  0.012000  0.413200  0.655300  1.0  0.1373
  C  C104  1  0.015000  0.359800  0.794300  1.0  0.6452
  C  C105  1  0.479000  0.431100  0.670300  1.0  0.6716
  C  C106  1  0.986000  0.442800  0.615200  1.0  0.1202
  C  C107  1  0.189300  0.359500  0.814700  1.0  0.0947
  C  C108  1  0.213000  0.349500  0.857400  1.0  0.1714
  C  C109  1  0.507000  0.357600  0.847900  1.0  0.1624
  C  C110  1  0.487000  0.367000  0.806100  1.0  0.1115
  C  C111  1  0.280100  0.467000  0.608900  1.0  0.1555
  C  C112  1  0.304300  0.434600  0.648100  1.0  0.1073
  C  C113  1  0.488000  0.413200  0.155300  1.0  0.1361
  C  C114  1  0.485000  0.359800  0.294300  1.0  0.6467
  C  C115  1  0.021000  0.431100  0.170300  1.0  0.6715
  C  C116  1  0.514000  0.442800  0.115200  1.0  0.1194
  C  C117  1  0.310700  0.359500  0.314700  1.0  0.0939
  C  C118  1  0.287000  0.349500  0.357400  1.0  0.1712
  C  C119  1  0.993000  0.357600  0.347900  1.0  0.1623
  C  C120  1  0.013000  0.367000  0.306100  1.0  0.1112
  C  C121  1  0.219900  0.467000  0.108900  1.0  0.1568
  C  C122  1  0.195700  0.434600  0.148100  1.0  0.1066
  C  C123  1  0.012000  0.913200  0.344700  1.0  0.1355
  C  C124  1  0.015000  0.859800  0.205700  1.0  0.6454
  C  C125  1  0.479000  0.931100  0.329700  1.0  0.671
  C  C126  1  0.986000  0.942800  0.384800  1.0  0.1208
  C  C127  1  0.189300  0.859500  0.185300  1.0  0.0946
  C  C128  1  0.213000  0.849500  0.142600  1.0  0.1708
  C  C129  1  0.507000  0.857600  0.152100  1.0  0.1615
  C  C130  1  0.487000  0.867000  0.193900  1.0  0.1117
  C  C131  1  0.280100  0.967000  0.391100  1.0  0.1549
  C  C132  1  0.304300  0.934600  0.351900  1.0  0.1071
  C  C133  1  0.512000  0.086800  0.155300  1.0  0.1372
  C  C134  1  0.515000  0.140200  0.294300  1.0  0.6454
  C  C135  1  0.979000  0.068900  0.170300  1.0  0.6715
  C  C136  1  0.486000  0.057200  0.115200  1.0  0.1194
  C  C137  1  0.689300  0.140500  0.314700  1.0  0.0946
  C  C138  1  0.713000  0.150500  0.357400  1.0  0.1714
  C  C139  1  0.007000  0.142400  0.347900  1.0  0.1626
  C  C140  1  0.987000  0.133000  0.306100  1.0  0.1114
  C  C141  1  0.780100  0.033000  0.108900  1.0  0.1554
  C  C142  1  0.804300  0.065400  0.148100  1.0  0.1068
  C  C143  1  0.988000  0.586800  0.344700  1.0  0.1362
  C  C144  1  0.985000  0.640200  0.205700  1.0  0.6477
  C  C145  1  0.521000  0.568900  0.329700  1.0  0.6705
  C  C146  1  0.014000  0.557200  0.384800  1.0  0.1208
  C  C147  1  0.810700  0.640500  0.185300  1.0  0.0936
  C  C148  1  0.787000  0.650500  0.142600  1.0  0.171
  C  C149  1  0.493000  0.642400  0.152100  1.0  0.162
  C  C150  1  0.513000  0.633000  0.193900  1.0  0.1112
  C  C151  1  0.719900  0.533000  0.391100  1.0  0.154
  C  C152  1  0.695700  0.565400  0.351900  1.0  0.1077
  I  I153  1  0.737810  0.550350  0.523290  1.0  -0.2653
  I  I154  1  0.744380  0.820960  0.547770  1.0  -0.2813
  I  I155  1  0.762190  0.050350  0.976710  1.0  -0.2639
  I  I156  1  0.755620  0.320960  0.952230  1.0  -0.2812
  I  I157  1  0.262190  0.949650  0.523290  1.0  -0.2647
  I  I158  1  0.255620  0.679040  0.547770  1.0  -0.2816
  I  I159  1  0.237810  0.449650  0.976710  1.0  -0.2652
  I  I160  1  0.244380  0.179040  0.952230  1.0  -0.2827
  I  I161  1  0.262190  0.449650  0.476710  1.0  -0.2641
  I  I162  1  0.255620  0.179040  0.452230  1.0  -0.281
  I  I163  1  0.237810  0.949650  0.023290  1.0  -0.2656
  I  I164  1  0.244380  0.679040  0.047770  1.0  -0.2817
  I  I165  1  0.737810  0.050350  0.476710  1.0  -0.2652
  I  I166  1  0.744380  0.320960  0.452230  1.0  -0.2828
  I  I167  1  0.762190  0.550350  0.023290  1.0  -0.2643
  I  I168  1  0.755620  0.820960  0.047770  1.0  -0.2813
  N  N169  1  0.670500  0.588200  0.827600  1.0  -0.3054
  N  N170  1  0.828200  0.632500  0.711000  1.0  -0.2985
  N  N171  1  0.621500  0.531900  0.908600  1.0  -0.3013
  N  N172  1  0.873300  0.653400  0.625600  1.0  -0.3453
  N  N173  1  0.829500  0.088200  0.672400  1.0  -0.3036
  N  N174  1  0.671800  0.132500  0.789000  1.0  -0.2997
  N  N175  1  0.878500  0.031900  0.591400  1.0  -0.3032
  N  N176  1  0.626700  0.153400  0.874400  1.0  -0.3483
  N  N177  1  0.329500  0.911800  0.827600  1.0  -0.302
  N  N178  1  0.171800  0.867500  0.711000  1.0  -0.2986
  N  N179  1  0.378500  0.968100  0.908600  1.0  -0.3015
  N  N180  1  0.126700  0.846600  0.625600  1.0  -0.3467
  N  N181  1  0.170500  0.411800  0.672400  1.0  -0.3045
  N  N182  1  0.328200  0.367500  0.789000  1.0  -0.2997
  N  N183  1  0.121500  0.468100  0.591400  1.0  -0.3034
  N  N184  1  0.373300  0.346600  0.874400  1.0  -0.3496
  N  N185  1  0.329500  0.411800  0.172400  1.0  -0.3041
  N  N186  1  0.171800  0.367500  0.289000  1.0  -0.2994
  N  N187  1  0.378500  0.468100  0.091400  1.0  -0.3021
  N  N188  1  0.126700  0.346600  0.374400  1.0  -0.3475
  N  N189  1  0.170500  0.911800  0.327600  1.0  -0.302
  N  N190  1  0.328200  0.867500  0.211000  1.0  -0.2986
  N  N191  1  0.121500  0.968100  0.408600  1.0  -0.3022
  N  N192  1  0.373300  0.846600  0.125600  1.0  -0.3469
  N  N193  1  0.670500  0.088200  0.172400  1.0  -0.3038
  N  N194  1  0.828200  0.132500  0.289000  1.0  -0.3001
  N  N195  1  0.621500  0.031900  0.091400  1.0  -0.3039
  N  N196  1  0.873300  0.153400  0.374400  1.0  -0.3504
  N  N197  1  0.829500  0.588200  0.327600  1.0  -0.3057
  N  N198  1  0.671800  0.632500  0.211000  1.0  -0.2985
  N  N199  1  0.878500  0.531900  0.408600  1.0  -0.3011
  N  N200  1  0.626700  0.653400  0.125600  1.0  -0.3453
  O  O201  1  0.977700  0.601200  0.793000  1.0  -0.5841
  O  O202  1  0.516000  0.633700  0.745900  1.0  -0.5679
  O  O203  1  0.111000  0.546200  0.848900  1.0  -0.5754
  O  O204  1  0.381500  0.646400  0.684400  1.0  -0.5408
  O  O205  1  0.522300  0.101200  0.707000  1.0  -0.5832
  O  O206  1  0.984000  0.133700  0.754100  1.0  -0.5679
  O  O207  1  0.389000  0.046200  0.651100  1.0  -0.5759
  O  O208  1  0.118500  0.146400  0.815600  1.0  -0.5432
  O  O209  1  0.022300  0.898800  0.793000  1.0  -0.5851
  O  O210  1  0.484000  0.866300  0.745900  1.0  -0.5673
  O  O211  1  0.889000  0.953800  0.848900  1.0  -0.5738
  O  O212  1  0.618500  0.853600  0.684400  1.0  -0.5424
  O  O213  1  0.477700  0.398800  0.707000  1.0  -0.5817
  O  O214  1  0.016000  0.366300  0.754100  1.0  -0.5675
  O  O215  1  0.611000  0.453800  0.651100  1.0  -0.5743
  O  O216  1  0.881500  0.353600  0.815600  1.0  -0.5418
  O  O217  1  0.022300  0.398800  0.207000  1.0  -0.5828
  O  O218  1  0.484000  0.366300  0.254100  1.0  -0.5672
  O  O219  1  0.889000  0.453800  0.151100  1.0  -0.5743
  O  O220  1  0.618500  0.353600  0.315600  1.0  -0.5433
  O  O221  1  0.477700  0.898800  0.293000  1.0  -0.5841
  O  O222  1  0.016000  0.866300  0.245900  1.0  -0.5675
  O  O223  1  0.611000  0.953800  0.348900  1.0  -0.5739
  O  O224  1  0.881500  0.853600  0.184400  1.0  -0.5409
  O  O225  1  0.977700  0.101200  0.207000  1.0  -0.5816
  O  O226  1  0.516000  0.133700  0.254100  1.0  -0.5681
  O  O227  1  0.111000  0.046200  0.151100  1.0  -0.5757
  O  O228  1  0.381500  0.146400  0.315600  1.0  -0.5417
  O  O229  1  0.522300  0.601200  0.293000  1.0  -0.5854
  O  O230  1  0.984000  0.633700  0.245900  1.0  -0.5677
  O  O231  1  0.389000  0.546200  0.348900  1.0  -0.5755
  O  O232  1  0.118500  0.646400  0.184400  1.0  -0.5423
