# generated using pymatgen
data_CoH4(C3O2)3
_symmetry_space_group_name_H-M   'P 1'
_cell_length_a   7.90300000
_cell_length_b   10.53790000
_cell_length_c   32.85800000
_cell_angle_alpha   90.00000000
_cell_angle_beta   90.00000000
_cell_angle_gamma   99.60700000
_symmetry_Int_Tables_number   1
_chemical_formula_structural   CoH4(C3O2)3
_chemical_formula_sum   'Co8 H32 C72 O48'
_cell_volume   2698.07098782
_cell_formula_units_Z   8
loop_
 _symmetry_equiv_pos_site_id
 _symmetry_equiv_pos_as_xyz
  1  'x, y, z'
loop_
 _atom_site_type_symbol
 _atom_site_label
 _atom_site_symmetry_multiplicity
 _atom_site_fract_x
 _atom_site_fract_y
 _atom_site_fract_z
 _atom_site_occupancy
 _atom_site_charge
  Co  Co1  1  0.053260  0.480490  0.250180  1.0  1.036
  Co  Co2  1  0.446740  0.519510  0.750180  1.0  1.0359
  Co  Co3  1  0.946740  0.519510  0.749820  1.0  1.0362
  Co  Co4  1  0.553260  0.480490  0.249820  1.0  1.0363
  Co  Co5  1  0.500000  0.500000  0.500000  1.0  1.0285
  Co  Co6  1  0.000000  0.500000  0.000000  1.0  1.0285
  Co  Co7  1  0.000000  0.500000  0.500000  1.0  1.0338
  Co  Co8  1  0.500000  0.500000  0.000000  1.0  1.0338
  H  H9  1  0.913800  0.069900  0.238400  1.0  0.1205
  H  H10  1  0.743500  0.870000  0.238900  1.0  0.1163
  H  H11  1  0.638900  0.916400  0.510500  1.0  0.1157
  H  H12  1  0.803700  0.118800  0.510000  1.0  0.113
  H  H13  1  0.828500  0.545300  0.205900  1.0  0.4439
  H  H14  1  0.773700  0.410600  0.208700  1.0  0.4247
  H  H15  1  0.231500  0.437600  0.456900  1.0  0.4496
  H  H16  1  0.280800  0.572800  0.457000  1.0  0.4364
  H  H17  1  0.586200  0.930100  0.738400  1.0  0.1205
  H  H18  1  0.756500  0.130000  0.738900  1.0  0.1162
  H  H19  1  0.861100  0.083600  0.010500  1.0  0.1153
  H  H20  1  0.696300  0.881200  0.010000  1.0  0.1135
  H  H21  1  0.671500  0.454700  0.705900  1.0  0.4433
  H  H22  1  0.726300  0.589400  0.708700  1.0  0.4245
  H  H23  1  0.268500  0.562400  0.956900  1.0  0.4485
  H  H24  1  0.219200  0.427200  0.957000  1.0  0.4356
  H  H25  1  0.086200  0.930100  0.761600  1.0  0.1204
  H  H26  1  0.256500  0.130000  0.761100  1.0  0.1158
  H  H27  1  0.361100  0.083600  0.489500  1.0  0.1158
  H  H28  1  0.196300  0.881200  0.490000  1.0  0.1131
  H  H29  1  0.171500  0.454700  0.794100  1.0  0.4419
  H  H30  1  0.226300  0.589400  0.791300  1.0  0.4235
  H  H31  1  0.768500  0.562400  0.543100  1.0  0.448
  H  H32  1  0.719200  0.427200  0.543000  1.0  0.4359
  H  H33  1  0.413800  0.069900  0.261600  1.0  0.12
  H  H34  1  0.243500  0.870000  0.261100  1.0  0.1162
  H  H35  1  0.138900  0.916400  0.989500  1.0  0.1158
  H  H36  1  0.303700  0.118800  0.990000  1.0  0.1129
  H  H37  1  0.328500  0.545300  0.294100  1.0  0.4417
  H  H38  1  0.273700  0.410600  0.291300  1.0  0.4249
  H  H39  1  0.731500  0.437600  0.043100  1.0  0.4487
  H  H40  1  0.780800  0.572800  0.043000  1.0  0.4364
  C  C41  1  0.907600  0.102800  0.298940  1.0  -0.0361
  C  C42  1  0.870400  0.034300  0.262910  1.0  -0.0769
  C  C43  1  0.769400  0.913800  0.263330  1.0  -0.0602
  C  C44  1  0.705800  0.857000  0.299710  1.0  -0.0469
  C  C45  1  0.746700  0.923300  0.336280  1.0  -0.0551
  C  C46  1  0.701400  0.858600  0.375670  1.0  0.3837
  C  C47  1  0.718700  0.936300  0.413660  1.0  -0.0697
  C  C48  1  0.651500  0.881500  0.450180  1.0  -0.0436
  C  C49  1  0.683800  0.951700  0.486030  1.0  -0.0643
  C  C50  1  0.782100  0.073700  0.485700  1.0  -0.0744
  C  C51  1  0.848600  0.129100  0.449570  1.0  -0.0402
  C  C52  1  0.814300  0.061400  0.413130  1.0  -0.0723
  C  C53  1  0.870700  0.125000  0.373840  1.0  0.391
  C  C54  1  0.844400  0.048000  0.335770  1.0  -0.0769
  C  C55  1  0.019600  0.233900  0.296000  1.0  0.6793
  C  C56  1  0.590700  0.727000  0.297420  1.0  0.685
  C  C57  1  0.541200  0.750300  0.453190  1.0  0.6795
  C  C58  1  0.964200  0.258200  0.452910  1.0  0.6835
  C  C59  1  0.592400  0.897200  0.798940  1.0  -0.0355
  C  C60  1  0.629600  0.965700  0.762910  1.0  -0.0767
  C  C61  1  0.730600  0.086200  0.763330  1.0  -0.0596
  C  C62  1  0.794200  0.143000  0.799710  1.0  -0.0469
  C  C63  1  0.753300  0.076700  0.836280  1.0  -0.0555
  C  C64  1  0.798600  0.141400  0.875670  1.0  0.382
  C  C65  1  0.781300  0.063700  0.913660  1.0  -0.0695
  C  C66  1  0.848500  0.118500  0.950180  1.0  -0.0434
  C  C67  1  0.816200  0.048300  0.986030  1.0  -0.0641
  C  C68  1  0.717900  0.926300  0.985700  1.0  -0.0747
  C  C69  1  0.651400  0.870900  0.949570  1.0  -0.0405
  C  C70  1  0.685700  0.938600  0.913130  1.0  -0.0725
  C  C71  1  0.629300  0.875000  0.873840  1.0  0.394
  C  C72  1  0.655600  0.952000  0.835770  1.0  -0.0763
  C  C73  1  0.480400  0.766100  0.796000  1.0  0.6785
  C  C74  1  0.909300  0.273000  0.797420  1.0  0.6847
  C  C75  1  0.958800  0.249700  0.953190  1.0  0.6798
  C  C76  1  0.535800  0.741800  0.952910  1.0  0.6835
  C  C77  1  0.092400  0.897200  0.701060  1.0  -0.0359
  C  C78  1  0.129600  0.965700  0.737090  1.0  -0.076
  C  C79  1  0.230600  0.086200  0.736670  1.0  -0.0587
  C  C80  1  0.294200  0.143000  0.700290  1.0  -0.0475
  C  C81  1  0.253300  0.076700  0.663720  1.0  -0.0572
  C  C82  1  0.298600  0.141400  0.624330  1.0  0.3826
  C  C83  1  0.281300  0.063700  0.586340  1.0  -0.0681
  C  C84  1  0.348500  0.118500  0.549820  1.0  -0.0428
  C  C85  1  0.316200  0.048300  0.513970  1.0  -0.0658
  C  C86  1  0.217900  0.926300  0.514300  1.0  -0.0755
  C  C87  1  0.151400  0.870900  0.550430  1.0  -0.0397
  C  C88  1  0.185700  0.938600  0.586870  1.0  -0.0716
  C  C89  1  0.129300  0.875000  0.626160  1.0  0.3937
  C  C90  1  0.155600  0.952000  0.664230  1.0  -0.0776
  C  C91  1  0.980400  0.766100  0.704000  1.0  0.6788
  C  C92  1  0.409300  0.273000  0.702580  1.0  0.6851
  C  C93  1  0.458800  0.249700  0.546810  1.0  0.6795
  C  C94  1  0.035800  0.741800  0.547090  1.0  0.6829
  C  C95  1  0.407600  0.102800  0.201060  1.0  -0.0364
  C  C96  1  0.370400  0.034300  0.237090  1.0  -0.0753
  C  C97  1  0.269400  0.913800  0.236670  1.0  -0.0588
  C  C98  1  0.205800  0.857000  0.200290  1.0  -0.0476
  C  C99  1  0.246700  0.923300  0.163720  1.0  -0.057
  C  C100  1  0.201400  0.858600  0.124330  1.0  0.3844
  C  C101  1  0.218700  0.936300  0.086340  1.0  -0.0682
  C  C102  1  0.151500  0.881500  0.049820  1.0  -0.0428
  C  C103  1  0.183800  0.951700  0.013970  1.0  -0.0661
  C  C104  1  0.282100  0.073700  0.014300  1.0  -0.0751
  C  C105  1  0.348600  0.129100  0.050430  1.0  -0.0396
  C  C106  1  0.314300  0.061400  0.086870  1.0  -0.0717
  C  C107  1  0.370700  0.125000  0.126160  1.0  0.3908
  C  C108  1  0.344400  0.048000  0.164230  1.0  -0.0781
  C  C109  1  0.519600  0.233900  0.204000  1.0  0.6796
  C  C110  1  0.090700  0.727000  0.202580  1.0  0.6856
  C  C111  1  0.041200  0.750300  0.046810  1.0  0.6791
  C  C112  1  0.464200  0.258200  0.047090  1.0  0.6832
  O  O113  1  0.660000  0.741600  0.377710  1.0  -0.372
  O  O114  1  0.928800  0.239100  0.372540  1.0  -0.3624
  O  O115  1  0.944000  0.322400  0.281960  1.0  -0.6242
  O  O116  1  0.173800  0.246400  0.304510  1.0  -0.5551
  O  O117  1  0.662600  0.637900  0.282550  1.0  -0.6283
  O  O118  1  0.437200  0.715200  0.306660  1.0  -0.5505
  O  O119  1  0.390800  0.734600  0.440590  1.0  -0.5567
  O  O120  1  0.611100  0.666100  0.471790  1.0  -0.6264
  O  O121  1  0.119900  0.265800  0.448470  1.0  -0.5415
  O  O122  1  0.890500  0.351800  0.464050  1.0  -0.6217
  O  O123  1  0.803700  0.480800  0.221580  1.0  -0.8126
  O  O124  1  0.252400  0.505400  0.471350  1.0  -0.8218
  O  O125  1  0.840000  0.258400  0.877710  1.0  -0.3731
  O  O126  1  0.571200  0.760900  0.872540  1.0  -0.359
  O  O127  1  0.556000  0.677600  0.781960  1.0  -0.6237
  O  O128  1  0.326200  0.753600  0.804510  1.0  -0.5548
  O  O129  1  0.837400  0.362100  0.782550  1.0  -0.6278
  O  O130  1  0.062800  0.284800  0.806660  1.0  -0.5508
  O  O131  1  0.109200  0.265400  0.940590  1.0  -0.5579
  O  O132  1  0.888900  0.333900  0.971790  1.0  -0.6263
  O  O133  1  0.380100  0.734200  0.948470  1.0  -0.541
  O  O134  1  0.609500  0.648200  0.964050  1.0  -0.6209
  O  O135  1  0.696300  0.519200  0.721580  1.0  -0.8134
  O  O136  1  0.247600  0.494600  0.971350  1.0  -0.8217
  O  O137  1  0.340000  0.258400  0.622290  1.0  -0.373
  O  O138  1  0.071200  0.760900  0.627460  1.0  -0.3591
  O  O139  1  0.056000  0.677600  0.718040  1.0  -0.6221
  O  O140  1  0.826200  0.753600  0.695490  1.0  -0.5543
  O  O141  1  0.337400  0.362100  0.717450  1.0  -0.6278
  O  O142  1  0.562800  0.284800  0.693340  1.0  -0.5514
  O  O143  1  0.609200  0.265400  0.559410  1.0  -0.5576
  O  O144  1  0.388900  0.333900  0.528210  1.0  -0.6262
  O  O145  1  0.880100  0.734200  0.551530  1.0  -0.5412
  O  O146  1  0.109500  0.648200  0.535950  1.0  -0.6206
  O  O147  1  0.196300  0.519200  0.778420  1.0  -0.8117
  O  O148  1  0.747600  0.494600  0.528650  1.0  -0.8227
  O  O149  1  0.160000  0.741600  0.122290  1.0  -0.3715
  O  O150  1  0.428800  0.239100  0.127460  1.0  -0.3626
  O  O151  1  0.444000  0.322400  0.218040  1.0  -0.6225
  O  O152  1  0.673800  0.246400  0.195490  1.0  -0.5557
  O  O153  1  0.162600  0.637900  0.217450  1.0  -0.628
  O  O154  1  0.937200  0.715200  0.193340  1.0  -0.55
  O  O155  1  0.890800  0.734600  0.059410  1.0  -0.5574
  O  O156  1  0.111100  0.666100  0.028210  1.0  -0.6264
  O  O157  1  0.619900  0.265800  0.051530  1.0  -0.5409
  O  O158  1  0.390500  0.351800  0.035950  1.0  -0.6213
  O  O159  1  0.303700  0.480800  0.278420  1.0  -0.8119
  O  O160  1  0.752400  0.505400  0.028650  1.0  -0.8224
