# generated using pymatgen
data_Mn2H23C27(N2O3)2
_symmetry_space_group_name_H-M   'P 1'
_cell_length_a   10.12730000
_cell_length_b   15.38530000
_cell_length_c   27.65490000
_cell_angle_alpha   90.00000000
_cell_angle_beta   92.72200000
_cell_angle_gamma   90.00000000
_symmetry_Int_Tables_number   1
_chemical_formula_structural   Mn2H23C27(N2O3)2
_chemical_formula_sum   'Mn8 H92 C108 N16 O24'
_cell_volume   4304.09106567
_cell_formula_units_Z   4
loop_
 _symmetry_equiv_pos_site_id
 _symmetry_equiv_pos_as_xyz
  1  'x, y, z'
loop_
 _atom_site_type_symbol
 _atom_site_label
 _atom_site_symmetry_multiplicity
 _atom_site_fract_x
 _atom_site_fract_y
 _atom_site_fract_z
 _atom_site_occupancy
 _atom_site_charge
  Mn  Mn1  1  0.398290  0.189290  0.246940  1.0  1.0135
  Mn  Mn2  1  0.966410  0.011920  0.249400  1.0  1.0118
  Mn  Mn3  1  0.601710  0.689290  0.253060  1.0  1.0131
  Mn  Mn4  1  0.033590  0.511920  0.250600  1.0  1.0116
  Mn  Mn5  1  0.601710  0.810710  0.753060  1.0  1.0126
  Mn  Mn6  1  0.033590  0.988080  0.750600  1.0  1.0122
  Mn  Mn7  1  0.398290  0.310710  0.746940  1.0  1.0132
  Mn  Mn8  1  0.966410  0.488080  0.749410  1.0  1.0184
  H  H9  1  0.347100  0.977800  0.253000  1.0  -0.0018
  H  H10  1  0.260800  0.376200  0.249400  1.0  -0.0043
  H  H11  1  0.594300  0.025400  0.240900  1.0  0.1429
  H  H12  1  0.211600  0.187300  0.337100  1.0  0.0569
  H  H13  1  0.593500  0.190600  0.341200  1.0  0.0633
  H  H14  1  0.209500  0.211800  0.418400  1.0  0.1039
  H  H15  1  0.603900  0.216200  0.422100  1.0  0.1116
  H  H16  1  0.505000  0.237500  0.496900  1.0  0.0826
  H  H17  1  0.243400  0.257300  0.497900  1.0  0.0786
  H  H18  1  0.157100  0.278300  0.577800  1.0  0.1134
  H  H19  1  0.548200  0.287900  0.568700  1.0  0.1066
  H  H20  1  0.185800  0.298600  0.659000  1.0  0.0631
  H  H21  1  0.566100  0.312700  0.650700  1.0  0.0751
  H  H22  1  0.918400  0.140300  0.337000  1.0  0.0601
  H  H23  1  0.038800  0.901600  0.341600  1.0  0.0704
  H  H24  1  0.929700  0.150000  0.419300  1.0  0.1157
  H  H25  1  0.050800  0.902300  0.423800  1.0  0.1081
  H  H26  1  0.995600  0.087600  0.498800  1.0  0.0774
  H  H27  1  0.006400  0.912100  0.004100  1.0  0.0856
  H  H28  1  0.023200  0.853400  0.086700  1.0  0.1057
  H  H29  1  0.937700  0.105000  0.070300  1.0  0.1069
  H  H30  1  0.009300  0.870800  0.167500  1.0  0.0645
  H  H31  1  0.921800  0.114600  0.151500  1.0  0.0639
  H  H32  1  0.652900  0.477800  0.247000  1.0  -0.0012
  H  H33  1  0.739200  0.876200  0.250600  1.0  -0.003
  H  H34  1  0.405700  0.525400  0.259100  1.0  0.1424
  H  H35  1  0.788400  0.687300  0.162900  1.0  0.0568
  H  H36  1  0.406500  0.690600  0.158800  1.0  0.0631
  H  H37  1  0.790500  0.711800  0.081600  1.0  0.1042
  H  H38  1  0.396100  0.716200  0.077900  1.0  0.1121
  H  H39  1  0.495000  0.737500  0.003100  1.0  0.0824
  H  H40  1  0.756600  0.757300  0.002100  1.0  0.0777
  H  H41  1  0.842900  0.778300  0.922200  1.0  0.1129
  H  H42  1  0.451800  0.787900  0.931300  1.0  0.1059
  H  H43  1  0.814200  0.798600  0.841000  1.0  0.0631
  H  H44  1  0.433900  0.812700  0.849300  1.0  0.0744
  H  H45  1  0.081600  0.640300  0.163000  1.0  0.0595
  H  H46  1  0.961200  0.401600  0.158400  1.0  0.0706
  H  H47  1  0.070300  0.650000  0.080700  1.0  0.1154
  H  H48  1  0.949200  0.402300  0.076200  1.0  0.1077
  H  H49  1  0.004400  0.587600  0.001200  1.0  0.0777
  H  H50  1  0.993600  0.412100  0.495900  1.0  0.0855
  H  H51  1  0.976800  0.353400  0.413300  1.0  0.1054
  H  H52  1  0.062300  0.605000  0.429700  1.0  0.1068
  H  H53  1  0.990700  0.370800  0.332500  1.0  0.0648
  H  H54  1  0.078200  0.614600  0.348500  1.0  0.0639
  H  H55  1  0.652900  0.022200  0.747000  1.0  -0.0008
  H  H56  1  0.739200  0.623800  0.750600  1.0  -0.003
  H  H57  1  0.405700  0.974600  0.759100  1.0  0.143
  H  H58  1  0.788400  0.812700  0.662900  1.0  0.0567
  H  H59  1  0.406500  0.809400  0.658800  1.0  0.0632
  H  H60  1  0.790500  0.788200  0.581600  1.0  0.1043
  H  H61  1  0.396100  0.783800  0.577900  1.0  0.112
  H  H62  1  0.495000  0.762500  0.503100  1.0  0.0826
  H  H63  1  0.756600  0.742700  0.502100  1.0  0.0779
  H  H64  1  0.842900  0.721700  0.422200  1.0  0.1127
  H  H65  1  0.451800  0.712100  0.431300  1.0  0.1061
  H  H66  1  0.814200  0.701400  0.341000  1.0  0.0634
  H  H67  1  0.433900  0.687300  0.349300  1.0  0.0744
  H  H68  1  0.081600  0.859700  0.663000  1.0  0.0607
  H  H69  1  0.961200  0.098400  0.658400  1.0  0.0706
  H  H70  1  0.070300  0.850000  0.580700  1.0  0.1155
  H  H71  1  0.949200  0.097700  0.576200  1.0  0.1081
  H  H72  1  0.004400  0.912400  0.501200  1.0  0.0771
  H  H73  1  0.993600  0.087900  0.995900  1.0  0.0851
  H  H74  1  0.976800  0.146600  0.913300  1.0  0.1057
  H  H75  1  0.062300  0.895000  0.929700  1.0  0.1066
  H  H76  1  0.990700  0.129200  0.832500  1.0  0.0651
  H  H77  1  0.078200  0.885400  0.848500  1.0  0.0644
  H  H78  1  0.347100  0.522200  0.753000  1.0  -0.0013
  H  H79  1  0.260800  0.123800  0.749400  1.0  -0.0037
  H  H80  1  0.594300  0.474600  0.740900  1.0  0.1434
  H  H81  1  0.211600  0.312700  0.837100  1.0  0.0569
  H  H82  1  0.593500  0.309400  0.841200  1.0  0.0634
  H  H83  1  0.209500  0.288200  0.918400  1.0  0.104
  H  H84  1  0.603900  0.283800  0.922100  1.0  0.1119
  H  H85  1  0.505000  0.262500  0.996900  1.0  0.0829
  H  H86  1  0.243400  0.242700  0.997900  1.0  0.0785
  H  H87  1  0.157100  0.221700  0.077800  1.0  0.1137
  H  H88  1  0.548200  0.212100  0.068700  1.0  0.1066
  H  H89  1  0.185800  0.201400  0.159000  1.0  0.0632
  H  H90  1  0.566100  0.187300  0.150700  1.0  0.0748
  H  H91  1  0.918400  0.359700  0.837000  1.0  0.0615
  H  H92  1  0.038800  0.598400  0.841600  1.0  0.0705
  H  H93  1  0.929700  0.350000  0.919300  1.0  0.1156
  H  H94  1  0.050800  0.597700  0.923800  1.0  0.1078
  H  H95  1  0.995600  0.412400  0.998800  1.0  0.0769
  H  H96  1  0.006400  0.587900  0.504100  1.0  0.0853
  H  H97  1  0.023200  0.646600  0.586700  1.0  0.106
  H  H98  1  0.937700  0.395000  0.570300  1.0  0.1061
  H  H99  1  0.009300  0.629200  0.667500  1.0  0.0645
  H  H100  1  0.921800  0.385400  0.651500  1.0  0.0638
  C  C101  1  0.264600  0.004500  0.250900  1.0  0.7219
  C  C102  1  0.188200  0.339100  0.247480  1.0  0.6915
  C  C103  1  0.651300  0.072300  0.245580  1.0  0.5099
  C  C104  1  0.291900  0.194000  0.354440  1.0  0.1736
  C  C105  1  0.514600  0.196100  0.356780  1.0  0.1653
  C  C106  1  0.289600  0.208500  0.403410  1.0  -0.2181
  C  C107  1  0.521900  0.211000  0.405740  1.0  -0.2434
  C  C108  1  0.408700  0.218100  0.430410  1.0  0.0198
  C  C109  1  0.419800  0.238300  0.482890  1.0  -0.0813
  C  C110  1  0.329700  0.256400  0.511030  1.0  -0.1314
  C  C111  1  0.349700  0.276500  0.563520  1.0  0.0963
  C  C112  1  0.242100  0.283000  0.591800  1.0  -0.2137
  C  C113  1  0.472500  0.289200  0.586450  1.0  -0.218
  C  C114  1  0.260400  0.296300  0.640720  1.0  0.1606
  C  C115  1  0.482500  0.304000  0.636090  1.0  0.1467
  C  C116  1  0.945600  0.091700  0.354800  1.0  0.1534
  C  C117  1  0.015500  0.952100  0.357550  1.0  0.1473
  C  C118  1  0.952200  0.098200  0.404390  1.0  -0.2296
  C  C119  1  0.024100  0.952200  0.407030  1.0  -0.2164
  C  C120  1  0.992800  0.026600  0.432090  1.0  0.1247
  C  C121  1  0.997100  0.032300  0.485320  1.0  -0.1158
  C  C122  1  0.998800  0.968500  0.015870  1.0  -0.1297
  C  C123  1  0.985300  0.978200  0.068030  1.0  0.1072
  C  C124  1  0.004200  0.908000  0.099060  1.0  -0.2161
  C  C125  1  0.953300  0.056000  0.089400  1.0  -0.2287
  C  C126  1  0.994800  0.918900  0.147590  1.0  0.1762
  C  C127  1  0.944300  0.061400  0.138270  1.0  0.149
  C  C128  1  0.735400  0.504500  0.249100  1.0  0.7225
  C  C129  1  0.811800  0.839100  0.252520  1.0  0.6917
  C  C130  1  0.348700  0.572300  0.254420  1.0  0.5072
  C  C131  1  0.708100  0.694000  0.145560  1.0  0.1725
  C  C132  1  0.485400  0.696100  0.143220  1.0  0.1658
  C  C133  1  0.710400  0.708500  0.096590  1.0  -0.2194
  C  C134  1  0.478100  0.711000  0.094260  1.0  -0.2433
  C  C135  1  0.591300  0.718100  0.069590  1.0  0.0199
  C  C136  1  0.580200  0.738300  0.017110  1.0  -0.0817
  C  C137  1  0.670300  0.756400  0.988970  1.0  -0.129
  C  C138  1  0.650300  0.776500  0.936480  1.0  0.0954
  C  C139  1  0.757900  0.783000  0.908200  1.0  -0.213
  C  C140  1  0.527500  0.789200  0.913550  1.0  -0.2205
  C  C141  1  0.739600  0.796300  0.859280  1.0  0.1605
  C  C142  1  0.517500  0.804000  0.863910  1.0  0.1454
  C  C143  1  0.054400  0.591700  0.145200  1.0  0.1527
  C  C144  1  0.984500  0.452100  0.142450  1.0  0.1486
  C  C145  1  0.047800  0.598200  0.095610  1.0  -0.2295
  C  C146  1  0.975900  0.452200  0.092970  1.0  -0.2151
  C  C147  1  0.007200  0.526600  0.067910  1.0  0.1252
  C  C148  1  0.002900  0.532300  0.014680  1.0  -0.1154
  C  C149  1  0.001200  0.468500  0.484130  1.0  -0.1293
  C  C150  1  0.014700  0.478200  0.431970  1.0  0.1075
  C  C151  1  0.995800  0.408000  0.400940  1.0  -0.2167
  C  C152  1  0.046700  0.556000  0.410600  1.0  -0.2298
  C  C153  1  0.005200  0.418900  0.352410  1.0  0.175
  C  C154  1  0.055700  0.561400  0.361730  1.0  0.1497
  C  C155  1  0.735400  0.995500  0.749100  1.0  0.723
  C  C156  1  0.811800  0.660900  0.752520  1.0  0.6916
  C  C157  1  0.348700  0.927700  0.754420  1.0  0.5075
  C  C158  1  0.708100  0.806000  0.645560  1.0  0.1727
  C  C159  1  0.485400  0.803900  0.643220  1.0  0.1658
  C  C160  1  0.710400  0.791500  0.596590  1.0  -0.2196
  C  C161  1  0.478100  0.789000  0.594260  1.0  -0.2436
  C  C162  1  0.591300  0.781900  0.569590  1.0  0.0198
  C  C163  1  0.580200  0.761700  0.517110  1.0  -0.0816
  C  C164  1  0.670300  0.743600  0.488970  1.0  -0.129
  C  C165  1  0.650300  0.723500  0.436480  1.0  0.0954
  C  C166  1  0.757900  0.717000  0.408200  1.0  -0.2122
  C  C167  1  0.527500  0.710800  0.413550  1.0  -0.2205
  C  C168  1  0.739600  0.703700  0.359280  1.0  0.1603
  C  C169  1  0.517500  0.696000  0.363910  1.0  0.1451
  C  C170  1  0.054400  0.908300  0.645200  1.0  0.1532
  C  C171  1  0.984500  0.047900  0.642450  1.0  0.1482
  C  C172  1  0.047800  0.901800  0.595610  1.0  -0.2281
  C  C173  1  0.975900  0.047800  0.592970  1.0  -0.2143
  C  C174  1  0.007200  0.973400  0.567910  1.0  0.1253
  C  C175  1  0.002900  0.967700  0.514680  1.0  -0.1153
  C  C176  1  0.001200  0.031500  0.984130  1.0  -0.1285
  C  C177  1  0.014700  0.021800  0.931970  1.0  0.1078
  C  C178  1  0.995800  0.092000  0.900940  1.0  -0.2173
  C  C179  1  0.046700  0.944000  0.910600  1.0  -0.2274
  C  C180  1  0.005200  0.081100  0.852410  1.0  0.1745
  C  C181  1  0.055700  0.938600  0.861730  1.0  0.1496
  C  C182  1  0.264600  0.495500  0.750900  1.0  0.7228
  C  C183  1  0.188200  0.160900  0.747480  1.0  0.6916
  C  C184  1  0.651300  0.427700  0.745580  1.0  0.509
  C  C185  1  0.291900  0.306000  0.854440  1.0  0.1738
  C  C186  1  0.514600  0.303900  0.856780  1.0  0.1653
  C  C187  1  0.289600  0.291500  0.903410  1.0  -0.2182
  C  C188  1  0.521900  0.289000  0.905740  1.0  -0.2434
  C  C189  1  0.408700  0.281900  0.930410  1.0  0.0197
  C  C190  1  0.419800  0.261700  0.982890  1.0  -0.081
  C  C191  1  0.329700  0.243600  0.011030  1.0  -0.1314
  C  C192  1  0.349700  0.223500  0.063520  1.0  0.0964
  C  C193  1  0.242100  0.217000  0.091800  1.0  -0.2128
  C  C194  1  0.472500  0.210800  0.086450  1.0  -0.2179
  C  C195  1  0.260400  0.203700  0.140720  1.0  0.1604
  C  C196  1  0.482500  0.196000  0.136090  1.0  0.1464
  C  C197  1  0.945600  0.408300  0.854800  1.0  0.1534
  C  C198  1  0.015500  0.547900  0.857550  1.0  0.1486
  C  C199  1  0.952200  0.401800  0.904390  1.0  -0.2282
  C  C200  1  0.024100  0.547800  0.907030  1.0  -0.2156
  C  C201  1  0.992800  0.473400  0.932090  1.0  0.1247
  C  C202  1  0.997100  0.467700  0.985320  1.0  -0.1156
  C  C203  1  0.998800  0.531500  0.515870  1.0  -0.1291
  C  C204  1  0.985300  0.521800  0.568030  1.0  0.1077
  C  C205  1  0.004200  0.592000  0.599060  1.0  -0.2163
  C  C206  1  0.953300  0.444000  0.589400  1.0  -0.227
  C  C207  1  0.994800  0.581100  0.647590  1.0  0.1748
  C  C208  1  0.944300  0.438600  0.638270  1.0  0.15
  N  N209  1  0.402900  0.189150  0.330240  1.0  -0.3381
  N  N210  1  0.379000  0.306300  0.663870  1.0  -0.3469
  N  N211  1  0.975700  0.020300  0.330750  1.0  -0.3353
  N  N212  1  0.966200  0.994450  0.168270  1.0  -0.3471
  N  N213  1  0.597100  0.689150  0.169760  1.0  -0.3372
  N  N214  1  0.621000  0.806300  0.836130  1.0  -0.3453
  N  N215  1  0.024300  0.520300  0.169250  1.0  -0.3346
  N  N216  1  0.033800  0.494450  0.331730  1.0  -0.3452
  N  N217  1  0.597100  0.810850  0.669760  1.0  -0.3374
  N  N218  1  0.621000  0.693700  0.336130  1.0  -0.3463
  N  N219  1  0.024300  0.979700  0.669250  1.0  -0.3345
  N  N220  1  0.033800  0.005550  0.831730  1.0  -0.3459
  N  N221  1  0.402900  0.310850  0.830240  1.0  -0.3374
  N  N222  1  0.379000  0.193700  0.163870  1.0  -0.347
  N  N223  1  0.975700  0.479700  0.830750  1.0  -0.3352
  N  N224  1  0.966200  0.505550  0.668270  1.0  -0.3466
  O  O225  1  0.167200  0.956220  0.252810  1.0  -0.6261
  O  O226  1  0.263600  0.083000  0.246640  1.0  -0.645
  O  O227  1  0.080700  0.374370  0.244860  1.0  -0.6238
  O  O228  1  0.214100  0.260240  0.247900  1.0  -0.6192
  O  O229  1  0.586600  0.131800  0.247010  1.0  -0.6474
  O  O230  1  0.758500  0.043280  0.247390  1.0  -0.6544
  O  O231  1  0.832800  0.456220  0.247190  1.0  -0.6238
  O  O232  1  0.736400  0.583000  0.253360  1.0  -0.6455
  O  O233  1  0.919300  0.874370  0.255140  1.0  -0.6248
  O  O234  1  0.785900  0.760240  0.252100  1.0  -0.6196
  O  O235  1  0.413400  0.631800  0.252990  1.0  -0.6479
  O  O236  1  0.241500  0.543280  0.252610  1.0  -0.6526
  O  O237  1  0.832800  0.043780  0.747190  1.0  -0.6249
  O  O238  1  0.736400  0.917000  0.753360  1.0  -0.6455
  O  O239  1  0.919300  0.625630  0.755140  1.0  -0.6247
  O  O240  1  0.785900  0.739760  0.752100  1.0  -0.6195
  O  O241  1  0.413400  0.868200  0.752990  1.0  -0.6452
  O  O242  1  0.241500  0.956720  0.752610  1.0  -0.6524
  O  O243  1  0.167200  0.543780  0.752810  1.0  -0.626
  O  O244  1  0.263600  0.417000  0.746640  1.0  -0.645
  O  O245  1  0.080700  0.125630  0.744860  1.0  -0.6235
  O  O246  1  0.214100  0.239760  0.747900  1.0  -0.6192
  O  O247  1  0.586600  0.368200  0.747010  1.0  -0.6466
  O  O248  1  0.758500  0.456720  0.747390  1.0  -0.6544
