# generated using pymatgen
data_MnH5C9N7
_symmetry_space_group_name_H-M   'P 1'
_cell_length_a   12.94600000
_cell_length_b   23.74600000
_cell_length_c   15.95700000
_cell_angle_alpha   90.00000000
_cell_angle_beta   90.00000000
_cell_angle_gamma   90.00000000
_symmetry_Int_Tables_number   1
_chemical_formula_structural   MnH5C9N7
_chemical_formula_sum   'Mn16 H80 C144 N112'
_cell_volume   4905.43258021
_cell_formula_units_Z   16
loop_
 _symmetry_equiv_pos_site_id
 _symmetry_equiv_pos_as_xyz
  1  'x, y, z'
loop_
 _atom_site_type_symbol
 _atom_site_label
 _atom_site_symmetry_multiplicity
 _atom_site_fract_x
 _atom_site_fract_y
 _atom_site_fract_z
 _atom_site_occupancy
 _atom_site_charge
  Mn  Mn1  1  0.787700  0.477170  0.886830  1.0  0.8583
  Mn  Mn2  1  0.893830  0.730950  0.009400  1.0  0.8333
  Mn  Mn3  1  0.712300  0.022830  0.386830  1.0  0.8588
  Mn  Mn4  1  0.606170  0.769050  0.509400  1.0  0.8344
  Mn  Mn5  1  0.787700  0.522830  0.613170  1.0  0.8582
  Mn  Mn6  1  0.893830  0.269050  0.490600  1.0  0.8337
  Mn  Mn7  1  0.712300  0.977170  0.113170  1.0  0.857
  Mn  Mn8  1  0.606170  0.230950  0.990600  1.0  0.8358
  Mn  Mn9  1  0.212300  0.522830  0.113170  1.0  0.858
  Mn  Mn10  1  0.106170  0.269050  0.990600  1.0  0.8354
  Mn  Mn11  1  0.287700  0.977170  0.613170  1.0  0.8575
  Mn  Mn12  1  0.393830  0.230950  0.490600  1.0  0.834
  Mn  Mn13  1  0.212300  0.477170  0.386830  1.0  0.8583
  Mn  Mn14  1  0.106170  0.730950  0.509400  1.0  0.8348
  Mn  Mn15  1  0.287700  0.022830  0.886830  1.0  0.8585
  Mn  Mn16  1  0.393830  0.769050  0.009400  1.0  0.8329
  H  H17  1  0.884800  0.200800  0.004600  1.0  0.0767
  H  H18  1  0.393300  0.446400  0.911600  1.0  0.1156
  H  H19  1  0.333800  0.534400  0.870500  1.0  0.1023
  H  H20  1  0.451700  0.601800  0.826900  1.0  0.1278
  H  H21  1  0.624500  0.580700  0.828900  1.0  0.0781
  H  H22  1  0.876600  0.646700  0.679800  1.0  0.0591
  H  H23  1  0.810400  0.579600  0.230700  1.0  0.1237
  H  H24  1  0.827300  0.632000  0.351900  1.0  0.1062
  H  H25  1  0.869200  0.726100  0.342300  1.0  0.109
  H  H26  1  0.898000  0.765000  0.213600  1.0  0.0815
  H  H27  1  0.615200  0.299200  0.504600  1.0  0.0761
  H  H28  1  0.106700  0.053600  0.411600  1.0  0.1158
  H  H29  1  0.166200  0.965600  0.370500  1.0  0.103
  H  H30  1  0.048300  0.898200  0.326900  1.0  0.1272
  H  H31  1  0.875500  0.919300  0.328900  1.0  0.079
  H  H32  1  0.623400  0.853300  0.179800  1.0  0.0591
  H  H33  1  0.689600  0.920400  0.730700  1.0  0.1235
  H  H34  1  0.672700  0.868000  0.851900  1.0  0.1061
  H  H35  1  0.630800  0.773900  0.842300  1.0  0.1091
  H  H36  1  0.602000  0.735000  0.713600  1.0  0.0827
  H  H37  1  0.884800  0.799200  0.495400  1.0  0.0762
  H  H38  1  0.393300  0.553600  0.588400  1.0  0.1158
  H  H39  1  0.333800  0.465600  0.629500  1.0  0.1023
  H  H40  1  0.451700  0.398200  0.673100  1.0  0.1274
  H  H41  1  0.624500  0.419300  0.671100  1.0  0.0787
  H  H42  1  0.876600  0.353300  0.820200  1.0  0.0605
  H  H43  1  0.810400  0.420400  0.269300  1.0  0.1235
  H  H44  1  0.827300  0.368000  0.148100  1.0  0.1063
  H  H45  1  0.869200  0.273900  0.157700  1.0  0.1107
  H  H46  1  0.898000  0.235000  0.286400  1.0  0.0807
  H  H47  1  0.615200  0.700800  0.995400  1.0  0.0763
  H  H48  1  0.106700  0.946400  0.088400  1.0  0.1161
  H  H49  1  0.166200  0.034400  0.129500  1.0  0.1035
  H  H50  1  0.048300  0.101800  0.173100  1.0  0.1279
  H  H51  1  0.875500  0.080700  0.171100  1.0  0.0785
  H  H52  1  0.623400  0.146700  0.320200  1.0  0.0596
  H  H53  1  0.689600  0.079600  0.769300  1.0  0.1238
  H  H54  1  0.672700  0.132000  0.648100  1.0  0.1065
  H  H55  1  0.630800  0.226100  0.657700  1.0  0.1109
  H  H56  1  0.602000  0.265000  0.786400  1.0  0.08
  H  H57  1  0.115200  0.799200  0.995400  1.0  0.076
  H  H58  1  0.606700  0.553600  0.088400  1.0  0.116
  H  H59  1  0.666200  0.465600  0.129500  1.0  0.1032
  H  H60  1  0.548300  0.398200  0.173100  1.0  0.1274
  H  H61  1  0.375500  0.419300  0.171100  1.0  0.0792
  H  H62  1  0.123400  0.353300  0.320200  1.0  0.0601
  H  H63  1  0.189600  0.420400  0.769300  1.0  0.1236
  H  H64  1  0.172700  0.368000  0.648100  1.0  0.1064
  H  H65  1  0.130800  0.273900  0.657700  1.0  0.1108
  H  H66  1  0.102000  0.235000  0.786400  1.0  0.0807
  H  H67  1  0.384800  0.700800  0.495400  1.0  0.0765
  H  H68  1  0.893300  0.946400  0.588400  1.0  0.1158
  H  H69  1  0.833800  0.034400  0.629500  1.0  0.1026
  H  H70  1  0.951700  0.101800  0.673100  1.0  0.1281
  H  H71  1  0.124500  0.080700  0.671100  1.0  0.0781
  H  H72  1  0.376600  0.146700  0.820200  1.0  0.0601
  H  H73  1  0.310400  0.079600  0.269300  1.0  0.1236
  H  H74  1  0.327300  0.132000  0.148100  1.0  0.1064
  H  H75  1  0.369200  0.226100  0.157700  1.0  0.1107
  H  H76  1  0.398000  0.265000  0.286400  1.0  0.08
  H  H77  1  0.115200  0.200800  0.504600  1.0  0.0765
  H  H78  1  0.606700  0.446400  0.411600  1.0  0.116
  H  H79  1  0.666200  0.534400  0.370500  1.0  0.1037
  H  H80  1  0.548300  0.601800  0.326900  1.0  0.1278
  H  H81  1  0.375500  0.580700  0.328900  1.0  0.0784
  H  H82  1  0.123400  0.646700  0.179800  1.0  0.0589
  H  H83  1  0.189600  0.579600  0.730700  1.0  0.1239
  H  H84  1  0.172700  0.632000  0.851900  1.0  0.1064
  H  H85  1  0.130800  0.726100  0.842300  1.0  0.109
  H  H86  1  0.102000  0.765000  0.713600  1.0  0.0814
  H  H87  1  0.384800  0.299200  0.004600  1.0  0.0762
  H  H88  1  0.893300  0.053600  0.911600  1.0  0.1157
  H  H89  1  0.833800  0.965600  0.870500  1.0  0.1018
  H  H90  1  0.951700  0.898200  0.826900  1.0  0.1271
  H  H91  1  0.124500  0.919300  0.828900  1.0  0.0801
  H  H92  1  0.376600  0.853300  0.679800  1.0  0.0593
  H  H93  1  0.310400  0.920400  0.230700  1.0  0.1234
  H  H94  1  0.327300  0.868000  0.351900  1.0  0.1058
  H  H95  1  0.369200  0.773900  0.342300  1.0  0.109
  H  H96  1  0.398000  0.735000  0.213600  1.0  0.0826
  C  C97  1  0.868700  0.238330  0.994100  1.0  0.2674
  C  C98  1  0.787300  0.313340  0.971800  1.0  0.2703
  C  C99  1  0.696900  0.348590  0.955000  1.0  0.2818
  C  C100  1  0.588700  0.410050  0.921500  1.0  0.2961
  C  C101  1  0.545100  0.464110  0.895200  1.0  0.1656
  C  C102  1  0.439500  0.474320  0.895100  1.0  -0.1313
  C  C103  1  0.404100  0.526440  0.870100  1.0  0.0129
  C  C104  1  0.474000  0.566510  0.844700  1.0  -0.1788
  C  C105  1  0.577500  0.553430  0.846100  1.0  0.1736
  C  C106  1  0.863100  0.625460  0.727500  1.0  0.292
  C  C107  1  0.845000  0.601400  0.851500  1.0  0.2859
  C  C108  1  0.837400  0.598510  0.942500  1.0  0.2929
  C  C109  1  0.835800  0.613110  0.071200  1.0  0.294
  C  C110  1  0.845400  0.642930  0.151900  1.0  0.182
  C  C111  1  0.828300  0.617500  0.228000  1.0  -0.1398
  C  C112  1  0.838000  0.648600  0.299800  1.0  0.002
  C  C113  1  0.863400  0.704200  0.294300  1.0  -0.1657
  C  C114  1  0.880100  0.727200  0.217000  1.0  0.1616
  C  C115  1  0.631300  0.261670  0.494100  1.0  0.2666
  C  C116  1  0.712700  0.186660  0.471800  1.0  0.2695
  C  C117  1  0.803100  0.151410  0.455000  1.0  0.2816
  C  C118  1  0.911300  0.089950  0.421500  1.0  0.2953
  C  C119  1  0.954900  0.035890  0.395200  1.0  0.1666
  C  C120  1  0.060500  0.025680  0.395100  1.0  -0.1333
  C  C121  1  0.095900  0.973560  0.370100  1.0  0.0151
  C  C122  1  0.026000  0.933490  0.344700  1.0  -0.1742
  C  C123  1  0.922500  0.946570  0.346100  1.0  0.1741
  C  C124  1  0.636900  0.874540  0.227500  1.0  0.2911
  C  C125  1  0.655000  0.898600  0.351500  1.0  0.2859
  C  C126  1  0.662600  0.901490  0.442500  1.0  0.2924
  C  C127  1  0.664200  0.886890  0.571200  1.0  0.2932
  C  C128  1  0.654600  0.857070  0.651900  1.0  0.1827
  C  C129  1  0.671700  0.882500  0.728000  1.0  -0.1419
  C  C130  1  0.662000  0.851400  0.799800  1.0  0.0043
  C  C131  1  0.636600  0.795800  0.794300  1.0  -0.1615
  C  C132  1  0.619900  0.772800  0.717000  1.0  0.1607
  C  C133  1  0.868700  0.761670  0.505900  1.0  0.267
  C  C134  1  0.787300  0.686660  0.528200  1.0  0.2707
  C  C135  1  0.696900  0.651410  0.545000  1.0  0.283
  C  C136  1  0.588700  0.589950  0.578500  1.0  0.2949
  C  C137  1  0.545100  0.535890  0.604800  1.0  0.1659
  C  C138  1  0.439500  0.525680  0.604900  1.0  -0.136
  C  C139  1  0.404100  0.473560  0.629900  1.0  0.0124
  C  C140  1  0.474000  0.433490  0.655300  1.0  -0.1789
  C  C141  1  0.577500  0.446570  0.653900  1.0  0.1749
  C  C142  1  0.863100  0.374540  0.772500  1.0  0.2918
  C  C143  1  0.845000  0.398600  0.648500  1.0  0.287
  C  C144  1  0.837400  0.401490  0.557500  1.0  0.292
  C  C145  1  0.835800  0.386890  0.428800  1.0  0.2944
  C  C146  1  0.845400  0.357070  0.348100  1.0  0.1792
  C  C147  1  0.828300  0.382500  0.272000  1.0  -0.1365
  C  C148  1  0.838000  0.351400  0.200200  1.0  0.0062
  C  C149  1  0.863400  0.295800  0.205700  1.0  -0.1641
  C  C150  1  0.880100  0.272800  0.283000  1.0  0.1573
  C  C151  1  0.631300  0.738330  0.005900  1.0  0.2678
  C  C152  1  0.712700  0.813340  0.028200  1.0  0.27
  C  C153  1  0.803100  0.848590  0.045000  1.0  0.2809
  C  C154  1  0.911300  0.910050  0.078500  1.0  0.296
  C  C155  1  0.954900  0.964110  0.104800  1.0  0.1649
  C  C156  1  0.060500  0.974320  0.104900  1.0  -0.1339
  C  C157  1  0.095900  0.026440  0.129900  1.0  0.0158
  C  C158  1  0.026000  0.066510  0.155300  1.0  -0.1767
  C  C159  1  0.922500  0.053430  0.153900  1.0  0.172
  C  C160  1  0.636900  0.125460  0.272500  1.0  0.2917
  C  C161  1  0.655000  0.101400  0.148500  1.0  0.2869
  C  C162  1  0.662600  0.098510  0.057500  1.0  0.292
  C  C163  1  0.664200  0.113110  0.928800  1.0  0.2934
  C  C164  1  0.654600  0.142930  0.848100  1.0  0.1808
  C  C165  1  0.671700  0.117500  0.772000  1.0  -0.1376
  C  C166  1  0.662000  0.148600  0.700200  1.0  1e-04
  C  C167  1  0.636600  0.204200  0.705700  1.0  -0.1617
  C  C168  1  0.619900  0.227200  0.783000  1.0  0.1569
  C  C169  1  0.131300  0.761670  0.005900  1.0  0.267
  C  C170  1  0.212700  0.686660  0.028200  1.0  0.2699
  C  C171  1  0.303100  0.651410  0.045000  1.0  0.2815
  C  C172  1  0.411300  0.589950  0.078500  1.0  0.2949
  C  C173  1  0.454900  0.535890  0.104800  1.0  0.1655
  C  C174  1  0.560500  0.525680  0.104900  1.0  -0.1328
  C  C175  1  0.595900  0.473560  0.129900  1.0  0.0151
  C  C176  1  0.526000  0.433490  0.155300  1.0  -0.1742
  C  C177  1  0.422500  0.446570  0.153900  1.0  0.174
  C  C178  1  0.136900  0.374540  0.272500  1.0  0.2916
  C  C179  1  0.155000  0.398600  0.148500  1.0  0.2867
  C  C180  1  0.162600  0.401490  0.057500  1.0  0.2916
  C  C181  1  0.164200  0.386890  0.928800  1.0  0.2935
  C  C182  1  0.154600  0.357070  0.848100  1.0  0.1802
  C  C183  1  0.171700  0.382500  0.772000  1.0  -0.1361
  C  C184  1  0.162000  0.351400  0.700200  1.0  0.0058
  C  C185  1  0.136600  0.295800  0.705700  1.0  -0.1609
  C  C186  1  0.119900  0.272800  0.783000  1.0  0.1567
  C  C187  1  0.368700  0.738330  0.505900  1.0  0.2674
  C  C188  1  0.287300  0.813340  0.528200  1.0  0.2707
  C  C189  1  0.196900  0.848590  0.545000  1.0  0.2818
  C  C190  1  0.088700  0.910050  0.578500  1.0  0.2959
  C  C191  1  0.045100  0.964110  0.604800  1.0  0.1654
  C  C192  1  0.939500  0.974320  0.604900  1.0  -0.1312
  C  C193  1  0.904100  0.026440  0.629900  1.0  0.0116
  C  C194  1  0.974000  0.066510  0.655300  1.0  -0.1815
  C  C195  1  0.077500  0.053430  0.653900  1.0  0.173
  C  C196  1  0.363100  0.125460  0.772500  1.0  0.2911
  C  C197  1  0.345000  0.101400  0.648500  1.0  0.287
  C  C198  1  0.337400  0.098510  0.557500  1.0  0.2917
  C  C199  1  0.335800  0.113110  0.428800  1.0  0.2944
  C  C200  1  0.345400  0.142930  0.348100  1.0  0.18
  C  C201  1  0.328300  0.117500  0.272000  1.0  -0.1387
  C  C202  1  0.338000  0.148600  0.200200  1.0  0.0004
  C  C203  1  0.363400  0.204200  0.205700  1.0  -0.165
  C  C204  1  0.380100  0.227200  0.283000  1.0  0.1578
  C  C205  1  0.131300  0.238330  0.494100  1.0  0.2676
  C  C206  1  0.212700  0.313340  0.471800  1.0  0.2697
  C  C207  1  0.303100  0.348590  0.455000  1.0  0.281
  C  C208  1  0.411300  0.410050  0.421500  1.0  0.2963
  C  C209  1  0.454900  0.464110  0.395200  1.0  0.1649
  C  C210  1  0.560500  0.474320  0.395100  1.0  -0.1356
  C  C211  1  0.595900  0.526440  0.370100  1.0  0.0159
  C  C212  1  0.526000  0.566510  0.344700  1.0  -0.1735
  C  C213  1  0.422500  0.553430  0.346100  1.0  0.1732
  C  C214  1  0.136900  0.625460  0.227500  1.0  0.2914
  C  C215  1  0.155000  0.601400  0.351500  1.0  0.286
  C  C216  1  0.162600  0.598510  0.442500  1.0  0.2922
  C  C217  1  0.164200  0.613110  0.571200  1.0  0.2929
  C  C218  1  0.154600  0.642930  0.651900  1.0  0.1828
  C  C219  1  0.171700  0.617500  0.728000  1.0  -0.1424
  C  C220  1  0.162000  0.648600  0.799800  1.0  0.0019
  C  C221  1  0.136600  0.704200  0.794300  1.0  -0.1628
  C  C222  1  0.119900  0.727200  0.717000  1.0  0.1612
  C  C223  1  0.368700  0.261670  0.994100  1.0  0.267
  C  C224  1  0.287300  0.186660  0.971800  1.0  0.2702
  C  C225  1  0.196900  0.151410  0.955000  1.0  0.2831
  C  C226  1  0.088700  0.089950  0.921500  1.0  0.2952
  C  C227  1  0.045100  0.035890  0.895200  1.0  0.167
  C  C228  1  0.939500  0.025680  0.895100  1.0  -0.1363
  C  C229  1  0.904100  0.973560  0.870100  1.0  0.0102
  C  C230  1  0.974000  0.933490  0.844700  1.0  -0.1788
  C  C231  1  0.077500  0.946570  0.846100  1.0  0.175
  C  C232  1  0.363100  0.874540  0.727500  1.0  0.2912
  C  C233  1  0.345000  0.898600  0.851500  1.0  0.2859
  C  C234  1  0.337400  0.901490  0.942500  1.0  0.2931
  C  C235  1  0.335800  0.886890  0.071200  1.0  0.294
  C  C236  1  0.345400  0.857070  0.151900  1.0  0.1811
  C  C237  1  0.328300  0.882500  0.228000  1.0  -0.1392
  C  C238  1  0.338000  0.851400  0.299800  1.0  0.0046
  C  C239  1  0.363400  0.795800  0.294300  1.0  -0.1645
  C  C240  1  0.380100  0.772800  0.217000  1.0  0.1605
  N  N241  1  0.772000  0.257560  0.986870  1.0  -0.4842
  N  N242  1  0.885470  0.327900  0.970710  1.0  -0.328
  N  N243  1  0.939270  0.278310  0.984880  1.0  -0.2618
  N  N244  1  0.692050  0.403390  0.932930  1.0  -0.4716
  N  N245  1  0.604200  0.323730  0.957100  1.0  -0.268
  N  N246  1  0.533200  0.364000  0.934800  1.0  -0.3294
  N  N247  1  0.614200  0.503020  0.871300  1.0  -0.3572
  N  N248  1  0.868200  0.647050  0.805300  1.0  -0.5276
  N  N249  1  0.826800  0.555380  0.807030  1.0  -0.3068
  N  N250  1  0.837400  0.571480  0.724100  1.0  -0.3017
  N  N251  1  0.853600  0.640020  0.997310  1.0  -0.4439
  N  N252  1  0.811000  0.549790  0.977780  1.0  -0.2898
  N  N253  1  0.810600  0.559400  0.062880  1.0  -0.3275
  N  N254  1  0.872100  0.697560  0.145630  1.0  -0.3368
  N  N255  1  0.728000  0.242440  0.486870  1.0  -0.4832
  N  N256  1  0.614530  0.172100  0.470710  1.0  -0.327
  N  N257  1  0.560730  0.221690  0.484880  1.0  -0.2611
  N  N258  1  0.807950  0.096610  0.432930  1.0  -0.4804
  N  N259  1  0.895800  0.176270  0.457100  1.0  -0.271
  N  N260  1  0.966800  0.136000  0.434800  1.0  -0.3216
  N  N261  1  0.885800  0.996980  0.371300  1.0  -0.3563
  N  N262  1  0.631800  0.852950  0.305300  1.0  -0.5408
  N  N263  1  0.673200  0.944620  0.307030  1.0  -0.3081
  N  N264  1  0.662600  0.928520  0.224100  1.0  -0.3032
  N  N265  1  0.646400  0.859980  0.497310  1.0  -0.4495
  N  N266  1  0.689000  0.950210  0.477780  1.0  -0.2908
  N  N267  1  0.689400  0.940600  0.562880  1.0  -0.3215
  N  N268  1  0.627900  0.802440  0.645630  1.0  -0.3367
  N  N269  1  0.772000  0.742440  0.513130  1.0  -0.4847
  N  N270  1  0.885470  0.672100  0.529290  1.0  -0.3263
  N  N271  1  0.939270  0.721690  0.515120  1.0  -0.2618
  N  N272  1  0.692050  0.596610  0.567070  1.0  -0.4706
  N  N273  1  0.604200  0.676270  0.542900  1.0  -0.2704
  N  N274  1  0.533200  0.636000  0.565200  1.0  -0.325
  N  N275  1  0.614200  0.496980  0.628700  1.0  -0.3573
  N  N276  1  0.868200  0.352950  0.694700  1.0  -0.5246
  N  N277  1  0.826800  0.444620  0.692970  1.0  -0.3063
  N  N278  1  0.837400  0.428520  0.775900  1.0  -0.3018
  N  N279  1  0.853600  0.359980  0.502690  1.0  -0.4434
  N  N280  1  0.811000  0.450210  0.522220  1.0  -0.2906
  N  N281  1  0.810600  0.440600  0.437120  1.0  -0.3252
  N  N282  1  0.872100  0.302440  0.354370  1.0  -0.3358
  N  N283  1  0.728000  0.757560  0.013130  1.0  -0.4829
  N  N284  1  0.614530  0.827900  0.029290  1.0  -0.3279
  N  N285  1  0.560730  0.778310  0.015120  1.0  -0.261
  N  N286  1  0.807950  0.903390  0.067070  1.0  -0.4839
  N  N287  1  0.895800  0.823730  0.042900  1.0  -0.2674
  N  N288  1  0.966800  0.864000  0.065200  1.0  -0.321
  N  N289  1  0.885800  0.003020  0.128700  1.0  -0.3567
  N  N290  1  0.631800  0.147050  0.194700  1.0  -0.5416
  N  N291  1  0.673200  0.055380  0.192970  1.0  -0.3065
  N  N292  1  0.662600  0.071480  0.275900  1.0  -0.3018
  N  N293  1  0.646400  0.140020  0.002690  1.0  -0.4376
  N  N294  1  0.689000  0.049790  0.022220  1.0  -0.2902
  N  N295  1  0.689400  0.059400  0.937120  1.0  -0.3227
  N  N296  1  0.627900  0.197560  0.854370  1.0  -0.336
  N  N297  1  0.228000  0.742440  0.013130  1.0  -0.4835
  N  N298  1  0.114530  0.672100  0.029290  1.0  -0.3269
  N  N299  1  0.060730  0.721690  0.015120  1.0  -0.2612
  N  N300  1  0.307950  0.596610  0.067070  1.0  -0.4819
  N  N301  1  0.395800  0.676270  0.042900  1.0  -0.2703
  N  N302  1  0.466800  0.636000  0.065200  1.0  -0.3219
  N  N303  1  0.385800  0.496980  0.128700  1.0  -0.3563
  N  N304  1  0.131800  0.352950  0.194700  1.0  -0.5389
  N  N305  1  0.173200  0.444620  0.192970  1.0  -0.3074
  N  N306  1  0.162600  0.428520  0.275900  1.0  -0.3026
  N  N307  1  0.146400  0.359980  0.002690  1.0  -0.4442
  N  N308  1  0.189000  0.450210  0.022220  1.0  -0.2912
  N  N309  1  0.189400  0.440600  0.937120  1.0  -0.3207
  N  N310  1  0.127900  0.302440  0.854370  1.0  -0.3359
  N  N311  1  0.272000  0.757560  0.513130  1.0  -0.4843
  N  N312  1  0.385470  0.827900  0.529290  1.0  -0.3278
  N  N313  1  0.439270  0.778310  0.515120  1.0  -0.2618
  N  N314  1  0.192050  0.903390  0.567070  1.0  -0.4716
  N  N315  1  0.104200  0.823730  0.542900  1.0  -0.2679
  N  N316  1  0.033200  0.864000  0.565200  1.0  -0.3293
  N  N317  1  0.114200  0.003020  0.628700  1.0  -0.3572
  N  N318  1  0.368200  0.147050  0.694700  1.0  -0.5267
  N  N319  1  0.326800  0.055380  0.692970  1.0  -0.3058
  N  N320  1  0.337400  0.071480  0.775900  1.0  -0.301
  N  N321  1  0.353600  0.140020  0.502690  1.0  -0.4369
  N  N322  1  0.311000  0.049790  0.522220  1.0  -0.2902
  N  N323  1  0.310600  0.059400  0.437120  1.0  -0.3268
  N  N324  1  0.372100  0.197560  0.354370  1.0  -0.3359
  N  N325  1  0.228000  0.257560  0.486870  1.0  -0.4824
  N  N326  1  0.114530  0.327900  0.470710  1.0  -0.3283
  N  N327  1  0.060730  0.278310  0.484880  1.0  -0.2609
  N  N328  1  0.307950  0.403390  0.432930  1.0  -0.484
  N  N329  1  0.395800  0.323730  0.457100  1.0  -0.2676
  N  N330  1  0.466800  0.364000  0.434800  1.0  -0.321
  N  N331  1  0.385800  0.503020  0.371300  1.0  -0.3567
  N  N332  1  0.131800  0.647050  0.305300  1.0  -0.5431
  N  N333  1  0.173200  0.555380  0.307030  1.0  -0.3073
  N  N334  1  0.162600  0.571480  0.224100  1.0  -0.3021
  N  N335  1  0.146400  0.640020  0.497310  1.0  -0.4473
  N  N336  1  0.189000  0.549790  0.477780  1.0  -0.2903
  N  N337  1  0.189400  0.559400  0.562880  1.0  -0.3193
  N  N338  1  0.127900  0.697560  0.645630  1.0  -0.3368
  N  N339  1  0.272000  0.242440  0.986870  1.0  -0.484
  N  N340  1  0.385470  0.172100  0.970710  1.0  -0.3264
  N  N341  1  0.439270  0.221690  0.984880  1.0  -0.2618
  N  N342  1  0.192050  0.096610  0.932930  1.0  -0.4682
  N  N343  1  0.104200  0.176270  0.957100  1.0  -0.2714
  N  N344  1  0.033200  0.136000  0.934800  1.0  -0.3248
  N  N345  1  0.114200  0.996980  0.871300  1.0  -0.3574
  N  N346  1  0.368200  0.852950  0.805300  1.0  -0.5257
  N  N347  1  0.326800  0.944620  0.807030  1.0  -0.307
  N  N348  1  0.337400  0.928520  0.724100  1.0  -0.3025
  N  N349  1  0.353600  0.859980  0.997310  1.0  -0.4485
  N  N350  1  0.311000  0.950210  0.977780  1.0  -0.29
  N  N351  1  0.310600  0.940600  0.062880  1.0  -0.3245
  N  N352  1  0.372100  0.802440  0.145630  1.0  -0.3368
