# generated using pymatgen
data_MnH5C9N7
_symmetry_space_group_name_H-M   'P 1'
_cell_length_a   17.14540000
_cell_length_b   17.14540000
_cell_length_c   17.14540000
_cell_angle_alpha   108.65100000
_cell_angle_beta   109.88300000
_cell_angle_gamma   109.88300000
_symmetry_Int_Tables_number   1
_chemical_formula_structural   MnH5C9N7
_chemical_formula_sum   'Mn8 H40 C72 N56'
_cell_volume   3879.29716280
_cell_formula_units_Z   8
loop_
 _symmetry_equiv_pos_site_id
 _symmetry_equiv_pos_as_xyz
  1  'x, y, z'
loop_
 _atom_site_type_symbol
 _atom_site_label
 _atom_site_symmetry_multiplicity
 _atom_site_fract_x
 _atom_site_fract_y
 _atom_site_fract_z
 _atom_site_occupancy
 _atom_site_charge
  Mn  Mn1  1  0.877100  0.006460  0.919280  1.0  0.8235
  Mn  Mn2  1  0.622900  0.542180  0.129360  1.0  0.8243
  Mn  Mn3  1  0.912820  0.919280  0.542180  1.0  0.8224
  Mn  Mn4  1  0.587180  0.129360  0.006460  1.0  0.823
  Mn  Mn5  1  0.122900  0.993540  0.080720  1.0  0.8248
  Mn  Mn6  1  0.377100  0.457820  0.870640  1.0  0.8243
  Mn  Mn7  1  0.087180  0.080720  0.457820  1.0  0.8232
  Mn  Mn8  1  0.412820  0.870640  0.993540  1.0  0.8229
  H  H9  1  0.544900  0.789100  0.921200  1.0  0.0634
  H  H10  1  0.934100  0.339900  0.978600  1.0  0.1305
  H  H11  1  0.080300  0.402900  0.986200  1.0  0.1045
  H  H12  1  0.159700  0.317500  0.981000  1.0  0.1261
  H  H13  1  0.085000  0.166200  0.957800  1.0  0.0791
  H  H14  1  0.955100  0.876300  0.244200  1.0  0.0627
  H  H15  1  0.565900  0.544500  0.405800  1.0  0.1298
  H  H16  1  0.419700  0.405900  0.322600  1.0  0.104
  H  H17  1  0.340300  0.321300  0.157800  1.0  0.1255
  H  H18  1  0.415000  0.372800  0.081200  1.0  0.0798
  H  H19  1  0.132100  0.921200  0.876300  1.0  0.0623
  H  H20  1  0.638700  0.978600  0.544500  1.0  0.1301
  H  H21  1  0.583300  0.986200  0.405900  1.0  0.1037
  H  H22  1  0.663500  0.981000  0.321300  1.0  0.1251
  H  H23  1  0.791600  0.957800  0.372800  1.0  0.0803
  H  H24  1  0.367900  0.244200  0.789100  1.0  0.0617
  H  H25  1  0.861300  0.405800  0.339900  1.0  0.1305
  H  H26  1  0.916700  0.322600  0.402900  1.0  0.1051
  H  H27  1  0.836500  0.157800  0.317500  1.0  0.1249
  H  H28  1  0.708400  0.081200  0.166200  1.0  0.0787
  H  H29  1  0.455100  0.210900  0.078800  1.0  0.0613
  H  H30  1  0.065900  0.660100  0.021400  1.0  0.131
  H  H31  1  0.919700  0.597100  0.013800  1.0  0.1063
  H  H32  1  0.840300  0.682500  0.019000  1.0  0.125
  H  H33  1  0.915000  0.833800  0.042200  1.0  0.0789
  H  H34  1  0.044900  0.123700  0.755800  1.0  0.0602
  H  H35  1  0.434100  0.455500  0.594200  1.0  0.1292
  H  H36  1  0.580300  0.594100  0.677400  1.0  0.1043
  H  H37  1  0.659700  0.678700  0.842200  1.0  0.126
  H  H38  1  0.585000  0.627200  0.918800  1.0  0.0792
  H  H39  1  0.867900  0.078800  0.123700  1.0  0.0603
  H  H40  1  0.361300  0.021400  0.455500  1.0  0.1305
  H  H41  1  0.416700  0.013800  0.594100  1.0  0.1032
  H  H42  1  0.336500  0.019000  0.678700  1.0  0.1247
  H  H43  1  0.208400  0.042200  0.627200  1.0  0.0809
  H  H44  1  0.632100  0.755800  0.210900  1.0  0.0606
  H  H45  1  0.138700  0.594200  0.660100  1.0  0.1304
  H  H46  1  0.083300  0.677400  0.597100  1.0  0.1045
  H  H47  1  0.163500  0.842200  0.682500  1.0  0.1251
  H  H48  1  0.291600  0.918800  0.833800  1.0  0.079
  C  C49  1  0.567200  0.851200  0.931800  1.0  0.2893
  C  C50  1  0.646490  0.981710  0.944260  1.0  0.2972
  C  C51  1  0.715720  0.064600  0.950360  1.0  0.2741
  C  C52  1  0.833640  0.168540  0.960500  1.0  0.2888
  C  C53  1  0.925200  0.214200  0.964000  1.0  0.191
  C  C54  1  0.965600  0.305200  0.974800  1.0  -0.1643
  C  C55  1  0.052600  0.342600  0.979800  1.0  0.0089
  C  C56  1  0.099600  0.291800  0.975400  1.0  -0.1858
  C  C57  1  0.054500  0.201800  0.962500  1.0  0.1582
  C  C58  1  0.932800  0.864600  0.284000  1.0  0.2903
  C  C59  1  0.853510  0.797770  0.335220  1.0  0.2963
  C  C60  1  0.784280  0.734640  0.348880  1.0  0.2774
  C  C61  1  0.666360  0.626860  0.334900  1.0  0.288
  C  C62  1  0.574800  0.538800  0.289000  1.0  0.1926
  C  C63  1  0.534400  0.509200  0.339600  1.0  -0.1683
  C  C64  1  0.447400  0.427200  0.290000  1.0  0.0074
  C  C65  1  0.400400  0.375800  0.192200  1.0  -0.1851
  C  C66  1  0.445500  0.408000  0.147300  1.0  0.163
  C  C67  1  0.080600  0.931800  0.864600  1.0  0.2904
  C  C68  1  0.962550  0.944260  0.797770  1.0  0.2968
  C  C69  1  0.885760  0.950360  0.734640  1.0  0.2748
  C  C70  1  0.791960  0.960500  0.626860  1.0  0.2892
  C  C71  1  0.749800  0.964000  0.538800  1.0  0.1929
  C  C72  1  0.669600  0.974800  0.509200  1.0  -0.1651
  C  C73  1  0.637200  0.979800  0.427200  1.0  0.0097
  C  C74  1  0.683600  0.975400  0.375800  1.0  -0.1829
  C  C75  1  0.760700  0.962500  0.408000  1.0  0.1594
  C  C76  1  0.419400  0.284000  0.851200  1.0  0.2886
  C  C77  1  0.537450  0.335220  0.981710  1.0  0.2955
  C  C78  1  0.614240  0.348880  0.064600  1.0  0.2754
  C  C79  1  0.708040  0.334900  0.168540  1.0  0.2887
  C  C80  1  0.750200  0.289000  0.214200  1.0  0.1922
  C  C81  1  0.830400  0.339600  0.305200  1.0  -0.1629
  C  C82  1  0.862800  0.290000  0.342600  1.0  0.0064
  C  C83  1  0.816400  0.192200  0.291800  1.0  -0.1846
  C  C84  1  0.739300  0.147300  0.201800  1.0  0.1598
  C  C85  1  0.432800  0.148800  0.068200  1.0  0.2892
  C  C86  1  0.353510  0.018290  0.055740  1.0  0.2984
  C  C87  1  0.284280  0.935400  0.049640  1.0  0.2751
  C  C88  1  0.166360  0.831460  0.039500  1.0  0.2893
  C  C89  1  0.074800  0.785800  0.036000  1.0  0.1916
  C  C90  1  0.034400  0.694800  0.025200  1.0  -0.1652
  C  C91  1  0.947400  0.657400  0.020200  1.0  0.0056
  C  C92  1  0.900400  0.708200  0.024600  1.0  -0.1862
  C  C93  1  0.945500  0.798200  0.037500  1.0  0.16
  C  C94  1  0.067200  0.135400  0.716000  1.0  0.2912
  C  C95  1  0.146490  0.202230  0.664780  1.0  0.2969
  C  C96  1  0.215720  0.265360  0.651120  1.0  0.2759
  C  C97  1  0.333640  0.373140  0.665100  1.0  0.288
  C  C98  1  0.425200  0.461200  0.711000  1.0  0.1943
  C  C99  1  0.465600  0.490800  0.660400  1.0  -0.1674
  C  C100  1  0.552600  0.572800  0.710000  1.0  0.0081
  C  C101  1  0.599600  0.624200  0.807800  1.0  -0.1845
  C  C102  1  0.554500  0.592000  0.852700  1.0  0.1618
  C  C103  1  0.919400  0.068200  0.135400  1.0  0.2906
  C  C104  1  0.037450  0.055740  0.202230  1.0  0.2974
  C  C105  1  0.114240  0.049640  0.265360  1.0  0.2745
  C  C106  1  0.208040  0.039500  0.373140  1.0  0.2894
  C  C107  1  0.250200  0.036000  0.461200  1.0  0.1926
  C  C108  1  0.330400  0.025200  0.490800  1.0  -0.1644
  C  C109  1  0.362800  0.020200  0.572800  1.0  0.01
  C  C110  1  0.316400  0.024600  0.624200  1.0  -0.1836
  C  C111  1  0.239300  0.037500  0.592000  1.0  0.159
  C  C112  1  0.580600  0.716000  0.148800  1.0  0.2887
  C  C113  1  0.462550  0.664780  0.018290  1.0  0.2962
  C  C114  1  0.385760  0.651120  0.935400  1.0  0.275
  C  C115  1  0.291960  0.665100  0.831460  1.0  0.2888
  C  C116  1  0.249800  0.711000  0.785800  1.0  0.1921
  C  C117  1  0.169600  0.660400  0.694800  1.0  -0.1651
  C  C118  1  0.137200  0.710000  0.657400  1.0  0.0051
  C  C119  1  0.183600  0.807800  0.708200  1.0  -0.1853
  C  C120  1  0.260700  0.852700  0.798200  1.0  0.1591
  N  N121  1  0.641610  0.896900  0.922290  1.0  -0.5317
  N  N122  1  0.580570  0.988190  0.966020  1.0  -0.3077
  N  N123  1  0.528380  0.902470  0.957630  1.0  -0.2887
  N  N124  1  0.793360  0.076180  0.941500  1.0  -0.4377
  N  N125  1  0.784810  0.210410  0.978380  1.0  -0.3226
  N  N126  1  0.707140  0.141750  0.971050  1.0  -0.2603
  N  N127  1  0.968410  0.162300  0.956190  1.0  -0.3357
  N  N128  1  0.858390  0.780680  0.255290  1.0  -0.5315
  N  N129  1  0.919430  0.885450  0.407620  1.0  -0.308
  N  N130  1  0.971620  0.929250  0.374090  1.0  -0.292
  N  N131  1  0.706640  0.648140  0.282820  1.0  -0.4401
  N  N132  1  0.715190  0.693570  0.425600  1.0  -0.3233
  N  N133  1  0.792860  0.763910  0.434610  1.0  -0.2579
  N  N134  1  0.531590  0.487780  0.193890  1.0  -0.3366
  N  N135  1  0.025390  0.922290  0.780680  1.0  -0.5318
  N  N136  1  0.977830  0.966020  0.885450  1.0  -0.3086
  N  N137  1  0.055160  0.957630  0.929250  1.0  -0.2883
  N  N138  1  0.865320  0.941500  0.648140  1.0  -0.4405
  N  N139  1  0.767970  0.978380  0.693570  1.0  -0.3199
  N  N140  1  0.829300  0.971050  0.763910  1.0  -0.2605
  N  N141  1  0.793890  0.956190  0.487780  1.0  -0.3353
  N  N142  1  0.474610  0.255290  0.896900  1.0  -0.5306
  N  N143  1  0.522170  0.407620  0.988190  1.0  -0.3101
  N  N144  1  0.444840  0.374090  0.902470  1.0  -0.2881
  N  N145  1  0.634680  0.282820  0.076180  1.0  -0.4407
  N  N146  1  0.732030  0.425600  0.210410  1.0  -0.3215
  N  N147  1  0.670700  0.434610  0.141750  1.0  -0.2605
  N  N148  1  0.706110  0.193890  0.162300  1.0  -0.3369
  N  N149  1  0.358390  0.103100  0.077710  1.0  -0.5275
  N  N150  1  0.419430  0.011810  0.033980  1.0  -0.3078
  N  N151  1  0.471620  0.097530  0.042370  1.0  -0.2887
  N  N152  1  0.206640  0.923820  0.058500  1.0  -0.441
  N  N153  1  0.215190  0.789590  0.021620  1.0  -0.3222
  N  N154  1  0.292860  0.858250  0.028950  1.0  -0.26
  N  N155  1  0.031590  0.837700  0.043810  1.0  -0.3342
  N  N156  1  0.141610  0.219320  0.744710  1.0  -0.5324
  N  N157  1  0.080570  0.114550  0.592380  1.0  -0.3063
  N  N158  1  0.028380  0.070750  0.625910  1.0  -0.2909
  N  N159  1  0.293360  0.351860  0.717180  1.0  -0.4409
  N  N160  1  0.284810  0.306430  0.574400  1.0  -0.3232
  N  N161  1  0.207140  0.236090  0.565390  1.0  -0.2584
  N  N162  1  0.468410  0.512220  0.806110  1.0  -0.3361
  N  N163  1  0.974610  0.077710  0.219320  1.0  -0.5309
  N  N164  1  0.022170  0.033980  0.114550  1.0  -0.3079
  N  N165  1  0.944840  0.042370  0.070750  1.0  -0.2872
  N  N166  1  0.134680  0.058500  0.351860  1.0  -0.4401
  N  N167  1  0.232030  0.021620  0.306430  1.0  -0.3204
  N  N168  1  0.170700  0.028950  0.236090  1.0  -0.2584
  N  N169  1  0.206110  0.043810  0.512220  1.0  -0.3344
  N  N170  1  0.525390  0.744710  0.103100  1.0  -0.5309
  N  N171  1  0.477830  0.592380  0.011810  1.0  -0.3091
  N  N172  1  0.555160  0.625910  0.097530  1.0  -0.2892
  N  N173  1  0.365320  0.717180  0.923820  1.0  -0.4416
  N  N174  1  0.267970  0.574400  0.789590  1.0  -0.3206
  N  N175  1  0.329300  0.565390  0.858250  1.0  -0.2602
  N  N176  1  0.293890  0.806110  0.837700  1.0  -0.3347
