# generated using pymatgen
data_Eu3H26C44S4(NO4)4
_symmetry_space_group_name_H-M   'P 1'
_cell_length_a   9.14960000
_cell_length_b   23.42600000
_cell_length_c   26.84800000
_cell_angle_alpha   76.75360000
_cell_angle_beta   80.18910000
_cell_angle_gamma   78.73850000
_symmetry_Int_Tables_number   1
_chemical_formula_structural   Eu3H26C44S4(NO4)4
_chemical_formula_sum   'Eu12 H104 C176 S16 N16 O64'
_cell_volume   5445.81197946
_cell_formula_units_Z   4
loop_
 _symmetry_equiv_pos_site_id
 _symmetry_equiv_pos_as_xyz
  1  'x, y, z'
loop_
 _atom_site_type_symbol
 _atom_site_label
 _atom_site_symmetry_multiplicity
 _atom_site_fract_x
 _atom_site_fract_y
 _atom_site_fract_z
 _atom_site_occupancy
 _atom_site_charge
  Eu  Eu1  1  0.621120  0.032420  0.572840  1.0  2.0903
  Eu  Eu2  1  0.256030  0.078550  0.518510  1.0  2.1373
  Eu  Eu3  1  0.369080  0.919500  0.575620  1.0  2.1389
  Eu  Eu4  1  0.226380  0.467580  0.927160  1.0  2.0885
  Eu  Eu5  1  0.853090  0.421450  0.981490  1.0  2.1367
  Eu  Eu6  1  0.864200  0.580500  0.924380  1.0  2.1395
  Eu  Eu7  1  0.378880  0.967580  0.427160  1.0  2.0883
  Eu  Eu8  1  0.743970  0.921450  0.481490  1.0  2.1366
  Eu  Eu9  1  0.630920  0.080500  0.424380  1.0  2.1393
  Eu  Eu10  1  0.773620  0.532420  0.072840  1.0  2.0894
  Eu  Eu11  1  0.146910  0.578550  0.018510  1.0  2.1369
  Eu  Eu12  1  0.135800  0.419500  0.075620  1.0  2.1395
  H  H13  1  0.284900  0.983900  0.064900  1.0  0.2399
  H  H14  1  0.458100  0.842900  0.163300  1.0  0.1302
  H  H15  1  0.285700  0.911100  0.214100  1.0  0.1425
  H  H16  1  0.555400  0.924000  0.881400  1.0  0.133
  H  H17  1  0.670200  0.868100  0.959500  1.0  0.1309
  H  H18  1  0.168400  0.042100  0.988900  1.0  0.2391
  H  H19  1  0.876500  0.145400  0.898000  1.0  0.1304
  H  H20  1  0.050100  0.077700  0.847700  1.0  0.1219
  H  H21  1  0.013700  0.135700  0.162300  1.0  0.1385
  H  H22  1  0.916500  0.196900  0.082700  1.0  0.134
  H  H23  1  0.718500  0.858500  0.115700  1.0  0.1052
  H  H24  1  0.867400  0.765800  0.142400  1.0  0.1273
  H  H25  1  0.688200  0.696800  0.046400  1.0  0.1115
  H  H26  1  0.536700  0.787800  0.022600  1.0  0.0843
  H  H27  1  0.254300  0.908400  0.865800  1.0  0.1036
  H  H28  1  0.335300  0.882700  0.785300  1.0  0.1269
  H  H29  1  0.445400  0.046400  0.728200  1.0  0.1239
  H  H30  1  0.366000  0.070300  0.809100  1.0  0.0997
  H  H31  1  0.692000  0.155600  0.061800  1.0  0.1039
  H  H32  1  0.524500  0.243900  0.066100  1.0  0.1213
  H  H33  1  0.717700  0.319400  0.926200  1.0  0.1222
  H  H34  1  0.891200  0.232800  0.923400  1.0  0.1089
  H  H35  1  0.236700  0.076400  0.214400  1.0  0.1161
  H  H36  1  0.171400  0.072900  0.304100  1.0  0.1242
  H  H37  1  0.904500  0.951300  0.312300  1.0  0.1221
  H  H38  1  0.963400  0.958400  0.222800  1.0  0.1101
  H  H39  1  0.333700  0.516100  0.435100  1.0  0.2407
  H  H40  1  0.464300  0.657100  0.336700  1.0  0.1314
  H  H41  1  0.410900  0.588900  0.285900  1.0  0.1427
  H  H42  1  0.360800  0.576000  0.618600  1.0  0.1322
  H  H43  1  0.497800  0.631900  0.540500  1.0  0.1308
  H  H44  1  0.199400  0.457900  0.511100  1.0  0.2377
  H  H45  1  0.919900  0.354600  0.602000  1.0  0.1299
  H  H46  1  0.975500  0.422300  0.652300  1.0  0.1209
  H  H47  1  0.311700  0.364300  0.337700  1.0  0.1384
  H  H48  1  0.196100  0.303100  0.417300  1.0  0.1336
  H  H49  1  0.692700  0.641500  0.384300  1.0  0.1054
  H  H50  1  0.775600  0.734200  0.357600  1.0  0.1257
  H  H51  1  0.431400  0.803200  0.453600  1.0  0.1111
  H  H52  1  0.347100  0.712200  0.477400  1.0  0.084
  H  H53  1  0.028500  0.591600  0.634200  1.0  0.1038
  H  H54  1  0.003300  0.617300  0.714700  1.0  0.1274
  H  H55  1  0.220000  0.453600  0.771800  1.0  0.1237
  H  H56  1  0.245400  0.429700  0.690900  1.0  0.1006
  H  H57  1  0.909400  0.344400  0.438200  1.0  0.1038
  H  H58  1  0.834500  0.256100  0.433900  1.0  0.1236
  H  H59  1  0.963300  0.180600  0.573800  1.0  0.1225
  H  H60  1  0.047400  0.267200  0.576600  1.0  0.1097
  H  H61  1  0.527500  0.423600  0.285600  1.0  0.1153
  H  H62  1  0.548400  0.427100  0.195900  1.0  0.1238
  H  H63  1  0.168100  0.548700  0.187700  1.0  0.1224
  H  H64  1  0.144600  0.541600  0.277200  1.0  0.1097
  H  H65  1  0.715100  0.016100  0.935100  1.0  0.2411
  H  H66  1  0.541900  0.157100  0.836700  1.0  0.1307
  H  H67  1  0.714300  0.088900  0.785900  1.0  0.1432
  H  H68  1  0.444600  0.076000  0.118600  1.0  0.1333
  H  H69  1  0.329800  0.131900  0.040500  1.0  0.1311
  H  H70  1  0.831600  0.957900  0.011100  1.0  0.238
  H  H71  1  0.123500  0.854600  0.102000  1.0  0.1307
  H  H72  1  0.949900  0.922300  0.152300  1.0  0.1209
  H  H73  1  0.986300  0.864300  0.837700  1.0  0.1376
  H  H74  1  0.083500  0.803100  0.917300  1.0  0.1347
  H  H75  1  0.281500  0.141500  0.884300  1.0  0.1056
  H  H76  1  0.132600  0.234200  0.857600  1.0  0.1271
  H  H77  1  0.311800  0.303200  0.953600  1.0  0.1108
  H  H78  1  0.463300  0.212200  0.977400  1.0  0.0847
  H  H79  1  0.745700  0.091600  0.134200  1.0  0.1034
  H  H80  1  0.664700  0.117300  0.214700  1.0  0.1271
  H  H81  1  0.554600  0.953600  0.271800  1.0  0.1234
  H  H82  1  0.634000  0.929700  0.190900  1.0  0.1008
  H  H83  1  0.308000  0.844400  0.938200  1.0  0.1034
  H  H84  1  0.475500  0.756100  0.933900  1.0  0.1218
  H  H85  1  0.282300  0.680600  0.073800  1.0  0.1215
  H  H86  1  0.108800  0.767200  0.076600  1.0  0.109
  H  H87  1  0.763300  0.923600  0.785600  1.0  0.1162
  H  H88  1  0.828600  0.927100  0.695900  1.0  0.1234
  H  H89  1  0.095500  0.048700  0.687700  1.0  0.1223
  H  H90  1  0.036600  0.041600  0.777200  1.0  0.11
  H  H91  1  0.666300  0.483900  0.564900  1.0  0.2393
  H  H92  1  0.535700  0.342900  0.663300  1.0  0.1307
  H  H93  1  0.589100  0.411100  0.714100  1.0  0.1426
  H  H94  1  0.639200  0.424000  0.381400  1.0  0.132
  H  H95  1  0.502200  0.368100  0.459500  1.0  0.1307
  H  H96  1  0.800600  0.542100  0.488900  1.0  0.2385
  H  H97  1  0.080100  0.645400  0.398000  1.0  0.1298
  H  H98  1  0.024500  0.577700  0.347700  1.0  0.1213
  H  H99  1  0.688300  0.635700  0.662300  1.0  0.1389
  H  H100  1  0.803900  0.696900  0.582700  1.0  0.1335
  H  H101  1  0.307300  0.358500  0.615700  1.0  0.105
  H  H102  1  0.224400  0.265800  0.642400  1.0  0.1264
  H  H103  1  0.568600  0.196800  0.546400  1.0  0.1119
  H  H104  1  0.652900  0.287800  0.522600  1.0  0.0849
  H  H105  1  0.971500  0.408400  0.365800  1.0  0.1039
  H  H106  1  0.996700  0.382700  0.285300  1.0  0.1269
  H  H107  1  0.780000  0.546400  0.228200  1.0  0.1237
  H  H108  1  0.754600  0.570300  0.309100  1.0  0.0991
  H  H109  1  0.090600  0.655600  0.561800  1.0  0.1039
  H  H110  1  0.165500  0.743900  0.566100  1.0  0.1224
  H  H111  1  0.036700  0.819400  0.426200  1.0  0.1228
  H  H112  1  0.952600  0.732800  0.423400  1.0  0.1091
  H  H113  1  0.472500  0.576400  0.714400  1.0  0.1151
  H  H114  1  0.451600  0.572900  0.804100  1.0  0.1246
  H  H115  1  0.831900  0.451300  0.812300  1.0  0.1222
  H  H116  1  0.855400  0.458400  0.722800  1.0  0.1097
  C  C117  1  0.407870  0.907360  0.096500  1.0  0.1525
  C  C118  1  0.403320  0.880510  0.149450  1.0  -0.104
  C  C119  1  0.306880  0.917660  0.177580  1.0  -0.1756
  C  C120  1  0.244170  0.967830  0.142230  1.0  0.1782
  C  C121  1  0.497380  0.887510  0.054130  1.0  -0.082
  C  C122  1  0.479880  0.912110  0.003130  1.0  0.2113
  C  C123  1  0.380280  0.964650  0.933790  1.0  0.2023
  C  C124  1  0.517190  0.926520  0.916100  1.0  -0.1521
  C  C125  1  0.578800  0.895620  0.958780  1.0  -0.1952
  C  C126  1  0.282800  0.000490  0.900710  1.0  -0.0703
  C  C127  1  0.158920  0.042960  0.914600  1.0  0.168
  C  C128  1  0.000130  0.104080  0.960460  1.0  0.1745
  C  C129  1  0.957490  0.116390  0.910230  1.0  -0.1682
  C  C130  1  0.053300  0.079240  0.882560  1.0  -0.1732
  C  C131  1  0.943230  0.134910  0.000630  1.0  -0.0674
  C  C132  1  0.998480  0.119460  0.048780  1.0  0.1588
  C  C133  1  0.088510  0.066740  0.118240  1.0  0.1866
  C  C134  1  0.019810  0.123850  0.130330  1.0  -0.1844
  C  C135  1  0.966110  0.156780  0.087200  1.0  -0.1766
  C  C136  1  0.149410  0.017470  0.154110  1.0  -0.0931
  C  C137  1  0.606350  0.831500  0.066600  1.0  0.0422
  C  C138  1  0.710260  0.825080  0.102400  1.0  -0.0651
  C  C139  1  0.799940  0.770320  0.118000  1.0  -0.048
  C  C140  1  0.787860  0.721830  0.096650  1.0  -0.2321
  C  C141  1  0.693470  0.729160  0.061500  1.0  -0.0688
  C  C142  1  0.603250  0.783900  0.047200  1.0  -0.1256
  C  C143  1  0.311710  0.991290  0.846290  1.0  0.0582
  C  C144  1  0.297150  0.935900  0.838200  1.0  -0.1033
  C  C145  1  0.344370  0.920640  0.790220  1.0  -0.0614
  C  C146  1  0.404450  0.960910  0.749790  1.0  -0.22
  C  C147  1  0.409760  0.017640  0.756440  1.0  -0.1026
  C  C148  1  0.362640  0.031520  0.804800  1.0  -0.0937
  C  C149  1  0.820160  0.186920  0.994960  1.0  0.0706
  C  C150  1  0.702550  0.189880  0.035220  1.0  -0.1161
  C  C151  1  0.600110  0.241930  0.037250  1.0  -0.0615
  C  C152  1  0.608330  0.290180  0.997760  1.0  -0.1476
  C  C153  1  0.715660  0.286740  0.954540  1.0  -0.0682
  C  C154  1  0.819350  0.235280  0.953220  1.0  -0.1288
  C  C155  1  0.106780  0.017990  0.210450  1.0  0.0383
  C  C156  1  0.168330  0.051290  0.234050  1.0  -0.119
  C  C157  1  0.131030  0.048740  0.287600  1.0  -0.0914
  C  C158  1  0.035880  0.011120  0.315320  1.0  -0.1788
  C  C159  1  0.971390  0.976940  0.292480  1.0  -0.0672
  C  C160  1  0.007480  0.981150  0.239490  1.0  -0.0877
  C  C161  1  0.411730  0.592640  0.403500  1.0  0.1515
  C  C162  1  0.433280  0.619490  0.350550  1.0  -0.1051
  C  C163  1  0.402120  0.582340  0.322420  1.0  -0.1756
  C  C164  1  0.354230  0.532170  0.357770  1.0  0.1788
  C  C165  1  0.439020  0.612490  0.445870  1.0  -0.0825
  C  C166  1  0.395120  0.587890  0.496870  1.0  0.2117
  C  C167  1  0.278720  0.535350  0.566210  1.0  0.2019
  C  C168  1  0.359810  0.573480  0.583900  1.0  -0.1512
  C  C169  1  0.433200  0.604380  0.541220  1.0  -0.1951
  C  C170  1  0.184000  0.499510  0.599290  1.0  -0.0707
  C  C171  1  0.116480  0.457040  0.585400  1.0  0.1682
  C  C172  1  0.064670  0.395920  0.539540  1.0  0.174
  C  C173  1  0.984110  0.383610  0.589770  1.0  -0.1678
  C  C174  1  0.015100  0.420760  0.617440  1.0  -0.1765
  C  C175  1  0.078770  0.365090  0.499370  1.0  -0.0675
  C  C176  1  0.166720  0.380540  0.451220  1.0  0.1588
  C  C177  1  0.273490  0.433260  0.381760  1.0  0.1859
  C  C178  1  0.273990  0.376150  0.369670  1.0  -0.1852
  C  C179  1  0.210090  0.343220  0.412800  1.0  -0.1754
  C  C180  1  0.320990  0.482530  0.345890  1.0  -0.0935
  C  C181  1  0.504450  0.668500  0.433400  1.0  0.0425
  C  C182  1  0.637740  0.674920  0.397600  1.0  -0.0666
  C  C183  1  0.688260  0.729680  0.382000  1.0  -0.0503
  C  C184  1  0.606340  0.778170  0.403350  1.0  -0.2322
  C  C185  1  0.484130  0.770840  0.438500  1.0  -0.0688
  C  C186  1  0.434350  0.716100  0.452800  1.0  -0.1248
  C  C187  1  0.149290  0.508710  0.653710  1.0  0.0606
  C  C188  1  0.071250  0.564100  0.661800  1.0  -0.1022
  C  C189  1  0.055230  0.579360  0.709780  1.0  -0.0586
  C  C190  1  0.115150  0.539090  0.750210  1.0  -0.2201
  C  C191  1  0.183840  0.482360  0.743560  1.0  -0.1004
  C  C192  1  0.198960  0.468480  0.695200  1.0  -0.0947
  C  C193  1  0.002040  0.313080  0.505040  1.0  0.0702
  C  C194  1  0.927650  0.310120  0.464780  1.0  -0.1158
  C  C195  1  0.879290  0.258070  0.462750  1.0  -0.0623
  C  C196  1  0.896270  0.209820  0.502240  1.0  -0.1476
  C  C197  1  0.956940  0.213260  0.545460  1.0  -0.0679
  C  C198  1  0.007850  0.264720  0.546780  1.0  -0.13
  C  C199  1  0.335220  0.482010  0.289550  1.0  0.037
  C  C200  1  0.453670  0.448710  0.265950  1.0  -0.1173
  C  C201  1  0.467370  0.451260  0.212400  1.0  -0.0901
  C  C202  1  0.362320  0.488880  0.184680  1.0  -0.1806
  C  C203  1  0.240810  0.523060  0.207520  1.0  -0.0684
  C  C204  1  0.228120  0.518850  0.260510  1.0  -0.087
  C  C205  1  0.592130  0.092640  0.903500  1.0  0.1512
  C  C206  1  0.596680  0.119490  0.850550  1.0  -0.1058
  C  C207  1  0.693120  0.082340  0.822420  1.0  -0.1758
  C  C208  1  0.755830  0.032170  0.857770  1.0  0.1786
  C  C209  1  0.502620  0.112490  0.945870  1.0  -0.082
  C  C210  1  0.520120  0.087890  0.996870  1.0  0.2114
  C  C211  1  0.619720  0.035350  0.066210  1.0  0.2018
  C  C212  1  0.482810  0.073480  0.083900  1.0  -0.1537
  C  C213  1  0.421200  0.104380  0.041220  1.0  -0.195
  C  C214  1  0.717200  0.999510  0.099290  1.0  -0.0704
  C  C215  1  0.841080  0.957040  0.085400  1.0  0.1679
  C  C216  1  0.999870  0.895920  0.039540  1.0  0.1748
  C  C217  1  0.042510  0.883610  0.089770  1.0  -0.1682
  C  C218  1  0.946700  0.920760  0.117440  1.0  -0.1738
  C  C219  1  0.056770  0.865090  0.999370  1.0  -0.0681
  C  C220  1  0.001520  0.880540  0.951220  1.0  0.1579
  C  C221  1  0.911490  0.933260  0.881760  1.0  0.1866
  C  C222  1  0.980190  0.876150  0.869670  1.0  -0.1809
  C  C223  1  0.033890  0.843220  0.912800  1.0  -0.175
  C  C224  1  0.850590  0.982530  0.845890  1.0  -0.093
  C  C225  1  0.393650  0.168500  0.933400  1.0  0.0422
  C  C226  1  0.289740  0.174920  0.897600  1.0  -0.0668
  C  C227  1  0.200060  0.229680  0.882000  1.0  -0.0483
  C  C228  1  0.212140  0.278170  0.903350  1.0  -0.232
  C  C229  1  0.306530  0.270840  0.938500  1.0  -0.0696
  C  C230  1  0.396750  0.216100  0.952800  1.0  -0.1262
  C  C231  1  0.688290  0.008710  0.153710  1.0  0.058
  C  C232  1  0.702850  0.064100  0.161800  1.0  -0.1023
  C  C233  1  0.655630  0.079360  0.209780  1.0  -0.0574
  C  C234  1  0.595550  0.039090  0.250210  1.0  -0.2196
  C  C235  1  0.590240  0.982360  0.243560  1.0  -0.1013
  C  C236  1  0.637360  0.968480  0.195200  1.0  -0.0934
  C  C237  1  0.179840  0.813080  0.005040  1.0  0.0694
  C  C238  1  0.297450  0.810120  0.964780  1.0  -0.116
  C  C239  1  0.399890  0.758070  0.962750  1.0  -0.0624
  C  C240  1  0.391670  0.709820  0.002240  1.0  -0.1475
  C  C241  1  0.284340  0.713260  0.045460  1.0  -0.0663
  C  C242  1  0.180650  0.764720  0.046780  1.0  -0.128
  C  C243  1  0.893220  0.982010  0.789550  1.0  0.0398
  C  C244  1  0.831670  0.948710  0.765950  1.0  -0.1185
  C  C245  1  0.868970  0.951260  0.712400  1.0  -0.0897
  C  C246  1  0.964120  0.988880  0.684680  1.0  -0.181
  C  C247  1  0.028610  0.023060  0.707520  1.0  -0.0697
  C  C248  1  0.992520  0.018850  0.760510  1.0  -0.087
  C  C249  1  0.588270  0.407360  0.596500  1.0  0.153
  C  C250  1  0.566720  0.380510  0.649450  1.0  -0.1048
  C  C251  1  0.597880  0.417660  0.677580  1.0  -0.1737
  C  C252  1  0.645770  0.467830  0.642230  1.0  0.1785
  C  C253  1  0.560980  0.387510  0.554130  1.0  -0.082
  C  C254  1  0.604880  0.412110  0.503130  1.0  0.2111
  C  C255  1  0.721280  0.464650  0.433790  1.0  0.2024
  C  C256  1  0.640190  0.426520  0.416100  1.0  -0.1509
  C  C257  1  0.566800  0.395620  0.458780  1.0  -0.1948
  C  C258  1  0.816000  0.500490  0.400710  1.0  -0.0702
  C  C259  1  0.883520  0.542960  0.414600  1.0  0.1681
  C  C260  1  0.935330  0.604080  0.460460  1.0  0.1735
  C  C261  1  0.015890  0.616390  0.410230  1.0  -0.1678
  C  C262  1  0.984900  0.579240  0.382560  1.0  -0.1759
  C  C263  1  0.921230  0.634910  0.500630  1.0  -0.0679
  C  C264  1  0.833280  0.619460  0.548780  1.0  0.1598
  C  C265  1  0.726510  0.566740  0.618240  1.0  0.1858
  C  C266  1  0.726010  0.623850  0.630330  1.0  -0.1882
  C  C267  1  0.789910  0.656780  0.587200  1.0  -0.1748
  C  C268  1  0.679010  0.517470  0.654110  1.0  -0.0942
  C  C269  1  0.495550  0.331500  0.566600  1.0  0.043
  C  C270  1  0.362260  0.325080  0.602400  1.0  -0.0659
  C  C271  1  0.311740  0.270320  0.618000  1.0  -0.0493
  C  C272  1  0.393660  0.221830  0.596650  1.0  -0.2318
  C  C273  1  0.515870  0.229160  0.561500  1.0  -0.0685
  C  C274  1  0.565650  0.283900  0.547200  1.0  -0.1265
  C  C275  1  0.850710  0.491290  0.346290  1.0  0.06
  C  C276  1  0.928750  0.435900  0.338200  1.0  -0.1034
  C  C277  1  0.944770  0.420640  0.290220  1.0  -0.0617
  C  C278  1  0.884850  0.460910  0.249790  1.0  -0.2207
  C  C279  1  0.816160  0.517640  0.256440  1.0  -0.1032
  C  C280  1  0.801040  0.531520  0.304800  1.0  -0.0948
  C  C281  1  0.997960  0.686920  0.494960  1.0  0.0704
  C  C282  1  0.072350  0.689880  0.535220  1.0  -0.1141
  C  C283  1  0.120710  0.741930  0.537250  1.0  -0.0625
  C  C284  1  0.103730  0.790180  0.497760  1.0  -0.1462
  C  C285  1  0.043060  0.786740  0.454540  1.0  -0.0682
  C  C286  1  0.992150  0.735280  0.453220  1.0  -0.1296
  C  C287  1  0.664780  0.517990  0.710450  1.0  0.0355
  C  C288  1  0.546330  0.551290  0.734050  1.0  -0.1195
  C  C289  1  0.532630  0.548740  0.787600  1.0  -0.0918
  C  C290  1  0.637680  0.511120  0.815320  1.0  -0.1785
  C  C291  1  0.759190  0.476940  0.792480  1.0  -0.0676
  C  C292  1  0.771880  0.481150  0.739490  1.0  -0.0881
  S  S293  1  0.896650  0.651000  0.115920  1.0  1.3838
  S  S294  1  0.485410  0.937110  0.691590  1.0  1.3791
  S  S295  1  0.496170  0.359570  0.003050  1.0  1.3879
  S  S296  1  0.993300  0.008950  0.382010  1.0  1.4011
  S  S297  1  0.663570  0.849000  0.384080  1.0  1.3824
  S  S298  1  0.114110  0.562890  0.808410  1.0  1.3806
  S  S299  1  0.858790  0.140430  0.496950  1.0  1.3871
  S  S300  1  0.384260  0.491050  0.117990  1.0  1.3996
  S  S301  1  0.103350  0.349000  0.884080  1.0  1.3831
  S  S302  1  0.514590  0.062890  0.308410  1.0  1.3804
  S  S303  1  0.503830  0.640430  0.996950  1.0  1.3873
  S  S304  1  0.006700  0.991050  0.617990  1.0  1.3999
  S  S305  1  0.336430  0.151000  0.615920  1.0  1.3837
  S  S306  1  0.885890  0.437110  0.191590  1.0  1.3798
  S  S307  1  0.141210  0.859570  0.503050  1.0  1.3881
  S  S308  1  0.615740  0.508950  0.882010  1.0  1.4008
  N  N309  1  0.306600  0.959470  0.093730  1.0  -0.2657
  N  N310  1  0.363140  0.956330  0.986990  1.0  -0.4581
  N  N311  1  0.121850  0.058530  0.961770  1.0  -0.2588
  N  N312  1  0.080790  0.065660  0.068160  1.0  -0.4608
  N  N313  1  0.359800  0.540530  0.406270  1.0  -0.2646
  N  N314  1  0.306460  0.543670  0.513010  1.0  -0.4569
  N  N315  1  0.142150  0.441470  0.538230  1.0  -0.2611
  N  N316  1  0.214610  0.434340  0.431840  1.0  -0.459
  N  N317  1  0.693400  0.040530  0.906270  1.0  -0.2656
  N  N318  1  0.636860  0.043670  0.013010  1.0  -0.4563
  N  N319  1  0.878150  0.941470  0.038230  1.0  -0.2601
  N  N320  1  0.919210  0.934340  0.931840  1.0  -0.4596
  N  N321  1  0.640200  0.459470  0.593730  1.0  -0.2651
  N  N322  1  0.693540  0.456330  0.486990  1.0  -0.4579
  N  N323  1  0.857850  0.558530  0.461770  1.0  -0.2604
  N  N324  1  0.785390  0.565660  0.568160  1.0  -0.4608
  O  O325  1  0.403800  0.011510  0.564290  1.0  -0.9197
  O  O326  1  0.768840  0.017030  0.493490  1.0  -0.8204
  O  O327  1  0.357220  0.074840  0.430720  1.0  -0.7235
  O  O328  1  0.497700  0.894040  0.497960  1.0  -0.7061
  O  O329  1  0.796940  0.608150  0.117370  1.0  -0.785
  O  O330  1  0.024610  0.646130  0.075050  1.0  -0.7095
  O  O331  1  0.941690  0.649290  0.164930  1.0  -0.5746
  O  O332  1  0.361990  0.931040  0.666180  1.0  -0.7222
  O  O333  1  0.582500  0.881140  0.705260  1.0  -0.6345
  O  O334  1  0.567350  0.984050  0.661850  1.0  -0.7086
  O  O335  1  0.379320  0.348680  0.047080  1.0  -0.737
  O  O336  1  0.435960  0.383920  0.954360  1.0  -0.7164
  O  O337  1  0.599220  0.395910  0.012050  1.0  -0.7685
  O  O338  1  0.134170  0.008690  0.400370  1.0  -0.7318
  O  O339  1  0.889190  0.063470  0.387550  1.0  -0.6757
  O  O340  1  0.927830  0.955070  0.405470  1.0  -0.7179
  O  O341  1  0.979600  0.488490  0.935710  1.0  -0.9195
  O  O342  1  0.279360  0.482970  0.006510  1.0  -0.8206
  O  O343  1  0.862780  0.425160  0.069280  1.0  -0.7245
  O  O344  1  0.889700  0.605960  0.002040  1.0  -0.7046
  O  O345  1  0.522460  0.891850  0.382630  1.0  -0.7855
  O  O346  1  0.745790  0.853870  0.424950  1.0  -0.7089
  O  O347  1  0.755910  0.850710  0.335070  1.0  -0.5755
  O  O348  1  0.959210  0.568960  0.833820  1.0  -0.7195
  O  O349  1  0.168900  0.618860  0.794740  1.0  -0.6321
  O  O350  1  0.213250  0.515950  0.838150  1.0  -0.7087
  O  O351  1  0.775080  0.151320  0.452920  1.0  -0.7334
  O  O352  1  0.774240  0.116080  0.545640  1.0  -0.7144
  O  O353  1  0.007180  0.104090  0.487950  1.0  -0.7644
  O  O354  1  0.543230  0.491310  0.099630  1.0  -0.7155
  O  O355  1  0.340210  0.436530  0.112450  1.0  -0.6759
  O  O356  1  0.288370  0.544930  0.094530  1.0  -0.7179
  O  O357  1  0.596200  0.988490  0.435710  1.0  -0.9196
  O  O358  1  0.231160  0.982970  0.506510  1.0  -0.8204
  O  O359  1  0.642780  0.925160  0.569280  1.0  -0.7233
  O  O360  1  0.502300  0.105960  0.502040  1.0  -0.7053
  O  O361  1  0.203060  0.391850  0.882630  1.0  -0.7845
  O  O362  1  0.975390  0.353870  0.924950  1.0  -0.7077
  O  O363  1  0.058310  0.350710  0.835070  1.0  -0.5738
  O  O364  1  0.638010  0.068960  0.333820  1.0  -0.7225
  O  O365  1  0.417500  0.118860  0.294740  1.0  -0.6322
  O  O366  1  0.432650  0.015950  0.338150  1.0  -0.7098
  O  O367  1  0.620680  0.651320  0.952920  1.0  -0.7353
  O  O368  1  0.564040  0.616080  0.045640  1.0  -0.7154
  O  O369  1  0.400780  0.604090  0.987950  1.0  -0.7678
  O  O370  1  0.865830  0.991310  0.599630  1.0  -0.7297
  O  O371  1  0.110810  0.936530  0.612450  1.0  -0.676
  O  O372  1  0.072170  0.044930  0.594530  1.0  -0.7175
  O  O373  1  0.020400  0.511510  0.064290  1.0  -0.9197
  O  O374  1  0.720640  0.517030  0.993490  1.0  -0.8203
  O  O375  1  0.137220  0.574840  0.930720  1.0  -0.722
  O  O376  1  0.110300  0.394040  0.997960  1.0  -0.7057
  O  O377  1  0.477540  0.108150  0.617370  1.0  -0.7847
  O  O378  1  0.254210  0.146130  0.575050  1.0  -0.7095
  O  O379  1  0.244090  0.149290  0.664930  1.0  -0.5757
  O  O380  1  0.040790  0.431040  0.166180  1.0  -0.7203
  O  O381  1  0.831100  0.381140  0.205260  1.0  -0.6346
  O  O382  1  0.786750  0.484050  0.161850  1.0  -0.7077
  O  O383  1  0.224920  0.848680  0.547080  1.0  -0.7353
  O  O384  1  0.225760  0.883920  0.454360  1.0  -0.7147
  O  O385  1  0.992820  0.895910  0.512050  1.0  -0.765
  O  O386  1  0.456770  0.508690  0.900370  1.0  -0.7166
  O  O387  1  0.659790  0.563470  0.887550  1.0  -0.6761
  O  O388  1  0.711630  0.455070  0.905470  1.0  -0.7179
