# generated using pymatgen
data_Eu6H60C88S8N8O33
_symmetry_space_group_name_H-M   'P 1'
_cell_length_a   10.99440000
_cell_length_b   24.20690000
_cell_length_c   26.64990000
_cell_angle_alpha   67.57800000
_cell_angle_beta   78.09590000
_cell_angle_gamma   76.87410000
_symmetry_Int_Tables_number   1
_chemical_formula_structural   Eu6H60C88S8N8O33
_chemical_formula_sum   'Eu12 H120 C176 S16 N16 O66'
_cell_volume   6328.46121471
_cell_formula_units_Z   2
loop_
 _symmetry_equiv_pos_site_id
 _symmetry_equiv_pos_as_xyz
  1  'x, y, z'
loop_
 _atom_site_type_symbol
 _atom_site_label
 _atom_site_symmetry_multiplicity
 _atom_site_fract_x
 _atom_site_fract_y
 _atom_site_fract_z
 _atom_site_occupancy
 _atom_site_charge
  Eu  Eu1  1  0.161720  0.016070  0.417630  1.0  2.1227
  Eu  Eu2  1  0.174080  0.968810  0.562860  1.0  2.1234
  Eu  Eu3  1  0.980480  0.113050  0.490280  1.0  2.1303
  Eu  Eu4  1  0.595420  0.483930  0.082370  1.0  2.1178
  Eu  Eu5  1  0.705750  0.531190  0.937140  1.0  2.126
  Eu  Eu6  1  0.583810  0.386950  0.009720  1.0  2.1314
  Eu  Eu7  1  0.838280  0.983930  0.582370  1.0  2.1262
  Eu  Eu8  1  0.825920  0.031190  0.437140  1.0  2.1188
  Eu  Eu9  1  0.019520  0.886950  0.509720  1.0  2.1309
  Eu  Eu10  1  0.404580  0.516060  0.917640  1.0  2.113
  Eu  Eu11  1  0.294250  0.468810  0.062860  1.0  2.1251
  Eu  Eu12  1  0.416190  0.613050  0.990280  1.0  2.1301
  H  H13  1  0.667800  0.002700  0.061300  1.0  0.2168
  H  H14  1  0.471400  0.954800  0.208800  1.0  0.1127
  H  H15  1  0.456800  0.882500  0.165300  1.0  0.1127
  H  H16  1  0.815300  0.207500  0.056300  1.0  0.1186
  H  H17  1  0.653700  0.164000  0.132800  1.0  0.1208
  H  H18  1  0.830400  0.045600  0.982800  1.0  0.2894
  H  H19  1  0.090500  0.063100  0.854300  1.0  0.1195
  H  H20  1  0.125100  0.125800  0.904000  1.0  0.1141
  H  H21  1  0.590800  0.879100  0.961700  1.0  0.1111
  H  H22  1  0.737000  0.929800  0.881400  1.0  0.1052
  H  H23  1  0.377000  0.099000  0.175600  1.0  0.1028
  H  H24  1  0.296600  0.111900  0.259900  1.0  0.1007
  H  H25  1  0.635900  0.039400  0.311400  1.0  0.1087
  H  H26  1  0.714200  0.024200  0.228800  1.0  0.0911
  H  H27  1  0.061900  0.151700  0.056700  1.0  0.095
  H  H28  1  0.149600  0.236400  0.043600  1.0  0.111
  H  H29  1  0.063600  0.310900  0.888100  1.0  0.1084
  H  H30  1  0.981900  0.225000  0.901000  1.0  0.096
  H  H31  1  0.075600  0.934000  0.871200  1.0  0.0874
  H  H32  1  0.122600  0.902400  0.795600  1.0  0.1017
  H  H33  1  0.826900  0.022900  0.729700  1.0  0.0989
  H  H34  1  0.782000  0.055100  0.804500  1.0  0.1097
  H  H35  1  0.337100  0.891400  0.072400  1.0  0.0899
  H  H36  1  0.259200  0.802600  0.088000  1.0  0.092
  H  H37  1  0.611600  0.709300  0.093300  1.0  0.1072
  H  H38  1  0.688600  0.797700  0.076100  1.0  0.0898
  H  H39  1  0.006600  0.044200  0.608200  1.0  0.4238
  H  H40  1  0.729700  0.101000  0.510600  1.0  0.4033
  H  H41  1  0.994600  0.128400  0.380000  1.0  0.3827
  H  H42  1  0.259300  0.068900  0.471100  1.0  0.4613
  H  H43  1  0.731800  0.497300  0.438700  1.0  0.2183
  H  H44  1  0.635000  0.545200  0.291200  1.0  0.1131
  H  H45  1  0.504600  0.617500  0.334700  1.0  0.1133
  H  H46  1  0.079100  0.292500  0.443700  1.0  0.1198
  H  H47  1  0.950500  0.336000  0.367200  1.0  0.1192
  H  H48  1  0.858800  0.454400  0.517200  1.0  0.2863
  H  H49  1  0.007900  0.436900  0.645700  1.0  0.1185
  H  H50  1  0.154900  0.374200  0.596000  1.0  0.1143
  H  H51  1  0.431600  0.620900  0.538300  1.0  0.1108
  H  H52  1  0.548200  0.570200  0.618600  1.0  0.1065
  H  H53  1  0.651600  0.401000  0.324400  1.0  0.1015
  H  H54  1  0.668400  0.388100  0.240100  1.0  0.101
  H  H55  1  0.986700  0.460600  0.188600  1.0  0.1072
  H  H56  1  0.967200  0.475800  0.271200  1.0  0.0901
  H  H57  1  0.270300  0.348300  0.443300  1.0  0.0941
  H  H58  1  0.429600  0.263600  0.456400  1.0  0.1104
  H  H59  1  0.262600  0.189100  0.611900  1.0  0.1071
  H  H60  1  0.107900  0.275000  0.599000  1.0  0.0958
  H  H61  1  0.880800  0.566000  0.628800  1.0  0.0881
  H  H62  1  0.820600  0.597600  0.704400  1.0  0.1009
  H  H63  1  0.579500  0.477100  0.770300  1.0  0.099
  H  H64  1  0.641600  0.444900  0.695500  1.0  0.1096
  H  H65  1  0.300900  0.608600  0.427600  1.0  0.0904
  H  H66  1  0.149800  0.697400  0.412000  1.0  0.0926
  H  H67  1  0.414200  0.790700  0.406700  1.0  0.1067
  H  H68  1  0.562400  0.702300  0.423900  1.0  0.0903
  H  H69  1  0.659000  0.455800  0.891800  1.0  0.4235
  H  H70  1  0.341300  0.399000  0.989400  1.0  0.4019
  H  H71  1  0.503000  0.371600  0.120000  1.0  0.3815
  H  H72  1  0.799300  0.431100  0.028900  1.0  0.4631
  H  H73  1  0.332200  0.997300  0.938700  1.0  0.2176
  H  H74  1  0.528600  0.045200  0.791200  1.0  0.1133
  H  H75  1  0.543200  0.117500  0.834700  1.0  0.1123
  H  H76  1  0.184700  0.792500  0.943700  1.0  0.1185
  H  H77  1  0.346300  0.836000  0.867200  1.0  0.1199
  H  H78  1  0.169600  0.954400  0.017200  1.0  0.2891
  H  H79  1  0.909500  0.936900  0.145700  1.0  0.12
  H  H80  1  0.874900  0.874200  0.096000  1.0  0.1136
  H  H81  1  0.409200  0.120900  0.038300  1.0  0.1107
  H  H82  1  0.263000  0.070200  0.118600  1.0  0.1057
  H  H83  1  0.623000  0.901000  0.824400  1.0  0.102
  H  H84  1  0.703400  0.888100  0.740100  1.0  0.1006
  H  H85  1  0.364100  0.960600  0.688600  1.0  0.1076
  H  H86  1  0.285800  0.975800  0.771200  1.0  0.0915
  H  H87  1  0.938100  0.848300  0.943300  1.0  0.094
  H  H88  1  0.850400  0.763600  0.956400  1.0  0.1113
  H  H89  1  0.936400  0.689100  0.111900  1.0  0.1082
  H  H90  1  0.018100  0.775000  0.099000  1.0  0.0955
  H  H91  1  0.924400  0.066000  0.128800  1.0  0.0874
  H  H92  1  0.877400  0.097600  0.204400  1.0  0.1013
  H  H93  1  0.173100  0.977100  0.270300  1.0  0.0996
  H  H94  1  0.218000  0.944900  0.195500  1.0  0.1096
  H  H95  1  0.662900  0.108600  0.927600  1.0  0.0902
  H  H96  1  0.740800  0.197400  0.912000  1.0  0.0921
  H  H97  1  0.388400  0.290700  0.906700  1.0  0.1076
  H  H98  1  0.311400  0.202300  0.923900  1.0  0.0891
  H  H99  1  0.993400  0.955800  0.391800  1.0  0.4256
  H  H100  1  0.270300  0.899000  0.489400  1.0  0.4055
  H  H101  1  0.005400  0.871600  0.620000  1.0  0.3805
  H  H102  1  0.740700  0.931100  0.528900  1.0  0.4612
  H  H103  1  0.268200  0.502700  0.561300  1.0  0.2172
  H  H104  1  0.365000  0.454800  0.708800  1.0  0.1121
  H  H105  1  0.495400  0.382500  0.665300  1.0  0.1128
  H  H106  1  0.920900  0.707500  0.556300  1.0  0.1193
  H  H107  1  0.049500  0.664000  0.632800  1.0  0.1193
  H  H108  1  0.141200  0.545600  0.482800  1.0  0.2877
  H  H109  1  0.992100  0.563100  0.354300  1.0  0.1191
  H  H110  1  0.845100  0.625800  0.404000  1.0  0.1134
  H  H111  1  0.568400  0.379100  0.461700  1.0  0.1107
  H  H112  1  0.451800  0.429800  0.381400  1.0  0.1056
  H  H113  1  0.348400  0.599000  0.675600  1.0  0.1022
  H  H114  1  0.331600  0.611900  0.759900  1.0  0.101
  H  H115  1  0.013300  0.539400  0.811400  1.0  0.1071
  H  H116  1  0.032800  0.524200  0.728800  1.0  0.0905
  H  H117  1  0.729700  0.651700  0.556700  1.0  0.0948
  H  H118  1  0.570400  0.736400  0.543600  1.0  0.11
  H  H119  1  0.737400  0.810900  0.388100  1.0  0.1076
  H  H120  1  0.892100  0.725000  0.401000  1.0  0.0959
  H  H121  1  0.119200  0.434000  0.371200  1.0  0.0876
  H  H122  1  0.179400  0.402400  0.295600  1.0  0.1008
  H  H123  1  0.420500  0.522900  0.229700  1.0  0.0984
  H  H124  1  0.358400  0.555100  0.304500  1.0  0.1093
  H  H125  1  0.699100  0.391400  0.572400  1.0  0.0897
  H  H126  1  0.850200  0.302600  0.588000  1.0  0.093
  H  H127  1  0.585800  0.209300  0.593300  1.0  0.1069
  H  H128  1  0.437600  0.297700  0.576100  1.0  0.0901
  H  H129  1  0.341000  0.544200  0.108200  1.0  0.4233
  H  H130  1  0.658700  0.601000  0.010600  1.0  0.4006
  H  H131  1  0.497000  0.628400  0.880000  1.0  0.383
  H  H132  1  0.200700  0.568900  0.971100  1.0  0.4615
  C  C133  1  0.579860  0.999750  0.134730  1.0  0.1462
  C  C134  1  0.507780  0.956160  0.172880  1.0  -0.1735
  C  C135  1  0.499810  0.916350  0.149030  1.0  -0.1752
  C  C136  1  0.567380  0.934840  0.095400  1.0  0.1709
  C  C137  1  0.607220  0.050080  0.140880  1.0  -0.1099
  C  C138  1  0.684480  0.090300  0.102740  1.0  0.1843
  C  C139  1  0.830420  0.127880  0.035480  1.0  0.1657
  C  C140  1  0.786830  0.170320  0.064820  1.0  -0.1968
  C  C141  1  0.698480  0.146780  0.106260  1.0  -0.1907
  C  C142  1  0.931870  0.132870  0.992990  1.0  -0.1122
  C  C143  1  0.960870  0.097970  0.959290  1.0  0.1544
  C  C144  1  0.932210  0.040390  0.915390  1.0  0.1612
  C  C145  1  0.040660  0.068050  0.886430  1.0  -0.1585
  C  C146  1  0.059130  0.102750  0.913590  1.0  -0.1989
  C  C147  1  0.872840  0.004670  0.900250  1.0  -0.0947
  C  C148  1  0.772630  0.974820  0.931920  1.0  0.188
  C  C149  1  0.643050  0.930140  0.002360  1.0  0.1977
  C  C150  1  0.639870  0.907820  0.959440  1.0  -0.1796
  C  C151  1  0.719290  0.935180  0.915840  1.0  -0.1739
  C  C152  1  0.577570  0.909330  0.055130  1.0  -0.1041
  C  C153  1  0.554000  0.059800  0.193800  1.0  0.0381
  C  C154  1  0.429880  0.086100  0.203340  1.0  -0.1307
  C  C155  1  0.381840  0.093870  0.253450  1.0  -0.0594
  C  C156  1  0.459050  0.075230  0.293270  1.0  -0.1911
  C  C157  1  0.582430  0.050640  0.284100  1.0  -0.0895
  C  C158  1  0.628900  0.042300  0.234700  1.0  -0.1265
  C  C159  1  0.004710  0.181860  0.981320  1.0  0.0452
  C  C160  1  0.059870  0.184670  0.022790  1.0  -0.111
  C  C161  1  0.111800  0.234980  0.015220  1.0  -0.0613
  C  C162  1  0.107960  0.282790  0.965890  1.0  -0.2382
  C  C163  1  0.061290  0.279020  0.922600  1.0  -0.0758
  C  C164  1  0.011670  0.228270  0.930590  1.0  -0.1413
  C  C165  1  0.919630  0.994670  0.846870  1.0  0.0365
  C  C166  1  0.023250  0.951140  0.842960  1.0  -0.1379
  C  C167  1  0.051660  0.932370  0.798110  1.0  -0.0763
  C  C168  1  0.975250  0.957980  0.757120  1.0  -0.2305
  C  C169  1  0.876370  0.004060  0.759000  1.0  -0.0506
  C  C170  1  0.849120  0.022870  0.803490  1.0  -0.0983
  C  C171  1  0.521560  0.853640  0.070240  1.0  0.0195
  C  C172  1  0.393940  0.854520  0.075400  1.0  -0.1481
  C  C173  1  0.347220  0.801760  0.085000  1.0  -0.0481
  C  C174  1  0.428800  0.749080  0.090120  1.0  -0.176
  C  C175  1  0.555490  0.746720  0.087900  1.0  -0.0881
  C  C176  1  0.600730  0.799340  0.077800  1.0  -0.0749
  C  C177  1  0.714340  0.500250  0.365270  1.0  0.1465
  C  C178  1  0.636820  0.543840  0.327120  1.0  -0.1722
  C  C179  1  0.565190  0.583650  0.350970  1.0  -0.1744
  C  C180  1  0.597620  0.565160  0.404600  1.0  0.1694
  C  C181  1  0.798180  0.449920  0.359120  1.0  -0.1106
  C  C182  1  0.877520  0.409700  0.397260  1.0  0.1846
  C  C183  1  0.993780  0.372120  0.464520  1.0  0.1639
  C  C184  1  0.021970  0.329680  0.435180  1.0  -0.199
  C  C185  1  0.951520  0.353220  0.393740  1.0  -0.1877
  C  C186  1  0.057730  0.367130  0.507010  1.0  -0.1127
  C  C187  1  0.018130  0.402030  0.540710  1.0  0.1553
  C  C188  1  0.887990  0.459610  0.584610  1.0  0.1616
  C  C189  1  0.995140  0.431950  0.613570  1.0  -0.1582
  C  C190  1  0.075470  0.397250  0.586410  1.0  -0.1961
  C  C191  1  0.777760  0.495330  0.599750  1.0  -0.0947
  C  C192  1  0.679370  0.525180  0.568080  1.0  0.1867
  C  C193  1  0.575550  0.569860  0.497640  1.0  0.1988
  C  C194  1  0.507130  0.592180  0.540560  1.0  -0.1789
  C  C195  1  0.570310  0.564820  0.584160  1.0  -0.1771
  C  C196  1  0.542030  0.590670  0.444870  1.0  -0.1046
  C  C197  1  0.807600  0.440200  0.306200  1.0  0.0377
  C  C198  1  0.719320  0.413900  0.296660  1.0  -0.1299
  C  C199  1  0.729160  0.406130  0.246550  1.0  -0.0592
  C  C200  1  0.827550  0.424770  0.206730  1.0  -0.1942
  C  C201  1  0.917170  0.449360  0.215900  1.0  -0.0899
  C  C202  1  0.905900  0.457700  0.265300  1.0  -0.1257
  C  C203  1  0.167890  0.318140  0.518680  1.0  0.0441
  C  C204  1  0.267330  0.315330  0.477210  1.0  -0.112
  C  C205  1  0.362000  0.265020  0.484780  1.0  -0.0626
  C  C206  1  0.356640  0.217210  0.534110  1.0  -0.2399
  C  C207  1  0.262910  0.220980  0.577400  1.0  -0.0759
  C  C208  1  0.170530  0.271730  0.569410  1.0  -0.1386
  C  C209  1  0.761170  0.505330  0.653130  1.0  0.0366
  C  C210  1  0.817350  0.548860  0.657040  1.0  -0.1394
  C  C211  1  0.782140  0.567630  0.701890  1.0  -0.0755
  C  C212  1  0.690350  0.542020  0.742880  1.0  -0.2299
  C  C213  1  0.639430  0.495940  0.741000  1.0  -0.0476
  C  C214  1  0.675480  0.477130  0.696510  1.0  -0.0964
  C  C215  1  0.445440  0.646360  0.429760  1.0  0.0204
  C  C216  1  0.323860  0.645480  0.424600  1.0  -0.1484
  C  C217  1  0.233980  0.698240  0.415000  1.0  -0.0499
  C  C218  1  0.268000  0.750920  0.409880  1.0  -0.1748
  C  C219  1  0.390110  0.753280  0.412100  1.0  -0.0891
  C  C220  1  0.477870  0.700660  0.422200  1.0  -0.0747
  C  C221  1  0.420140  0.000250  0.865270  1.0  0.1467
  C  C222  1  0.492220  0.043840  0.827120  1.0  -0.1702
  C  C223  1  0.500190  0.083650  0.850970  1.0  -0.1743
  C  C224  1  0.432620  0.065160  0.904600  1.0  0.1705
  C  C225  1  0.392780  0.949920  0.859120  1.0  -0.1104
  C  C226  1  0.315520  0.909700  0.897260  1.0  0.1844
  C  C227  1  0.169580  0.872120  0.964520  1.0  0.1644
  C  C228  1  0.213170  0.829680  0.935180  1.0  -0.1972
  C  C229  1  0.301520  0.853220  0.893740  1.0  -0.189
  C  C230  1  0.068130  0.867130  0.007010  1.0  -0.1125
  C  C231  1  0.039130  0.902030  0.040710  1.0  0.1541
  C  C232  1  0.067790  0.959610  0.084610  1.0  0.1595
  C  C233  1  0.959340  0.931950  0.113570  1.0  -0.159
  C  C234  1  0.940870  0.897250  0.086410  1.0  -0.1984
  C  C235  1  0.127160  0.995330  0.099750  1.0  -0.0947
  C  C236  1  0.227370  0.025180  0.068080  1.0  0.1865
  C  C237  1  0.356950  0.069860  0.997640  1.0  0.1978
  C  C238  1  0.360130  0.092180  0.040560  1.0  -0.1787
  C  C239  1  0.280710  0.064820  0.084160  1.0  -0.1739
  C  C240  1  0.422430  0.090670  0.944870  1.0  -0.1038
  C  C241  1  0.446000  0.940200  0.806200  1.0  0.0379
  C  C242  1  0.570120  0.913900  0.796660  1.0  -0.129
  C  C243  1  0.618160  0.906130  0.746550  1.0  -0.0603
  C  C244  1  0.540950  0.924770  0.706730  1.0  -0.1935
  C  C245  1  0.417570  0.949360  0.715900  1.0  -0.0876
  C  C246  1  0.371100  0.957700  0.765300  1.0  -0.1254
  C  C247  1  0.995290  0.818140  0.018680  1.0  0.045
  C  C248  1  0.940130  0.815330  0.977210  1.0  -0.1116
  C  C249  1  0.888200  0.765020  0.984780  1.0  -0.0622
  C  C250  1  0.892040  0.717210  0.034110  1.0  -0.24
  C  C251  1  0.938710  0.720980  0.077400  1.0  -0.077
  C  C252  1  0.988330  0.771730  0.069410  1.0  -0.14
  C  C253  1  0.080370  0.005330  0.153130  1.0  0.0372
  C  C254  1  0.976750  0.048860  0.157040  1.0  -0.1373
  C  C255  1  0.948340  0.067630  0.201890  1.0  -0.0772
  C  C256  1  0.024750  0.042020  0.242880  1.0  -0.2293
  C  C257  1  0.123630  0.995940  0.241000  1.0  -0.0495
  C  C258  1  0.150880  0.977130  0.196510  1.0  -0.099
  C  C259  1  0.478440  0.146360  0.929760  1.0  0.0198
  C  C260  1  0.606060  0.145480  0.924600  1.0  -0.1495
  C  C261  1  0.652780  0.198240  0.915000  1.0  -0.0495
  C  C262  1  0.571200  0.250920  0.909880  1.0  -0.1767
  C  C263  1  0.444510  0.253280  0.912100  1.0  -0.0874
  C  C264  1  0.399270  0.200660  0.922200  1.0  -0.074
  C  C265  1  0.285660  0.499750  0.634730  1.0  0.1457
  C  C266  1  0.363180  0.456160  0.672880  1.0  -0.1735
  C  C267  1  0.434810  0.416350  0.649030  1.0  -0.174
  C  C268  1  0.402380  0.434840  0.595400  1.0  0.1698
  C  C269  1  0.201820  0.550080  0.640880  1.0  -0.1103
  C  C270  1  0.122480  0.590300  0.602740  1.0  0.1843
  C  C271  1  0.006220  0.627880  0.535480  1.0  0.1651
  C  C272  1  0.978030  0.670320  0.564820  1.0  -0.1985
  C  C273  1  0.048480  0.646780  0.606260  1.0  -0.1896
  C  C274  1  0.942270  0.632870  0.492990  1.0  -0.1122
  C  C275  1  0.981870  0.597970  0.459290  1.0  0.1545
  C  C276  1  0.112010  0.540390  0.415390  1.0  0.1619
  C  C277  1  0.004860  0.568050  0.386430  1.0  -0.156
  C  C278  1  0.924530  0.602750  0.413590  1.0  -0.198
  C  C279  1  0.222240  0.504670  0.400250  1.0  -0.0952
  C  C280  1  0.320630  0.474820  0.431920  1.0  0.1875
  C  C281  1  0.424450  0.430140  0.502360  1.0  0.1991
  C  C282  1  0.492870  0.407820  0.459440  1.0  -0.1799
  C  C283  1  0.429690  0.435180  0.415840  1.0  -0.1758
  C  C284  1  0.457970  0.409330  0.555130  1.0  -0.1039
  C  C285  1  0.192400  0.559800  0.693800  1.0  0.0394
  C  C286  1  0.280680  0.586100  0.703340  1.0  -0.1301
  C  C287  1  0.270840  0.593870  0.753450  1.0  -0.0592
  C  C288  1  0.172450  0.575230  0.793270  1.0  -0.1931
  C  C289  1  0.082830  0.550640  0.784100  1.0  -0.0909
  C  C290  1  0.094100  0.542300  0.734700  1.0  -0.124
  C  C291  1  0.832110  0.681860  0.481320  1.0  0.0459
  C  C292  1  0.732670  0.684670  0.522790  1.0  -0.1107
  C  C293  1  0.638000  0.734980  0.515220  1.0  -0.0626
  C  C294  1  0.643360  0.782790  0.465890  1.0  -0.2387
  C  C295  1  0.737090  0.779020  0.422600  1.0  -0.0769
  C  C296  1  0.829470  0.728270  0.430590  1.0  -0.1392
  C  C297  1  0.238830  0.494670  0.346870  1.0  0.0371
  C  C298  1  0.182650  0.451140  0.342960  1.0  -0.1373
  C  C299  1  0.217860  0.432370  0.298110  1.0  -0.0756
  C  C300  1  0.309650  0.457980  0.257120  1.0  -0.2318
  C  C301  1  0.360570  0.504060  0.259000  1.0  -0.0513
  C  C302  1  0.324520  0.522870  0.303490  1.0  -0.0968
  C  C303  1  0.554560  0.353640  0.570240  1.0  0.0197
  C  C304  1  0.676140  0.354520  0.575400  1.0  -0.1472
  C  C305  1  0.766020  0.301760  0.585000  1.0  -0.0505
  C  C306  1  0.732000  0.249080  0.590120  1.0  -0.1745
  C  C307  1  0.609890  0.246720  0.587900  1.0  -0.0878
  C  C308  1  0.522130  0.299340  0.577800  1.0  -0.0743
  S  S309  1  0.399700  0.086030  0.356450  1.0  1.394
  S  S310  1  0.149270  0.351550  0.959830  1.0  1.3645
  S  S311  1  0.999820  0.927790  0.704390  1.0  1.3631
  S  S312  1  0.375750  0.681650  0.099310  1.0  1.3593
  S  S313  1  0.842180  0.413970  0.143550  1.0  1.3921
  S  S314  1  0.460650  0.148450  0.540170  1.0  1.3646
  S  S315  1  0.632000  0.572210  0.795610  1.0  1.3629
  S  S316  1  0.156710  0.818350  0.400690  1.0  1.3598
  S  S317  1  0.600300  0.913970  0.643550  1.0  1.3922
  S  S318  1  0.850730  0.648450  0.040170  1.0  1.364
  S  S319  1  0.000180  0.072210  0.295610  1.0  1.3617
  S  S320  1  0.624250  0.318350  0.900690  1.0  1.3597
  S  S321  1  0.157820  0.586030  0.856450  1.0  1.3939
  S  S322  1  0.539350  0.851550  0.459830  1.0  1.3653
  S  S323  1  0.368000  0.427790  0.204390  1.0  1.3618
  S  S324  1  0.843290  0.181650  0.599310  1.0  1.361
  N  N325  1  0.616250  0.985020  0.088280  1.0  -0.295
  N  N326  1  0.762930  0.080920  0.058220  1.0  -0.4465
  N  N327  1  0.890270  0.057810  0.960050  1.0  -0.2984
  N  N328  1  0.722170  0.971800  0.984260  1.0  -0.4676
  N  N329  1  0.689550  0.514980  0.411720  1.0  -0.2939
  N  N330  1  0.902070  0.419080  0.441780  1.0  -0.4455
  N  N331  1  0.908130  0.442190  0.539950  1.0  -0.2976
  N  N332  1  0.678230  0.528200  0.515740  1.0  -0.4666
  N  N333  1  0.383750  0.014980  0.911720  1.0  -0.2952
  N  N334  1  0.237070  0.919080  0.941780  1.0  -0.4451
  N  N335  1  0.109730  0.942190  0.039950  1.0  -0.2989
  N  N336  1  0.277830  0.028200  0.015740  1.0  -0.4676
  N  N337  1  0.310450  0.485020  0.588280  1.0  -0.2929
  N  N338  1  0.097930  0.580920  0.558220  1.0  -0.4454
  N  N339  1  0.091870  0.557810  0.460050  1.0  -0.298
  N  N340  1  0.321770  0.471800  0.484260  1.0  -0.4674
  O  O341  1  0.993640  0.040230  0.579090  1.0  -0.9711
  O  O342  1  0.787640  0.073000  0.507720  1.0  -0.9683
  O  O343  1  0.981490  0.094900  0.408520  1.0  -0.9984
  O  O344  1  0.190450  0.057670  0.481630  1.0  -0.8798
  O  O345  1  0.420340  0.027470  0.400450  1.0  -0.7107
  O  O346  1  0.264130  0.107350  0.356190  1.0  -0.7217
  O  O347  1  0.466520  0.130060  0.359300  1.0  -0.6528
  O  O348  1  0.249740  0.336170  0.992550  1.0  -0.5128
  O  O349  1  0.034180  0.384470  0.981370  1.0  -0.6644
  O  O350  1  0.184040  0.383400  0.901720  1.0  -0.6284
  O  O351  1  0.011160  0.862310  0.732170  1.0  -0.6876
  O  O352  1  0.115630  0.944880  0.668860  1.0  -0.7357
  O  O353  1  0.887730  0.953670  0.676870  1.0  -0.7347
  O  O354  1  0.427190  0.634540  0.146480  1.0  -0.6463
  O  O355  1  0.427380  0.668770  0.048870  1.0  -0.7638
  O  O356  1  0.239250  0.693470  0.106830  1.0  -0.623
  O  O357  1  0.612960  0.459770  0.920910  1.0  -0.9698
  O  O358  1  0.368360  0.427000  0.992280  1.0  -0.9712
  O  O359  1  0.484910  0.405100  0.091480  1.0  -0.9974
  O  O360  1  0.729750  0.442330  0.018370  1.0  -0.8809
  O  O361  1  0.848260  0.472530  0.099550  1.0  -0.7118
  O  O362  1  0.727670  0.392650  0.143810  1.0  -0.7249
  O  O363  1  0.955880  0.369940  0.140700  1.0  -0.6501
  O  O364  1  0.578460  0.163830  0.507450  1.0  -0.5156
  O  O365  1  0.400020  0.115530  0.518630  1.0  -0.6672
  O  O366  1  0.469160  0.116600  0.598280  1.0  -0.6315
  O  O367  1  0.605640  0.637690  0.767830  1.0  -0.6811
  O  O368  1  0.729370  0.555120  0.831140  1.0  -0.7386
  O  O369  1  0.518270  0.546330  0.823130  1.0  -0.7339
  O  O370  1  0.208210  0.865460  0.353520  1.0  -0.645
  O  O371  1  0.145020  0.831230  0.451130  1.0  -0.764
  O  O372  1  0.039550  0.806530  0.393170  1.0  -0.623
  O  O373  1  0.006360  0.959770  0.420910  1.0  -0.968
  O  O374  1  0.212360  0.927000  0.492280  1.0  -0.9686
  O  O375  1  0.018510  0.905100  0.591480  1.0  -1.0003
  O  O376  1  0.809550  0.942330  0.518370  1.0  -0.8826
  O  O377  1  0.579660  0.972530  0.599550  1.0  -0.7129
  O  O378  1  0.735870  0.892650  0.643810  1.0  -0.7241
  O  O379  1  0.533480  0.869940  0.640700  1.0  -0.652
  O  O380  1  0.750260  0.663830  0.007450  1.0  -0.514
  O  O381  1  0.965820  0.615530  0.018630  1.0  -0.6643
  O  O382  1  0.815960  0.616600  0.098280  1.0  -0.6283
  O  O383  1  0.988840  0.137690  0.267830  1.0  -0.6814
  O  O384  1  0.884370  0.055120  0.331140  1.0  -0.7371
  O  O385  1  0.112270  0.046330  0.323130  1.0  -0.7359
  O  O386  1  0.572810  0.365460  0.853520  1.0  -0.6461
  O  O387  1  0.572620  0.331230  0.951130  1.0  -0.763
  O  O388  1  0.760750  0.306530  0.893170  1.0  -0.6226
  O  O389  1  0.387040  0.540230  0.079090  1.0  -0.9709
  O  O390  1  0.631640  0.573000  0.007720  1.0  -0.9687
  O  O391  1  0.515090  0.594900  0.908520  1.0  -0.9993
  O  O392  1  0.270250  0.557670  0.981630  1.0  -0.8823
  O  O393  1  0.151740  0.527470  0.900450  1.0  -0.7108
  O  O394  1  0.272330  0.607350  0.856190  1.0  -0.7265
  O  O395  1  0.044120  0.630060  0.859300  1.0  -0.6536
  O  O396  1  0.421540  0.836170  0.492550  1.0  -0.5141
  O  O397  1  0.599980  0.884470  0.481370  1.0  -0.6664
  O  O398  1  0.530840  0.883400  0.401720  1.0  -0.6311
  O  O399  1  0.394360  0.362310  0.232170  1.0  -0.6876
  O  O400  1  0.270630  0.444880  0.168860  1.0  -0.7396
  O  O401  1  0.481730  0.453670  0.176870  1.0  -0.7324
  O  O402  1  0.791790  0.134540  0.646480  1.0  -0.6445
  O  O403  1  0.854980  0.168770  0.548870  1.0  -0.7628
  O  O404  1  0.960450  0.193470  0.606830  1.0  -0.6264
  O  O405  1  0.000000  0.000000  0.500000  1.0  -0.8087
  O  O406  1  0.500000  0.500000  0.000000  1.0  -0.8179
