# generated using pymatgen
data_Ni2H24C41N10O9
_symmetry_space_group_name_H-M   'P 1'
_cell_length_a   10.75850000
_cell_length_b   15.09970000
_cell_length_c   18.13660000
_cell_angle_alpha   68.38530000
_cell_angle_beta   72.74670000
_cell_angle_gamma   69.13000000
_symmetry_Int_Tables_number   1
_chemical_formula_structural   Ni2H24C41N10O9
_chemical_formula_sum   'Ni4 H48 C82 N20 O18'
_cell_volume   2512.60228568
_cell_formula_units_Z   2
loop_
 _symmetry_equiv_pos_site_id
 _symmetry_equiv_pos_as_xyz
  1  'x, y, z'
loop_
 _atom_site_type_symbol
 _atom_site_label
 _atom_site_symmetry_multiplicity
 _atom_site_fract_x
 _atom_site_fract_y
 _atom_site_fract_z
 _atom_site_occupancy
 _atom_site_charge
  Ni  Ni1  1  0.500000  0.000000  0.500000  1.0  0.5594
  Ni  Ni2  1  0.000000  0.500000  0.000000  1.0  0.5594
  Ni  Ni3  1  0.000000  0.000000  0.500000  1.0  0.8778
  Ni  Ni4  1  0.500000  0.500000  0.000000  1.0  0.8778
  H  H5  1  0.624500  0.477100  0.335100  1.0  0.3145
  H  H6  1  0.837100  0.831100  0.363900  1.0  0.0992
  H  H7  1  0.162900  0.991100  0.218100  1.0  0.0802
  H  H8  1  0.171300  0.849700  0.195700  1.0  0.1133
  H  H9  1  0.258600  0.928000  0.389200  1.0  0.0813
  H  H10  1  0.397900  0.788700  0.355700  1.0  0.1151
  H  H11  1  0.159700  0.634500  0.526700  1.0  0.119
  H  H12  1  0.022800  0.778600  0.553800  1.0  0.0865
  H  H13  1  0.363000  0.329500  0.550500  1.0  0.126
  H  H14  1  0.385600  0.165100  0.577700  1.0  0.0818
  H  H15  1  0.627200  0.158900  0.371500  1.0  0.0811
  H  H16  1  0.618500  0.322600  0.340400  1.0  0.1252
  H  H17  1  0.436700  0.022900  0.164900  1.0  0.3171
  H  H18  1  0.032100  0.668900  0.136100  1.0  0.0991
  H  H19  1  0.372100  0.508900  0.281900  1.0  0.0805
  H  H20  1  0.216700  0.650300  0.304300  1.0  0.1139
  H  H21  1  0.575800  0.572000  0.110800  1.0  0.081
  H  H22  1  0.542300  0.711300  0.144300  1.0  0.113
  H  H23  1  0.320900  0.865500  0.973300  1.0  0.1191
  H  H24  1  0.355200  0.721400  0.946200  1.0  0.0876
  H  H25  1  0.243000  0.170500  0.949500  1.0  0.1247
  H  H26  1  0.128400  0.334900  0.922300  1.0  0.0818
  H  H27  1  0.157600  0.341100  0.128500  1.0  0.0778
  H  H28  1  0.281500  0.177400  0.159600  1.0  0.1259
  H  H29  1  0.375500  0.522900  0.664900  1.0  0.315
  H  H30  1  0.162900  0.168900  0.636100  1.0  0.0987
  H  H31  1  0.837100  0.008900  0.781900  1.0  0.0805
  H  H32  1  0.828700  0.150300  0.804300  1.0  0.113
  H  H33  1  0.741400  0.072000  0.610800  1.0  0.0812
  H  H34  1  0.602100  0.211300  0.644300  1.0  0.1149
  H  H35  1  0.840300  0.365500  0.473300  1.0  0.1198
  H  H36  1  0.977200  0.221400  0.446200  1.0  0.0867
  H  H37  1  0.637000  0.670500  0.449500  1.0  0.1262
  H  H38  1  0.614400  0.834900  0.422300  1.0  0.0813
  H  H39  1  0.372800  0.841100  0.628500  1.0  0.0804
  H  H40  1  0.381500  0.677400  0.659600  1.0  0.125
  H  H41  1  0.563300  0.977100  0.835100  1.0  0.3185
  H  H42  1  0.967900  0.331100  0.863900  1.0  0.0987
  H  H43  1  0.627900  0.491100  0.718100  1.0  0.0804
  H  H44  1  0.783300  0.349700  0.695700  1.0  0.1144
  H  H45  1  0.424200  0.428000  0.889200  1.0  0.0807
  H  H46  1  0.457700  0.288700  0.855700  1.0  0.1125
  H  H47  1  0.679100  0.134500  0.026700  1.0  0.119
  H  H48  1  0.644800  0.278600  0.053800  1.0  0.0876
  H  H49  1  0.757000  0.829500  0.050500  1.0  0.1238
  H  H50  1  0.871600  0.665100  0.077700  1.0  0.0824
  H  H51  1  0.842400  0.658900  0.871500  1.0  0.0785
  H  H52  1  0.718500  0.822600  0.840400  1.0  0.1264
  C  C53  1  0.004100  0.826800  0.275600  1.0  0.0174
  C  C54  1  0.906000  0.861600  0.336400  1.0  -0.0663
  C  C55  1  0.908780  0.940740  0.356700  1.0  -0.079
  C  C56  1  0.799330  0.968540  0.425800  1.0  0.7248
  C  C57  1  0.002900  0.991800  0.311200  1.0  -0.0609
  C  C58  1  0.010400  0.083400  0.322800  1.0  0.7317
  C  C59  1  0.099300  0.956800  0.249600  1.0  -0.087
  C  C60  1  0.102100  0.874000  0.234400  1.0  -0.1357
  C  C61  1  0.237500  0.868200  0.417000  1.0  0.1618
  C  C62  1  0.322290  0.784520  0.396900  1.0  -0.1464
  C  C63  1  0.295750  0.695200  0.437300  1.0  -0.0222
  C  C64  1  0.181400  0.694100  0.497300  1.0  -0.1276
  C  C65  1  0.099900  0.780800  0.513600  1.0  0.174
  C  C66  1  0.384940  0.602620  0.420100  1.0  0.3253
  C  C67  1  0.467780  0.452940  0.421100  1.0  0.3714
  C  C68  1  0.485080  0.346540  0.440700  1.0  0.0425
  C  C69  1  0.417420  0.296360  0.512800  1.0  -0.1736
  C  C70  1  0.430690  0.197820  0.528400  1.0  0.1686
  C  C71  1  0.573150  0.193900  0.408000  1.0  0.177
  C  C72  1  0.567430  0.292840  0.388300  1.0  -0.2014
  C  C73  1  0.106500  0.673200  0.224400  1.0  0.0189
  C  C74  1  0.104000  0.638400  0.163600  1.0  -0.0612
  C  C75  1  0.206220  0.559260  0.143300  1.0  -0.0791
  C  C76  1  0.193670  0.531460  0.074200  1.0  0.7256
  C  C77  1  0.305900  0.508200  0.188800  1.0  -0.0616
  C  C78  1  0.416600  0.416600  0.177200  1.0  0.7314
  C  C79  1  0.305700  0.543200  0.250400  1.0  -0.0869
  C  C80  1  0.210500  0.626000  0.265600  1.0  -0.1356
  C  C81  1  0.522700  0.631800  0.083000  1.0  0.1631
  C  C82  1  0.503710  0.715480  0.103100  1.0  -0.1435
  C  C83  1  0.428250  0.804800  0.062700  1.0  -0.0203
  C  C84  1  0.372800  0.805900  0.002700  1.0  -0.1258
  C  C85  1  0.394300  0.719200  0.986400  1.0  0.1757
  C  C86  1  0.407660  0.897380  0.079900  1.0  0.3239
  C  C87  1  0.341820  0.047060  0.078900  1.0  0.372
  C  C88  1  0.272320  0.153460  0.059300  1.0  0.0419
  C  C89  1  0.226580  0.203640  0.987200  1.0  -0.1749
  C  C90  1  0.156910  0.302180  0.971600  1.0  0.1664
  C  C91  1  0.175050  0.306100  0.092000  1.0  0.179
  C  C92  1  0.248570  0.207160  0.111700  1.0  -0.203
  C  C93  1  0.995900  0.173200  0.724400  1.0  0.016
  C  C94  1  0.094000  0.138400  0.663600  1.0  -0.0649
  C  C95  1  0.091220  0.059260  0.643300  1.0  -0.0778
  C  C96  1  0.200670  0.031460  0.574200  1.0  0.726
  C  C97  1  0.997100  0.008200  0.688800  1.0  -0.0597
  C  C98  1  0.989600  0.916600  0.677200  1.0  0.7314
  C  C99  1  0.900700  0.043200  0.750400  1.0  -0.0859
  C  C100  1  0.897900  0.126000  0.765600  1.0  -0.1333
  C  C101  1  0.762500  0.131800  0.583000  1.0  0.1629
  C  C102  1  0.677710  0.215480  0.603100  1.0  -0.1445
  C  C103  1  0.704250  0.304800  0.562700  1.0  -0.0197
  C  C104  1  0.818600  0.305900  0.502700  1.0  -0.1262
  C  C105  1  0.900100  0.219200  0.486400  1.0  0.174
  C  C106  1  0.615060  0.397380  0.579900  1.0  0.3247
  C  C107  1  0.532220  0.547060  0.578900  1.0  0.3731
  C  C108  1  0.514920  0.653460  0.559300  1.0  0.0421
  C  C109  1  0.582580  0.703640  0.487200  1.0  -0.1747
  C  C110  1  0.569310  0.802180  0.471600  1.0  0.168
  C  C111  1  0.426850  0.806100  0.592000  1.0  0.1773
  C  C112  1  0.432570  0.707160  0.611700  1.0  -0.202
  C  C113  1  0.893500  0.326800  0.775600  1.0  0.0194
  C  C114  1  0.896000  0.361600  0.836400  1.0  -0.0612
  C  C115  1  0.793780  0.440740  0.856700  1.0  -0.0792
  C  C116  1  0.806330  0.468540  0.925800  1.0  0.726
  C  C117  1  0.694100  0.491800  0.811200  1.0  -0.0615
  C  C118  1  0.583400  0.583400  0.822800  1.0  0.7321
  C  C119  1  0.694300  0.456800  0.749600  1.0  -0.0869
  C  C120  1  0.789500  0.374000  0.734400  1.0  -0.1348
  C  C121  1  0.477300  0.368200  0.917000  1.0  0.1631
  C  C122  1  0.496290  0.284520  0.896900  1.0  -0.1427
  C  C123  1  0.571750  0.195200  0.937300  1.0  -0.0192
  C  C124  1  0.627200  0.194100  0.997300  1.0  -0.1288
  C  C125  1  0.605700  0.280800  0.013600  1.0  0.1747
  C  C126  1  0.592340  0.102620  0.920100  1.0  0.324
  C  C127  1  0.658180  0.952940  0.921100  1.0  0.3716
  C  C128  1  0.727680  0.846540  0.940700  1.0  0.0426
  C  C129  1  0.773420  0.796360  0.012800  1.0  -0.176
  C  C130  1  0.843090  0.697820  0.028400  1.0  0.1673
  C  C131  1  0.824950  0.693900  0.908000  1.0  0.178
  C  C132  1  0.751430  0.792840  0.888300  1.0  -0.204
  C  C133  1  0.986400  0.750000  0.250000  1.0  0.1957
  C  C134  1  0.013600  0.250000  0.750000  1.0  0.1953
  N  N135  1  0.126170  0.867960  0.474500  1.0  -0.3074
  N  N136  1  0.362160  0.512780  0.457100  1.0  -0.4869
  N  N137  1  0.497660  0.597980  0.364300  1.0  -0.282
  N  N138  1  0.551140  0.501720  0.365000  1.0  -0.1606
  N  N139  1  0.505430  0.146040  0.476500  1.0  -0.3173
  N  N140  1  0.468630  0.632040  0.025500  1.0  -0.3086
  N  N141  1  0.332040  0.987220  0.042900  1.0  -0.4845
  N  N142  1  0.459940  0.902020  0.135700  1.0  -0.2838
  N  N143  1  0.417860  0.998280  0.135000  1.0  -0.1581
  N  N144  1  0.127970  0.353960  0.023500  1.0  -0.3138
  N  N145  1  0.873830  0.132040  0.525500  1.0  -0.3069
  N  N146  1  0.637840  0.487220  0.542900  1.0  -0.486
  N  N147  1  0.502340  0.402020  0.635700  1.0  -0.283
  N  N148  1  0.448860  0.498280  0.635000  1.0  -0.1597
  N  N149  1  0.494570  0.853960  0.523500  1.0  -0.3171
  N  N150  1  0.531370  0.367960  0.974500  1.0  -0.3074
  N  N151  1  0.667960  0.012780  0.957100  1.0  -0.4842
  N  N152  1  0.540060  0.097980  0.864300  1.0  -0.2836
  N  N153  1  0.582140  0.001720  0.865000  1.0  -0.1611
  N  N154  1  0.872030  0.646040  0.976500  1.0  -0.3134
  O  O155  1  0.682600  0.971100  0.423700  1.0  -0.6112
  O  O156  1  0.828390  0.985220  0.480400  1.0  -0.5921
  O  O157  1  0.042590  0.080620  0.383600  1.0  -0.5771
  O  O158  1  0.995000  0.159000  0.264000  1.0  -0.4785
  O  O159  1  0.077400  0.528900  0.076300  1.0  -0.6111
  O  O160  1  0.294010  0.514780  0.019600  1.0  -0.5936
  O  O161  1  0.506810  0.419380  0.116400  1.0  -0.5754
  O  O162  1  0.418000  0.341000  0.236000  1.0  -0.4726
  O  O163  1  0.317400  0.028900  0.576300  1.0  -0.6106
  O  O164  1  0.171610  0.014780  0.519600  1.0  -0.5934
  O  O165  1  0.957410  0.919380  0.616400  1.0  -0.5763
  O  O166  1  0.005000  0.841000  0.736000  1.0  -0.4746
  O  O167  1  0.922600  0.471100  0.923700  1.0  -0.6116
  O  O168  1  0.705990  0.485220  0.980400  1.0  -0.5944
  O  O169  1  0.493190  0.580620  0.883600  1.0  -0.5757
  O  O170  1  0.582000  0.659000  0.764000  1.0  -0.4771
  O  O171  1  0.870900  0.750000  0.250000  1.0  -0.4672
  O  O172  1  0.129100  0.250000  0.750000  1.0  -0.4693
