# generated using pymatgen
data_CeH27C21(NO)6
_symmetry_space_group_name_H-M   'P 1'
_cell_length_a   16.14300000
_cell_length_b   7.75070000
_cell_length_c   27.37400000
_cell_angle_alpha   90.00000000
_cell_angle_beta   93.07700000
_cell_angle_gamma   90.00000000
_symmetry_Int_Tables_number   1
_chemical_formula_structural   CeH27C21(NO)6
_chemical_formula_sum   'Ce4 H108 C84 N24 O24'
_cell_volume   3420.08470427
_cell_formula_units_Z   4
loop_
 _symmetry_equiv_pos_site_id
 _symmetry_equiv_pos_as_xyz
  1  'x, y, z'
loop_
 _atom_site_type_symbol
 _atom_site_label
 _atom_site_symmetry_multiplicity
 _atom_site_fract_x
 _atom_site_fract_y
 _atom_site_fract_z
 _atom_site_occupancy
 _atom_site_charge
  Ce  Ce1  1  0.223960  0.871430  0.233880  1.0  2.2204
  Ce  Ce2  1  0.276040  0.371430  0.266130  1.0  2.2247
  Ce  Ce3  1  0.776040  0.128570  0.766130  1.0  2.2251
  Ce  Ce4  1  0.723960  0.628570  0.733880  1.0  2.2206
  H  H5  1  0.822000  0.173000  0.634000  1.0  0.0817
  H  H6  1  0.984100  0.274400  0.421900  1.0  0.0732
  H  H7  1  0.994300  0.409000  0.379700  1.0  0.0778
  H  H8  1  0.105300  0.212700  0.379300  1.0  0.0726
  H  H9  1  0.043400  0.056500  0.375300  1.0  0.0733
  H  H10  1  0.062000  0.308000  0.302000  1.0  0.0744
  H  H11  1  0.953200  0.024100  0.295500  1.0  0.0902
  H  H12  1  0.961300  0.166200  0.255300  1.0  0.0753
  H  H13  1  0.899600  0.368900  0.302400  1.0  0.0763
  H  H14  1  0.842200  0.205300  0.301000  1.0  0.0708
  H  H15  1  0.474600  0.170000  0.383400  1.0  0.081
  H  H16  1  0.439000  0.996300  0.403000  1.0  0.077
  H  H17  1  0.476000  0.852000  0.332000  1.0  0.0817
  H  H18  1  0.538900  0.006500  0.269700  1.0  0.0782
  H  H19  1  0.536300  0.176300  0.300700  1.0  0.0866
  H  H20  1  0.636500  0.886600  0.324500  1.0  0.0768
  H  H21  1  0.669400  0.068200  0.308900  1.0  0.0775
  H  H22  1  0.572700  0.049000  0.439200  1.0  0.0707
  H  H23  1  0.571900  0.875900  0.409400  1.0  0.0713
  H  H24  1  0.919100  0.354800  0.602700  1.0  0.0866
  H  H25  1  0.849600  0.462300  0.574500  1.0  0.0704
  H  H26  1  0.697500  0.360500  0.581000  1.0  0.0732
  H  H27  1  0.682200  0.198200  0.613500  1.0  0.0762
  H  H28  1  0.908400  0.284800  0.519100  1.0  0.087
  H  H29  1  0.895700  0.122600  0.552100  1.0  0.0798
  H  H30  1  0.744800  0.021800  0.559800  1.0  0.0785
  H  H31  1  0.676300  0.128900  0.530400  1.0  0.0768
  H  H32  1  0.678000  0.673000  0.866000  1.0  0.0809
  H  H33  1  0.515900  0.774400  0.078100  1.0  0.0728
  H  H34  1  0.505700  0.909000  0.120300  1.0  0.0778
  H  H35  1  0.394700  0.712700  0.120700  1.0  0.0748
  H  H36  1  0.456600  0.556500  0.124700  1.0  0.0737
  H  H37  1  0.438000  0.808000  0.198000  1.0  0.0745
  H  H38  1  0.546800  0.524100  0.204500  1.0  0.0898
  H  H39  1  0.538700  0.666200  0.244700  1.0  0.0765
  H  H40  1  0.600400  0.868900  0.197600  1.0  0.0755
  H  H41  1  0.657800  0.705300  0.199000  1.0  0.0693
  H  H42  1  0.025400  0.670000  0.116600  1.0  0.0809
  H  H43  1  0.061000  0.496300  0.097000  1.0  0.0769
  H  H44  1  0.024000  0.352000  0.168000  1.0  0.0809
  H  H45  1  0.961100  0.506500  0.230300  1.0  0.0768
  H  H46  1  0.963700  0.676300  0.199300  1.0  0.0856
  H  H47  1  0.863500  0.386600  0.175500  1.0  0.0776
  H  H48  1  0.830600  0.568200  0.191100  1.0  0.078
  H  H49  1  0.927300  0.549000  0.060800  1.0  0.0721
  H  H50  1  0.928100  0.375900  0.090600  1.0  0.0705
  H  H51  1  0.580900  0.854800  0.897300  1.0  0.0875
  H  H52  1  0.650400  0.962300  0.925500  1.0  0.0705
  H  H53  1  0.802500  0.860500  0.919000  1.0  0.0723
  H  H54  1  0.817800  0.698200  0.886500  1.0  0.0746
  H  H55  1  0.591600  0.784800  0.980900  1.0  0.0868
  H  H56  1  0.604300  0.622600  0.947900  1.0  0.0785
  H  H57  1  0.755200  0.521800  0.940200  1.0  0.0789
  H  H58  1  0.823700  0.628900  0.969600  1.0  0.0758
  H  H59  1  0.178000  0.827000  0.366000  1.0  0.0811
  H  H60  1  0.015900  0.725600  0.578100  1.0  0.0722
  H  H61  1  0.005700  0.591000  0.620300  1.0  0.0778
  H  H62  1  0.894700  0.787300  0.620700  1.0  0.0745
  H  H63  1  0.956600  0.943500  0.624700  1.0  0.0742
  H  H64  1  0.938000  0.692000  0.698000  1.0  0.0752
  H  H65  1  0.046800  0.975900  0.704500  1.0  0.0904
  H  H66  1  0.038700  0.833800  0.744700  1.0  0.0763
  H  H67  1  0.100400  0.631100  0.697600  1.0  0.0771
  H  H68  1  0.157800  0.794700  0.699000  1.0  0.0693
  H  H69  1  0.525400  0.830000  0.616600  1.0  0.0805
  H  H70  1  0.561000  0.003700  0.597000  1.0  0.077
  H  H71  1  0.524000  0.148000  0.668000  1.0  0.0814
  H  H72  1  0.461100  0.993500  0.730300  1.0  0.0771
  H  H73  1  0.463700  0.823700  0.699300  1.0  0.0856
  H  H74  1  0.363500  0.113400  0.675500  1.0  0.0784
  H  H75  1  0.330600  0.931800  0.691100  1.0  0.0781
  H  H76  1  0.427300  0.951000  0.560800  1.0  0.0725
  H  H77  1  0.428100  0.124100  0.590600  1.0  0.0708
  H  H78  1  0.080900  0.645200  0.397300  1.0  0.0873
  H  H79  1  0.150400  0.537700  0.425500  1.0  0.0705
  H  H80  1  0.302500  0.639500  0.419000  1.0  0.073
  H  H81  1  0.317800  0.801800  0.386500  1.0  0.0745
  H  H82  1  0.091600  0.715200  0.480900  1.0  0.087
  H  H83  1  0.104300  0.877400  0.447900  1.0  0.0797
  H  H84  1  0.255200  0.978200  0.440200  1.0  0.0775
  H  H85  1  0.323700  0.871100  0.469600  1.0  0.076
  H  H86  1  0.322000  0.327000  0.134000  1.0  0.081
  H  H87  1  0.484100  0.225600  0.921900  1.0  0.0735
  H  H88  1  0.494300  0.091000  0.879700  1.0  0.0764
  H  H89  1  0.605300  0.287300  0.879300  1.0  0.0725
  H  H90  1  0.543400  0.443500  0.875300  1.0  0.074
  H  H91  1  0.562000  0.192000  0.802000  1.0  0.0744
  H  H92  1  0.453200  0.475900  0.795500  1.0  0.0909
  H  H93  1  0.461300  0.333800  0.755300  1.0  0.0756
  H  H94  1  0.399600  0.131100  0.802400  1.0  0.0774
  H  H95  1  0.342200  0.294700  0.801000  1.0  0.0708
  H  H96  1  0.974600  0.330000  0.883400  1.0  0.081
  H  H97  1  0.939000  0.503700  0.903000  1.0  0.0769
  H  H98  1  0.976000  0.648000  0.832000  1.0  0.0822
  H  H99  1  0.038900  0.493500  0.769700  1.0  0.0772
  H  H100  1  0.036300  0.323700  0.800700  1.0  0.0862
  H  H101  1  0.136500  0.613400  0.824500  1.0  0.0774
  H  H102  1  0.169400  0.431800  0.808900  1.0  0.0769
  H  H103  1  0.072700  0.451000  0.939200  1.0  0.0713
  H  H104  1  0.071900  0.624100  0.909400  1.0  0.0699
  H  H105  1  0.419100  0.145200  0.102700  1.0  0.0866
  H  H106  1  0.349600  0.037700  0.074500  1.0  0.0706
  H  H107  1  0.197500  0.139500  0.081000  1.0  0.0722
  H  H108  1  0.182200  0.301800  0.113500  1.0  0.0763
  H  H109  1  0.408400  0.215200  0.019100  1.0  0.0865
  H  H110  1  0.395700  0.377400  0.052100  1.0  0.0792
  H  H111  1  0.244800  0.478200  0.059800  1.0  0.077
  H  H112  1  0.176300  0.371100  0.030400  1.0  0.0771
  C  C113  1  0.789700  0.407900  0.662300  1.0  0.696
  C  C114  1  0.802300  0.283000  0.620400  1.0  -0.1594
  C  C115  1  0.983400  0.288600  0.386700  1.0  0.0184
  C  C116  1  0.051500  0.175600  0.365800  1.0  -0.1582
  C  C117  1  0.049200  0.188200  0.310900  1.0  -0.1896
  C  C118  1  0.963600  0.145800  0.290300  1.0  -0.1388
  C  C119  1  0.895800  0.249500  0.312700  1.0  0.0127
  C  C120  1  0.838400  0.207800  0.392800  1.0  0.4263
  C  C121  1  0.704500  0.120500  0.399300  1.0  0.4837
  C  C122  1  0.784600  0.182500  0.467600  1.0  0.5683
  C  C123  1  0.481500  0.045600  0.383500  1.0  -0.1596
  C  C124  1  0.470600  0.977700  0.330900  1.0  -0.17
  C  C125  1  0.542300  0.052000  0.302800  1.0  -0.143
  C  C126  1  0.626800  0.009900  0.326400  1.0  0.0191
  C  C127  1  0.566800  0.000200  0.406500  1.0  0.0402
  C  C128  1  0.865200  0.347200  0.585400  1.0  -0.1404
  C  C129  1  0.720700  0.250800  0.592000  1.0  -0.1302
  C  C130  1  0.871600  0.232000  0.541600  1.0  0.0314
  C  C131  1  0.729400  0.136900  0.548700  1.0  0.0251
  C  C132  1  0.113700  0.072900  0.290700  1.0  0.6645
  C  C133  1  0.388500  0.022100  0.306200  1.0  0.7161
  C  C134  1  0.710300  0.907900  0.837700  1.0  0.6955
  C  C135  1  0.697700  0.783000  0.879600  1.0  -0.1594
  C  C136  1  0.516600  0.788600  0.113300  1.0  0.0186
  C  C137  1  0.448500  0.675600  0.134200  1.0  -0.1576
  C  C138  1  0.450800  0.688200  0.189100  1.0  -0.1891
  C  C139  1  0.536400  0.645800  0.209700  1.0  -0.139
  C  C140  1  0.604200  0.749500  0.187300  1.0  0.0142
  C  C141  1  0.661600  0.707800  0.107200  1.0  0.4263
  C  C142  1  0.795500  0.620500  0.100700  1.0  0.4841
  C  C143  1  0.715400  0.682500  0.032400  1.0  0.5668
  C  C144  1  0.018500  0.545600  0.116500  1.0  -0.1587
  C  C145  1  0.029400  0.477700  0.169100  1.0  -0.1692
  C  C146  1  0.957700  0.552000  0.197200  1.0  -0.1439
  C  C147  1  0.873200  0.509900  0.173600  1.0  0.0204
  C  C148  1  0.933200  0.500200  0.093500  1.0  0.0412
  C  C149  1  0.634800  0.847200  0.914600  1.0  -0.1398
  C  C150  1  0.779300  0.750800  0.908000  1.0  -0.1289
  C  C151  1  0.628400  0.732000  0.958400  1.0  0.0312
  C  C152  1  0.770600  0.636900  0.951300  1.0  0.0264
  C  C153  1  0.386300  0.572900  0.209300  1.0  0.6639
  C  C154  1  0.111500  0.522100  0.193800  1.0  0.7165
  C  C155  1  0.210300  0.592100  0.337700  1.0  0.696
  C  C156  1  0.197700  0.717000  0.379600  1.0  -0.1594
  C  C157  1  0.016600  0.711400  0.613300  1.0  0.0187
  C  C158  1  0.948500  0.824400  0.634200  1.0  -0.158
  C  C159  1  0.950800  0.811800  0.689100  1.0  -0.1895
  C  C160  1  0.036400  0.854200  0.709700  1.0  -0.1388
  C  C161  1  0.104200  0.750500  0.687300  1.0  0.0134
  C  C162  1  0.161600  0.792200  0.607200  1.0  0.4265
  C  C163  1  0.295500  0.879500  0.600700  1.0  0.4838
  C  C164  1  0.215400  0.817500  0.532400  1.0  0.5671
  C  C165  1  0.518500  0.954400  0.616500  1.0  -0.1587
  C  C166  1  0.529400  0.022300  0.669100  1.0  -0.1692
  C  C167  1  0.457700  0.948000  0.697200  1.0  -0.1444
  C  C168  1  0.373200  0.990100  0.673600  1.0  0.021
  C  C169  1  0.433200  0.999800  0.593500  1.0  0.0403
  C  C170  1  0.134800  0.652800  0.414600  1.0  -0.1405
  C  C171  1  0.279300  0.749200  0.408000  1.0  -0.1301
  C  C172  1  0.128400  0.768000  0.458400  1.0  0.0306
  C  C173  1  0.270600  0.863100  0.451300  1.0  0.0261
  C  C174  1  0.886300  0.927100  0.709300  1.0  0.6638
  C  C175  1  0.611500  0.977900  0.693800  1.0  0.7173
  C  C176  1  0.289700  0.092100  0.162300  1.0  0.6978
  C  C177  1  0.302300  0.217000  0.120400  1.0  -0.1581
  C  C178  1  0.483400  0.211400  0.886700  1.0  0.0187
  C  C179  1  0.551500  0.324400  0.865800  1.0  -0.1587
  C  C180  1  0.549200  0.311800  0.810900  1.0  -0.1888
  C  C181  1  0.463600  0.354200  0.790300  1.0  -0.1389
  C  C182  1  0.395800  0.250500  0.812700  1.0  0.0123
  C  C183  1  0.338400  0.292200  0.892800  1.0  0.4267
  C  C184  1  0.204500  0.379500  0.899300  1.0  0.4835
  C  C185  1  0.284600  0.317500  0.967600  1.0  0.5683
  C  C186  1  0.981500  0.454400  0.883500  1.0  -0.1582
  C  C187  1  0.970600  0.522300  0.830900  1.0  -0.17
  C  C188  1  0.042300  0.448000  0.802800  1.0  -0.1425
  C  C189  1  0.126800  0.490100  0.826400  1.0  0.0192
  C  C190  1  0.066800  0.499800  0.906500  1.0  0.0407
  C  C191  1  0.365200  0.152800  0.085400  1.0  -0.1408
  C  C192  1  0.220700  0.249200  0.092000  1.0  -0.13
  C  C193  1  0.371600  0.268000  0.041600  1.0  0.032
  C  C194  1  0.229400  0.363100  0.048700  1.0  0.0257
  C  C195  1  0.613700  0.427100  0.790700  1.0  0.6644
  C  C196  1  0.888500  0.477900  0.806200  1.0  0.7163
  N  N197  1  0.708200  0.132500  0.448600  1.0  -0.5114
  N  N198  1  0.631300  0.065000  0.377700  1.0  -0.2012
  N  N199  1  0.850100  0.215500  0.442500  1.0  -0.6172
  N  N200  1  0.764300  0.166000  0.369500  1.0  -0.6027
  N  N201  1  0.902500  0.241000  0.365300  1.0  -0.1326
  N  N202  1  0.791700  0.200700  0.516400  1.0  -0.1548
  N  N203  1  0.791800  0.632500  0.051400  1.0  -0.5122
  N  N204  1  0.868700  0.565000  0.122300  1.0  -0.2012
  N  N205  1  0.649900  0.715500  0.057500  1.0  -0.6181
  N  N206  1  0.735700  0.666000  0.130500  1.0  -0.6038
  N  N207  1  0.597500  0.741000  0.134700  1.0  -0.131
  N  N208  1  0.708300  0.700700  0.983600  1.0  -0.1551
  N  N209  1  0.291800  0.867500  0.551400  1.0  -0.512
  N  N210  1  0.368700  0.935000  0.622300  1.0  -0.2022
  N  N211  1  0.149900  0.784500  0.557500  1.0  -0.6191
  N  N212  1  0.235700  0.834000  0.630500  1.0  -0.604
  N  N213  1  0.097500  0.759000  0.634700  1.0  -0.1307
  N  N214  1  0.208300  0.799300  0.483600  1.0  -0.1542
  N  N215  1  0.208200  0.367500  0.948600  1.0  -0.5114
  N  N216  1  0.131300  0.435000  0.877700  1.0  -0.2012
  N  N217  1  0.350100  0.284500  0.942500  1.0  -0.6177
  N  N218  1  0.264300  0.334000  0.869500  1.0  -0.6035
  N  N219  1  0.402500  0.259000  0.865300  1.0  -0.1324
  N  N220  1  0.291700  0.299300  0.016400  1.0  -0.1546
  O  O221  1  0.782900  0.347500  0.705800  1.0  -0.8213
  O  O222  1  0.786100  0.565800  0.655200  1.0  -0.6338
  O  O223  1  0.348200  0.905700  0.284200  1.0  -0.7196
  O  O224  1  0.098000  0.917500  0.280600  1.0  -0.6622
  O  O225  1  0.187700  0.127300  0.284200  1.0  -0.8471
  O  O226  1  0.365000  0.176900  0.307000  1.0  -0.7279
  O  O227  1  0.717100  0.847500  0.794200  1.0  -0.8207
  O  O228  1  0.713900  0.065800  0.844800  1.0  -0.6339
  O  O229  1  0.151800  0.405700  0.215800  1.0  -0.7198
  O  O230  1  0.402000  0.417500  0.219400  1.0  -0.6613
  O  O231  1  0.312300  0.627300  0.215800  1.0  -0.8471
  O  O232  1  0.135000  0.676900  0.193000  1.0  -0.7286
  O  O233  1  0.217100  0.652500  0.294200  1.0  -0.8203
  O  O234  1  0.213900  0.434200  0.344800  1.0  -0.6358
  O  O235  1  0.651800  0.094300  0.715800  1.0  -0.719
  O  O236  1  0.902000  0.082500  0.719400  1.0  -0.6611
  O  O237  1  0.812300  0.872700  0.715800  1.0  -0.8471
  O  O238  1  0.635000  0.823100  0.693000  1.0  -0.727
  O  O239  1  0.282900  0.152500  0.205800  1.0  -0.8232
  O  O240  1  0.286100  0.934200  0.155200  1.0  -0.6341
  O  O241  1  0.848200  0.594300  0.784200  1.0  -0.7192
  O  O242  1  0.598000  0.582500  0.780600  1.0  -0.6618
  O  O243  1  0.687700  0.372700  0.784200  1.0  -0.8469
  O  O244  1  0.865000  0.323100  0.807000  1.0  -0.7261
