# generated using pymatgen
data_Co3H20(C3O)12
_symmetry_space_group_name_H-M   'P 1'
_cell_length_a   23.59880000
_cell_length_b   23.59880000
_cell_length_c   23.59880000
_cell_angle_alpha   109.47100000
_cell_angle_beta   109.47100000
_cell_angle_gamma   109.47100000
_symmetry_Int_Tables_number   1
_chemical_formula_structural   Co3H20(C3O)12
_chemical_formula_sum   'Co18 H120 C216 O72'
_cell_volume   10116.99221411
_cell_formula_units_Z   6
loop_
 _symmetry_equiv_pos_site_id
 _symmetry_equiv_pos_as_xyz
  1  'x, y, z'
loop_
 _atom_site_type_symbol
 _atom_site_label
 _atom_site_symmetry_multiplicity
 _atom_site_fract_x
 _atom_site_fract_y
 _atom_site_fract_z
 _atom_site_occupancy
 _atom_site_charge
  Co  Co1  1  0.889850  0.445370  0.444480  1.0  1.1088
  Co  Co2  1  0.000890  0.445370  0.555520  1.0  1.0902
  Co  Co3  1  0.999110  0.554630  0.444480  1.0  1.0863
  Co  Co4  1  0.110150  0.554630  0.555520  1.0  1.1094
  Co  Co5  1  0.444480  0.999110  0.554630  1.0  1.0896
  Co  Co6  1  0.555520  0.110150  0.554630  1.0  1.1091
  Co  Co7  1  0.444480  0.889850  0.445370  1.0  1.1079
  Co  Co8  1  0.555520  0.000890  0.445370  1.0  1.0873
  Co  Co9  1  0.445370  0.555520  0.000890  1.0  1.0922
  Co  Co10  1  0.445370  0.444480  0.889850  1.0  1.1098
  Co  Co11  1  0.554630  0.555520  0.110150  1.0  1.1053
  Co  Co12  1  0.554630  0.444480  0.999110  1.0  1.086
  Co  Co13  1  0.831600  0.500000  0.331600  1.0  1.0437
  Co  Co14  1  0.168400  0.500000  0.668400  1.0  1.0428
  Co  Co15  1  0.331600  0.831600  0.500000  1.0  1.0429
  Co  Co16  1  0.668400  0.168400  0.500000  1.0  1.0435
  Co  Co17  1  0.500000  0.668400  0.168400  1.0  1.0423
  Co  Co18  1  0.500000  0.331600  0.831600  1.0  1.0427
  H  H19  1  0.783300  0.230100  0.276800  1.0  0.146
  H  H20  1  0.725300  0.123800  0.182300  1.0  0.1415
  H  H21  1  0.606800  0.180400  0.072600  1.0  0.1458
  H  H22  1  0.679500  0.293900  0.162400  1.0  0.1388
  H  H23  1  0.617500  0.018200  0.111900  1.0  0.1395
  H  H24  1  0.953300  0.506500  0.723200  1.0  0.1447
  H  H25  1  0.941500  0.543000  0.817700  1.0  0.144
  H  H26  1  0.107800  0.534200  0.927400  1.0  0.1388
  H  H27  1  0.131500  0.517100  0.837600  1.0  0.1382
  H  H28  1  0.906300  0.505600  0.888100  1.0  0.1375
  H  H29  1  0.046700  0.769900  0.553200  1.0  0.144
  H  H30  1  0.058500  0.876200  0.601500  1.0  0.1405
  H  H31  1  0.892200  0.819600  0.426400  1.0  0.145
  H  H32  1  0.868500  0.706100  0.385600  1.0  0.1379
  H  H33  1  0.093700  0.981800  0.599300  1.0  0.1389
  H  H34  1  0.216700  0.493500  0.446800  1.0  0.1462
  H  H35  1  0.274700  0.457000  0.398500  1.0  0.142
  H  H36  1  0.393200  0.465800  0.573600  1.0  0.1468
  H  H37  1  0.320500  0.482900  0.614400  1.0  0.1389
  H  H38  1  0.382500  0.494400  0.400700  1.0  0.139
  H  H39  1  0.553200  0.046700  0.769900  1.0  0.1442
  H  H40  1  0.601500  0.058500  0.876200  1.0  0.1418
  H  H41  1  0.426400  0.892200  0.819600  1.0  0.1442
  H  H42  1  0.385600  0.868500  0.706100  1.0  0.1391
  H  H43  1  0.599300  0.093700  0.981800  1.0  0.136
  H  H44  1  0.446800  0.216700  0.493500  1.0  0.1461
  H  H45  1  0.398500  0.274700  0.457000  1.0  0.1429
  H  H46  1  0.573600  0.393200  0.465800  1.0  0.145
  H  H47  1  0.614400  0.320500  0.482900  1.0  0.1378
  H  H48  1  0.400700  0.382500  0.494400  1.0  0.1401
  H  H49  1  0.276800  0.783300  0.230100  1.0  0.1452
  H  H50  1  0.182300  0.725300  0.123800  1.0  0.143
  H  H51  1  0.072600  0.606800  0.180400  1.0  0.1472
  H  H52  1  0.162400  0.679500  0.293900  1.0  0.1389
  H  H53  1  0.111900  0.617500  0.018200  1.0  0.1389
  H  H54  1  0.723200  0.953300  0.506500  1.0  0.1442
  H  H55  1  0.817700  0.941500  0.543000  1.0  0.1374
  H  H56  1  0.927400  0.107800  0.534200  1.0  0.1359
  H  H57  1  0.837600  0.131500  0.517100  1.0  0.1385
  H  H58  1  0.888100  0.906300  0.505600  1.0  0.139
  H  H59  1  0.506500  0.723200  0.953300  1.0  0.1447
  H  H60  1  0.543000  0.817700  0.941500  1.0  0.1384
  H  H61  1  0.534200  0.927400  0.107800  1.0  0.1382
  H  H62  1  0.517100  0.837600  0.131500  1.0  0.1384
  H  H63  1  0.505600  0.888100  0.906300  1.0  0.137
  H  H64  1  0.230100  0.276800  0.783300  1.0  0.145
  H  H65  1  0.123800  0.182300  0.725300  1.0  0.1428
  H  H66  1  0.180400  0.072600  0.606800  1.0  0.1459
  H  H67  1  0.293900  0.162400  0.679500  1.0  0.1382
  H  H68  1  0.018200  0.111900  0.617500  1.0  0.1405
  H  H69  1  0.493500  0.446800  0.216700  1.0  0.1457
  H  H70  1  0.457000  0.398500  0.274700  1.0  0.1417
  H  H71  1  0.465800  0.573600  0.393200  1.0  0.1447
  H  H72  1  0.482900  0.614400  0.320500  1.0  0.1385
  H  H73  1  0.494400  0.400700  0.382500  1.0  0.1383
  H  H74  1  0.769900  0.553200  0.046700  1.0  0.1453
  H  H75  1  0.876200  0.601500  0.058500  1.0  0.1376
  H  H76  1  0.819600  0.426400  0.892200  1.0  0.1439
  H  H77  1  0.706100  0.385600  0.868500  1.0  0.1394
  H  H78  1  0.981800  0.599300  0.093700  1.0  0.1379
  H  H79  1  0.216700  0.769900  0.723200  1.0  0.1453
  H  H80  1  0.274700  0.876200  0.817700  1.0  0.1419
  H  H81  1  0.393200  0.819600  0.927400  1.0  0.1459
  H  H82  1  0.320500  0.706100  0.837600  1.0  0.1388
  H  H83  1  0.382500  0.981800  0.888100  1.0  0.14
  H  H84  1  0.046700  0.493500  0.276800  1.0  0.1451
  H  H85  1  0.058500  0.457000  0.182300  1.0  0.1393
  H  H86  1  0.892200  0.465800  0.072600  1.0  0.139
  H  H87  1  0.868500  0.482900  0.162400  1.0  0.1385
  H  H88  1  0.093700  0.494400  0.111900  1.0  0.1374
  H  H89  1  0.953300  0.230100  0.446800  1.0  0.1444
  H  H90  1  0.941500  0.123800  0.398500  1.0  0.1406
  H  H91  1  0.107800  0.180400  0.573600  1.0  0.1448
  H  H92  1  0.131500  0.293900  0.614400  1.0  0.1377
  H  H93  1  0.906300  0.018200  0.400700  1.0  0.1388
  H  H94  1  0.783300  0.506500  0.553200  1.0  0.1456
  H  H95  1  0.725300  0.543000  0.601500  1.0  0.1415
  H  H96  1  0.606800  0.534200  0.426400  1.0  0.1463
  H  H97  1  0.679500  0.517100  0.385600  1.0  0.1377
  H  H98  1  0.617500  0.505600  0.599300  1.0  0.1385
  H  H99  1  0.446800  0.953300  0.230100  1.0  0.1444
  H  H100  1  0.398500  0.941500  0.123800  1.0  0.1409
  H  H101  1  0.573600  0.107800  0.180400  1.0  0.1451
  H  H102  1  0.614400  0.131500  0.293900  1.0  0.1394
  H  H103  1  0.400700  0.906300  0.018200  1.0  0.1356
  H  H104  1  0.553200  0.783300  0.506500  1.0  0.1458
  H  H105  1  0.601500  0.725300  0.543000  1.0  0.1435
  H  H106  1  0.426400  0.606800  0.534200  1.0  0.1455
  H  H107  1  0.385600  0.679500  0.517100  1.0  0.1384
  H  H108  1  0.599300  0.617500  0.505600  1.0  0.1409
  H  H109  1  0.723200  0.216700  0.769900  1.0  0.1449
  H  H110  1  0.817700  0.274700  0.876200  1.0  0.1427
  H  H111  1  0.927400  0.393200  0.819600  1.0  0.1474
  H  H112  1  0.837600  0.320500  0.706100  1.0  0.1384
  H  H113  1  0.888100  0.382500  0.981800  1.0  0.1389
  H  H114  1  0.276800  0.046700  0.493500  1.0  0.1445
  H  H115  1  0.182300  0.058500  0.457000  1.0  0.1379
  H  H116  1  0.072600  0.892200  0.465800  1.0  0.1352
  H  H117  1  0.162400  0.868500  0.482900  1.0  0.1381
  H  H118  1  0.111900  0.093700  0.494400  1.0  0.1394
  H  H119  1  0.493500  0.276800  0.046700  1.0  0.1448
  H  H120  1  0.457000  0.182300  0.058500  1.0  0.1393
  H  H121  1  0.465800  0.072600  0.892200  1.0  0.1381
  H  H122  1  0.482900  0.162400  0.868500  1.0  0.1384
  H  H123  1  0.494400  0.111900  0.093700  1.0  0.1376
  H  H124  1  0.769900  0.723200  0.216700  1.0  0.1444
  H  H125  1  0.876200  0.817700  0.274700  1.0  0.1427
  H  H126  1  0.819600  0.927400  0.393200  1.0  0.1468
  H  H127  1  0.706100  0.837600  0.320500  1.0  0.1379
  H  H128  1  0.981800  0.888100  0.382500  1.0  0.1396
  H  H129  1  0.506500  0.553200  0.783300  1.0  0.146
  H  H130  1  0.543000  0.601500  0.725300  1.0  0.1413
  H  H131  1  0.534200  0.426400  0.606800  1.0  0.1457
  H  H132  1  0.517100  0.385600  0.679500  1.0  0.1383
  H  H133  1  0.505600  0.599300  0.617500  1.0  0.1389
  H  H134  1  0.230100  0.446800  0.953300  1.0  0.1448
  H  H135  1  0.123800  0.398500  0.941500  1.0  0.1383
  H  H136  1  0.180400  0.573600  0.107800  1.0  0.144
  H  H137  1  0.293900  0.614400  0.131500  1.0  0.1396
  H  H138  1  0.018200  0.400700  0.906300  1.0  0.1386
  C  C139  1  0.785700  0.351200  0.288100  1.0  0.7326
  C  C140  1  0.740600  0.274800  0.227800  1.0  -0.1016
  C  C141  1  0.751000  0.221000  0.234400  1.0  -0.0904
  C  C142  1  0.714300  0.157500  0.179600  1.0  -0.0603
  C  C143  1  0.658400  0.140200  0.117000  1.0  0.0786
  C  C144  1  0.644500  0.191300  0.112200  1.0  -0.1125
  C  C145  1  0.686900  0.258900  0.166600  1.0  -0.0144
  C  C146  1  0.616200  0.067800  0.055400  1.0  0.0693
  C  C147  1  0.600500  0.010500  0.066800  1.0  -0.1054
  C  C148  1  0.063100  0.497600  0.711900  1.0  0.7492
  C  C149  1  0.047000  0.512800  0.772200  1.0  -0.102
  C  C150  1  0.986600  0.516600  0.765600  1.0  -0.0875
  C  C151  1  0.977900  0.534700  0.820400  1.0  -0.0582
  C  C152  1  0.023200  0.541400  0.883000  1.0  0.0776
  C  C153  1  0.079100  0.532300  0.887800  1.0  -0.1108
  C  C154  1  0.092300  0.520300  0.833400  1.0  -0.0107
  C  C155  1  0.012400  0.560800  0.944600  1.0  0.0823
  C  C156  1  0.943700  0.533700  0.933200  1.0  -0.1087
  C  C157  1  0.936900  0.648800  0.434500  1.0  0.7458
  C  C158  1  0.953000  0.725200  0.465800  1.0  -0.104
  C  C159  1  0.013400  0.779000  0.530000  1.0  -0.0911
  C  C160  1  0.022100  0.842500  0.556800  1.0  -0.0585
  C  C161  1  0.976800  0.859800  0.518200  1.0  0.0811
  C  C162  1  0.920900  0.808700  0.453200  1.0  -0.1011
  C  C163  1  0.907700  0.741100  0.428000  1.0  -0.006
  C  C164  1  0.987600  0.932200  0.548400  1.0  0.0744
  C  C165  1  0.056300  0.989500  0.590000  1.0  -0.1059
  C  C166  1  0.214300  0.502400  0.565500  1.0  0.7444
  C  C167  1  0.259400  0.487200  0.534200  1.0  -0.1053
  C  C168  1  0.249000  0.483400  0.470000  1.0  -0.0889
  C  C169  1  0.285700  0.465300  0.443200  1.0  -0.0665
  C  C170  1  0.341600  0.458600  0.481800  1.0  0.0778
  C  C171  1  0.355500  0.467700  0.546800  1.0  -0.1184
  C  C172  1  0.313100  0.479700  0.572000  1.0  -0.014
  C  C173  1  0.383800  0.439200  0.451600  1.0  0.0697
  C  C174  1  0.399500  0.466300  0.410000  1.0  -0.1083
  C  C175  1  0.434500  0.936900  0.648800  1.0  0.7464
  C  C176  1  0.465800  0.953000  0.725200  1.0  -0.1049
  C  C177  1  0.530000  0.013400  0.779000  1.0  -0.0911
  C  C178  1  0.556800  0.022100  0.842500  1.0  -0.0605
  C  C179  1  0.518200  0.976800  0.859800  1.0  0.0774
  C  C180  1  0.453200  0.920900  0.808700  1.0  -0.1022
  C  C181  1  0.428000  0.907700  0.741100  1.0  -0.007
  C  C182  1  0.548400  0.987600  0.932200  1.0  0.0672
  C  C183  1  0.590000  0.056300  0.989500  1.0  -0.1063
  C  C184  1  0.565500  0.214300  0.502400  1.0  0.7437
  C  C185  1  0.534200  0.259400  0.487200  1.0  -0.1034
  C  C186  1  0.470000  0.249000  0.483400  1.0  -0.09
  C  C187  1  0.443200  0.285700  0.465300  1.0  -0.0667
  C  C188  1  0.481800  0.341600  0.458600  1.0  0.0817
  C  C189  1  0.546800  0.355500  0.467700  1.0  -0.1207
  C  C190  1  0.572000  0.313100  0.479700  1.0  -0.0138
  C  C191  1  0.451600  0.383800  0.439200  1.0  0.0726
  C  C192  1  0.410000  0.399500  0.466300  1.0  -0.1066
  C  C193  1  0.288100  0.785700  0.351200  1.0  0.7327
  C  C194  1  0.227800  0.740600  0.274800  1.0  -0.1038
  C  C195  1  0.234400  0.751000  0.221000  1.0  -0.0892
  C  C196  1  0.179600  0.714300  0.157500  1.0  -0.0628
  C  C197  1  0.117000  0.658400  0.140200  1.0  0.0798
  C  C198  1  0.112200  0.644500  0.191300  1.0  -0.1127
  C  C199  1  0.166600  0.686900  0.258900  1.0  -0.0132
  C  C200  1  0.055400  0.616200  0.067800  1.0  0.0721
  C  C201  1  0.066800  0.600500  0.010500  1.0  -0.1065
  C  C202  1  0.711900  0.063100  0.497600  1.0  0.7489
  C  C203  1  0.772200  0.047000  0.512800  1.0  -0.1031
  C  C204  1  0.765600  0.986600  0.516600  1.0  -0.0904
  C  C205  1  0.820400  0.977900  0.534700  1.0  -0.0596
  C  C206  1  0.883000  0.023200  0.541400  1.0  0.0789
  C  C207  1  0.887800  0.079100  0.532300  1.0  -0.1123
  C  C208  1  0.833400  0.092300  0.520300  1.0  -0.0111
  C  C209  1  0.944600  0.012400  0.560800  1.0  0.0856
  C  C210  1  0.933200  0.943700  0.533700  1.0  -0.1112
  C  C211  1  0.497600  0.711900  0.063100  1.0  0.7501
  C  C212  1  0.512800  0.772200  0.047000  1.0  -0.1054
  C  C213  1  0.516600  0.765600  0.986600  1.0  -0.0883
  C  C214  1  0.534700  0.820400  0.977900  1.0  -0.0628
  C  C215  1  0.541400  0.883000  0.023200  1.0  0.0765
  C  C216  1  0.532300  0.887800  0.079100  1.0  -0.1045
  C  C217  1  0.520300  0.833400  0.092300  1.0  -0.0109
  C  C218  1  0.560800  0.944600  0.012400  1.0  0.0835
  C  C219  1  0.533700  0.933200  0.943700  1.0  -0.1065
  C  C220  1  0.351200  0.288100  0.785700  1.0  0.7302
  C  C221  1  0.274800  0.227800  0.740600  1.0  -0.1021
  C  C222  1  0.221000  0.234400  0.751000  1.0  -0.0902
  C  C223  1  0.157500  0.179600  0.714300  1.0  -0.0609
  C  C224  1  0.140200  0.117000  0.658400  1.0  0.0795
  C  C225  1  0.191300  0.112200  0.644500  1.0  -0.1083
  C  C226  1  0.258900  0.166600  0.686900  1.0  -0.0092
  C  C227  1  0.067800  0.055400  0.616200  1.0  0.0739
  C  C228  1  0.010500  0.066800  0.600500  1.0  -0.1081
  C  C229  1  0.502400  0.565500  0.214300  1.0  0.7454
  C  C230  1  0.487200  0.534200  0.259400  1.0  -0.1019
  C  C231  1  0.483400  0.470000  0.249000  1.0  -0.0911
  C  C232  1  0.465300  0.443200  0.285700  1.0  -0.0669
  C  C233  1  0.458600  0.481800  0.341600  1.0  0.0764
  C  C234  1  0.467700  0.546800  0.355500  1.0  -0.1162
  C  C235  1  0.479700  0.572000  0.313100  1.0  -0.0118
  C  C236  1  0.439200  0.451600  0.383800  1.0  0.0685
  C  C237  1  0.466300  0.410000  0.399500  1.0  -0.1053
  C  C238  1  0.648800  0.434500  0.936900  1.0  0.744
  C  C239  1  0.725200  0.465800  0.953000  1.0  -0.1051
  C  C240  1  0.779000  0.530000  0.013400  1.0  -0.0922
  C  C241  1  0.842500  0.556800  0.022100  1.0  -0.0599
  C  C242  1  0.859800  0.518200  0.976800  1.0  0.0777
  C  C243  1  0.808700  0.453200  0.920900  1.0  -0.0966
  C  C244  1  0.741100  0.428000  0.907700  1.0  -0.0079
  C  C245  1  0.932200  0.548400  0.987600  1.0  0.0699
  C  C246  1  0.989500  0.590000  0.056300  1.0  -0.1052
  C  C247  1  0.214300  0.648800  0.711900  1.0  0.7321
  C  C248  1  0.259400  0.725200  0.772200  1.0  -0.1028
  C  C249  1  0.249000  0.779000  0.765600  1.0  -0.0892
  C  C250  1  0.285700  0.842500  0.820400  1.0  -0.0579
  C  C251  1  0.341600  0.859800  0.883000  1.0  0.0784
  C  C252  1  0.355500  0.808700  0.887800  1.0  -0.113
  C  C253  1  0.313100  0.741100  0.833400  1.0  -0.0126
  C  C254  1  0.383800  0.932200  0.944600  1.0  0.0691
  C  C255  1  0.399500  0.989500  0.933200  1.0  -0.1049
  C  C256  1  0.936900  0.502400  0.288100  1.0  0.7504
  C  C257  1  0.953000  0.487200  0.227800  1.0  -0.1037
  C  C258  1  0.013400  0.483400  0.234400  1.0  -0.0877
  C  C259  1  0.022100  0.465300  0.179600  1.0  -0.0566
  C  C260  1  0.976800  0.458600  0.117000  1.0  0.0775
  C  C261  1  0.920900  0.467700  0.112200  1.0  -0.1098
  C  C262  1  0.907700  0.479700  0.166600  1.0  -0.0119
  C  C263  1  0.987600  0.439200  0.055400  1.0  0.0846
  C  C264  1  0.056300  0.466300  0.066800  1.0  -0.1059
  C  C265  1  0.063100  0.351200  0.565500  1.0  0.7462
  C  C266  1  0.047000  0.274800  0.534200  1.0  -0.1041
  C  C267  1  0.986600  0.221000  0.470000  1.0  -0.0928
  C  C268  1  0.977900  0.157500  0.443200  1.0  -0.0606
  C  C269  1  0.023200  0.140200  0.481800  1.0  0.0782
  C  C270  1  0.079100  0.191300  0.546800  1.0  -0.1029
  C  C271  1  0.092300  0.258900  0.572000  1.0  -0.0072
  C  C272  1  0.012400  0.067800  0.451600  1.0  0.0718
  C  C273  1  0.943700  0.010500  0.410000  1.0  -0.1074
  C  C274  1  0.785700  0.497600  0.434500  1.0  0.7449
  C  C275  1  0.740600  0.512800  0.465800  1.0  -0.1051
  C  C276  1  0.751000  0.516600  0.530000  1.0  -0.0892
  C  C277  1  0.714300  0.534700  0.556800  1.0  -0.0651
  C  C278  1  0.658400  0.541400  0.518200  1.0  0.0766
  C  C279  1  0.644500  0.532300  0.453200  1.0  -0.1171
  C  C280  1  0.686900  0.520300  0.428000  1.0  -0.0133
  C  C281  1  0.616200  0.560800  0.548400  1.0  0.0707
  C  C282  1  0.600500  0.533700  0.590000  1.0  -0.1047
  C  C283  1  0.565500  0.063100  0.351200  1.0  0.7465
  C  C284  1  0.534200  0.047000  0.274800  1.0  -0.1052
  C  C285  1  0.470000  0.986600  0.221000  1.0  -0.0881
  C  C286  1  0.443200  0.977900  0.157500  1.0  -0.0564
  C  C287  1  0.481800  0.023200  0.140200  1.0  0.0798
  C  C288  1  0.546800  0.079100  0.191300  1.0  -0.103
  C  C289  1  0.572000  0.092300  0.258900  1.0  -0.0082
  C  C290  1  0.451600  0.012400  0.067800  1.0  0.0675
  C  C291  1  0.410000  0.943700  0.010500  1.0  -0.1072
  C  C292  1  0.434500  0.785700  0.497600  1.0  0.7457
  C  C293  1  0.465800  0.740600  0.512800  1.0  -0.1036
  C  C294  1  0.530000  0.751000  0.516600  1.0  -0.0915
  C  C295  1  0.556800  0.714300  0.534700  1.0  -0.065
  C  C296  1  0.518200  0.658400  0.541400  1.0  0.0821
  C  C297  1  0.453200  0.644500  0.532300  1.0  -0.1189
  C  C298  1  0.428000  0.686900  0.520300  1.0  -0.0161
  C  C299  1  0.548400  0.616200  0.560800  1.0  0.0733
  C  C300  1  0.590000  0.600500  0.533700  1.0  -0.1054
  C  C301  1  0.711900  0.214300  0.648800  1.0  0.7329
  C  C302  1  0.772200  0.259400  0.725200  1.0  -0.1046
  C  C303  1  0.765600  0.249000  0.779000  1.0  -0.0872
  C  C304  1  0.820400  0.285700  0.842500  1.0  -0.0617
  C  C305  1  0.883000  0.341600  0.859800  1.0  0.0775
  C  C306  1  0.887800  0.355500  0.808700  1.0  -0.1126
  C  C307  1  0.833400  0.313100  0.741100  1.0  -0.0133
  C  C308  1  0.944600  0.383800  0.932200  1.0  0.0728
  C  C309  1  0.933200  0.399500  0.989500  1.0  -0.1061
  C  C310  1  0.288100  0.936900  0.502400  1.0  0.7488
  C  C311  1  0.227800  0.953000  0.487200  1.0  -0.1026
  C  C312  1  0.234400  0.013400  0.483400  1.0  -0.0918
  C  C313  1  0.179600  0.022100  0.465300  1.0  -0.0625
  C  C314  1  0.117000  0.976800  0.458600  1.0  0.0752
  C  C315  1  0.112200  0.920900  0.467700  1.0  -0.1106
  C  C316  1  0.166600  0.907700  0.479700  1.0  -0.0099
  C  C317  1  0.055400  0.987600  0.439200  1.0  0.0851
  C  C318  1  0.066800  0.056300  0.466300  1.0  -0.1082
  C  C319  1  0.502400  0.288100  0.936900  1.0  0.7495
  C  C320  1  0.487200  0.227800  0.953000  1.0  -0.1044
  C  C321  1  0.483400  0.234400  0.013400  1.0  -0.0886
  C  C322  1  0.465300  0.179600  0.022100  1.0  -0.061
  C  C323  1  0.458600  0.117000  0.976800  1.0  0.0769
  C  C324  1  0.467700  0.112200  0.920900  1.0  -0.1058
  C  C325  1  0.479700  0.166600  0.907700  1.0  -0.0123
  C  C326  1  0.439200  0.055400  0.987600  1.0  0.0832
  C  C327  1  0.466300  0.066800  0.056300  1.0  -0.1079
  C  C328  1  0.648800  0.711900  0.214300  1.0  0.7305
  C  C329  1  0.725200  0.772200  0.259400  1.0  -0.1047
  C  C330  1  0.779000  0.765600  0.249000  1.0  -0.0911
  C  C331  1  0.842500  0.820400  0.285700  1.0  -0.0614
  C  C332  1  0.859800  0.883000  0.341600  1.0  0.0779
  C  C333  1  0.808700  0.887800  0.355500  1.0  -0.1081
  C  C334  1  0.741100  0.833400  0.313100  1.0  -0.0102
  C  C335  1  0.932200  0.944600  0.383800  1.0  0.0704
  C  C336  1  0.989500  0.933200  0.399500  1.0  -0.1071
  C  C337  1  0.497600  0.434500  0.785700  1.0  0.7454
  C  C338  1  0.512800  0.465800  0.740600  1.0  -0.1037
  C  C339  1  0.516600  0.530000  0.751000  1.0  -0.0904
  C  C340  1  0.534700  0.556800  0.714300  1.0  -0.066
  C  C341  1  0.541400  0.518200  0.658400  1.0  0.0758
  C  C342  1  0.532300  0.453200  0.644500  1.0  -0.1156
  C  C343  1  0.520300  0.428000  0.686900  1.0  -0.0108
  C  C344  1  0.560800  0.548400  0.616200  1.0  0.0686
  C  C345  1  0.533700  0.590000  0.600500  1.0  -0.1077
  C  C346  1  0.351200  0.565500  0.063100  1.0  0.7435
  C  C347  1  0.274800  0.534200  0.047000  1.0  -0.1056
  C  C348  1  0.221000  0.470000  0.986600  1.0  -0.0901
  C  C349  1  0.157500  0.443200  0.977900  1.0  -0.0601
  C  C350  1  0.140200  0.481800  0.023200  1.0  0.0771
  C  C351  1  0.191300  0.546800  0.079100  1.0  -0.0954
  C  C352  1  0.258900  0.572000  0.092300  1.0  -0.0099
  C  C353  1  0.067800  0.451600  0.012400  1.0  0.0711
  C  C354  1  0.010500  0.410000  0.943700  1.0  -0.1035
  O  O355  1  0.829800  0.360600  0.345800  1.0  -0.5934
  O  O356  1  0.776500  0.393900  0.276200  1.0  -0.5517
  O  O357  1  0.014800  0.484000  0.654200  1.0  -0.5943
  O  O358  1  0.117700  0.500300  0.723800  1.0  -0.5503
  O  O359  1  0.985200  0.639400  0.469200  1.0  -0.5932
  O  O360  1  0.882300  0.606100  0.382600  1.0  -0.5512
  O  O361  1  0.170200  0.516000  0.530800  1.0  -0.5914
  O  O362  1  0.223500  0.499700  0.617400  1.0  -0.552
  O  O363  1  0.469200  0.985200  0.639400  1.0  -0.5963
  O  O364  1  0.382600  0.882300  0.606100  1.0  -0.5527
  O  O365  1  0.530800  0.170200  0.516000  1.0  -0.5922
  O  O366  1  0.617400  0.223500  0.499700  1.0  -0.5528
  O  O367  1  0.345800  0.829800  0.360600  1.0  -0.5943
  O  O368  1  0.276200  0.776500  0.393900  1.0  -0.5525
  O  O369  1  0.654200  0.014800  0.484000  1.0  -0.5954
  O  O370  1  0.723800  0.117700  0.500300  1.0  -0.5502
  O  O371  1  0.484000  0.654200  0.014800  1.0  -0.5934
  O  O372  1  0.500300  0.723800  0.117700  1.0  -0.55
  O  O373  1  0.360600  0.345800  0.829800  1.0  -0.5969
  O  O374  1  0.393900  0.276200  0.776500  1.0  -0.5531
  O  O375  1  0.516000  0.530800  0.170200  1.0  -0.5921
  O  O376  1  0.499700  0.617400  0.223500  1.0  -0.5533
  O  O377  1  0.639400  0.469200  0.985200  1.0  -0.5958
  O  O378  1  0.606100  0.382600  0.882300  1.0  -0.5546
  O  O379  1  0.170200  0.639400  0.654200  1.0  -0.5938
  O  O380  1  0.223500  0.606100  0.723800  1.0  -0.5535
  O  O381  1  0.985200  0.516000  0.345800  1.0  -0.5926
  O  O382  1  0.882300  0.499700  0.276200  1.0  -0.5485
  O  O383  1  0.014800  0.360600  0.530800  1.0  -0.596
  O  O384  1  0.117700  0.393900  0.617400  1.0  -0.5526
  O  O385  1  0.829800  0.484000  0.469200  1.0  -0.5903
  O  O386  1  0.776500  0.500300  0.382600  1.0  -0.5517
  O  O387  1  0.530800  0.014800  0.360600  1.0  -0.5974
  O  O388  1  0.617400  0.117700  0.393900  1.0  -0.5531
  O  O389  1  0.469200  0.829800  0.484000  1.0  -0.5901
  O  O390  1  0.382600  0.776500  0.500300  1.0  -0.5512
  O  O391  1  0.654200  0.170200  0.639400  1.0  -0.595
  O  O392  1  0.723800  0.223500  0.606100  1.0  -0.5529
  O  O393  1  0.345800  0.985200  0.516000  1.0  -0.5934
  O  O394  1  0.276200  0.882300  0.499700  1.0  -0.551
  O  O395  1  0.516000  0.345800  0.985200  1.0  -0.5935
  O  O396  1  0.499700  0.276200  0.882300  1.0  -0.5505
  O  O397  1  0.639400  0.654200  0.170200  1.0  -0.5958
  O  O398  1  0.606100  0.723800  0.223500  1.0  -0.5515
  O  O399  1  0.484000  0.469200  0.829800  1.0  -0.5932
  O  O400  1  0.500300  0.382600  0.776500  1.0  -0.5525
  O  O401  1  0.360600  0.530800  0.014800  1.0  -0.596
  O  O402  1  0.393900  0.617400  0.117700  1.0  -0.5542
  O  O403  1  0.909500  0.500000  0.409500  1.0  -0.9593
  O  O404  1  0.090500  0.500000  0.590500  1.0  -0.9589
  O  O405  1  0.409500  0.909500  0.500000  1.0  -0.9579
  O  O406  1  0.590500  0.090500  0.500000  1.0  -0.9594
  O  O407  1  0.500000  0.590500  0.090500  1.0  -0.9594
  O  O408  1  0.500000  0.409500  0.909500  1.0  -0.9579
  O  O409  1  0.968100  0.414900  0.446800  1.0  -0.772
  O  O410  1  0.968100  0.521300  0.553200  1.0  -0.7754
  O  O411  1  0.031900  0.585100  0.553200  1.0  -0.7725
  O  O412  1  0.031900  0.478700  0.446800  1.0  -0.773
  O  O413  1  0.553200  0.031900  0.585100  1.0  -0.7691
  O  O414  1  0.446800  0.031900  0.478700  1.0  -0.7727
  O  O415  1  0.446800  0.968100  0.414900  1.0  -0.7716
  O  O416  1  0.553200  0.968100  0.521300  1.0  -0.7705
  O  O417  1  0.521300  0.553200  0.968100  1.0  -0.7728
  O  O418  1  0.414900  0.446800  0.968100  1.0  -0.7727
  O  O419  1  0.478700  0.446800  0.031900  1.0  -0.7729
  O  O420  1  0.585100  0.553200  0.031900  1.0  -0.771
  O  O421  1  0.889600  0.389600  0.500000  1.0  -0.6297
  O  O422  1  0.110400  0.610400  0.500000  1.0  -0.6294
  O  O423  1  0.500000  0.110400  0.610400  1.0  -0.6261
  O  O424  1  0.500000  0.889600  0.389600  1.0  -0.6297
  O  O425  1  0.389600  0.500000  0.889600  1.0  -0.6305
  O  O426  1  0.610400  0.500000  0.110400  1.0  -0.6312
