# generated using pymatgen
data_Co3H30C54O13
_symmetry_space_group_name_H-M   'P 1'
_cell_length_a   17.44600000
_cell_length_b   18.76200000
_cell_length_c   27.75800000
_cell_angle_alpha   90.00000000
_cell_angle_beta   90.00000000
_cell_angle_gamma   90.00000000
_symmetry_Int_Tables_number   1
_chemical_formula_structural   Co3H30C54O13
_chemical_formula_sum   'Co12 H120 C216 O52'
_cell_volume   9085.79996782
_cell_formula_units_Z   4
loop_
 _symmetry_equiv_pos_site_id
 _symmetry_equiv_pos_as_xyz
  1  'x, y, z'
loop_
 _atom_site_type_symbol
 _atom_site_label
 _atom_site_symmetry_multiplicity
 _atom_site_fract_x
 _atom_site_fract_y
 _atom_site_fract_z
 _atom_site_occupancy
 _atom_site_charge
  Co  Co1  1  0.506560  0.966780  0.682870  1.0  1.0918
  Co  Co2  1  0.993440  0.466780  0.317130  1.0  1.0928
  Co  Co3  1  0.506560  0.966780  0.817130  1.0  1.0915
  Co  Co4  1  0.993440  0.466780  0.182870  1.0  1.0927
  Co  Co5  1  0.618660  0.854740  0.750000  1.0  1.0406
  Co  Co6  1  0.881340  0.354740  0.250000  1.0  1.0416
  Co  Co7  1  0.493440  0.033220  0.182870  1.0  1.0931
  Co  Co8  1  0.006560  0.533220  0.817130  1.0  1.0917
  Co  Co9  1  0.493440  0.033220  0.317130  1.0  1.0928
  Co  Co10  1  0.006560  0.533220  0.682870  1.0  1.092
  Co  Co11  1  0.381340  0.145260  0.250000  1.0  1.0443
  Co  Co12  1  0.118660  0.645260  0.750000  1.0  1.0432
  H  H13  1  0.243000  0.000700  0.682800  1.0  0.1158
  H  H14  1  0.125700  0.029600  0.650000  1.0  0.1146
  H  H15  1  0.218900  0.051100  0.521500  1.0  0.1185
  H  H16  1  0.338000  0.025500  0.554000  1.0  0.1102
  H  H17  1  0.690400  0.044600  0.595200  1.0  0.1054
  H  H18  1  0.798600  0.088400  0.558200  1.0  0.119
  H  H19  1  0.921900  0.934700  0.620400  1.0  0.1113
  H  H20  1  0.816100  0.900300  0.663300  1.0  0.1059
  H  H21  1  0.069800  0.310200  0.413300  1.0  0.1121
  H  H22  1  0.082100  0.233500  0.476000  1.0  0.1143
  H  H23  1  0.913600  0.112200  0.422800  1.0  0.1101
  H  H24  1  0.905800  0.184700  0.356800  1.0  0.1086
  H  H25  1  0.020500  0.009600  0.611900  1.0  0.1117
  H  H26  1  0.891700  0.097300  0.507700  1.0  0.1107
  H  H27  1  0.120300  0.120900  0.506800  1.0  0.1155
  H  H28  1  0.257000  0.500700  0.317200  1.0  0.1159
  H  H29  1  0.374300  0.529600  0.350000  1.0  0.1138
  H  H30  1  0.281100  0.551100  0.478500  1.0  0.1177
  H  H31  1  0.162000  0.525500  0.446000  1.0  0.1099
  H  H32  1  0.809600  0.544600  0.404800  1.0  0.1053
  H  H33  1  0.701400  0.588400  0.441800  1.0  0.1179
  H  H34  1  0.578100  0.434700  0.379600  1.0  0.1098
  H  H35  1  0.683900  0.400300  0.336700  1.0  0.1053
  H  H36  1  0.430200  0.810200  0.586700  1.0  0.1119
  H  H37  1  0.417900  0.733500  0.524000  1.0  0.114
  H  H38  1  0.586400  0.612200  0.577200  1.0  0.1105
  H  H39  1  0.594200  0.684700  0.643200  1.0  0.1088
  H  H40  1  0.479500  0.509600  0.388100  1.0  0.1121
  H  H41  1  0.608300  0.597300  0.492300  1.0  0.1112
  H  H42  1  0.379700  0.620900  0.493200  1.0  0.1144
  H  H43  1  0.243000  0.000700  0.817200  1.0  0.116
  H  H44  1  0.125700  0.029600  0.850000  1.0  0.114
  H  H45  1  0.218900  0.051100  0.978500  1.0  0.1173
  H  H46  1  0.338000  0.025500  0.946000  1.0  0.1101
  H  H47  1  0.690400  0.044600  0.904800  1.0  0.105
  H  H48  1  0.798600  0.088400  0.941800  1.0  0.1179
  H  H49  1  0.921900  0.934700  0.879600  1.0  0.1098
  H  H50  1  0.816100  0.900300  0.836700  1.0  0.1054
  H  H51  1  0.069800  0.310200  0.086700  1.0  0.112
  H  H52  1  0.082100  0.233500  0.024000  1.0  0.114
  H  H53  1  0.913600  0.112200  0.077200  1.0  0.1101
  H  H54  1  0.905800  0.184700  0.143200  1.0  0.1089
  H  H55  1  0.020500  0.009600  0.888100  1.0  0.1122
  H  H56  1  0.891700  0.097300  0.992300  1.0  0.1102
  H  H57  1  0.120300  0.120900  0.993200  1.0  0.1155
  H  H58  1  0.257000  0.500700  0.182800  1.0  0.1158
  H  H59  1  0.374300  0.529600  0.150000  1.0  0.1145
  H  H60  1  0.281100  0.551100  0.021500  1.0  0.1184
  H  H61  1  0.162000  0.525500  0.054000  1.0  0.11
  H  H62  1  0.809600  0.544600  0.095200  1.0  0.1057
  H  H63  1  0.701400  0.588400  0.058200  1.0  0.1189
  H  H64  1  0.578100  0.434700  0.120400  1.0  0.1105
  H  H65  1  0.683900  0.400300  0.163300  1.0  0.1059
  H  H66  1  0.430200  0.810200  0.913300  1.0  0.1121
  H  H67  1  0.417900  0.733500  0.976000  1.0  0.1144
  H  H68  1  0.586400  0.612200  0.922800  1.0  0.1105
  H  H69  1  0.594200  0.684700  0.856800  1.0  0.1088
  H  H70  1  0.479500  0.509600  0.111900  1.0  0.1119
  H  H71  1  0.608300  0.597300  0.007700  1.0  0.1115
  H  H72  1  0.379700  0.620900  0.006800  1.0  0.1151
  H  H73  1  0.757000  0.999300  0.182800  1.0  0.1155
  H  H74  1  0.874300  0.970400  0.150000  1.0  0.1149
  H  H75  1  0.781100  0.948900  0.021500  1.0  0.1186
  H  H76  1  0.662000  0.974500  0.054000  1.0  0.1099
  H  H77  1  0.309600  0.955400  0.095200  1.0  0.105
  H  H78  1  0.201400  0.911600  0.058200  1.0  0.1185
  H  H79  1  0.078100  0.065300  0.120400  1.0  0.11
  H  H80  1  0.183900  0.099700  0.163300  1.0  0.1059
  H  H81  1  0.930200  0.689800  0.913300  1.0  0.1118
  H  H82  1  0.917900  0.766500  0.976000  1.0  0.1141
  H  H83  1  0.086400  0.887800  0.922800  1.0  0.1104
  H  H84  1  0.094200  0.815300  0.856800  1.0  0.1085
  H  H85  1  0.979500  0.990400  0.111900  1.0  0.1118
  H  H86  1  0.108300  0.902700  0.007700  1.0  0.1111
  H  H87  1  0.879700  0.879100  0.006800  1.0  0.1157
  H  H88  1  0.743000  0.499300  0.817200  1.0  0.1158
  H  H89  1  0.625700  0.470400  0.850000  1.0  0.1136
  H  H90  1  0.718900  0.448900  0.978500  1.0  0.1174
  H  H91  1  0.838000  0.474500  0.946000  1.0  0.1103
  H  H92  1  0.190400  0.455400  0.904800  1.0  0.105
  H  H93  1  0.298600  0.411600  0.941800  1.0  0.1179
  H  H94  1  0.421900  0.565300  0.879600  1.0  0.1081
  H  H95  1  0.316100  0.599700  0.836700  1.0  0.106
  H  H96  1  0.569800  0.189800  0.086700  1.0  0.1116
  H  H97  1  0.582100  0.266500  0.024000  1.0  0.1137
  H  H98  1  0.413600  0.387800  0.077200  1.0  0.1107
  H  H99  1  0.405800  0.315300  0.143200  1.0  0.1086
  H  H100  1  0.520500  0.490400  0.888100  1.0  0.1121
  H  H101  1  0.391700  0.402700  0.992300  1.0  0.1102
  H  H102  1  0.620300  0.379100  0.993200  1.0  0.1161
  H  H103  1  0.757000  0.999300  0.317200  1.0  0.1157
  H  H104  1  0.874300  0.970400  0.350000  1.0  0.1134
  H  H105  1  0.781100  0.948900  0.478500  1.0  0.1179
  H  H106  1  0.662000  0.974500  0.446000  1.0  0.11
  H  H107  1  0.309600  0.955400  0.404800  1.0  0.1049
  H  H108  1  0.201400  0.911600  0.441800  1.0  0.1176
  H  H109  1  0.078100  0.065300  0.379600  1.0  0.1095
  H  H110  1  0.183900  0.099700  0.336700  1.0  0.1059
  H  H111  1  0.930200  0.689800  0.586700  1.0  0.1115
  H  H112  1  0.917900  0.766500  0.524000  1.0  0.1136
  H  H113  1  0.086400  0.887800  0.577200  1.0  0.1104
  H  H114  1  0.094200  0.815300  0.643200  1.0  0.1084
  H  H115  1  0.979500  0.990400  0.388100  1.0  0.1119
  H  H116  1  0.108300  0.902700  0.492300  1.0  0.1109
  H  H117  1  0.879700  0.879100  0.493200  1.0  0.1149
  H  H118  1  0.743000  0.499300  0.682800  1.0  0.1156
  H  H119  1  0.625700  0.470400  0.650000  1.0  0.1149
  H  H120  1  0.718900  0.448900  0.521500  1.0  0.1185
  H  H121  1  0.838000  0.474500  0.554000  1.0  0.1101
  H  H122  1  0.190400  0.455400  0.595200  1.0  0.1052
  H  H123  1  0.298600  0.411600  0.558200  1.0  0.1186
  H  H124  1  0.421900  0.565300  0.620400  1.0  0.1095
  H  H125  1  0.316100  0.599700  0.663300  1.0  0.106
  H  H126  1  0.569800  0.189800  0.413300  1.0  0.1122
  H  H127  1  0.582100  0.266500  0.476000  1.0  0.1142
  H  H128  1  0.413600  0.387800  0.422800  1.0  0.1104
  H  H129  1  0.405800  0.315300  0.356800  1.0  0.1084
  H  H130  1  0.520500  0.490400  0.611900  1.0  0.1116
  H  H131  1  0.391700  0.402700  0.507700  1.0  0.1106
  H  H132  1  0.620300  0.379100  0.506800  1.0  0.1164
  C  C133  1  0.381100  0.999200  0.644700  1.0  0.6394
  C  C134  1  0.303800  0.013800  0.622080  1.0  -0.1486
  C  C135  1  0.239400  0.012500  0.650300  1.0  -0.0555
  C  C136  1  0.168600  0.029000  0.630200  1.0  -0.1091
  C  C137  1  0.159900  0.044000  0.582790  1.0  0.0591
  C  C138  1  0.223400  0.042100  0.554400  1.0  -0.1458
  C  C139  1  0.295300  0.026800  0.574000  1.0  -0.0462
  C  C140  1  0.673400  0.948600  0.665080  1.0  0.7358
  C  C141  1  0.742100  0.971800  0.635580  1.0  -0.1011
  C  C142  1  0.737900  0.024700  0.602400  1.0  -0.0191
  C  C143  1  0.802700  0.049800  0.579000  1.0  -0.1127
  C  C144  1  0.873200  0.018200  0.586210  1.0  0.0548
  C  C145  1  0.876200  0.959600  0.616830  1.0  -0.153
  C  C146  1  0.812300  0.938100  0.641820  1.0  -0.0462
  C  C147  1  0.975300  0.308300  0.337350  1.0  0.746
  C  C148  1  0.984700  0.256700  0.377500  1.0  -0.1087
  C  C149  1  0.038800  0.270000  0.414800  1.0  -0.0644
  C  C150  1  0.045300  0.224400  0.452560  1.0  -0.1113
  C  C151  1  0.999310  0.165100  0.457240  1.0  0.0801
  C  C152  1  0.945700  0.151600  0.420510  1.0  -0.1241
  C  C153  1  0.940100  0.195800  0.381280  1.0  -0.0488
  C  C154  1  0.082600  0.060100  0.561280  1.0  -0.0043
  C  C155  1  0.016800  0.034800  0.583120  1.0  -0.0992
  C  C156  1  0.943600  0.046900  0.562140  1.0  0.0289
  C  C157  1  0.939400  0.088400  0.521370  1.0  -0.1111
  C  C158  1  0.004900  0.117800  0.499900  1.0  0.0515
  C  C159  1  0.076100  0.102300  0.520680  1.0  -0.1215
  C  C160  1  0.118900  0.499200  0.355300  1.0  0.6395
  C  C161  1  0.196200  0.513800  0.377920  1.0  -0.1469
  C  C162  1  0.260600  0.512500  0.349700  1.0  -0.0578
  C  C163  1  0.331400  0.529000  0.369800  1.0  -0.1079
  C  C164  1  0.340100  0.544000  0.417210  1.0  0.0596
  C  C165  1  0.276600  0.542100  0.445600  1.0  -0.1421
  C  C166  1  0.204700  0.526800  0.426000  1.0  -0.0473
  C  C167  1  0.826600  0.448600  0.334920  1.0  0.7359
  C  C168  1  0.757900  0.471800  0.364420  1.0  -0.1014
  C  C169  1  0.762100  0.524700  0.397600  1.0  -0.0164
  C  C170  1  0.697300  0.549800  0.421000  1.0  -0.11
  C  C171  1  0.626800  0.518200  0.413790  1.0  0.0542
  C  C172  1  0.623800  0.459600  0.383170  1.0  -0.1521
  C  C173  1  0.687700  0.438100  0.358180  1.0  -0.0504
  C  C174  1  0.524700  0.808300  0.662650  1.0  0.7459
  C  C175  1  0.515300  0.756700  0.622500  1.0  -0.1105
  C  C176  1  0.461200  0.770000  0.585200  1.0  -0.0647
  C  C177  1  0.454700  0.724400  0.547440  1.0  -0.1118
  C  C178  1  0.500690  0.665100  0.542760  1.0  0.0812
  C  C179  1  0.554300  0.651600  0.579490  1.0  -0.124
  C  C180  1  0.559900  0.695800  0.618720  1.0  -0.0511
  C  C181  1  0.417400  0.560100  0.438720  1.0  -0.004
  C  C182  1  0.483200  0.534800  0.416880  1.0  -0.0988
  C  C183  1  0.556400  0.546900  0.437860  1.0  0.0281
  C  C184  1  0.560600  0.588400  0.478630  1.0  -0.1076
  C  C185  1  0.495100  0.617800  0.500100  1.0  0.053
  C  C186  1  0.423900  0.602300  0.479320  1.0  -0.1224
  C  C187  1  0.381100  0.999200  0.855300  1.0  0.6392
  C  C188  1  0.303800  0.013800  0.877920  1.0  -0.1476
  C  C189  1  0.239400  0.012500  0.849700  1.0  -0.0582
  C  C190  1  0.168600  0.029000  0.869800  1.0  -0.1076
  C  C191  1  0.159900  0.044000  0.917210  1.0  0.0595
  C  C192  1  0.223400  0.042100  0.945600  1.0  -0.1431
  C  C193  1  0.295300  0.026800  0.926000  1.0  -0.046
  C  C194  1  0.673400  0.948600  0.834920  1.0  0.7363
  C  C195  1  0.742100  0.971800  0.864420  1.0  -0.1018
  C  C196  1  0.737900  0.024700  0.897600  1.0  -0.0188
  C  C197  1  0.802700  0.049800  0.921000  1.0  -0.1117
  C  C198  1  0.873200  0.018200  0.913790  1.0  0.0555
  C  C199  1  0.876200  0.959600  0.883170  1.0  -0.1531
  C  C200  1  0.812300  0.938100  0.858180  1.0  -0.0468
  C  C201  1  0.975300  0.308300  0.162650  1.0  0.746
  C  C202  1  0.984700  0.256700  0.122500  1.0  -0.1107
  C  C203  1  0.038800  0.270000  0.085200  1.0  -0.064
  C  C204  1  0.045300  0.224400  0.047440  1.0  -0.1116
  C  C205  1  0.999310  0.165100  0.042760  1.0  0.0804
  C  C206  1  0.945700  0.151600  0.079490  1.0  -0.1239
  C  C207  1  0.940100  0.195800  0.118720  1.0  -0.0495
  C  C208  1  0.082600  0.060100  0.938720  1.0  -0.0038
  C  C209  1  0.016800  0.034800  0.916880  1.0  -0.0993
  C  C210  1  0.943600  0.046900  0.937860  1.0  0.029
  C  C211  1  0.939400  0.088400  0.978630  1.0  -0.1101
  C  C212  1  0.004900  0.117800  0.000100  1.0  0.0524
  C  C213  1  0.076100  0.102300  0.979320  1.0  -0.1212
  C  C214  1  0.118900  0.499200  0.144700  1.0  0.6396
  C  C215  1  0.196200  0.513800  0.122080  1.0  -0.147
  C  C216  1  0.260600  0.512500  0.150300  1.0  -0.0558
  C  C217  1  0.331400  0.529000  0.130200  1.0  -0.1089
  C  C218  1  0.340100  0.544000  0.082790  1.0  0.0594
  C  C219  1  0.276600  0.542100  0.054400  1.0  -0.1455
  C  C220  1  0.204700  0.526800  0.074000  1.0  -0.0517
  C  C221  1  0.826600  0.448600  0.165080  1.0  0.7358
  C  C222  1  0.757900  0.471800  0.135580  1.0  -0.1016
  C  C223  1  0.762100  0.524700  0.102400  1.0  -0.0174
  C  C224  1  0.697300  0.549800  0.079000  1.0  -0.1102
  C  C225  1  0.626800  0.518200  0.086210  1.0  0.0549
  C  C226  1  0.623800  0.459600  0.116830  1.0  -0.153
  C  C227  1  0.687700  0.438100  0.141820  1.0  -0.0498
  C  C228  1  0.524700  0.808300  0.837350  1.0  0.7462
  C  C229  1  0.515300  0.756700  0.877500  1.0  -0.1082
  C  C230  1  0.461200  0.770000  0.914800  1.0  -0.0648
  C  C231  1  0.454700  0.724400  0.952560  1.0  -0.1113
  C  C232  1  0.500690  0.665100  0.957240  1.0  0.0811
  C  C233  1  0.554300  0.651600  0.920510  1.0  -0.1241
  C  C234  1  0.559900  0.695800  0.881280  1.0  -0.0508
  C  C235  1  0.417400  0.560100  0.061280  1.0  -0.0045
  C  C236  1  0.483200  0.534800  0.083120  1.0  -0.0993
  C  C237  1  0.556400  0.546900  0.062140  1.0  0.0287
  C  C238  1  0.560600  0.588400  0.021370  1.0  -0.1091
  C  C239  1  0.495100  0.617800  0.999900  1.0  0.0521
  C  C240  1  0.423900  0.602300  0.020680  1.0  -0.1221
  C  C241  1  0.618900  0.000800  0.144700  1.0  0.64
  C  C242  1  0.696200  0.986200  0.122080  1.0  -0.1478
  C  C243  1  0.760600  0.987500  0.150300  1.0  -0.0559
  C  C244  1  0.831400  0.971000  0.130200  1.0  -0.109
  C  C245  1  0.840100  0.956000  0.082790  1.0  0.0585
  C  C246  1  0.776600  0.957900  0.054400  1.0  -0.1464
  C  C247  1  0.704700  0.973200  0.074000  1.0  -0.0507
  C  C248  1  0.326600  0.051400  0.165080  1.0  0.7361
  C  C249  1  0.257900  0.028200  0.135580  1.0  -0.1016
  C  C250  1  0.262100  0.975300  0.102400  1.0  -0.0176
  C  C251  1  0.197300  0.950200  0.079000  1.0  -0.1098
  C  C252  1  0.126800  0.981800  0.086210  1.0  0.0553
  C  C253  1  0.123800  0.040400  0.116830  1.0  -0.1528
  C  C254  1  0.187700  0.061900  0.141820  1.0  -0.0506
  C  C255  1  0.024700  0.691700  0.837350  1.0  0.7459
  C  C256  1  0.015300  0.743300  0.877500  1.0  -0.1091
  C  C257  1  0.961200  0.730000  0.914800  1.0  -0.0644
  C  C258  1  0.954700  0.775600  0.952560  1.0  -0.1109
  C  C259  1  0.000690  0.834900  0.957240  1.0  0.0803
  C  C260  1  0.054300  0.848400  0.920510  1.0  -0.1235
  C  C261  1  0.059900  0.804200  0.881280  1.0  -0.0459
  C  C262  1  0.917400  0.939900  0.061280  1.0  -0.004
  C  C263  1  0.983200  0.965200  0.083120  1.0  -0.0994
  C  C264  1  0.056400  0.953100  0.062140  1.0  0.0284
  C  C265  1  0.060600  0.911600  0.021370  1.0  -0.1093
  C  C266  1  0.995100  0.882200  0.999900  1.0  0.0526
  C  C267  1  0.923900  0.897700  0.020680  1.0  -0.123
  C  C268  1  0.881100  0.500800  0.855300  1.0  0.6397
  C  C269  1  0.803800  0.486200  0.877920  1.0  -0.1475
  C  C270  1  0.739400  0.487500  0.849700  1.0  -0.0586
  C  C271  1  0.668600  0.471000  0.869800  1.0  -0.1079
  C  C272  1  0.659900  0.456000  0.917210  1.0  0.0587
  C  C273  1  0.723400  0.457900  0.945600  1.0  -0.1434
  C  C274  1  0.795300  0.473200  0.926000  1.0  -0.0462
  C  C275  1  0.173400  0.551400  0.834920  1.0  0.7362
  C  C276  1  0.242100  0.528200  0.864420  1.0  -0.1014
  C  C277  1  0.237900  0.475300  0.897600  1.0  -0.0179
  C  C278  1  0.302700  0.450200  0.921000  1.0  -0.1089
  C  C279  1  0.373200  0.481800  0.913790  1.0  0.0562
  C  C280  1  0.376200  0.540400  0.883170  1.0  -0.1529
  C  C281  1  0.312300  0.561900  0.858180  1.0  -0.0478
  C  C282  1  0.475300  0.191700  0.162650  1.0  0.7455
  C  C283  1  0.484700  0.243300  0.122500  1.0  -0.1108
  C  C284  1  0.538800  0.230000  0.085200  1.0  -0.0658
  C  C285  1  0.545300  0.275600  0.047440  1.0  -0.1119
  C  C286  1  0.499310  0.334900  0.042760  1.0  0.0802
  C  C287  1  0.445700  0.348400  0.079490  1.0  -0.1231
  C  C288  1  0.440100  0.304200  0.118720  1.0  -0.0532
  C  C289  1  0.582600  0.439900  0.938720  1.0  -0.004
  C  C290  1  0.516800  0.465200  0.916880  1.0  -0.0994
  C  C291  1  0.443600  0.453100  0.937860  1.0  0.0291
  C  C292  1  0.439400  0.411600  0.978630  1.0  -0.1104
  C  C293  1  0.504900  0.382200  0.000100  1.0  0.0524
  C  C294  1  0.576100  0.397700  0.979320  1.0  -0.1227
  C  C295  1  0.618900  0.000800  0.355300  1.0  0.6401
  C  C296  1  0.696200  0.986200  0.377920  1.0  -0.1481
  C  C297  1  0.760600  0.987500  0.349700  1.0  -0.0585
  C  C298  1  0.831400  0.971000  0.369800  1.0  -0.1083
  C  C299  1  0.840100  0.956000  0.417210  1.0  0.0589
  C  C300  1  0.776600  0.957900  0.445600  1.0  -0.1433
  C  C301  1  0.704700  0.973200  0.426000  1.0  -0.0502
  C  C302  1  0.326600  0.051400  0.334920  1.0  0.736
  C  C303  1  0.257900  0.028200  0.364420  1.0  -0.1012
  C  C304  1  0.262100  0.975300  0.397600  1.0  -0.0166
  C  C305  1  0.197300  0.950200  0.421000  1.0  -0.1107
  C  C306  1  0.126800  0.981800  0.413790  1.0  0.055
  C  C307  1  0.123800  0.040400  0.383170  1.0  -0.1525
  C  C308  1  0.187700  0.061900  0.358180  1.0  -0.0507
  C  C309  1  0.024700  0.691700  0.662650  1.0  0.7454
  C  C310  1  0.015300  0.743300  0.622500  1.0  -0.1106
  C  C311  1  0.961200  0.730000  0.585200  1.0  -0.0646
  C  C312  1  0.954700  0.775600  0.547440  1.0  -0.1107
  C  C313  1  0.000690  0.834900  0.542760  1.0  0.0806
  C  C314  1  0.054300  0.848400  0.579490  1.0  -0.1232
  C  C315  1  0.059900  0.804200  0.618720  1.0  -0.0491
  C  C316  1  0.917400  0.939900  0.438720  1.0  -0.0039
  C  C317  1  0.983200  0.965200  0.416880  1.0  -0.0989
  C  C318  1  0.056400  0.953100  0.437860  1.0  0.0281
  C  C319  1  0.060600  0.911600  0.478630  1.0  -0.1084
  C  C320  1  0.995100  0.882200  0.500100  1.0  0.0527
  C  C321  1  0.923900  0.897700  0.479320  1.0  -0.1232
  C  C322  1  0.881100  0.500800  0.644700  1.0  0.6397
  C  C323  1  0.803800  0.486200  0.622080  1.0  -0.1486
  C  C324  1  0.739400  0.487500  0.650300  1.0  -0.0555
  C  C325  1  0.668600  0.471000  0.630200  1.0  -0.109
  C  C326  1  0.659900  0.456000  0.582790  1.0  0.0584
  C  C327  1  0.723400  0.457900  0.554400  1.0  -0.146
  C  C328  1  0.795300  0.473200  0.574000  1.0  -0.0514
  C  C329  1  0.173400  0.551400  0.665080  1.0  0.7363
  C  C330  1  0.242100  0.528200  0.635580  1.0  -0.1008
  C  C331  1  0.237900  0.475300  0.602400  1.0  -0.0181
  C  C332  1  0.302700  0.450200  0.579000  1.0  -0.1087
  C  C333  1  0.373200  0.481800  0.586210  1.0  0.0555
  C  C334  1  0.376200  0.540400  0.616830  1.0  -0.1531
  C  C335  1  0.312300  0.561900  0.641820  1.0  -0.0471
  C  C336  1  0.475300  0.191700  0.337350  1.0  0.7458
  C  C337  1  0.484700  0.243300  0.377500  1.0  -0.1094
  C  C338  1  0.538800  0.230000  0.414800  1.0  -0.0656
  C  C339  1  0.545300  0.275600  0.452560  1.0  -0.1125
  C  C340  1  0.499310  0.334900  0.457240  1.0  0.0797
  C  C341  1  0.445700  0.348400  0.420510  1.0  -0.1234
  C  C342  1  0.440100  0.304200  0.381280  1.0  -0.0528
  C  C343  1  0.582600  0.439900  0.561280  1.0  -0.0041
  C  C344  1  0.516800  0.465200  0.583120  1.0  -0.0994
  C  C345  1  0.443600  0.453100  0.562140  1.0  0.0287
  C  C346  1  0.439400  0.411600  0.521370  1.0  -0.1128
  C  C347  1  0.504900  0.382200  0.499900  1.0  0.0522
  C  C348  1  0.576100  0.397700  0.520680  1.0  -0.1228
  O  O349  1  0.439530  0.004100  0.618730  1.0  -0.5641
  O  O350  1  0.384910  0.980100  0.687060  1.0  -0.5672
  O  O351  1  0.683440  0.907700  0.698690  1.0  -0.5945
  O  O352  1  0.609790  0.972100  0.651340  1.0  -0.6298
  O  O353  1  0.930840  0.293030  0.304000  1.0  -0.6316
  O  O354  1  0.013200  0.364600  0.340210  1.0  -0.5902
  O  O355  1  0.060470  0.504100  0.381270  1.0  -0.5671
  O  O356  1  0.115090  0.480100  0.312940  1.0  -0.5718
  O  O357  1  0.816560  0.407700  0.301310  1.0  -0.5963
  O  O358  1  0.890210  0.472100  0.348660  1.0  -0.6286
  O  O359  1  0.569160  0.793030  0.696000  1.0  -0.6312
  O  O360  1  0.486800  0.864600  0.659790  1.0  -0.5898
  O  O361  1  0.439530  0.004100  0.881270  1.0  -0.5617
  O  O362  1  0.384910  0.980100  0.812940  1.0  -0.5701
  O  O363  1  0.683440  0.907700  0.801310  1.0  -0.5944
  O  O364  1  0.609790  0.972100  0.848660  1.0  -0.629
  O  O365  1  0.930840  0.293030  0.196000  1.0  -0.6316
  O  O366  1  0.013200  0.364600  0.159790  1.0  -0.5902
  O  O367  1  0.060470  0.504100  0.118730  1.0  -0.5663
  O  O368  1  0.115090  0.480100  0.187060  1.0  -0.5698
  O  O369  1  0.816560  0.407700  0.198690  1.0  -0.5954
  O  O370  1  0.890210  0.472100  0.151340  1.0  -0.6299
  O  O371  1  0.569160  0.793030  0.804000  1.0  -0.6315
  O  O372  1  0.486800  0.864600  0.840210  1.0  -0.5899
  O  O373  1  0.525500  0.927700  0.750000  1.0  -0.7563
  O  O374  1  0.974500  0.427700  0.250000  1.0  -0.7559
  O  O375  1  0.560470  0.995900  0.118730  1.0  -0.5685
  O  O376  1  0.615090  0.019900  0.187060  1.0  -0.5689
  O  O377  1  0.316560  0.092300  0.198690  1.0  -0.5959
  O  O378  1  0.390210  0.027900  0.151340  1.0  -0.6298
  O  O379  1  0.069160  0.706970  0.804000  1.0  -0.6316
  O  O380  1  0.986800  0.635400  0.840210  1.0  -0.5899
  O  O381  1  0.939530  0.495900  0.881270  1.0  -0.5622
  O  O382  1  0.884910  0.519900  0.812940  1.0  -0.5699
  O  O383  1  0.183440  0.592300  0.801310  1.0  -0.5943
  O  O384  1  0.109790  0.527900  0.848660  1.0  -0.6289
  O  O385  1  0.430840  0.206970  0.196000  1.0  -0.6324
  O  O386  1  0.513200  0.135400  0.159790  1.0  -0.5902
  O  O387  1  0.560470  0.995900  0.381270  1.0  -0.5639
  O  O388  1  0.615090  0.019900  0.312940  1.0  -0.5711
  O  O389  1  0.316560  0.092300  0.301310  1.0  -0.5968
  O  O390  1  0.390210  0.027900  0.348660  1.0  -0.6287
  O  O391  1  0.069160  0.706970  0.696000  1.0  -0.6315
  O  O392  1  0.986800  0.635400  0.659790  1.0  -0.59
  O  O393  1  0.939530  0.495900  0.618730  1.0  -0.5626
  O  O394  1  0.884910  0.519900  0.687060  1.0  -0.5676
  O  O395  1  0.183440  0.592300  0.698690  1.0  -0.5951
  O  O396  1  0.109790  0.527900  0.651340  1.0  -0.6298
  O  O397  1  0.430840  0.206970  0.304000  1.0  -0.6319
  O  O398  1  0.513200  0.135400  0.340210  1.0  -0.5869
  O  O399  1  0.474500  0.072300  0.250000  1.0  -0.757
  O  O400  1  0.025500  0.572300  0.750000  1.0  -0.7566
