# generated using pymatgen
data_Co3H30C54O13
_symmetry_space_group_name_H-M   'P 1'
_cell_length_a   17.56400000
_cell_length_b   25.62900000
_cell_length_c   20.80000000
_cell_angle_alpha   90.00000000
_cell_angle_beta   90.00000000
_cell_angle_gamma   90.00000000
_symmetry_Int_Tables_number   1
_chemical_formula_structural   Co3H30C54O13
_chemical_formula_sum   'Co12 H120 C216 O52'
_cell_volume   9363.07332480
_cell_formula_units_Z   4
loop_
 _symmetry_equiv_pos_site_id
 _symmetry_equiv_pos_as_xyz
  1  'x, y, z'
loop_
 _atom_site_type_symbol
 _atom_site_label
 _atom_site_symmetry_multiplicity
 _atom_site_fract_x
 _atom_site_fract_y
 _atom_site_fract_z
 _atom_site_occupancy
 _atom_site_charge
  Co  Co1  1  0.996890  0.681980  0.561650  1.0  1.0946
  Co  Co2  1  0.503110  0.318020  0.061650  1.0  1.0944
  Co  Co3  1  0.996890  0.818020  0.561650  1.0  1.0936
  Co  Co4  1  0.503110  0.181980  0.061650  1.0  1.0952
  Co  Co5  1  0.886380  0.750000  0.662260  1.0  1.0941
  Co  Co6  1  0.613620  0.250000  0.162260  1.0  1.0942
  Co  Co7  1  0.003110  0.181980  0.438350  1.0  1.095
  Co  Co8  1  0.496890  0.818020  0.938350  1.0  1.0943
  Co  Co9  1  0.003110  0.318020  0.438350  1.0  1.0946
  Co  Co10  1  0.496890  0.681980  0.938350  1.0  1.0947
  Co  Co11  1  0.113620  0.250000  0.337740  1.0  1.0955
  Co  Co12  1  0.386380  0.750000  0.837740  1.0  1.0965
  H  H13  1  0.254800  0.689300  0.530900  1.0  0.0883
  H  H14  1  0.374000  0.664200  0.498000  1.0  0.142
  H  H15  1  0.287900  0.523200  0.460300  1.0  0.148
  H  H16  1  0.169600  0.556000  0.495900  1.0  0.1015
  H  H17  1  0.810800  0.609900  0.463300  1.0  0.1078
  H  H18  1  0.698800  0.577900  0.415000  1.0  0.1431
  H  H19  1  0.584300  0.622000  0.572300  1.0  0.1139
  H  H20  1  0.694700  0.658100  0.614000  1.0  0.133
  H  H21  1  0.428600  0.426900  0.209600  1.0  0.1296
  H  H22  1  0.420100  0.491500  0.282000  1.0  0.1243
  H  H23  1  0.589100  0.423900  0.387500  1.0  0.1202
  H  H24  1  0.596700  0.361400  0.310800  1.0  0.1027
  H  H25  1  0.482500  0.617300  0.509400  1.0  0.1137
  H  H26  1  0.610300  0.517200  0.412600  1.0  0.1104
  H  H27  1  0.382400  0.516200  0.395500  1.0  0.1154
  H  H28  1  0.245200  0.310700  0.030900  1.0  0.088
  H  H29  1  0.126000  0.335800  0.998000  1.0  0.1413
  H  H30  1  0.212100  0.476800  0.960300  1.0  0.1472
  H  H31  1  0.330400  0.444000  0.995900  1.0  0.1012
  H  H32  1  0.689200  0.390100  0.963300  1.0  0.1079
  H  H33  1  0.801200  0.422100  0.915000  1.0  0.1425
  H  H34  1  0.915700  0.378000  0.072300  1.0  0.1145
  H  H35  1  0.805300  0.341900  0.114000  1.0  0.133
  H  H36  1  0.071400  0.573100  0.709600  1.0  0.1301
  H  H37  1  0.079900  0.508500  0.782000  1.0  0.1233
  H  H38  1  0.910900  0.576100  0.887500  1.0  0.1191
  H  H39  1  0.903300  0.638600  0.810800  1.0  0.1033
  H  H40  1  0.017500  0.382700  0.009400  1.0  0.1136
  H  H41  1  0.889700  0.482800  0.912600  1.0  0.1094
  H  H42  1  0.117600  0.483800  0.895500  1.0  0.1149
  H  H43  1  0.254800  0.810700  0.530900  1.0  0.0883
  H  H44  1  0.374000  0.835800  0.498000  1.0  0.1412
  H  H45  1  0.287900  0.976800  0.460300  1.0  0.1479
  H  H46  1  0.169600  0.944000  0.495900  1.0  0.1013
  H  H47  1  0.810800  0.890100  0.463300  1.0  0.108
  H  H48  1  0.698800  0.922100  0.415000  1.0  0.1432
  H  H49  1  0.584300  0.878000  0.572300  1.0  0.1135
  H  H50  1  0.694700  0.841900  0.614000  1.0  0.1329
  H  H51  1  0.428600  0.073100  0.209600  1.0  0.1297
  H  H52  1  0.420100  0.008500  0.282000  1.0  0.1233
  H  H53  1  0.589100  0.076100  0.387500  1.0  0.1198
  H  H54  1  0.596700  0.138600  0.310800  1.0  0.1029
  H  H55  1  0.482500  0.882700  0.509400  1.0  0.1135
  H  H56  1  0.610300  0.982800  0.412600  1.0  0.1102
  H  H57  1  0.382400  0.983800  0.395500  1.0  0.115
  H  H58  1  0.245200  0.189300  0.030900  1.0  0.0882
  H  H59  1  0.126000  0.164200  0.998000  1.0  0.1424
  H  H60  1  0.212100  0.023200  0.960300  1.0  0.1474
  H  H61  1  0.330400  0.056000  0.995900  1.0  0.1008
  H  H62  1  0.689200  0.109900  0.963300  1.0  0.1077
  H  H63  1  0.801200  0.077900  0.915000  1.0  0.1423
  H  H64  1  0.915700  0.122000  0.072300  1.0  0.114
  H  H65  1  0.805300  0.158100  0.114000  1.0  0.133
  H  H66  1  0.071400  0.926900  0.709600  1.0  0.1301
  H  H67  1  0.079900  0.991500  0.782000  1.0  0.1239
  H  H68  1  0.910900  0.923900  0.887500  1.0  0.1198
  H  H69  1  0.903300  0.861400  0.810800  1.0  0.1031
  H  H70  1  0.017500  0.117300  0.009400  1.0  0.1138
  H  H71  1  0.889700  0.017200  0.912600  1.0  0.1095
  H  H72  1  0.117600  0.016200  0.895500  1.0  0.1152
  H  H73  1  0.745200  0.189300  0.469100  1.0  0.0886
  H  H74  1  0.626000  0.164200  0.502000  1.0  0.1422
  H  H75  1  0.712100  0.023200  0.539700  1.0  0.1468
  H  H76  1  0.830400  0.056000  0.504100  1.0  0.1012
  H  H77  1  0.189200  0.109900  0.536700  1.0  0.1079
  H  H78  1  0.301200  0.077900  0.585000  1.0  0.1433
  H  H79  1  0.415700  0.122000  0.427700  1.0  0.1129
  H  H80  1  0.305300  0.158100  0.386000  1.0  0.133
  H  H81  1  0.571400  0.926900  0.790400  1.0  0.1303
  H  H82  1  0.579900  0.991500  0.718000  1.0  0.1231
  H  H83  1  0.410900  0.923900  0.612500  1.0  0.1207
  H  H84  1  0.403300  0.861400  0.689200  1.0  0.1029
  H  H85  1  0.517500  0.117300  0.490600  1.0  0.114
  H  H86  1  0.389700  0.017200  0.587400  1.0  0.1096
  H  H87  1  0.617600  0.016200  0.604500  1.0  0.115
  H  H88  1  0.754800  0.810700  0.969100  1.0  0.0886
  H  H89  1  0.874000  0.835800  0.002000  1.0  0.1416
  H  H90  1  0.787900  0.976800  0.039700  1.0  0.148
  H  H91  1  0.669600  0.944000  0.004100  1.0  0.1013
  H  H92  1  0.310800  0.890100  0.036700  1.0  0.1078
  H  H93  1  0.198800  0.922100  0.085000  1.0  0.1426
  H  H94  1  0.084300  0.878000  0.927700  1.0  0.113
  H  H95  1  0.194700  0.841900  0.886000  1.0  0.1328
  H  H96  1  0.928600  0.073100  0.290400  1.0  0.1302
  H  H97  1  0.920100  0.008500  0.218000  1.0  0.1235
  H  H98  1  0.089100  0.076100  0.112500  1.0  0.1211
  H  H99  1  0.096700  0.138600  0.189200  1.0  0.1031
  H  H100  1  0.982500  0.882700  0.990600  1.0  0.1137
  H  H101  1  0.110300  0.982800  0.087400  1.0  0.1093
  H  H102  1  0.882400  0.983800  0.104500  1.0  0.1159
  H  H103  1  0.745200  0.310700  0.469100  1.0  0.0883
  H  H104  1  0.626000  0.335800  0.502000  1.0  0.1416
  H  H105  1  0.712100  0.476800  0.539700  1.0  0.1467
  H  H106  1  0.830400  0.444000  0.504100  1.0  0.1013
  H  H107  1  0.189200  0.390100  0.536700  1.0  0.1079
  H  H108  1  0.301200  0.422100  0.585000  1.0  0.1435
  H  H109  1  0.415700  0.378000  0.427700  1.0  0.1134
  H  H110  1  0.305300  0.341900  0.386000  1.0  0.1328
  H  H111  1  0.571400  0.573100  0.790400  1.0  0.1304
  H  H112  1  0.579900  0.508500  0.718000  1.0  0.1231
  H  H113  1  0.410900  0.576100  0.612500  1.0  0.1205
  H  H114  1  0.403300  0.638600  0.689200  1.0  0.1033
  H  H115  1  0.517500  0.382700  0.490600  1.0  0.1135
  H  H116  1  0.389700  0.482800  0.587400  1.0  0.1096
  H  H117  1  0.617600  0.483800  0.604500  1.0  0.1151
  H  H118  1  0.754800  0.689300  0.969100  1.0  0.0888
  H  H119  1  0.874000  0.664200  0.002000  1.0  0.1418
  H  H120  1  0.787900  0.523200  0.039700  1.0  0.1481
  H  H121  1  0.669600  0.556000  0.004100  1.0  0.1017
  H  H122  1  0.310800  0.609900  0.036700  1.0  0.1078
  H  H123  1  0.198800  0.577900  0.085000  1.0  0.1423
  H  H124  1  0.084300  0.622000  0.927700  1.0  0.1133
  H  H125  1  0.194700  0.658100  0.886000  1.0  0.1331
  H  H126  1  0.928600  0.426900  0.290400  1.0  0.1301
  H  H127  1  0.920100  0.491500  0.218000  1.0  0.124
  H  H128  1  0.089100  0.423900  0.112500  1.0  0.1213
  H  H129  1  0.096700  0.361400  0.189200  1.0  0.1027
  H  H130  1  0.982500  0.617300  0.990600  1.0  0.1141
  H  H131  1  0.110300  0.517200  0.087400  1.0  0.1092
  H  H132  1  0.882400  0.516200  0.104500  1.0  0.1161
  C  C133  1  0.120300  0.648600  0.526800  1.0  0.4676
  C  C134  1  0.200800  0.627700  0.509700  1.0  0.0005
  C  C135  1  0.260600  0.656000  0.513900  1.0  -0.0256
  C  C136  1  0.333200  0.641200  0.495200  1.0  -0.2094
  C  C137  1  0.342400  0.592100  0.472700  1.0  0.0769
  C  C138  1  0.282400  0.557800  0.472900  1.0  -0.1757
  C  C139  1  0.211100  0.578500  0.493700  1.0  -0.0235
  C  C140  1  0.831300  0.669700  0.572300  1.0  0.5288
  C  C141  1  0.762000  0.641200  0.536900  1.0  -0.0681
  C  C142  1  0.764200  0.614700  0.483800  1.0  -0.011
  C  C143  1  0.697500  0.592600  0.455900  1.0  -0.1662
  C  C144  1  0.629700  0.593800  0.491600  1.0  0.0491
  C  C145  1  0.629400  0.619600  0.549100  1.0  -0.1161
  C  C146  1  0.695100  0.642300  0.573700  1.0  -0.0645
  C  C147  1  0.524300  0.346700  0.203000  1.0  0.7191
  C  C148  1  0.515500  0.386000  0.253500  1.0  -0.1262
  C  C149  1  0.460600  0.426900  0.245300  1.0  -0.0718
  C  C150  1  0.455400  0.465100  0.288900  1.0  -0.1107
  C  C151  1  0.501400  0.467600  0.346000  1.0  0.067
  C  C152  1  0.556700  0.425200  0.352200  1.0  -0.1593
  C  C153  1  0.560500  0.387600  0.305900  1.0  -0.0079
  C  C154  1  0.420900  0.570200  0.453300  1.0  0.0228
  C  C155  1  0.486500  0.590400  0.479600  1.0  -0.1078
  C  C156  1  0.559500  0.571800  0.463200  1.0  0.0971
  C  C157  1  0.563000  0.531600  0.421800  1.0  -0.1657
  C  C158  1  0.496400  0.509600  0.391000  1.0  0.0837
  C  C159  1  0.427000  0.530700  0.411700  1.0  -0.1087
  C  C160  1  0.379700  0.351400  0.026800  1.0  0.4685
  C  C161  1  0.299200  0.372300  0.009700  1.0  0.0023
  C  C162  1  0.239400  0.344000  0.013900  1.0  -0.0248
  C  C163  1  0.166800  0.358800  0.995200  1.0  -0.2087
  C  C164  1  0.157600  0.407900  0.972700  1.0  0.0762
  C  C165  1  0.217600  0.442200  0.972900  1.0  -0.1784
  C  C166  1  0.288900  0.421500  0.993700  1.0  -0.0224
  C  C167  1  0.668700  0.330300  0.072300  1.0  0.5282
  C  C168  1  0.738000  0.358800  0.036900  1.0  -0.0663
  C  C169  1  0.735800  0.385300  0.983800  1.0  -0.013
  C  C170  1  0.802500  0.407400  0.955900  1.0  -0.1635
  C  C171  1  0.870300  0.406200  0.991600  1.0  0.0494
  C  C172  1  0.870600  0.380400  0.049100  1.0  -0.1172
  C  C173  1  0.804900  0.357700  0.073700  1.0  -0.063
  C  C174  1  0.975700  0.653300  0.703000  1.0  0.7199
  C  C175  1  0.984500  0.614000  0.753500  1.0  -0.1253
  C  C176  1  0.039400  0.573100  0.745300  1.0  -0.0733
  C  C177  1  0.044600  0.534900  0.788900  1.0  -0.1111
  C  C178  1  0.998600  0.532400  0.846000  1.0  0.0664
  C  C179  1  0.943300  0.574800  0.852200  1.0  -0.1596
  C  C180  1  0.939500  0.612400  0.805900  1.0  -0.0091
  C  C181  1  0.079100  0.429800  0.953300  1.0  0.0246
  C  C182  1  0.013500  0.409600  0.979600  1.0  -0.1075
  C  C183  1  0.940500  0.428200  0.963200  1.0  0.0951
  C  C184  1  0.937000  0.468400  0.921800  1.0  -0.1655
  C  C185  1  0.003600  0.490400  0.891000  1.0  0.0823
  C  C186  1  0.073000  0.469300  0.911700  1.0  -0.1101
  C  C187  1  0.120300  0.851400  0.526800  1.0  0.4681
  C  C188  1  0.200800  0.872300  0.509700  1.0  -0.0
  C  C189  1  0.260600  0.844000  0.513900  1.0  -0.0253
  C  C190  1  0.333200  0.858800  0.495200  1.0  -0.2084
  C  C191  1  0.342400  0.907900  0.472700  1.0  0.0776
  C  C192  1  0.282400  0.942200  0.472900  1.0  -0.1786
  C  C193  1  0.211100  0.921500  0.493700  1.0  -0.0235
  C  C194  1  0.831300  0.830300  0.572300  1.0  0.5282
  C  C195  1  0.762000  0.858800  0.536900  1.0  -0.0664
  C  C196  1  0.764200  0.885300  0.483800  1.0  -0.0112
  C  C197  1  0.697500  0.907400  0.455900  1.0  -0.1667
  C  C198  1  0.629700  0.906200  0.491600  1.0  0.05
  C  C199  1  0.629400  0.880400  0.549100  1.0  -0.1161
  C  C200  1  0.695100  0.857700  0.573700  1.0  -0.0633
  C  C201  1  0.524300  0.153300  0.203000  1.0  0.7198
  C  C202  1  0.515500  0.114000  0.253500  1.0  -0.1257
  C  C203  1  0.460600  0.073100  0.245300  1.0  -0.0713
  C  C204  1  0.455400  0.034900  0.288900  1.0  -0.1096
  C  C205  1  0.501400  0.032400  0.346000  1.0  0.065
  C  C206  1  0.556700  0.074800  0.352200  1.0  -0.1594
  C  C207  1  0.560500  0.112400  0.305900  1.0  -0.009
  C  C208  1  0.420900  0.929800  0.453300  1.0  0.0235
  C  C209  1  0.486500  0.909600  0.479600  1.0  -0.107
  C  C210  1  0.559500  0.928200  0.463200  1.0  0.0962
  C  C211  1  0.563000  0.968400  0.421800  1.0  -0.1656
  C  C212  1  0.496400  0.990400  0.391000  1.0  0.0829
  C  C213  1  0.427000  0.969300  0.411700  1.0  -0.1091
  C  C214  1  0.379700  0.148600  0.026800  1.0  0.4684
  C  C215  1  0.299200  0.127700  0.009700  1.0  0.0019
  C  C216  1  0.239400  0.156000  0.013900  1.0  -0.0249
  C  C217  1  0.166800  0.141200  0.995200  1.0  -0.2114
  C  C218  1  0.157600  0.092100  0.972700  1.0  0.0765
  C  C219  1  0.217600  0.057800  0.972900  1.0  -0.1761
  C  C220  1  0.288900  0.078500  0.993700  1.0  -0.0229
  C  C221  1  0.668700  0.169700  0.072300  1.0  0.5285
  C  C222  1  0.738000  0.141200  0.036900  1.0  -0.0661
  C  C223  1  0.735800  0.114700  0.983800  1.0  -0.0131
  C  C224  1  0.802500  0.092600  0.955900  1.0  -0.1629
  C  C225  1  0.870300  0.093800  0.991600  1.0  0.0487
  C  C226  1  0.870600  0.119600  0.049100  1.0  -0.1173
  C  C227  1  0.804900  0.142300  0.073700  1.0  -0.0646
  C  C228  1  0.975700  0.846700  0.703000  1.0  0.7193
  C  C229  1  0.984500  0.886000  0.753500  1.0  -0.1256
  C  C230  1  0.039400  0.926900  0.745300  1.0  -0.0733
  C  C231  1  0.044600  0.965100  0.788900  1.0  -0.1109
  C  C232  1  0.998600  0.967600  0.846000  1.0  0.0684
  C  C233  1  0.943300  0.925200  0.852200  1.0  -0.1595
  C  C234  1  0.939500  0.887600  0.805900  1.0  -0.0072
  C  C235  1  0.079100  0.070200  0.953300  1.0  0.0239
  C  C236  1  0.013500  0.090400  0.979600  1.0  -0.1078
  C  C237  1  0.940500  0.071800  0.963200  1.0  0.0963
  C  C238  1  0.937000  0.031600  0.921800  1.0  -0.1658
  C  C239  1  0.003600  0.009600  0.891000  1.0  0.0834
  C  C240  1  0.073000  0.030700  0.911700  1.0  -0.1094
  C  C241  1  0.879700  0.148600  0.473200  1.0  0.4695
  C  C242  1  0.799200  0.127700  0.490300  1.0  0.0014
  C  C243  1  0.739400  0.156000  0.486100  1.0  -0.0251
  C  C244  1  0.666800  0.141200  0.504800  1.0  -0.2107
  C  C245  1  0.657600  0.092100  0.527300  1.0  0.0761
  C  C246  1  0.717600  0.057800  0.527100  1.0  -0.1762
  C  C247  1  0.788900  0.078500  0.506300  1.0  -0.023
  C  C248  1  0.168700  0.169700  0.427700  1.0  0.5281
  C  C249  1  0.238000  0.141200  0.463100  1.0  -0.0667
  C  C250  1  0.235800  0.114700  0.516200  1.0  -0.0119
  C  C251  1  0.302500  0.092600  0.544100  1.0  -0.1664
  C  C252  1  0.370300  0.093800  0.508400  1.0  0.0499
  C  C253  1  0.370600  0.119600  0.450900  1.0  -0.1166
  C  C254  1  0.304900  0.142300  0.426300  1.0  -0.0658
  C  C255  1  0.475700  0.846700  0.797000  1.0  0.7196
  C  C256  1  0.484500  0.886000  0.746500  1.0  -0.1246
  C  C257  1  0.539400  0.926900  0.754700  1.0  -0.0733
  C  C258  1  0.544600  0.965100  0.711100  1.0  -0.1097
  C  C259  1  0.498600  0.967600  0.654000  1.0  0.0667
  C  C260  1  0.443300  0.925200  0.647800  1.0  -0.162
  C  C261  1  0.439500  0.887600  0.694100  1.0  -0.0073
  C  C262  1  0.579100  0.070200  0.546700  1.0  0.0251
  C  C263  1  0.513500  0.090400  0.520400  1.0  -0.1065
  C  C264  1  0.440500  0.071800  0.536800  1.0  0.0975
  C  C265  1  0.437000  0.031600  0.578200  1.0  -0.1704
  C  C266  1  0.503600  0.009600  0.609000  1.0  0.0824
  C  C267  1  0.573000  0.030700  0.588300  1.0  -0.1109
  C  C268  1  0.620300  0.851400  0.973200  1.0  0.4695
  C  C269  1  0.700800  0.872300  0.990300  1.0  1e-04
  C  C270  1  0.760600  0.844000  0.986100  1.0  -0.0251
  C  C271  1  0.833200  0.858800  0.004800  1.0  -0.2079
  C  C272  1  0.842400  0.907900  0.027300  1.0  0.0758
  C  C273  1  0.782400  0.942200  0.027100  1.0  -0.1782
  C  C274  1  0.711100  0.921500  0.006300  1.0  -0.0238
  C  C275  1  0.331300  0.830300  0.927700  1.0  0.5277
  C  C276  1  0.262000  0.858800  0.963100  1.0  -0.0669
  C  C277  1  0.264200  0.885300  0.016200  1.0  -0.0097
  C  C278  1  0.197500  0.907400  0.044100  1.0  -0.1672
  C  C279  1  0.129700  0.906200  0.008400  1.0  0.0505
  C  C280  1  0.129400  0.880400  0.950900  1.0  -0.1154
  C  C281  1  0.195100  0.857700  0.926300  1.0  -0.0644
  C  C282  1  0.024300  0.153300  0.297000  1.0  0.7197
  C  C283  1  0.015500  0.114000  0.246500  1.0  -0.1248
  C  C284  1  0.960600  0.073100  0.254700  1.0  -0.0723
  C  C285  1  0.955400  0.034900  0.211100  1.0  -0.1091
  C  C286  1  0.001400  0.032400  0.154000  1.0  0.0652
  C  C287  1  0.056700  0.074800  0.147800  1.0  -0.1601
  C  C288  1  0.060500  0.112400  0.194100  1.0  -0.0087
  C  C289  1  0.920900  0.929800  0.046700  1.0  0.0245
  C  C290  1  0.986500  0.909600  0.020400  1.0  -0.1073
  C  C291  1  0.059500  0.928200  0.036800  1.0  0.0991
  C  C292  1  0.063000  0.968400  0.078200  1.0  -0.1679
  C  C293  1  0.996400  0.990400  0.109000  1.0  0.0834
  C  C294  1  0.927000  0.969300  0.088300  1.0  -0.1127
  C  C295  1  0.879700  0.351400  0.473200  1.0  0.4697
  C  C296  1  0.799200  0.372300  0.490300  1.0  0.0016
  C  C297  1  0.739400  0.344000  0.486100  1.0  -0.0247
  C  C298  1  0.666800  0.358800  0.504800  1.0  -0.208
  C  C299  1  0.657600  0.407900  0.527300  1.0  0.0761
  C  C300  1  0.717600  0.442200  0.527100  1.0  -0.1779
  C  C301  1  0.788900  0.421500  0.506300  1.0  -0.0224
  C  C302  1  0.168700  0.330300  0.427700  1.0  0.5276
  C  C303  1  0.238000  0.358800  0.463100  1.0  -0.0672
  C  C304  1  0.235800  0.385300  0.516200  1.0  -0.0115
  C  C305  1  0.302500  0.407400  0.544100  1.0  -0.1661
  C  C306  1  0.370300  0.406200  0.508400  1.0  0.0498
  C  C307  1  0.370600  0.380400  0.450900  1.0  -0.1166
  C  C308  1  0.304900  0.357700  0.426300  1.0  -0.0644
  C  C309  1  0.475700  0.653300  0.797000  1.0  0.72
  C  C310  1  0.484500  0.614000  0.746500  1.0  -0.1246
  C  C311  1  0.539400  0.573100  0.754700  1.0  -0.073
  C  C312  1  0.544600  0.534900  0.711100  1.0  -0.1097
  C  C313  1  0.498600  0.532400  0.654000  1.0  0.0665
  C  C314  1  0.443300  0.574800  0.647800  1.0  -0.1616
  C  C315  1  0.439500  0.612400  0.694100  1.0  -0.009
  C  C316  1  0.579100  0.429800  0.546700  1.0  0.0261
  C  C317  1  0.513500  0.409600  0.520400  1.0  -0.1075
  C  C318  1  0.440500  0.428200  0.536800  1.0  0.0983
  C  C319  1  0.437000  0.468400  0.578200  1.0  -0.1703
  C  C320  1  0.503600  0.490400  0.609000  1.0  0.0827
  C  C321  1  0.573000  0.469300  0.588300  1.0  -0.1104
  C  C322  1  0.620300  0.648600  0.973200  1.0  0.4691
  C  C323  1  0.700800  0.627700  0.990300  1.0  0.0005
  C  C324  1  0.760600  0.656000  0.986100  1.0  -0.0257
  C  C325  1  0.833200  0.641200  0.004800  1.0  -0.2092
  C  C326  1  0.842400  0.592100  0.027300  1.0  0.0758
  C  C327  1  0.782400  0.557800  0.027100  1.0  -0.1765
  C  C328  1  0.711100  0.578500  0.006300  1.0  -0.024
  C  C329  1  0.331300  0.669700  0.927700  1.0  0.5284
  C  C330  1  0.262000  0.641200  0.963100  1.0  -0.0685
  C  C331  1  0.264200  0.614700  0.016200  1.0  -0.0097
  C  C332  1  0.197500  0.592600  0.044100  1.0  -0.1671
  C  C333  1  0.129700  0.593800  0.008400  1.0  0.0504
  C  C334  1  0.129400  0.619600  0.950900  1.0  -0.1156
  C  C335  1  0.195100  0.642300  0.926300  1.0  -0.0656
  C  C336  1  0.024300  0.346700  0.297000  1.0  0.7194
  C  C337  1  0.015500  0.386000  0.246500  1.0  -0.125
  C  C338  1  0.960600  0.426900  0.254700  1.0  -0.0726
  C  C339  1  0.955400  0.465100  0.211100  1.0  -0.1104
  C  C340  1  0.001400  0.467600  0.154000  1.0  0.0655
  C  C341  1  0.056700  0.425200  0.147800  1.0  -0.1602
  C  C342  1  0.060500  0.387600  0.194100  1.0  -0.0077
  C  C343  1  0.920900  0.570200  0.046700  1.0  0.023
  C  C344  1  0.986500  0.590400  0.020400  1.0  -0.1065
  C  C345  1  0.059500  0.571800  0.036800  1.0  0.0985
  C  C346  1  0.063000  0.531600  0.078200  1.0  -0.1677
  C  C347  1  0.996400  0.509600  0.109000  1.0  0.083
  C  C348  1  0.927000  0.530700  0.088300  1.0  -0.1135
  O  O349  1  0.067000  0.621600  0.517100  1.0  -0.5303
  O  O350  1  0.119800  0.686400  0.558800  1.0  -0.5379
  O  O351  1  0.827000  0.695520  0.614700  1.0  -0.5812
  O  O352  1  0.895000  0.659400  0.535600  1.0  -0.5782
  O  O353  1  0.564300  0.307830  0.217200  1.0  -0.594
  O  O354  1  0.495500  0.355900  0.147100  1.0  -0.6068
  O  O355  1  0.433000  0.378400  0.017100  1.0  -0.5269
  O  O356  1  0.380200  0.313600  0.058800  1.0  -0.5364
  O  O357  1  0.673000  0.304480  0.114700  1.0  -0.5813
  O  O358  1  0.605000  0.340600  0.035600  1.0  -0.5827
  O  O359  1  0.935700  0.692170  0.717200  1.0  -0.5942
  O  O360  1  0.004500  0.644100  0.647100  1.0  -0.6073
  O  O361  1  0.067000  0.878400  0.517100  1.0  -0.5299
  O  O362  1  0.119800  0.813600  0.558800  1.0  -0.5362
  O  O363  1  0.827000  0.804480  0.614700  1.0  -0.581
  O  O364  1  0.895000  0.840600  0.535600  1.0  -0.5791
  O  O365  1  0.564300  0.192170  0.217200  1.0  -0.5946
  O  O366  1  0.495500  0.144100  0.147100  1.0  -0.6068
  O  O367  1  0.433000  0.121600  0.017100  1.0  -0.5283
  O  O368  1  0.380200  0.186400  0.058800  1.0  -0.5382
  O  O369  1  0.673000  0.195520  0.114700  1.0  -0.5812
  O  O370  1  0.605000  0.159400  0.035600  1.0  -0.5819
  O  O371  1  0.935700  0.807830  0.717200  1.0  -0.5938
  O  O372  1  0.004500  0.855900  0.647100  1.0  -0.6073
  O  O373  1  0.981200  0.750000  0.601100  1.0  -0.7964
  O  O374  1  0.518800  0.250000  0.101100  1.0  -0.7956
  O  O375  1  0.933000  0.121600  0.482900  1.0  -0.5327
  O  O376  1  0.880200  0.186400  0.441200  1.0  -0.5395
  O  O377  1  0.173000  0.195520  0.385300  1.0  -0.5815
  O  O378  1  0.105000  0.159400  0.464400  1.0  -0.5802
  O  O379  1  0.435700  0.807830  0.782800  1.0  -0.5937
  O  O380  1  0.504500  0.855900  0.852900  1.0  -0.6074
  O  O381  1  0.567000  0.878400  0.982900  1.0  -0.525
  O  O382  1  0.619800  0.813600  0.941200  1.0  -0.5374
  O  O383  1  0.327000  0.804480  0.885300  1.0  -0.5815
  O  O384  1  0.395000  0.840600  0.964400  1.0  -0.5785
  O  O385  1  0.064300  0.192170  0.282800  1.0  -0.5949
  O  O386  1  0.995500  0.144100  0.352900  1.0  -0.6069
  O  O387  1  0.933000  0.378400  0.482900  1.0  -0.5308
  O  O388  1  0.880200  0.313600  0.441200  1.0  -0.5379
  O  O389  1  0.173000  0.304480  0.385300  1.0  -0.5815
  O  O390  1  0.105000  0.340600  0.464400  1.0  -0.5804
  O  O391  1  0.435700  0.692170  0.782800  1.0  -0.5941
  O  O392  1  0.504500  0.644100  0.852900  1.0  -0.6071
  O  O393  1  0.567000  0.621600  0.982900  1.0  -0.5257
  O  O394  1  0.619800  0.686400  0.941200  1.0  -0.539
  O  O395  1  0.327000  0.695520  0.885300  1.0  -0.5816
  O  O396  1  0.395000  0.659400  0.964400  1.0  -0.5786
  O  O397  1  0.064300  0.307830  0.282800  1.0  -0.5941
  O  O398  1  0.995500  0.355900  0.352900  1.0  -0.6072
  O  O399  1  0.018800  0.250000  0.398900  1.0  -0.7954
  O  O400  1  0.481200  0.750000  0.898900  1.0  -0.7963
