# generated using pymatgen
data_Co3H30C54O13
_symmetry_space_group_name_H-M   'P 1'
_cell_length_a   17.56080000
_cell_length_b   20.88040000
_cell_length_c   25.34740000
_cell_angle_alpha   90.00000000
_cell_angle_beta   90.00000000
_cell_angle_gamma   90.00000000
_symmetry_Int_Tables_number   1
_chemical_formula_structural   Co3H30C54O13
_chemical_formula_sum   'Co12 H120 C216 O52'
_cell_volume   9294.29663394
_cell_formula_units_Z   4
loop_
 _symmetry_equiv_pos_site_id
 _symmetry_equiv_pos_as_xyz
  1  'x, y, z'
loop_
 _atom_site_type_symbol
 _atom_site_label
 _atom_site_symmetry_multiplicity
 _atom_site_fract_x
 _atom_site_fract_y
 _atom_site_fract_z
 _atom_site_occupancy
 _atom_site_charge
  Co  Co1  1  0.496140  0.935070  0.317790  1.0  1.1007
  Co  Co2  1  0.003860  0.435070  0.682210  1.0  1.101
  Co  Co3  1  0.496140  0.935070  0.182210  1.0  1.1007
  Co  Co4  1  0.003860  0.435070  0.817790  1.0  1.1009
  Co  Co5  1  0.386850  0.835370  0.250000  1.0  1.0704
  Co  Co6  1  0.113150  0.335370  0.750000  1.0  1.0697
  Co  Co7  1  0.503860  0.064930  0.817790  1.0  1.1
  Co  Co8  1  0.996140  0.564930  0.182210  1.0  1.0995
  Co  Co9  1  0.503860  0.064930  0.682210  1.0  1.1002
  Co  Co10  1  0.996140  0.564930  0.317790  1.0  1.0994
  Co  Co11  1  0.613150  0.164630  0.750000  1.0  1.0715
  Co  Co12  1  0.886850  0.664630  0.250000  1.0  1.0721
  H  H13  1  0.756300  0.970400  0.308500  1.0  0.0972
  H  H14  1  0.875800  0.999100  0.335800  1.0  0.1293
  H  H15  1  0.785800  0.042900  0.474100  1.0  0.1312
  H  H16  1  0.669000  0.005500  0.446600  1.0  0.128
  H  H17  1  0.307100  0.041500  0.383400  1.0  0.1303
  H  H18  1  0.195900  0.083000  0.417900  1.0  0.1276
  H  H19  1  0.084300  0.926000  0.377600  1.0  0.1039
  H  H20  1  0.192400  0.887600  0.337500  1.0  0.1254
  H  H21  1  0.931500  0.288700  0.569500  1.0  0.1231
  H  H22  1  0.920400  0.216000  0.505700  1.0  0.126
  H  H23  1  0.088000  0.110300  0.570100  1.0  0.1273
  H  H24  1  0.094300  0.184900  0.638500  1.0  0.1152
  H  H25  1  0.982900  0.991500  0.379100  1.0  0.1078
  H  H26  1  0.108900  0.089700  0.481100  1.0  0.1326
  H  H27  1  0.880600  0.106600  0.479800  1.0  0.1257
  H  H28  1  0.743700  0.470400  0.691500  1.0  0.097
  H  H29  1  0.624200  0.499100  0.664200  1.0  0.1315
  H  H30  1  0.714200  0.542900  0.525900  1.0  0.1314
  H  H31  1  0.831000  0.505500  0.553400  1.0  0.1281
  H  H32  1  0.192900  0.541500  0.616600  1.0  0.1303
  H  H33  1  0.304100  0.583000  0.582100  1.0  0.1282
  H  H34  1  0.415700  0.426000  0.622400  1.0  0.1049
  H  H35  1  0.307600  0.387600  0.662500  1.0  0.1256
  H  H36  1  0.568500  0.788700  0.430500  1.0  0.1226
  H  H37  1  0.579600  0.716000  0.494300  1.0  0.1257
  H  H38  1  0.412000  0.610300  0.429900  1.0  0.1271
  H  H39  1  0.405700  0.684900  0.361500  1.0  0.115
  H  H40  1  0.517100  0.491500  0.620900  1.0  0.1071
  H  H41  1  0.391100  0.589700  0.518900  1.0  0.1313
  H  H42  1  0.619400  0.606600  0.520200  1.0  0.1257
  H  H43  1  0.756300  0.970400  0.191500  1.0  0.0968
  H  H44  1  0.875800  0.999100  0.164200  1.0  0.1308
  H  H45  1  0.785800  0.042900  0.025900  1.0  0.1326
  H  H46  1  0.669000  0.005500  0.053400  1.0  0.1277
  H  H47  1  0.307100  0.041500  0.116600  1.0  0.1305
  H  H48  1  0.195900  0.083000  0.082100  1.0  0.1281
  H  H49  1  0.084300  0.926000  0.122400  1.0  0.1044
  H  H50  1  0.192400  0.887600  0.162500  1.0  0.1256
  H  H51  1  0.931500  0.288700  0.930500  1.0  0.1231
  H  H52  1  0.920400  0.216000  0.994300  1.0  0.1261
  H  H53  1  0.088000  0.110300  0.929900  1.0  0.1275
  H  H54  1  0.094300  0.184900  0.861500  1.0  0.1154
  H  H55  1  0.982900  0.991500  0.120900  1.0  0.1072
  H  H56  1  0.108900  0.089700  0.018900  1.0  0.1319
  H  H57  1  0.880600  0.106600  0.020200  1.0  0.1259
  H  H58  1  0.743700  0.470400  0.808500  1.0  0.0972
  H  H59  1  0.624200  0.499100  0.835800  1.0  0.1303
  H  H60  1  0.714200  0.542900  0.974100  1.0  0.1298
  H  H61  1  0.831000  0.505500  0.946600  1.0  0.1285
  H  H62  1  0.192900  0.541500  0.883400  1.0  0.1303
  H  H63  1  0.304100  0.583000  0.917900  1.0  0.1275
  H  H64  1  0.415700  0.426000  0.877600  1.0  0.1037
  H  H65  1  0.307600  0.387600  0.837500  1.0  0.1254
  H  H66  1  0.568500  0.788700  0.069500  1.0  0.1228
  H  H67  1  0.579600  0.716000  0.005700  1.0  0.1258
  H  H68  1  0.412000  0.610300  0.070100  1.0  0.1273
  H  H69  1  0.405700  0.684900  0.138500  1.0  0.1154
  H  H70  1  0.517100  0.491500  0.879100  1.0  0.108
  H  H71  1  0.391100  0.589700  0.981100  1.0  0.132
  H  H72  1  0.619400  0.606600  0.979800  1.0  0.1258
  H  H73  1  0.243700  0.029600  0.808500  1.0  0.0973
  H  H74  1  0.124200  0.000900  0.835800  1.0  0.1297
  H  H75  1  0.214200  0.957100  0.974100  1.0  0.1302
  H  H76  1  0.331000  0.994500  0.946600  1.0  0.1284
  H  H77  1  0.692900  0.958500  0.883400  1.0  0.1298
  H  H78  1  0.804100  0.917000  0.917900  1.0  0.1268
  H  H79  1  0.915700  0.074000  0.877600  1.0  0.1041
  H  H80  1  0.807600  0.112400  0.837500  1.0  0.1257
  H  H81  1  0.068500  0.711300  0.069500  1.0  0.1222
  H  H82  1  0.079600  0.784000  0.005700  1.0  0.1254
  H  H83  1  0.912000  0.889700  0.070100  1.0  0.1269
  H  H84  1  0.905700  0.815100  0.138500  1.0  0.1153
  H  H85  1  0.017100  0.008500  0.879100  1.0  0.1076
  H  H86  1  0.891100  0.910300  0.981100  1.0  0.132
  H  H87  1  0.119400  0.893400  0.979800  1.0  0.1257
  H  H88  1  0.256300  0.529600  0.191500  1.0  0.0969
  H  H89  1  0.375800  0.500900  0.164200  1.0  0.1316
  H  H90  1  0.285800  0.457100  0.025900  1.0  0.133
  H  H91  1  0.169000  0.494500  0.053400  1.0  0.1276
  H  H92  1  0.807100  0.458500  0.116600  1.0  0.1301
  H  H93  1  0.695900  0.417000  0.082100  1.0  0.1276
  H  H94  1  0.584300  0.574000  0.122400  1.0  0.1044
  H  H95  1  0.692400  0.612400  0.162500  1.0  0.1258
  H  H96  1  0.431500  0.211300  0.930500  1.0  0.1222
  H  H97  1  0.420400  0.284000  0.994300  1.0  0.126
  H  H98  1  0.588000  0.389700  0.929900  1.0  0.1268
  H  H99  1  0.594300  0.315100  0.861500  1.0  0.1154
  H  H100  1  0.482900  0.508500  0.120900  1.0  0.1068
  H  H101  1  0.608900  0.410300  0.018900  1.0  0.1319
  H  H102  1  0.380600  0.393400  0.020200  1.0  0.126
  H  H103  1  0.243700  0.029600  0.691500  1.0  0.0971
  H  H104  1  0.124200  0.000900  0.664200  1.0  0.131
  H  H105  1  0.214200  0.957100  0.525900  1.0  0.1316
  H  H106  1  0.331000  0.994500  0.553400  1.0  0.1281
  H  H107  1  0.692900  0.958500  0.616600  1.0  0.13
  H  H108  1  0.804100  0.917000  0.582100  1.0  0.127
  H  H109  1  0.915700  0.074000  0.622400  1.0  0.1048
  H  H110  1  0.807600  0.112400  0.662500  1.0  0.1257
  H  H111  1  0.068500  0.711300  0.430500  1.0  0.1223
  H  H112  1  0.079600  0.784000  0.494300  1.0  0.1258
  H  H113  1  0.912000  0.889700  0.429900  1.0  0.1265
  H  H114  1  0.905700  0.815100  0.361500  1.0  0.115
  H  H115  1  0.017100  0.008500  0.620900  1.0  0.1069
  H  H116  1  0.891100  0.910300  0.518900  1.0  0.1314
  H  H117  1  0.119400  0.893400  0.520200  1.0  0.1263
  H  H118  1  0.256300  0.529600  0.308500  1.0  0.0973
  H  H119  1  0.375800  0.500900  0.335800  1.0  0.1298
  H  H120  1  0.285800  0.457100  0.474100  1.0  0.1315
  H  H121  1  0.169000  0.494500  0.446600  1.0  0.128
  H  H122  1  0.807100  0.458500  0.383400  1.0  0.1299
  H  H123  1  0.695900  0.417000  0.417900  1.0  0.1272
  H  H124  1  0.584300  0.574000  0.377600  1.0  0.1043
  H  H125  1  0.692400  0.612400  0.337500  1.0  0.1258
  H  H126  1  0.431500  0.211300  0.569500  1.0  0.122
  H  H127  1  0.420400  0.284000  0.505700  1.0  0.1257
  H  H128  1  0.588000  0.389700  0.570100  1.0  0.1265
  H  H129  1  0.594300  0.315100  0.638500  1.0  0.1151
  H  H130  1  0.482900  0.508500  0.379100  1.0  0.1073
  H  H131  1  0.608900  0.410300  0.481100  1.0  0.1323
  H  H132  1  0.380600  0.393400  0.479800  1.0  0.1256
  C  C133  1  0.614400  0.971500  0.345200  1.0  0.3603
  C  C134  1  0.701400  0.987700  0.373300  1.0  -0.0843
  C  C135  1  0.762500  0.985100  0.342900  1.0  -0.0247
  C  C136  1  0.834400  0.002600  0.358500  1.0  -0.1806
  C  C137  1  0.842600  0.024400  0.406400  1.0  0.0341
  C  C138  1  0.780000  0.027000  0.440000  1.0  -0.1229
  C  C139  1  0.710000  0.006400  0.423400  1.0  -0.0292
  C  C140  1  0.332800  0.931400  0.330400  1.0  0.7229
  C  C141  1  0.261400  0.960500  0.358100  1.0  -0.1494
  C  C142  1  0.262200  0.018000  0.381600  1.0  -0.0271
  C  C143  1  0.195700  0.042200  0.403200  1.0  -0.1317
  C  C144  1  0.128500  0.006500  0.403400  1.0  0.0871
  C  C145  1  0.128800  0.950100  0.378900  1.0  -0.1298
  C  C146  1  0.193900  0.926500  0.355300  1.0  -0.0707
  C  C147  1  0.026000  0.294700  0.652000  1.0  0.7492
  C  C148  1  0.015500  0.245900  0.611200  1.0  -0.1381
  C  C149  1  0.962700  0.252600  0.570200  1.0  -0.0318
  C  C150  1  0.955700  0.209200  0.532500  1.0  -0.1399
  C  C151  1  0.001200  0.152100  0.531700  1.0  0.0578
  C  C152  1  0.055000  0.145100  0.570500  1.0  -0.1783
  C  C153  1  0.060000  0.191400  0.611100  1.0  -0.0355
  C  C154  1  0.921300  0.044900  0.427000  1.0  0.0087
  C  C155  1  0.986000  0.020500  0.406900  1.0  -0.1139
  C  C156  1  0.056200  0.036800  0.426000  1.0  0.0535
  C  C157  1  0.061400  0.078800  0.467600  1.0  -0.1149
  C  C158  1  0.996000  0.105000  0.489500  1.0  0.0967
  C  C159  1  0.925100  0.088100  0.467000  1.0  -0.1237
  C  C160  1  0.885600  0.471500  0.654800  1.0  0.3611
  C  C161  1  0.798600  0.487700  0.626700  1.0  -0.0834
  C  C162  1  0.737500  0.485100  0.657100  1.0  -0.0237
  C  C163  1  0.665600  0.502600  0.641500  1.0  -0.1798
  C  C164  1  0.657400  0.524400  0.593600  1.0  0.0346
  C  C165  1  0.720000  0.527000  0.560000  1.0  -0.1247
  C  C166  1  0.790000  0.506400  0.576600  1.0  -0.0275
  C  C167  1  0.167200  0.431400  0.669600  1.0  0.7239
  C  C168  1  0.238600  0.460500  0.641900  1.0  -0.1484
  C  C169  1  0.237800  0.518000  0.618400  1.0  -0.0298
  C  C170  1  0.304300  0.542200  0.596800  1.0  -0.131
  C  C171  1  0.371500  0.506500  0.596600  1.0  0.088
  C  C172  1  0.371200  0.450100  0.621100  1.0  -0.131
  C  C173  1  0.306100  0.426500  0.644700  1.0  -0.0707
  C  C174  1  0.474000  0.794700  0.348000  1.0  0.7502
  C  C175  1  0.484500  0.745900  0.388800  1.0  -0.138
  C  C176  1  0.537300  0.752600  0.429800  1.0  -0.031
  C  C177  1  0.544300  0.709200  0.467500  1.0  -0.14
  C  C178  1  0.498800  0.652100  0.468300  1.0  0.0572
  C  C179  1  0.445000  0.645100  0.429500  1.0  -0.177
  C  C180  1  0.440000  0.691400  0.388900  1.0  -0.0357
  C  C181  1  0.578700  0.544900  0.573000  1.0  0.0114
  C  C182  1  0.514000  0.520500  0.593100  1.0  -0.1134
  C  C183  1  0.443800  0.536800  0.574000  1.0  0.0508
  C  C184  1  0.438600  0.578800  0.532400  1.0  -0.1142
  C  C185  1  0.504000  0.605000  0.510500  1.0  0.0963
  C  C186  1  0.574900  0.588100  0.533000  1.0  -0.1244
  C  C187  1  0.614400  0.971500  0.154800  1.0  0.361
  C  C188  1  0.701400  0.987700  0.126700  1.0  -0.0842
  C  C189  1  0.762500  0.985100  0.157100  1.0  -0.0254
  C  C190  1  0.834400  0.002600  0.141500  1.0  -0.1788
  C  C191  1  0.842600  0.024400  0.093600  1.0  0.0351
  C  C192  1  0.780000  0.027000  0.060000  1.0  -0.1236
  C  C193  1  0.710000  0.006400  0.076600  1.0  -0.0287
  C  C194  1  0.332800  0.931400  0.169600  1.0  0.7233
  C  C195  1  0.261400  0.960500  0.141900  1.0  -0.1498
  C  C196  1  0.262200  0.018000  0.118400  1.0  -0.0275
  C  C197  1  0.195700  0.042200  0.096800  1.0  -0.1317
  C  C198  1  0.128500  0.006500  0.096600  1.0  0.0891
  C  C199  1  0.128800  0.950100  0.121100  1.0  -0.1294
  C  C200  1  0.193900  0.926500  0.144700  1.0  -0.0713
  C  C201  1  0.026000  0.294700  0.848000  1.0  0.75
  C  C202  1  0.015500  0.245900  0.888800  1.0  -0.1375
  C  C203  1  0.962700  0.252600  0.929800  1.0  -0.0324
  C  C204  1  0.955700  0.209200  0.967500  1.0  -0.1393
  C  C205  1  0.001200  0.152100  0.968300  1.0  0.0576
  C  C206  1  0.055000  0.145100  0.929500  1.0  -0.1778
  C  C207  1  0.060000  0.191400  0.888900  1.0  -0.0347
  C  C208  1  0.921300  0.044900  0.073000  1.0  0.0087
  C  C209  1  0.986000  0.020500  0.093100  1.0  -0.1132
  C  C210  1  0.056200  0.036800  0.074000  1.0  0.0519
  C  C211  1  0.061400  0.078800  0.032400  1.0  -0.115
  C  C212  1  0.996000  0.105000  0.010500  1.0  0.0962
  C  C213  1  0.925100  0.088100  0.033000  1.0  -0.1251
  C  C214  1  0.885600  0.471500  0.845200  1.0  0.3605
  C  C215  1  0.798600  0.487700  0.873300  1.0  -0.0832
  C  C216  1  0.737500  0.485100  0.842900  1.0  -0.0245
  C  C217  1  0.665600  0.502600  0.858500  1.0  -0.1816
  C  C218  1  0.657400  0.524400  0.906400  1.0  0.0333
  C  C219  1  0.720000  0.527000  0.940000  1.0  -0.123
  C  C220  1  0.790000  0.506400  0.923400  1.0  -0.0274
  C  C221  1  0.167200  0.431400  0.830400  1.0  0.7237
  C  C222  1  0.238600  0.460500  0.858100  1.0  -0.149
  C  C223  1  0.237800  0.518000  0.881600  1.0  -0.03
  C  C224  1  0.304300  0.542200  0.903200  1.0  -0.1308
  C  C225  1  0.371500  0.506500  0.903400  1.0  0.0874
  C  C226  1  0.371200  0.450100  0.878900  1.0  -0.1313
  C  C227  1  0.306100  0.426500  0.855300  1.0  -0.0704
  C  C228  1  0.474000  0.794700  0.152000  1.0  0.7492
  C  C229  1  0.484500  0.745900  0.111200  1.0  -0.1386
  C  C230  1  0.537300  0.752600  0.070200  1.0  -0.0306
  C  C231  1  0.544300  0.709200  0.032500  1.0  -0.1413
  C  C232  1  0.498800  0.652100  0.031700  1.0  0.0576
  C  C233  1  0.445000  0.645100  0.070500  1.0  -0.1772
  C  C234  1  0.440000  0.691400  0.111100  1.0  -0.0362
  C  C235  1  0.578700  0.544900  0.927000  1.0  0.0109
  C  C236  1  0.514000  0.520500  0.906900  1.0  -0.1137
  C  C237  1  0.443800  0.536800  0.926000  1.0  0.0525
  C  C238  1  0.438600  0.578800  0.967600  1.0  -0.1146
  C  C239  1  0.504000  0.605000  0.989500  1.0  0.0967
  C  C240  1  0.574900  0.588100  0.967000  1.0  -0.1232
  C  C241  1  0.385600  0.028500  0.845200  1.0  0.3643
  C  C242  1  0.298600  0.012300  0.873300  1.0  -0.0833
  C  C243  1  0.237500  0.014900  0.842900  1.0  -0.0253
  C  C244  1  0.165600  0.997400  0.858500  1.0  -0.1817
  C  C245  1  0.157400  0.975600  0.906400  1.0  0.0336
  C  C246  1  0.220000  0.973000  0.940000  1.0  -0.1221
  C  C247  1  0.290000  0.993600  0.923400  1.0  -0.027
  C  C248  1  0.667200  0.068600  0.830400  1.0  0.7239
  C  C249  1  0.738600  0.039500  0.858100  1.0  -0.149
  C  C250  1  0.737800  0.982000  0.881600  1.0  -0.0292
  C  C251  1  0.804300  0.957800  0.903200  1.0  -0.1309
  C  C252  1  0.871500  0.993500  0.903400  1.0  0.0878
  C  C253  1  0.871200  0.049900  0.878900  1.0  -0.1313
  C  C254  1  0.806100  0.073500  0.855300  1.0  -0.0722
  C  C255  1  0.974000  0.705300  0.152000  1.0  0.7494
  C  C256  1  0.984500  0.754100  0.111200  1.0  -0.1377
  C  C257  1  0.037300  0.747400  0.070200  1.0  -0.0315
  C  C258  1  0.044300  0.790800  0.032500  1.0  -0.1389
  C  C259  1  0.998800  0.847900  0.031700  1.0  0.0591
  C  C260  1  0.945000  0.854900  0.070500  1.0  -0.1784
  C  C261  1  0.940000  0.808600  0.111100  1.0  -0.0354
  C  C262  1  0.078700  0.955100  0.927000  1.0  0.0099
  C  C263  1  0.014000  0.979500  0.906900  1.0  -0.1132
  C  C264  1  0.943800  0.963200  0.926000  1.0  0.0529
  C  C265  1  0.938600  0.921200  0.967600  1.0  -0.1126
  C  C266  1  0.004000  0.895000  0.989500  1.0  0.0962
  C  C267  1  0.074900  0.911900  0.967000  1.0  -0.1215
  C  C268  1  0.114400  0.528500  0.154800  1.0  0.3652
  C  C269  1  0.201400  0.512300  0.126700  1.0  -0.0835
  C  C270  1  0.262500  0.514900  0.157100  1.0  -0.0261
  C  C271  1  0.334400  0.497400  0.141500  1.0  -0.1793
  C  C272  1  0.342600  0.475600  0.093600  1.0  0.0344
  C  C273  1  0.280000  0.473000  0.060000  1.0  -0.1243
  C  C274  1  0.210000  0.493600  0.076600  1.0  -0.0286
  C  C275  1  0.832800  0.568600  0.169600  1.0  0.7235
  C  C276  1  0.761400  0.539500  0.141900  1.0  -0.1506
  C  C277  1  0.762200  0.482000  0.118400  1.0  -0.0286
  C  C278  1  0.695700  0.457800  0.096800  1.0  -0.131
  C  C279  1  0.628500  0.493500  0.096600  1.0  0.0894
  C  C280  1  0.628800  0.549900  0.121100  1.0  -0.1303
  C  C281  1  0.693900  0.573500  0.144700  1.0  -0.0729
  C  C282  1  0.526000  0.205300  0.848000  1.0  0.75
  C  C283  1  0.515500  0.254100  0.888800  1.0  -0.138
  C  C284  1  0.462700  0.247400  0.929800  1.0  -0.0304
  C  C285  1  0.455700  0.290800  0.967500  1.0  -0.1398
  C  C286  1  0.501200  0.347900  0.968300  1.0  0.0587
  C  C287  1  0.555000  0.354900  0.929500  1.0  -0.1791
  C  C288  1  0.560000  0.308600  0.888900  1.0  -0.0346
  C  C289  1  0.421300  0.455100  0.073000  1.0  0.0085
  C  C290  1  0.486000  0.479500  0.093100  1.0  -0.1121
  C  C291  1  0.556200  0.463200  0.074000  1.0  0.0544
  C  C292  1  0.561400  0.421200  0.032400  1.0  -0.1139
  C  C293  1  0.496000  0.395000  0.010500  1.0  0.0962
  C  C294  1  0.425100  0.411900  0.033000  1.0  -0.1238
  C  C295  1  0.385600  0.028500  0.654800  1.0  0.3646
  C  C296  1  0.298600  0.012300  0.626700  1.0  -0.0835
  C  C297  1  0.237500  0.014900  0.657100  1.0  -0.0242
  C  C298  1  0.165600  0.997400  0.641500  1.0  -0.1802
  C  C299  1  0.157400  0.975600  0.593600  1.0  0.0341
  C  C300  1  0.220000  0.973000  0.560000  1.0  -0.1248
  C  C301  1  0.290000  0.993600  0.576600  1.0  -0.0276
  C  C302  1  0.667200  0.068600  0.669600  1.0  0.7238
  C  C303  1  0.738600  0.039500  0.641900  1.0  -0.1488
  C  C304  1  0.737800  0.982000  0.618400  1.0  -0.0291
  C  C305  1  0.804300  0.957800  0.596800  1.0  -0.1311
  C  C306  1  0.871500  0.993500  0.596600  1.0  0.0887
  C  C307  1  0.871200  0.049900  0.621100  1.0  -0.1316
  C  C308  1  0.806100  0.073500  0.644700  1.0  -0.0724
  C  C309  1  0.974000  0.705300  0.348000  1.0  0.7501
  C  C310  1  0.984500  0.754100  0.388800  1.0  -0.1382
  C  C311  1  0.037300  0.747400  0.429800  1.0  -0.0314
  C  C312  1  0.044300  0.790800  0.467500  1.0  -0.1398
  C  C313  1  0.998800  0.847900  0.468300  1.0  0.0588
  C  C314  1  0.945000  0.854900  0.429500  1.0  -0.1785
  C  C315  1  0.940000  0.808600  0.388900  1.0  -0.0353
  C  C316  1  0.078700  0.955100  0.573000  1.0  0.011
  C  C317  1  0.014000  0.979500  0.593100  1.0  -0.1126
  C  C318  1  0.943800  0.963200  0.574000  1.0  0.053
  C  C319  1  0.938600  0.921200  0.532400  1.0  -0.1128
  C  C320  1  0.004000  0.895000  0.510500  1.0  0.0961
  C  C321  1  0.074900  0.911900  0.533000  1.0  -0.122
  C  C322  1  0.114400  0.528500  0.345200  1.0  0.3648
  C  C323  1  0.201400  0.512300  0.373300  1.0  -0.0838
  C  C324  1  0.262500  0.514900  0.342900  1.0  -0.0257
  C  C325  1  0.334400  0.497400  0.358500  1.0  -0.1809
  C  C326  1  0.342600  0.475600  0.406400  1.0  0.0342
  C  C327  1  0.280000  0.473000  0.440000  1.0  -0.1227
  C  C328  1  0.210000  0.493600  0.423400  1.0  -0.0288
  C  C329  1  0.832800  0.568600  0.330400  1.0  0.7234
  C  C330  1  0.761400  0.539500  0.358100  1.0  -0.1499
  C  C331  1  0.762200  0.482000  0.381600  1.0  -0.0286
  C  C332  1  0.695700  0.457800  0.403200  1.0  -0.131
  C  C333  1  0.628500  0.493500  0.403400  1.0  0.0875
  C  C334  1  0.628800  0.549900  0.378900  1.0  -0.1301
  C  C335  1  0.693900  0.573500  0.355300  1.0  -0.0724
  C  C336  1  0.526000  0.205300  0.652000  1.0  0.7494
  C  C337  1  0.515500  0.254100  0.611200  1.0  -0.1375
  C  C338  1  0.462700  0.247400  0.570200  1.0  -0.0305
  C  C339  1  0.455700  0.290800  0.532500  1.0  -0.1383
  C  C340  1  0.501200  0.347900  0.531700  1.0  0.0587
  C  C341  1  0.555000  0.354900  0.570500  1.0  -0.179
  C  C342  1  0.560000  0.308600  0.611100  1.0  -0.0353
  C  C343  1  0.421300  0.455100  0.427000  1.0  0.0078
  C  C344  1  0.486000  0.479500  0.406900  1.0  -0.1129
  C  C345  1  0.556200  0.463200  0.426000  1.0  0.0538
  C  C346  1  0.561400  0.421200  0.467600  1.0  -0.1137
  C  C347  1  0.496000  0.395000  0.489500  1.0  0.0964
  C  C348  1  0.425100  0.411900  0.467000  1.0  -0.1232
  O  O349  1  0.565600  0.983500  0.376100  1.0  -0.5328
  O  O350  1  0.619800  0.932900  0.313600  1.0  -0.5123
  O  O351  1  0.326300  0.884400  0.306260  1.0  -0.581
  O  O352  1  0.393900  0.965200  0.339300  1.0  -0.5926
  O  O353  1  0.063300  0.281000  0.691420  1.0  -0.5832
  O  O354  1  0.000100  0.350200  0.642100  1.0  -0.602
  O  O355  1  0.934400  0.483500  0.623900  1.0  -0.5379
  O  O356  1  0.880200  0.432900  0.686400  1.0  -0.5131
  O  O357  1  0.173700  0.384400  0.693740  1.0  -0.5813
  O  O358  1  0.106100  0.465200  0.660700  1.0  -0.5944
  O  O359  1  0.436700  0.781000  0.308580  1.0  -0.5815
  O  O360  1  0.499900  0.850200  0.357900  1.0  -0.603
  O  O361  1  0.565600  0.983500  0.123900  1.0  -0.5331
  O  O362  1  0.619800  0.932900  0.186400  1.0  -0.5125
  O  O363  1  0.326300  0.884400  0.193740  1.0  -0.5808
  O  O364  1  0.393900  0.965200  0.160700  1.0  -0.5934
  O  O365  1  0.063300  0.281000  0.808580  1.0  -0.5814
  O  O366  1  0.000100  0.350200  0.857900  1.0  -0.6034
  O  O367  1  0.934400  0.483500  0.876100  1.0  -0.5364
  O  O368  1  0.880200  0.432900  0.813600  1.0  -0.5128
  O  O369  1  0.173700  0.384400  0.806260  1.0  -0.5812
  O  O370  1  0.106100  0.465200  0.839300  1.0  -0.5935
  O  O371  1  0.436700  0.781000  0.191420  1.0  -0.5833
  O  O372  1  0.499900  0.850200  0.142100  1.0  -0.6019
  O  O373  1  0.482100  0.894300  0.250000  1.0  -0.8181
  O  O374  1  0.017900  0.394300  0.750000  1.0  -0.8165
  O  O375  1  0.434400  0.016500  0.876100  1.0  -0.5323
  O  O376  1  0.380200  0.067100  0.813600  1.0  -0.5131
  O  O377  1  0.673700  0.115600  0.806260  1.0  -0.582
  O  O378  1  0.606100  0.034800  0.839300  1.0  -0.593
  O  O379  1  0.936700  0.719000  0.191420  1.0  -0.5838
  O  O380  1  0.999900  0.649800  0.142100  1.0  -0.6022
  O  O381  1  0.065600  0.516500  0.123900  1.0  -0.5365
  O  O382  1  0.119800  0.567100  0.186400  1.0  -0.5132
  O  O383  1  0.826300  0.615600  0.193740  1.0  -0.5822
  O  O384  1  0.893900  0.534800  0.160700  1.0  -0.5925
  O  O385  1  0.563300  0.219000  0.808580  1.0  -0.5827
  O  O386  1  0.500100  0.149800  0.857900  1.0  -0.6017
  O  O387  1  0.434400  0.016500  0.623900  1.0  -0.5331
  O  O388  1  0.380200  0.067100  0.686400  1.0  -0.5141
  O  O389  1  0.673700  0.115600  0.693740  1.0  -0.5821
  O  O390  1  0.606100  0.034800  0.660700  1.0  -0.593
  O  O391  1  0.936700  0.719000  0.308580  1.0  -0.5825
  O  O392  1  0.999900  0.649800  0.357900  1.0  -0.6031
  O  O393  1  0.065600  0.516500  0.376100  1.0  -0.5369
  O  O394  1  0.119800  0.567100  0.313600  1.0  -0.5122
  O  O395  1  0.826300  0.615600  0.306260  1.0  -0.5825
  O  O396  1  0.893900  0.534800  0.339300  1.0  -0.5924
  O  O397  1  0.563300  0.219000  0.691420  1.0  -0.5837
  O  O398  1  0.500100  0.149800  0.642100  1.0  -0.601
  O  O399  1  0.517900  0.105700  0.750000  1.0  -0.8178
  O  O400  1  0.982100  0.605700  0.250000  1.0  -0.8192
