# generated using pymatgen
data_NiH3C3N3O
_symmetry_space_group_name_H-M   'P 1'
_cell_length_a   13.93180000
_cell_length_b   13.93180000
_cell_length_c   17.74610000
_cell_angle_alpha   113.11200000
_cell_angle_beta   113.11200000
_cell_angle_gamma   90.00000000
_symmetry_Int_Tables_number   1
_chemical_formula_structural   NiH3C3N3O
_chemical_formula_sum   'Ni16 H48 C48 N48 O16'
_cell_volume   2864.97255943
_cell_formula_units_Z   16
loop_
 _symmetry_equiv_pos_site_id
 _symmetry_equiv_pos_as_xyz
  1  'x, y, z'
loop_
 _atom_site_type_symbol
 _atom_site_label
 _atom_site_symmetry_multiplicity
 _atom_site_fract_x
 _atom_site_fract_y
 _atom_site_fract_z
 _atom_site_occupancy
 _atom_site_charge
  Ni  Ni1  1  0.747820  0.482780  0.823420  1.0  0.7236
  Ni  Ni2  1  0.575600  0.340640  0.823420  1.0  0.7257
  Ni  Ni3  1  0.924400  0.017220  0.176580  1.0  0.7281
  Ni  Ni4  1  0.752180  0.159360  0.176580  1.0  0.7243
  Ni  Ni5  1  0.517220  0.424400  0.676580  1.0  0.7269
  Ni  Ni6  1  0.659360  0.252180  0.676580  1.0  0.7152
  Ni  Ni7  1  0.840640  0.075600  0.323420  1.0  0.7207
  Ni  Ni8  1  0.982780  0.247820  0.323420  1.0  0.721
  Ni  Ni9  1  0.482780  0.575600  0.323420  1.0  0.7199
  Ni  Ni10  1  0.340640  0.747820  0.323420  1.0  0.7207
  Ni  Ni11  1  0.159360  0.924400  0.676580  1.0  0.7267
  Ni  Ni12  1  0.017220  0.752180  0.676580  1.0  0.7155
  Ni  Ni13  1  0.252180  0.517220  0.176580  1.0  0.7226
  Ni  Ni14  1  0.424400  0.659360  0.176580  1.0  0.7288
  Ni  Ni15  1  0.075600  0.982780  0.823420  1.0  0.7229
  Ni  Ni16  1  0.247820  0.840640  0.823420  1.0  0.7251
  H  H17  1  0.609900  0.583300  0.934000  1.0  0.1031
  H  H18  1  0.499600  0.568000  0.854600  1.0  0.0977
  H  H19  1  0.600100  0.635300  0.868000  1.0  0.1137
  H  H20  1  0.824100  0.350700  0.934000  1.0  0.104
  H  H21  1  0.855000  0.286600  0.854600  1.0  0.099
  H  H22  1  0.767900  0.232700  0.868000  1.0  0.1159
  H  H23  1  0.675900  0.916700  0.066000  1.0  0.1034
  H  H24  1  0.645000  0.932000  0.145400  1.0  0.1004
  H  H25  1  0.732100  0.864700  0.132000  1.0  0.1093
  H  H26  1  0.890100  0.149300  0.066000  1.0  0.1039
  H  H27  1  0.000400  0.213400  0.145400  1.0  0.0972
  H  H28  1  0.899900  0.267300  0.132000  1.0  0.1112
  H  H29  1  0.416700  0.175900  0.566000  1.0  0.1041
  H  H30  1  0.432000  0.145000  0.645400  1.0  0.0986
  H  H31  1  0.364700  0.232100  0.632000  1.0  0.1094
  H  H32  1  0.649300  0.390100  0.566000  1.0  0.1044
  H  H33  1  0.713400  0.500400  0.645400  1.0  0.1009
  H  H34  1  0.767300  0.399900  0.632000  1.0  0.1124
  H  H35  1  0.850700  0.324100  0.434000  1.0  0.104
  H  H36  1  0.786600  0.355000  0.354600  1.0  0.0993
  H  H37  1  0.732700  0.267900  0.368000  1.0  0.1144
  H  H38  1  0.083300  0.109900  0.434000  1.0  0.104
  H  H39  1  0.068000  0.999600  0.354600  1.0  0.1006
  H  H40  1  0.135300  0.100100  0.368000  1.0  0.1145
  H  H41  1  0.583300  0.824100  0.434000  1.0  0.1041
  H  H42  1  0.568000  0.855000  0.354600  1.0  0.0993
  H  H43  1  0.635300  0.767900  0.368000  1.0  0.1129
  H  H44  1  0.350700  0.609900  0.434000  1.0  0.1051
  H  H45  1  0.286600  0.499600  0.354600  1.0  0.1001
  H  H46  1  0.232700  0.600100  0.368000  1.0  0.1081
  H  H47  1  0.149300  0.675900  0.566000  1.0  0.1043
  H  H48  1  0.213400  0.645000  0.645400  1.0  0.0992
  H  H49  1  0.267300  0.732100  0.632000  1.0  0.1152
  H  H50  1  0.916700  0.890100  0.566000  1.0  0.1042
  H  H51  1  0.932000  0.000400  0.645400  1.0  0.1004
  H  H52  1  0.864700  0.899900  0.632000  1.0  0.1142
  H  H53  1  0.390100  0.416700  0.066000  1.0  0.1037
  H  H54  1  0.500400  0.432000  0.145400  1.0  0.097
  H  H55  1  0.399900  0.364700  0.132000  1.0  0.1138
  H  H56  1  0.175900  0.649300  0.066000  1.0  0.1034
  H  H57  1  0.145000  0.713400  0.145400  1.0  0.0989
  H  H58  1  0.232100  0.767300  0.132000  1.0  0.1149
  H  H59  1  0.324100  0.083300  0.934000  1.0  0.1035
  H  H60  1  0.355000  0.068000  0.854600  1.0  0.0989
  H  H61  1  0.267900  0.135300  0.868000  1.0  0.1097
  H  H62  1  0.109900  0.850700  0.934000  1.0  0.1043
  H  H63  1  0.999600  0.786600  0.854600  1.0  0.0976
  H  H64  1  0.100100  0.732700  0.868000  1.0  0.1089
  C  C65  1  0.869820  0.617150  0.035640  1.0  0.5889
  C  C66  1  0.574750  0.574580  0.872500  1.0  -0.026
  C  C67  1  0.933120  0.779850  0.148880  1.0  0.5835
  C  C68  1  0.665820  0.418490  0.035640  1.0  0.5888
  C  C69  1  0.797750  0.297920  0.872500  1.0  -0.0244
  C  C70  1  0.715760  0.369030  0.148880  1.0  0.5841
  C  C71  1  0.834180  0.882850  0.964360  1.0  0.5891
  C  C72  1  0.702250  0.925420  0.127500  1.0  -0.0252
  C  C73  1  0.784240  0.720150  0.851120  1.0  0.5841
  C  C74  1  0.630180  0.081510  0.964360  1.0  0.5877
  C  C75  1  0.925250  0.202080  0.127500  1.0  -0.0323
  C  C76  1  0.566880  0.130970  0.851120  1.0  0.5838
  C  C77  1  0.382850  0.334180  0.464360  1.0  0.5884
  C  C78  1  0.425420  0.202250  0.627500  1.0  -0.0254
  C  C79  1  0.220150  0.284240  0.351120  1.0  0.5845
  C  C80  1  0.581510  0.130180  0.464360  1.0  0.5874
  C  C81  1  0.702080  0.425250  0.627500  1.0  -0.0327
  C  C82  1  0.630970  0.066880  0.351120  1.0  0.5836
  C  C83  1  0.918490  0.165820  0.535640  1.0  0.5891
  C  C84  1  0.797920  0.297750  0.372500  1.0  -0.0256
  C  C85  1  0.869030  0.215760  0.648880  1.0  0.585
  C  C86  1  0.117150  0.369820  0.535640  1.0  0.589
  C  C87  1  0.074580  0.074750  0.372500  1.0  -0.0247
  C  C88  1  0.279850  0.433120  0.648880  1.0  0.5843
  C  C89  1  0.617150  0.665820  0.535640  1.0  0.5888
  C  C90  1  0.574580  0.797750  0.372500  1.0  -0.0259
  C  C91  1  0.779850  0.715760  0.648880  1.0  0.5844
  C  C92  1  0.418490  0.869820  0.535640  1.0  0.5871
  C  C93  1  0.297920  0.574750  0.372500  1.0  -0.0311
  C  C94  1  0.369030  0.933120  0.648880  1.0  0.5849
  C  C95  1  0.081510  0.834180  0.464360  1.0  0.5889
  C  C96  1  0.202080  0.702250  0.627500  1.0  -0.0247
  C  C97  1  0.130970  0.784240  0.351120  1.0  0.5837
  C  C98  1  0.882850  0.630180  0.464360  1.0  0.5879
  C  C99  1  0.925420  0.925250  0.627500  1.0  -0.0247
  C  C100  1  0.720150  0.566880  0.351120  1.0  0.5843
  C  C101  1  0.130180  0.382850  0.964360  1.0  0.5881
  C  C102  1  0.425250  0.425420  0.127500  1.0  -0.025
  C  C103  1  0.066880  0.220150  0.851120  1.0  0.5842
  C  C104  1  0.334180  0.581510  0.964360  1.0  0.5886
  C  C105  1  0.202250  0.702080  0.127500  1.0  -0.0244
  C  C106  1  0.284240  0.630970  0.851120  1.0  0.584
  C  C107  1  0.165820  0.117150  0.035640  1.0  0.5885
  C  C108  1  0.297750  0.074580  0.872500  1.0  -0.0262
  C  C109  1  0.215760  0.279850  0.148880  1.0  0.5838
  C  C110  1  0.369820  0.918490  0.035640  1.0  0.587
  C  C111  1  0.074750  0.797920  0.872500  1.0  -0.03
  C  C112  1  0.433120  0.869030  0.148880  1.0  0.5838
  N  N113  1  0.823630  0.557060  0.962540  1.0  -0.5171
  N  N114  1  0.944720  0.869830  0.179220  1.0  -0.5112
  N  N115  1  0.927460  0.677960  0.121520  1.0  -0.4442
  N  N116  1  0.638910  0.405480  0.962540  1.0  -0.5144
  N  N117  1  0.734500  0.309390  0.179220  1.0  -0.5121
  N  N118  1  0.694060  0.443560  0.121520  1.0  -0.4456
  N  N119  1  0.861090  0.942940  0.037460  1.0  -0.5159
  N  N120  1  0.765500  0.630170  0.820780  1.0  -0.5123
  N  N121  1  0.805940  0.822040  0.878480  1.0  -0.4526
  N  N122  1  0.676370  0.094520  0.037460  1.0  -0.5162
  N  N123  1  0.555280  0.190610  0.820780  1.0  -0.5117
  N  N124  1  0.572540  0.056440  0.878480  1.0  -0.4512
  N  N125  1  0.442940  0.361090  0.537460  1.0  -0.5157
  N  N126  1  0.130170  0.265500  0.320780  1.0  -0.5137
  N  N127  1  0.322040  0.305940  0.378480  1.0  -0.4509
  N  N128  1  0.594520  0.176370  0.537460  1.0  -0.5158
  N  N129  1  0.690610  0.055280  0.320780  1.0  -0.5132
  N  N130  1  0.556440  0.072540  0.378480  1.0  -0.4551
  N  N131  1  0.905480  0.138910  0.462540  1.0  -0.5157
  N  N132  1  0.809390  0.234500  0.679220  1.0  -0.5128
  N  N133  1  0.943560  0.194060  0.621520  1.0  -0.4466
  N  N134  1  0.057060  0.323630  0.462540  1.0  -0.517
  N  N135  1  0.369830  0.444720  0.679220  1.0  -0.5153
  N  N136  1  0.177960  0.427460  0.621520  1.0  -0.449
  N  N137  1  0.557060  0.638910  0.462540  1.0  -0.5152
  N  N138  1  0.869830  0.734500  0.679220  1.0  -0.513
  N  N139  1  0.677960  0.694060  0.621520  1.0  -0.4535
  N  N140  1  0.405480  0.823630  0.462540  1.0  -0.5159
  N  N141  1  0.309390  0.944720  0.679220  1.0  -0.5125
  N  N142  1  0.443560  0.927460  0.621520  1.0  -0.4535
  N  N143  1  0.094520  0.861090  0.537460  1.0  -0.5168
  N  N144  1  0.190610  0.765500  0.320780  1.0  -0.5132
  N  N145  1  0.056440  0.805940  0.378480  1.0  -0.4499
  N  N146  1  0.942940  0.676370  0.537460  1.0  -0.5167
  N  N147  1  0.630170  0.555280  0.320780  1.0  -0.5157
  N  N148  1  0.822040  0.572540  0.378480  1.0  -0.4455
  N  N149  1  0.176370  0.442940  0.037460  1.0  -0.5172
  N  N150  1  0.055280  0.130170  0.820780  1.0  -0.512
  N  N151  1  0.072540  0.322040  0.878480  1.0  -0.4464
  N  N152  1  0.361090  0.594520  0.037460  1.0  -0.5165
  N  N153  1  0.265500  0.690610  0.820780  1.0  -0.5116
  N  N154  1  0.305940  0.556440  0.878480  1.0  -0.4467
  N  N155  1  0.138910  0.057060  0.962540  1.0  -0.5151
  N  N156  1  0.234500  0.369830  0.179220  1.0  -0.5138
  N  N157  1  0.194060  0.177960  0.121520  1.0  -0.4515
  N  N158  1  0.323630  0.905480  0.962540  1.0  -0.5153
  N  N159  1  0.444720  0.809390  0.179220  1.0  -0.5121
  N  N160  1  0.427460  0.943560  0.121520  1.0  -0.4521
  O  O161  1  0.596530  0.481600  0.814760  1.0  -0.7069
  O  O162  1  0.718230  0.333160  0.814760  1.0  -0.7051
  O  O163  1  0.781770  0.018400  0.185240  1.0  -0.7032
  O  O164  1  0.903470  0.166840  0.185240  1.0  -0.7069
  O  O165  1  0.518400  0.281770  0.685240  1.0  -0.7054
  O  O166  1  0.666840  0.403470  0.685240  1.0  -0.7069
  O  O167  1  0.833160  0.218230  0.314760  1.0  -0.7069
  O  O168  1  0.981600  0.096530  0.314760  1.0  -0.7045
  O  O169  1  0.481600  0.718230  0.314760  1.0  -0.7059
  O  O170  1  0.333160  0.596530  0.314760  1.0  -0.7059
  O  O171  1  0.166840  0.781770  0.685240  1.0  -0.7051
  O  O172  1  0.018400  0.903470  0.685240  1.0  -0.7065
  O  O173  1  0.403470  0.518400  0.185240  1.0  -0.7023
  O  O174  1  0.281770  0.666840  0.185240  1.0  -0.7065
  O  O175  1  0.218230  0.981600  0.814760  1.0  -0.7055
  O  O176  1  0.096530  0.833160  0.814760  1.0  -0.7057
