# generated using pymatgen
data_TbCuH8C16N5O8
_symmetry_space_group_name_H-M   'P 1'
_cell_length_a   10.67200000
_cell_length_b   10.71940000
_cell_length_c   11.93510000
_cell_angle_alpha   70.34100000
_cell_angle_beta   77.92800000
_cell_angle_gamma   60.85440000
_symmetry_Int_Tables_number   1
_chemical_formula_structural   TbCuH8C16N5O8
_chemical_formula_sum   'Tb2 Cu2 H16 C32 N10 O16'
_cell_volume   1121.26015173
_cell_formula_units_Z   2
loop_
 _symmetry_equiv_pos_site_id
 _symmetry_equiv_pos_as_xyz
  1  'x, y, z'
loop_
 _atom_site_type_symbol
 _atom_site_label
 _atom_site_symmetry_multiplicity
 _atom_site_fract_x
 _atom_site_fract_y
 _atom_site_fract_z
 _atom_site_occupancy
 _atom_site_charge
  Tb  Tb1  1  0.549380  0.998270  0.162460  1.0  2.2567
  Tb  Tb2  1  0.450620  0.001730  0.837540  1.0  2.2566
  Cu  Cu3  1  0.000000  0.000000  0.000000  1.0  0.7686
  Cu  Cu4  1  0.000000  0.000000  0.500000  1.0  0.7327
  H  H5  1  0.010600  0.270800  0.514800  1.0  0.085
  H  H6  1  0.914000  0.521000  0.428500  1.0  0.1048
  H  H7  1  0.685500  0.479400  0.233100  1.0  0.1042
  H  H8  1  0.781100  0.231200  0.328800  1.0  0.0891
  H  H9  1  0.994800  0.721500  0.176900  1.0  0.0793
  H  H10  1  0.131400  0.469200  0.220600  1.0  0.1201
  H  H11  1  0.393400  0.530500  0.936500  1.0  0.1104
  H  H12  1  0.251800  0.779300  0.900600  1.0  0.0914
  H  H13  1  0.989400  0.729200  0.485200  1.0  0.0849
  H  H14  1  0.086000  0.479000  0.571500  1.0  0.1047
  H  H15  1  0.314500  0.520600  0.766900  1.0  0.1053
  H  H16  1  0.218900  0.768800  0.671200  1.0  0.0889
  H  H17  1  0.005200  0.278500  0.823100  1.0  0.0792
  H  H18  1  0.868600  0.530800  0.779400  1.0  0.1194
  H  H19  1  0.606600  0.469500  0.063500  1.0  0.1111
  H  H20  1  0.748200  0.220700  0.099400  1.0  0.0917
  C  C21  1  0.178200  0.977200  0.283100  1.0  -0.0119
  C  C22  1  0.172900  0.988200  0.165100  1.0  -0.0195
  C  C23  1  0.283700  0.965200  0.358100  1.0  0.671
  C  C24  1  0.264700  0.001900  0.055300  1.0  0.6812
  C  C25  1  0.943700  0.313400  0.457300  1.0  0.1668
  C  C26  1  0.886300  0.463800  0.405300  1.0  -0.1316
  C  C27  1  0.788600  0.530200  0.319600  1.0  -0.0649
  C  C28  1  0.751200  0.439600  0.291000  1.0  -0.1352
  C  C29  1  0.810400  0.290000  0.347800  1.0  0.1671
  C  C30  1  0.723900  0.693600  0.257000  1.0  0.6665
  C  C31  1  0.076600  0.681900  0.128700  1.0  0.1593
  C  C32  1  0.157300  0.530500  0.154700  1.0  -0.1232
  C  C33  1  0.278300  0.469100  0.081700  1.0  -0.0681
  C  C34  1  0.312600  0.566900  0.986400  1.0  -0.1072
  C  C35  1  0.228100  0.715700  0.965900  1.0  0.1632
  C  C36  1  0.370600  0.305400  0.108300  1.0  0.6656
  C  C37  1  0.821800  0.022800  0.716900  1.0  -0.0135
  C  C38  1  0.827100  0.011800  0.834900  1.0  -0.0198
  C  C39  1  0.716300  0.034800  0.641900  1.0  0.6693
  C  C40  1  0.735300  0.998100  0.944700  1.0  0.6801
  C  C41  1  0.056300  0.686600  0.542700  1.0  0.1678
  C  C42  1  0.113700  0.536200  0.594700  1.0  -0.1305
  C  C43  1  0.211400  0.469800  0.680400  1.0  -0.0643
  C  C44  1  0.248800  0.560400  0.709000  1.0  -0.1337
  C  C45  1  0.189600  0.710000  0.652200  1.0  0.1671
  C  C46  1  0.276100  0.306400  0.743000  1.0  0.6675
  C  C47  1  0.923400  0.318100  0.871300  1.0  0.1595
  C  C48  1  0.842700  0.469500  0.845300  1.0  -0.1237
  C  C49  1  0.721700  0.530900  0.918300  1.0  -0.0685
  C  C50  1  0.687400  0.433100  0.013600  1.0  -0.1066
  C  C51  1  0.771900  0.284300  0.034100  1.0  0.1641
  C  C52  1  0.629400  0.694600  0.891700  1.0  0.6662
  N  N53  1  0.054800  0.976100  0.337700  1.0  -0.1969
  N  N54  1  0.976100  0.981500  0.261300  1.0  -0.1624
  N  N55  1  0.047600  0.989700  0.155300  1.0  -0.2308
  N  N56  1  0.907200  0.226600  0.428300  1.0  -0.2956
  N  N57  1  0.111500  0.774700  0.036400  1.0  -0.3067
  N  N58  1  0.945200  0.023900  0.662300  1.0  -0.1986
  N  N59  1  0.023900  0.018500  0.738700  1.0  -0.1577
  N  N60  1  0.952400  0.010300  0.844700  1.0  -0.2239
  N  N61  1  0.092800  0.773400  0.571700  1.0  -0.2945
  N  N62  1  0.888500  0.225300  0.963600  1.0  -0.3073
  O  O63  1  0.234600  0.991800  0.455900  1.0  -0.5613
  O  O64  1  0.413600  0.923100  0.319200  1.0  -0.7235
  O  O65  1  0.381800  0.004100  0.056300  1.0  -0.8095
  O  O66  1  0.223200  0.012900  0.958800  1.0  -0.6956
  O  O67  1  0.739600  0.781100  0.294900  1.0  -0.6359
  O  O68  1  0.649900  0.740300  0.169200  1.0  -0.6217
  O  O69  1  0.486300  0.255200  0.047500  1.0  -0.6129
  O  O70  1  0.332500  0.219500  0.192500  1.0  -0.6257
  O  O71  1  0.765400  0.008200  0.544100  1.0  -0.5665
  O  O72  1  0.586400  0.076900  0.680800  1.0  -0.7251
  O  O73  1  0.618200  0.995900  0.943700  1.0  -0.8092
  O  O74  1  0.776800  0.987100  0.041200  1.0  -0.6953
  O  O75  1  0.260400  0.218900  0.705100  1.0  -0.6291
  O  O76  1  0.350100  0.259700  0.830800  1.0  -0.6213
  O  O77  1  0.513700  0.744800  0.952500  1.0  -0.6115
  O  O78  1  0.667500  0.780500  0.807500  1.0  -0.6257
