# generated using pymatgen
data_HoCuH8C16N5O8
_symmetry_space_group_name_H-M   'P 1'
_cell_length_a   10.63900000
_cell_length_b   10.69820000
_cell_length_c   11.93750000
_cell_angle_alpha   70.07800000
_cell_angle_beta   77.61000000
_cell_angle_gamma   60.79970000
_symmetry_Int_Tables_number   1
_chemical_formula_structural   HoCuH8C16N5O8
_chemical_formula_sum   'Ho2 Cu2 H16 C32 N10 O16'
_cell_volume   1113.12846318
_cell_formula_units_Z   2
loop_
 _symmetry_equiv_pos_site_id
 _symmetry_equiv_pos_as_xyz
  1  'x, y, z'
loop_
 _atom_site_type_symbol
 _atom_site_label
 _atom_site_symmetry_multiplicity
 _atom_site_fract_x
 _atom_site_fract_y
 _atom_site_fract_z
 _atom_site_occupancy
 _atom_site_charge
  Ho  Ho1  1  0.548760  0.998080  0.160830  1.0  2.1878
  Ho  Ho2  1  0.451240  0.001920  0.839170  1.0  2.1872
  Cu  Cu3  1  0.000000  0.000000  0.000000  1.0  0.7717
  Cu  Cu4  1  0.000000  0.000000  0.500000  1.0  0.7301
  H  H5  1  0.009600  0.273000  0.514000  1.0  0.0802
  H  H6  1  0.912200  0.524700  0.428300  1.0  0.125
  H  H7  1  0.686800  0.479900  0.231000  1.0  0.1154
  H  H8  1  0.783400  0.230700  0.327800  1.0  0.0793
  H  H9  1  0.997100  0.721300  0.178700  1.0  0.0774
  H  H10  1  0.131800  0.466100  0.220700  1.0  0.1195
  H  H11  1  0.394200  0.529700  0.935600  1.0  0.1173
  H  H12  1  0.253400  0.777900  0.900200  1.0  0.0845
  H  H13  1  0.990400  0.727000  0.486000  1.0  0.0802
  H  H14  1  0.087800  0.475300  0.571700  1.0  0.1246
  H  H15  1  0.313200  0.520100  0.769000  1.0  0.1156
  H  H16  1  0.216600  0.769300  0.672200  1.0  0.0796
  H  H17  1  0.002900  0.278700  0.821300  1.0  0.0774
  H  H18  1  0.868200  0.533900  0.779300  1.0  0.1195
  H  H19  1  0.605800  0.470300  0.064400  1.0  0.1182
  H  H20  1  0.746600  0.222100  0.099800  1.0  0.0847
  C  C21  1  0.177500  0.978000  0.281900  1.0  -0.0379
  C  C22  1  0.171700  0.988700  0.164300  1.0  -0.0129
  C  C23  1  0.284400  0.964800  0.357100  1.0  0.6788
  C  C24  1  0.264900  0.002800  0.053900  1.0  0.6877
  C  C25  1  0.942900  0.315400  0.456400  1.0  0.166
  C  C26  1  0.886100  0.466600  0.404700  1.0  -0.1623
  C  C27  1  0.789900  0.530600  0.317300  1.0  -0.0536
  C  C28  1  0.752300  0.440200  0.289000  1.0  -0.1517
  C  C29  1  0.811800  0.290200  0.347000  1.0  0.1449
  C  C30  1  0.720800  0.696900  0.255800  1.0  0.631
  C  C31  1  0.077900  0.681500  0.129300  1.0  0.1407
  C  C32  1  0.158300  0.528100  0.155200  1.0  -0.1407
  C  C33  1  0.279400  0.468200  0.081400  1.0  -0.0491
  C  C34  1  0.313300  0.565900  0.986100  1.0  -0.1435
  C  C35  1  0.229000  0.714400  0.965800  1.0  0.1442
  C  C36  1  0.370800  0.303200  0.107100  1.0  0.6429
  C  C37  1  0.822500  0.022000  0.718100  1.0  -0.0381
  C  C38  1  0.828300  0.011300  0.835700  1.0  -0.0138
  C  C39  1  0.715600  0.035200  0.642900  1.0  0.6765
  C  C40  1  0.735100  0.997200  0.946100  1.0  0.6857
  C  C41  1  0.057100  0.684600  0.543600  1.0  0.1688
  C  C42  1  0.113900  0.533400  0.595300  1.0  -0.1608
  C  C43  1  0.210100  0.469400  0.682700  1.0  -0.0516
  C  C44  1  0.247700  0.559800  0.711000  1.0  -0.1495
  C  C45  1  0.188200  0.709800  0.653000  1.0  0.1452
  C  C46  1  0.279200  0.303100  0.744200  1.0  0.6328
  C  C47  1  0.922100  0.318500  0.870700  1.0  0.1401
  C  C48  1  0.841700  0.471900  0.844800  1.0  -0.1411
  C  C49  1  0.720600  0.531800  0.918600  1.0  -0.0485
  C  C50  1  0.686700  0.434100  0.013900  1.0  -0.1436
  C  C51  1  0.771000  0.285600  0.034200  1.0  0.1447
  C  C52  1  0.629200  0.696800  0.892900  1.0  0.6425
  N  N53  1  0.053900  0.976500  0.337000  1.0  -0.1391
  N  N54  1  0.975500  0.981100  0.261900  1.0  -0.143
  N  N55  1  0.047300  0.989700  0.156000  1.0  -0.1568
  N  N56  1  0.907900  0.226500  0.428900  1.0  -0.2927
  N  N57  1  0.112100  0.774700  0.035600  1.0  -0.3084
  N  N58  1  0.946100  0.023500  0.663000  1.0  -0.1405
  N  N59  1  0.024500  0.018900  0.738100  1.0  -0.14
  N  N60  1  0.952700  0.010300  0.844000  1.0  -0.1494
  N  N61  1  0.092100  0.773500  0.571100  1.0  -0.2922
  N  N62  1  0.887900  0.225300  0.964400  1.0  -0.309
  O  O63  1  0.235100  0.992100  0.454500  1.0  -0.5255
  O  O64  1  0.413700  0.923000  0.317300  1.0  -0.7129
  O  O65  1  0.382100  0.004800  0.056600  1.0  -0.8073
  O  O66  1  0.223400  0.014600  0.958200  1.0  -0.687
  O  O67  1  0.738200  0.783200  0.292600  1.0  -0.6242
  O  O68  1  0.649400  0.741200  0.168100  1.0  -0.5831
  O  O69  1  0.487000  0.253400  0.046100  1.0  -0.6217
  O  O70  1  0.333100  0.217600  0.191600  1.0  -0.6268
  O  O71  1  0.764900  0.007900  0.545500  1.0  -0.5304
  O  O72  1  0.586300  0.077000  0.682700  1.0  -0.7148
  O  O73  1  0.617900  0.995200  0.943400  1.0  -0.8071
  O  O74  1  0.776600  0.985400  0.041800  1.0  -0.6869
  O  O75  1  0.261800  0.216800  0.707400  1.0  -0.6192
  O  O76  1  0.350600  0.258800  0.831900  1.0  -0.5826
  O  O77  1  0.513000  0.746600  0.953900  1.0  -0.6204
  O  O78  1  0.666900  0.782400  0.808400  1.0  -0.6278
