# generated using pymatgen
data_EuCuH8C16N5O8
_symmetry_space_group_name_H-M   'P 1'
_cell_length_a   10.74910000
_cell_length_b   10.75850000
_cell_length_c   11.89010000
_cell_angle_alpha   70.14600000
_cell_angle_beta   78.01600000
_cell_angle_gamma   61.03000000
_symmetry_Int_Tables_number   1
_chemical_formula_structural   EuCuH8C16N5O8
_chemical_formula_sum   'Eu2 Cu2 H16 C32 N10 O16'
_cell_volume   1129.91012678
_cell_formula_units_Z   2
loop_
 _symmetry_equiv_pos_site_id
 _symmetry_equiv_pos_as_xyz
  1  'x, y, z'
loop_
 _atom_site_type_symbol
 _atom_site_label
 _atom_site_symmetry_multiplicity
 _atom_site_fract_x
 _atom_site_fract_y
 _atom_site_fract_z
 _atom_site_occupancy
 _atom_site_charge
  Eu  Eu1  1  0.549060  0.999310  0.164410  1.0  2.145
  Eu  Eu2  1  0.450940  0.000690  0.835590  1.0  2.1446
  Cu  Cu3  1  0.000000  0.000000  0.000000  1.0  0.7566
  Cu  Cu4  1  0.000000  0.000000  0.500000  1.0  0.7743
  H  H5  1  0.004500  0.270700  0.521300  1.0  0.0849
  H  H6  1  0.908500  0.520600  0.436200  1.0  0.1223
  H  H7  1  0.696500  0.478200  0.225200  1.0  0.1247
  H  H8  1  0.792400  0.230900  0.319900  1.0  0.0946
  H  H9  1  0.997700  0.721700  0.178100  1.0  0.0805
  H  H10  1  0.129000  0.469900  0.219400  1.0  0.1222
  H  H11  1  0.391200  0.533200  0.937400  1.0  0.1272
  H  H12  1  0.249400  0.782000  0.901100  1.0  0.0931
  H  H13  1  0.995500  0.729300  0.478700  1.0  0.0841
  H  H14  1  0.091500  0.479400  0.563800  1.0  0.122
  H  H15  1  0.303500  0.521800  0.774800  1.0  0.1241
  H  H16  1  0.207600  0.769100  0.680100  1.0  0.0952
  H  H17  1  0.002300  0.278300  0.821900  1.0  0.0803
  H  H18  1  0.871000  0.530100  0.780600  1.0  0.1223
  H  H19  1  0.608800  0.466800  0.062600  1.0  0.1278
  H  H20  1  0.750600  0.218000  0.098900  1.0  0.0931
  C  C21  1  0.177900  0.977500  0.283200  1.0  -0.0015
  C  C22  1  0.173000  0.988400  0.165500  1.0  -0.0163
  C  C23  1  0.282300  0.965500  0.359300  1.0  0.687
  C  C24  1  0.265000  0.001900  0.054700  1.0  0.679
  C  C25  1  0.941100  0.313200  0.461000  1.0  0.1725
  C  C26  1  0.884200  0.463500  0.409900  1.0  -0.149
  C  C27  1  0.791200  0.529400  0.319900  1.0  -0.0472
  C  C28  1  0.758500  0.438700  0.286100  1.0  -0.1563
  C  C29  1  0.817700  0.290000  0.342500  1.0  0.1759
  C  C30  1  0.724200  0.692900  0.259200  1.0  0.6837
  C  C31  1  0.077400  0.682700  0.128700  1.0  0.1535
  C  C32  1  0.156200  0.531400  0.154600  1.0  -0.1341
  C  C33  1  0.277000  0.471600  0.082700  1.0  -0.0492
  C  C34  1  0.310900  0.568800  0.987300  1.0  -0.1577
  C  C35  1  0.225900  0.718000  0.966400  1.0  0.1648
  C  C36  1  0.369500  0.307000  0.108700  1.0  0.704
  C  C37  1  0.822100  0.022500  0.716800  1.0  -0.0021
  C  C38  1  0.827000  0.011600  0.834500  1.0  -0.0185
  C  C39  1  0.717700  0.034500  0.640700  1.0  0.6869
  C  C40  1  0.735000  0.998100  0.945300  1.0  0.6776
  C  C41  1  0.058900  0.686800  0.539000  1.0  0.1733
  C  C42  1  0.115800  0.536500  0.590100  1.0  -0.1483
  C  C43  1  0.208800  0.470600  0.680100  1.0  -0.0477
  C  C44  1  0.241500  0.561300  0.713900  1.0  -0.1553
  C  C45  1  0.182300  0.710000  0.657500  1.0  0.1751
  C  C46  1  0.275800  0.307100  0.740800  1.0  0.6839
  C  C47  1  0.922600  0.317300  0.871300  1.0  0.1538
  C  C48  1  0.843800  0.468600  0.845400  1.0  -0.1352
  C  C49  1  0.723000  0.528400  0.917300  1.0  -0.0486
  C  C50  1  0.689100  0.431200  0.012700  1.0  -0.1579
  C  C51  1  0.774100  0.282000  0.033600  1.0  0.1651
  C  C52  1  0.630500  0.693000  0.891300  1.0  0.705
  N  N53  1  0.055500  0.976000  0.337500  1.0  -0.1677
  N  N54  1  0.977500  0.982000  0.261100  1.0  -0.1549
  N  N55  1  0.049200  0.989200  0.155600  1.0  -0.2001
  N  N56  1  0.909400  0.226100  0.427900  1.0  -0.2917
  N  N57  1  0.110400  0.775300  0.036200  1.0  -0.2869
  N  N58  1  0.944500  0.024000  0.662500  1.0  -0.1679
  N  N59  1  0.022500  0.018000  0.738900  1.0  -0.1535
  N  N60  1  0.950800  0.010800  0.844400  1.0  -0.1932
  N  N61  1  0.090600  0.773900  0.572100  1.0  -0.2907
  N  N62  1  0.889600  0.224700  0.963800  1.0  -0.2871
  O  O63  1  0.232900  0.991500  0.458100  1.0  -0.6004
  O  O64  1  0.410600  0.924300  0.320500  1.0  -0.7114
  O  O65  1  0.381100  0.002100  0.057100  1.0  -0.7889
  O  O66  1  0.223300  0.012900  0.958900  1.0  -0.6813
  O  O67  1  0.738500  0.779700  0.298500  1.0  -0.6226
  O  O68  1  0.652000  0.739400  0.170000  1.0  -0.6957
  O  O69  1  0.484800  0.259100  0.048300  1.0  -0.6538
  O  O70  1  0.331300  0.221900  0.192300  1.0  -0.6195
  O  O71  1  0.767100  0.008500  0.541900  1.0  -0.6017
  O  O72  1  0.589400  0.075700  0.679500  1.0  -0.7123
  O  O73  1  0.618900  0.997900  0.942900  1.0  -0.788
  O  O74  1  0.776700  0.987100  0.041100  1.0  -0.6812
  O  O75  1  0.261500  0.220300  0.701500  1.0  -0.6179
  O  O76  1  0.348000  0.260600  0.830000  1.0  -0.6944
  O  O77  1  0.515200  0.740900  0.951700  1.0  -0.652
  O  O78  1  0.668700  0.778100  0.807700  1.0  -0.6204
