# generated using pymatgen
data_CoC3N3O
_symmetry_space_group_name_H-M   'P 1'
_cell_length_a   14.05300000
_cell_length_b   14.05300000
_cell_length_c   29.78100000
_cell_angle_alpha   90.00000000
_cell_angle_beta   90.00000000
_cell_angle_gamma   90.00000000
_symmetry_Int_Tables_number   1
_chemical_formula_structural   CoC3N3O
_chemical_formula_sum   'Co32 C96 N96 O32'
_cell_volume   5881.35465883
_cell_formula_units_Z   32
loop_
 _symmetry_equiv_pos_site_id
 _symmetry_equiv_pos_as_xyz
  1  'x, y, z'
loop_
 _atom_site_type_symbol
 _atom_site_label
 _atom_site_symmetry_multiplicity
 _atom_site_fract_x
 _atom_site_fract_y
 _atom_site_fract_z
 _atom_site_occupancy
 _atom_site_charge
  Co  Co1  1  0.429150  0.162480  0.088230  1.0  0.9535
  Co  Co2  1  0.929150  0.662480  0.588230  1.0  0.9535
  Co  Co3  1  0.070850  0.837520  0.588230  1.0  0.9511
  Co  Co4  1  0.570850  0.337520  0.088230  1.0  0.9511
  Co  Co5  1  0.070850  0.162480  0.911770  1.0  0.953
  Co  Co6  1  0.570850  0.662480  0.411770  1.0  0.953
  Co  Co7  1  0.429150  0.837520  0.411770  1.0  0.9506
  Co  Co8  1  0.929150  0.337520  0.911770  1.0  0.9506
  Co  Co9  1  0.912480  0.820850  0.661770  1.0  0.9561
  Co  Co10  1  0.412480  0.320850  0.161770  1.0  0.9561
  Co  Co11  1  0.587520  0.179150  0.161770  1.0  0.9552
  Co  Co12  1  0.087520  0.679150  0.661770  1.0  0.9552
  Co  Co13  1  0.587520  0.820850  0.338230  1.0  0.9559
  Co  Co14  1  0.087520  0.320850  0.838230  1.0  0.9559
  Co  Co15  1  0.912480  0.179150  0.838230  1.0  0.9571
  Co  Co16  1  0.412480  0.679150  0.338230  1.0  0.9571
  Co  Co17  1  0.087520  0.179150  0.338230  1.0  0.956
  Co  Co18  1  0.587520  0.679150  0.838230  1.0  0.956
  Co  Co19  1  0.412480  0.820850  0.838230  1.0  0.9567
  Co  Co20  1  0.912480  0.320850  0.338230  1.0  0.9567
  Co  Co21  1  0.412480  0.179150  0.661770  1.0  0.9568
  Co  Co22  1  0.912480  0.679150  0.161770  1.0  0.9568
  Co  Co23  1  0.087520  0.820850  0.161770  1.0  0.9551
  Co  Co24  1  0.587520  0.320850  0.661770  1.0  0.9551
  Co  Co25  1  0.570850  0.837520  0.911770  1.0  0.9505
  Co  Co26  1  0.070850  0.337520  0.411770  1.0  0.9505
  Co  Co27  1  0.929150  0.162480  0.411770  1.0  0.9534
  Co  Co28  1  0.429150  0.662480  0.911770  1.0  0.9534
  Co  Co29  1  0.929150  0.837520  0.088230  1.0  0.9513
  Co  Co30  1  0.429150  0.337520  0.588230  1.0  0.9513
  Co  Co31  1  0.570850  0.162480  0.588230  1.0  0.9531
  Co  Co32  1  0.070850  0.662480  0.088230  1.0  0.9531
  C  C33  1  0.399800  0.145400  0.981510  1.0  0.6407
  C  C34  1  0.295100  0.138600  0.925200  1.0  0.6426
  C  C35  1  0.358700  0.360200  0.063400  1.0  0.1743
  C  C36  1  0.899800  0.645400  0.481510  1.0  0.6407
  C  C37  1  0.795100  0.638600  0.425200  1.0  0.6426
  C  C38  1  0.858700  0.860200  0.563400  1.0  0.1743
  C  C39  1  0.100200  0.854600  0.481510  1.0  0.6419
  C  C40  1  0.204900  0.861400  0.425200  1.0  0.6433
  C  C41  1  0.141300  0.639800  0.563400  1.0  0.1737
  C  C42  1  0.600200  0.354600  0.981510  1.0  0.6419
  C  C43  1  0.704900  0.361400  0.925200  1.0  0.6433
  C  C44  1  0.641300  0.139800  0.063400  1.0  0.1737
  C  C45  1  0.100200  0.145400  0.018490  1.0  0.6416
  C  C46  1  0.204900  0.138600  0.074800  1.0  0.6426
  C  C47  1  0.141300  0.360200  0.936600  1.0  0.1731
  C  C48  1  0.600200  0.645400  0.518490  1.0  0.6416
  C  C49  1  0.704900  0.638600  0.574800  1.0  0.6426
  C  C50  1  0.641300  0.860200  0.436600  1.0  0.1731
  C  C51  1  0.399800  0.854600  0.518490  1.0  0.641
  C  C52  1  0.295100  0.861400  0.574800  1.0  0.6435
  C  C53  1  0.358700  0.639800  0.436600  1.0  0.1726
  C  C54  1  0.899800  0.354600  0.018490  1.0  0.641
  C  C55  1  0.795100  0.361400  0.074800  1.0  0.6439
  C  C56  1  0.858700  0.139800  0.936600  1.0  0.1726
  C  C57  1  0.895400  0.850200  0.768490  1.0  0.6422
  C  C58  1  0.888600  0.954900  0.824800  1.0  0.6434
  C  C59  1  0.110200  0.891300  0.686600  1.0  0.1734
  C  C60  1  0.395400  0.350200  0.268490  1.0  0.6422
  C  C61  1  0.388600  0.454900  0.324800  1.0  0.6434
  C  C62  1  0.610200  0.391300  0.186600  1.0  0.1734
  C  C63  1  0.604600  0.149800  0.268490  1.0  0.6423
  C  C64  1  0.611400  0.045100  0.324800  1.0  0.6438
  C  C65  1  0.389800  0.108700  0.186600  1.0  0.1728
  C  C66  1  0.104600  0.649800  0.768490  1.0  0.6423
  C  C67  1  0.111400  0.545100  0.824800  1.0  0.6438
  C  C68  1  0.889800  0.608700  0.686600  1.0  0.1728
  C  C69  1  0.604600  0.850200  0.231510  1.0  0.6417
  C  C70  1  0.611400  0.954900  0.175200  1.0  0.6443
  C  C71  1  0.389800  0.891300  0.313400  1.0  0.1741
  C  C72  1  0.104600  0.350200  0.731510  1.0  0.6417
  C  C73  1  0.111400  0.454900  0.675200  1.0  0.6443
  C  C74  1  0.889800  0.391300  0.813400  1.0  0.1741
  C  C75  1  0.895400  0.149800  0.731510  1.0  0.6425
  C  C76  1  0.888600  0.045100  0.675200  1.0  0.6431
  C  C77  1  0.110200  0.108700  0.813400  1.0  0.1747
  C  C78  1  0.395400  0.649800  0.231510  1.0  0.6425
  C  C79  1  0.388600  0.545100  0.175200  1.0  0.6431
  C  C80  1  0.610200  0.608700  0.313400  1.0  0.1747
  C  C81  1  0.104600  0.149800  0.231510  1.0  0.6422
  C  C82  1  0.111400  0.045100  0.175200  1.0  0.6431
  C  C83  1  0.889800  0.108700  0.313400  1.0  0.1743
  C  C84  1  0.604600  0.649800  0.731510  1.0  0.6422
  C  C85  1  0.611400  0.545100  0.675200  1.0  0.6431
  C  C86  1  0.389800  0.608700  0.813400  1.0  0.1743
  C  C87  1  0.395400  0.850200  0.731510  1.0  0.642
  C  C88  1  0.388600  0.954900  0.675200  1.0  0.6443
  C  C89  1  0.610200  0.891300  0.813400  1.0  0.1748
  C  C90  1  0.895400  0.350200  0.231510  1.0  0.642
  C  C91  1  0.888600  0.454900  0.175200  1.0  0.6443
  C  C92  1  0.110200  0.391300  0.313400  1.0  0.1748
  C  C93  1  0.395400  0.149800  0.768490  1.0  0.6426
  C  C94  1  0.388600  0.045100  0.824800  1.0  0.6438
  C  C95  1  0.610200  0.108700  0.686600  1.0  0.1727
  C  C96  1  0.895400  0.649800  0.268490  1.0  0.6426
  C  C97  1  0.888600  0.545100  0.324800  1.0  0.6438
  C  C98  1  0.110200  0.608700  0.186600  1.0  0.1727
  C  C99  1  0.104600  0.850200  0.268490  1.0  0.6419
  C  C100  1  0.111400  0.954900  0.324800  1.0  0.6435
  C  C101  1  0.889800  0.891300  0.186600  1.0  0.1726
  C  C102  1  0.604600  0.350200  0.768490  1.0  0.6419
  C  C103  1  0.611400  0.454900  0.824800  1.0  0.6435
  C  C104  1  0.389800  0.391300  0.686600  1.0  0.1726
  C  C105  1  0.600200  0.854600  0.018490  1.0  0.6419
  C  C106  1  0.704900  0.861400  0.074800  1.0  0.6426
  C  C107  1  0.641300  0.639800  0.936600  1.0  0.172
  C  C108  1  0.100200  0.354600  0.518490  1.0  0.6419
  C  C109  1  0.204900  0.361400  0.574800  1.0  0.6426
  C  C110  1  0.141300  0.139800  0.436600  1.0  0.172
  C  C111  1  0.899800  0.145400  0.518490  1.0  0.6409
  C  C112  1  0.795100  0.138600  0.574800  1.0  0.6434
  C  C113  1  0.858700  0.360200  0.436600  1.0  0.1726
  C  C114  1  0.399800  0.645400  0.018490  1.0  0.6409
  C  C115  1  0.295100  0.638600  0.074800  1.0  0.6439
  C  C116  1  0.358700  0.860200  0.936600  1.0  0.1726
  C  C117  1  0.899800  0.854600  0.981510  1.0  0.641
  C  C118  1  0.795100  0.861400  0.925200  1.0  0.6427
  C  C119  1  0.858700  0.639800  0.063400  1.0  0.1743
  C  C120  1  0.399800  0.354600  0.481510  1.0  0.641
  C  C121  1  0.295100  0.361400  0.425200  1.0  0.6427
  C  C122  1  0.358700  0.139800  0.563400  1.0  0.1743
  C  C123  1  0.600200  0.145400  0.481510  1.0  0.6415
  C  C124  1  0.704900  0.138600  0.425200  1.0  0.6433
  C  C125  1  0.641300  0.360200  0.563400  1.0  0.1743
  C  C126  1  0.100200  0.645400  0.981510  1.0  0.6415
  C  C127  1  0.204900  0.638600  0.925200  1.0  0.6433
  C  C128  1  0.141300  0.860200  0.063400  1.0  0.1743
  N  N129  1  0.422300  0.154400  0.017890  1.0  -0.6541
  N  N130  1  0.383200  0.131100  0.939120  1.0  -0.5523
  N  N131  1  0.278900  0.141000  0.090020  1.0  -0.6695
  N  N132  1  0.922300  0.654400  0.517890  1.0  -0.6541
  N  N133  1  0.883200  0.631100  0.439120  1.0  -0.5539
  N  N134  1  0.778900  0.641000  0.590020  1.0  -0.6695
  N  N135  1  0.077700  0.845600  0.517890  1.0  -0.6541
  N  N136  1  0.116800  0.868900  0.439120  1.0  -0.5554
  N  N137  1  0.221100  0.859000  0.590020  1.0  -0.6655
  N  N138  1  0.577700  0.345600  0.017890  1.0  -0.6545
  N  N139  1  0.616800  0.368900  0.939120  1.0  -0.5554
  N  N140  1  0.721100  0.359000  0.090020  1.0  -0.6655
  N  N141  1  0.077700  0.154400  0.982110  1.0  -0.6534
  N  N142  1  0.116800  0.131100  0.060880  1.0  -0.5553
  N  N143  1  0.221100  0.141000  0.909980  1.0  -0.6653
  N  N144  1  0.577700  0.654400  0.482110  1.0  -0.6535
  N  N145  1  0.616800  0.631100  0.560880  1.0  -0.5554
  N  N146  1  0.721100  0.641000  0.409980  1.0  -0.6653
  N  N147  1  0.422300  0.845600  0.482110  1.0  -0.6428
  N  N148  1  0.383200  0.868900  0.560880  1.0  -0.5539
  N  N149  1  0.278900  0.859000  0.409980  1.0  -0.6705
  N  N150  1  0.922300  0.345600  0.982110  1.0  -0.6428
  N  N151  1  0.883200  0.368900  0.060880  1.0  -0.5531
  N  N152  1  0.778900  0.359000  0.909980  1.0  -0.6705
  N  N153  1  0.904400  0.827700  0.732110  1.0  -0.6547
  N  N154  1  0.881100  0.866800  0.810880  1.0  -0.5566
  N  N155  1  0.891000  0.971100  0.659980  1.0  -0.6659
  N  N156  1  0.404400  0.327700  0.232110  1.0  -0.6547
  N  N157  1  0.381100  0.366800  0.310880  1.0  -0.5566
  N  N158  1  0.391000  0.471100  0.159980  1.0  -0.6659
  N  N159  1  0.595600  0.172300  0.232110  1.0  -0.6481
  N  N160  1  0.618900  0.133200  0.310880  1.0  -0.5555
  N  N161  1  0.609000  0.028900  0.159980  1.0  -0.6668
  N  N162  1  0.095600  0.672300  0.732110  1.0  -0.6453
  N  N163  1  0.118900  0.633200  0.810880  1.0  -0.5563
  N  N164  1  0.109000  0.528900  0.659980  1.0  -0.6689
  N  N165  1  0.595600  0.827700  0.267890  1.0  -0.6561
  N  N166  1  0.618900  0.866800  0.189120  1.0  -0.5566
  N  N167  1  0.609000  0.971100  0.340020  1.0  -0.664
  N  N168  1  0.095600  0.327700  0.767890  1.0  -0.656
  N  N169  1  0.118900  0.366800  0.689120  1.0  -0.5566
  N  N170  1  0.109000  0.471100  0.840020  1.0  -0.6654
  N  N171  1  0.904400  0.172300  0.767890  1.0  -0.6555
  N  N172  1  0.881100  0.133200  0.689120  1.0  -0.5559
  N  N173  1  0.891000  0.028900  0.840020  1.0  -0.6698
  N  N174  1  0.404400  0.672300  0.267890  1.0  -0.6555
  N  N175  1  0.381100  0.633200  0.189120  1.0  -0.5564
  N  N176  1  0.391000  0.528900  0.340020  1.0  -0.6698
  N  N177  1  0.095600  0.172300  0.267890  1.0  -0.6576
  N  N178  1  0.118900  0.133200  0.189120  1.0  -0.556
  N  N179  1  0.109000  0.028900  0.340020  1.0  -0.6694
  N  N180  1  0.595600  0.672300  0.767890  1.0  -0.6569
  N  N181  1  0.618900  0.633200  0.689120  1.0  -0.5567
  N  N182  1  0.609000  0.528900  0.840020  1.0  -0.6694
  N  N183  1  0.404400  0.827700  0.767890  1.0  -0.6547
  N  N184  1  0.381100  0.866800  0.689120  1.0  -0.5565
  N  N185  1  0.391000  0.971100  0.840020  1.0  -0.666
  N  N186  1  0.904400  0.327700  0.267890  1.0  -0.6547
  N  N187  1  0.881100  0.366800  0.189120  1.0  -0.5565
  N  N188  1  0.891000  0.471100  0.340020  1.0  -0.6652
  N  N189  1  0.404400  0.172300  0.732110  1.0  -0.6479
  N  N190  1  0.381100  0.133200  0.810880  1.0  -0.5556
  N  N191  1  0.391000  0.028900  0.659980  1.0  -0.6696
  N  N192  1  0.904400  0.672300  0.232110  1.0  -0.6479
  N  N193  1  0.881100  0.633200  0.310880  1.0  -0.556
  N  N194  1  0.891000  0.528900  0.159980  1.0  -0.6693
  N  N195  1  0.095600  0.827700  0.232110  1.0  -0.6487
  N  N196  1  0.118900  0.866800  0.310880  1.0  -0.5569
  N  N197  1  0.109000  0.971100  0.159980  1.0  -0.6655
  N  N198  1  0.595600  0.327700  0.732110  1.0  -0.6558
  N  N199  1  0.618900  0.366800  0.810880  1.0  -0.5569
  N  N200  1  0.609000  0.471100  0.659980  1.0  -0.6655
  N  N201  1  0.577700  0.845600  0.982110  1.0  -0.6541
  N  N202  1  0.616800  0.868900  0.060880  1.0  -0.5556
  N  N203  1  0.721100  0.859000  0.909980  1.0  -0.6654
  N  N204  1  0.077700  0.345600  0.482110  1.0  -0.6573
  N  N205  1  0.116800  0.368900  0.560880  1.0  -0.5556
  N  N206  1  0.221100  0.359000  0.409980  1.0  -0.6654
  N  N207  1  0.922300  0.154400  0.482110  1.0  -0.6464
  N  N208  1  0.883200  0.131100  0.560880  1.0  -0.5522
  N  N209  1  0.778900  0.141000  0.409980  1.0  -0.6697
  N  N210  1  0.422300  0.654400  0.982110  1.0  -0.6464
  N  N211  1  0.383200  0.631100  0.060880  1.0  -0.5522
  N  N212  1  0.278900  0.641000  0.909980  1.0  -0.6697
  N  N213  1  0.922300  0.845600  0.017890  1.0  -0.6478
  N  N214  1  0.883200  0.868900  0.939120  1.0  -0.5539
  N  N215  1  0.778900  0.859000  0.090020  1.0  -0.6707
  N  N216  1  0.422300  0.345600  0.517890  1.0  -0.6478
  N  N217  1  0.383200  0.368900  0.439120  1.0  -0.5539
  N  N218  1  0.278900  0.359000  0.590020  1.0  -0.6707
  N  N219  1  0.577700  0.154400  0.517890  1.0  -0.655
  N  N220  1  0.616800  0.131100  0.439120  1.0  -0.5551
  N  N221  1  0.721100  0.141000  0.590020  1.0  -0.6636
  N  N222  1  0.077700  0.654400  0.017890  1.0  -0.6547
  N  N223  1  0.116800  0.631100  0.939120  1.0  -0.5552
  N  N224  1  0.221100  0.641000  0.090020  1.0  -0.6636
  O  O225  1  0.423500  0.309200  0.092510  1.0  -0.5394
  O  O226  1  0.923500  0.809200  0.592510  1.0  -0.5394
  O  O227  1  0.076500  0.690800  0.592510  1.0  -0.5386
  O  O228  1  0.576500  0.190800  0.092510  1.0  -0.5386
  O  O229  1  0.076500  0.309200  0.907490  1.0  -0.5386
  O  O230  1  0.576500  0.809200  0.407490  1.0  -0.5386
  O  O231  1  0.423500  0.690800  0.407490  1.0  -0.5381
  O  O232  1  0.923500  0.190800  0.907490  1.0  -0.5381
  O  O233  1  0.059200  0.826500  0.657490  1.0  -0.5366
  O  O234  1  0.559200  0.326500  0.157490  1.0  -0.5366
  O  O235  1  0.440800  0.173500  0.157490  1.0  -0.5368
  O  O236  1  0.940800  0.673500  0.657490  1.0  -0.5368
  O  O237  1  0.440800  0.826500  0.342510  1.0  -0.5378
  O  O238  1  0.940800  0.326500  0.842510  1.0  -0.5378
  O  O239  1  0.059200  0.173500  0.842510  1.0  -0.5369
  O  O240  1  0.559200  0.673500  0.342510  1.0  -0.5369
  O  O241  1  0.940800  0.173500  0.342510  1.0  -0.5369
  O  O242  1  0.440800  0.673500  0.842510  1.0  -0.5369
  O  O243  1  0.559200  0.826500  0.842510  1.0  -0.5375
  O  O244  1  0.059200  0.326500  0.342510  1.0  -0.5375
  O  O245  1  0.559200  0.173500  0.657490  1.0  -0.5369
  O  O246  1  0.059200  0.673500  0.157490  1.0  -0.5369
  O  O247  1  0.940800  0.826500  0.157490  1.0  -0.5368
  O  O248  1  0.440800  0.326500  0.657490  1.0  -0.5368
  O  O249  1  0.576500  0.690800  0.907490  1.0  -0.5382
  O  O250  1  0.076500  0.190800  0.407490  1.0  -0.5382
  O  O251  1  0.923500  0.309200  0.407490  1.0  -0.5385
  O  O252  1  0.423500  0.809200  0.907490  1.0  -0.5385
  O  O253  1  0.923500  0.690800  0.092510  1.0  -0.5389
  O  O254  1  0.423500  0.190800  0.592510  1.0  -0.5389
  O  O255  1  0.576500  0.309200  0.592510  1.0  -0.5389
  O  O256  1  0.076500  0.809200  0.092510  1.0  -0.5389
