# generated using pymatgen
data_DyCuH8C16N5O8
_symmetry_space_group_name_H-M   'P 1'
_cell_length_a   10.67610000
_cell_length_b   10.73560000
_cell_length_c   11.96370000
_cell_angle_alpha   69.99100000
_cell_angle_beta   77.56200000
_cell_angle_gamma   60.84120000
_symmetry_Int_Tables_number   1
_chemical_formula_structural   DyCuH8C16N5O8
_chemical_formula_sum   'Dy2 Cu2 H16 C32 N10 O16'
_cell_volume   1123.18189853
_cell_formula_units_Z   2
loop_
 _symmetry_equiv_pos_site_id
 _symmetry_equiv_pos_as_xyz
  1  'x, y, z'
loop_
 _atom_site_type_symbol
 _atom_site_label
 _atom_site_symmetry_multiplicity
 _atom_site_fract_x
 _atom_site_fract_y
 _atom_site_fract_z
 _atom_site_occupancy
 _atom_site_charge
  Dy  Dy1  1  0.548630  0.998370  0.161450  1.0  2.2557
  Dy  Dy2  1  0.451370  0.001630  0.838550  1.0  2.2566
  Cu  Cu3  1  0.000000  0.000000  0.000000  1.0  0.7074
  Cu  Cu4  1  0.000000  0.000000  0.500000  1.0  0.7021
  H  H5  1  0.010600  0.272200  0.514700  1.0  0.083
  H  H6  1  0.911300  0.521300  0.430100  1.0  0.1059
  H  H7  1  0.692600  0.479700  0.227000  1.0  0.116
  H  H8  1  0.791900  0.232800  0.320900  1.0  0.0779
  H  H9  1  0.999500  0.718300  0.184800  1.0  0.0973
  H  H10  1  0.132800  0.465200  0.219700  1.0  0.1083
  H  H11  1  0.394800  0.531400  0.935000  1.0  0.1257
  H  H12  1  0.255700  0.781600  0.905600  1.0  0.0772
  H  H13  1  0.989400  0.727800  0.485300  1.0  0.0828
  H  H14  1  0.088700  0.478700  0.569900  1.0  0.1055
  H  H15  1  0.307400  0.520300  0.773000  1.0  0.1152
  H  H16  1  0.208100  0.767200  0.679100  1.0  0.0782
  H  H17  1  0.000500  0.281700  0.815200  1.0  0.0977
  H  H18  1  0.867200  0.534800  0.780300  1.0  0.1088
  H  H19  1  0.605200  0.468600  0.065000  1.0  0.126
  H  H20  1  0.744300  0.218400  0.094400  1.0  0.0772
  C  C21  1  0.177800  0.978700  0.283200  1.0  0.0234
  C  C22  1  0.171600  0.988100  0.163900  1.0  -0.0518
  C  C23  1  0.282600  0.965300  0.356800  1.0  0.6968
  C  C24  1  0.265600  0.004400  0.056200  1.0  0.7023
  C  C25  1  0.944200  0.314200  0.457200  1.0  0.155
  C  C26  1  0.885600  0.464000  0.405500  1.0  -0.1168
  C  C27  1  0.788200  0.533000  0.316700  1.0  -0.0217
  C  C28  1  0.756000  0.441000  0.286000  1.0  -0.1487
  C  C29  1  0.817000  0.292000  0.343300  1.0  0.1593
  C  C30  1  0.723300  0.695700  0.254100  1.0  0.6584
  C  C31  1  0.077700  0.679500  0.133400  1.0  0.1339
  C  C32  1  0.158000  0.528600  0.154900  1.0  -0.103
  C  C33  1  0.276000  0.471200  0.080200  1.0  -0.0401
  C  C34  1  0.314100  0.567400  0.985300  1.0  -0.1347
  C  C35  1  0.229900  0.716400  0.968100  1.0  0.1589
  C  C36  1  0.371400  0.303500  0.108200  1.0  0.6457
  C  C37  1  0.822200  0.021300  0.716800  1.0  0.0244
  C  C38  1  0.828400  0.011900  0.836100  1.0  -0.0596
  C  C39  1  0.717400  0.034700  0.643200  1.0  0.6968
  C  C40  1  0.734400  0.995600  0.943800  1.0  0.7039
  C  C41  1  0.055800  0.685800  0.542800  1.0  0.1554
  C  C42  1  0.114400  0.536000  0.594500  1.0  -0.1141
  C  C43  1  0.211800  0.467000  0.683300  1.0  -0.0212
  C  C44  1  0.244000  0.559000  0.714000  1.0  -0.1489
  C  C45  1  0.183000  0.708000  0.656700  1.0  0.159
  C  C46  1  0.276700  0.304300  0.745900  1.0  0.6594
  C  C47  1  0.922300  0.320500  0.866600  1.0  0.1345
  C  C48  1  0.842000  0.471400  0.845100  1.0  -0.1033
  C  C49  1  0.724000  0.528800  0.919800  1.0  -0.0383
  C  C50  1  0.685900  0.432600  0.014700  1.0  -0.1359
  C  C51  1  0.770100  0.283600  0.031900  1.0  0.159
  C  C52  1  0.628600  0.696500  0.891800  1.0  0.6456
  N  N53  1  0.059400  0.978300  0.337200  1.0  -0.159
  N  N54  1  0.979100  0.978600  0.259800  1.0  -0.182
  N  N55  1  0.047100  0.991800  0.155300  1.0  -0.1496
  N  N56  1  0.909300  0.226700  0.428100  1.0  -0.292
  N  N57  1  0.112300  0.772600  0.037000  1.0  -0.3008
  N  N58  1  0.940600  0.021700  0.662800  1.0  -0.1575
  N  N59  1  0.020900  0.021400  0.740200  1.0  -0.1769
  N  N60  1  0.952900  0.008200  0.844700  1.0  -0.1363
  N  N61  1  0.090700  0.773300  0.571900  1.0  -0.2911
  N  N62  1  0.887700  0.227400  0.963000  1.0  -0.3014
  O  O63  1  0.235600  0.992900  0.455800  1.0  -0.581
  O  O64  1  0.414100  0.925600  0.314900  1.0  -0.7519
  O  O65  1  0.382600  0.006500  0.055000  1.0  -0.773
  O  O66  1  0.221400  0.014500  0.958100  1.0  -0.7193
  O  O67  1  0.737200  0.782100  0.293700  1.0  -0.6534
  O  O68  1  0.645400  0.741800  0.171000  1.0  -0.6234
  O  O69  1  0.487500  0.251700  0.044600  1.0  -0.6567
  O  O70  1  0.333500  0.218300  0.192100  1.0  -0.6439
  O  O71  1  0.764400  0.007100  0.544200  1.0  -0.5818
  O  O72  1  0.585900  0.074400  0.685100  1.0  -0.7504
  O  O73  1  0.617400  0.993500  0.945000  1.0  -0.773
  O  O74  1  0.778600  0.985500  0.041900  1.0  -0.7196
  O  O75  1  0.262800  0.217900  0.706300  1.0  -0.6419
  O  O76  1  0.354600  0.258200  0.829000  1.0  -0.6232
  O  O77  1  0.512500  0.748300  0.955400  1.0  -0.6546
  O  O78  1  0.666500  0.781700  0.807900  1.0  -0.644
