# generated using pymatgen
data_CuH5C13O4
_symmetry_space_group_name_H-M   'P 1'
_cell_length_a   18.83060000
_cell_length_b   18.83060000
_cell_length_c   20.96800000
_cell_angle_alpha   63.31840000
_cell_angle_beta   63.31840000
_cell_angle_gamma   60.00000000
_symmetry_Int_Tables_number   1
_chemical_formula_structural   CuH5C13O4
_chemical_formula_sum   'Cu6 H30 C78 O24'
_cell_volume   5505.82298629
_cell_formula_units_Z   6
loop_
 _symmetry_equiv_pos_site_id
 _symmetry_equiv_pos_as_xyz
  1  'x, y, z'
loop_
 _atom_site_type_symbol
 _atom_site_label
 _atom_site_symmetry_multiplicity
 _atom_site_fract_x
 _atom_site_fract_y
 _atom_site_fract_z
 _atom_site_occupancy
 _atom_site_charge
  Cu  Cu1  1  0.065860  0.497920  0.938300  1.0  0.8876
  Cu  Cu2  1  0.497920  0.497920  0.938300  1.0  0.8865
  Cu  Cu3  1  0.497920  0.065860  0.938300  1.0  0.8859
  Cu  Cu4  1  0.934140  0.502080  0.061700  1.0  0.8873
  Cu  Cu5  1  0.502080  0.934140  0.061700  1.0  0.8857
  Cu  Cu6  1  0.502080  0.502080  0.061700  1.0  0.8865
  H  H7  1  0.031200  0.534600  0.189900  1.0  0.109
  H  H8  1  0.926100  0.499200  0.435900  1.0  0.1065
  H  H9  1  0.534600  0.244300  0.189900  1.0  0.1061
  H  H10  1  0.499200  0.138800  0.435900  1.0  0.1078
  H  H11  1  0.244300  0.031200  0.189900  1.0  0.1091
  H  H12  1  0.138800  0.926100  0.435900  1.0  0.1087
  H  H13  1  0.968800  0.755700  0.810100  1.0  0.1087
  H  H14  1  0.073900  0.861200  0.564100  1.0  0.109
  H  H15  1  0.465400  0.968800  0.810100  1.0  0.1086
  H  H16  1  0.500800  0.073900  0.564100  1.0  0.1071
  H  H17  1  0.755700  0.465400  0.810100  1.0  0.1069
  H  H18  1  0.861200  0.500800  0.564100  1.0  0.1081
  H  H19  1  0.968800  0.465400  0.810100  1.0  0.108
  H  H20  1  0.073900  0.500800  0.564100  1.0  0.1073
  H  H21  1  0.465400  0.755700  0.810100  1.0  0.1065
  H  H22  1  0.500800  0.861200  0.564100  1.0  0.1073
  H  H23  1  0.755700  0.968800  0.810100  1.0  0.1093
  H  H24  1  0.861200  0.073900  0.564100  1.0  0.1088
  H  H25  1  0.031200  0.244300  0.189900  1.0  0.1093
  H  H26  1  0.926100  0.138800  0.435900  1.0  0.1088
  H  H27  1  0.534600  0.031200  0.189900  1.0  0.1088
  H  H28  1  0.499200  0.926100  0.435900  1.0  0.1065
  H  H29  1  0.244300  0.534600  0.189900  1.0  0.1066
  H  H30  1  0.138800  0.499200  0.435900  1.0  0.1077
  H  H31  1  0.230500  0.531500  0.007500  1.0  0.0971
  H  H32  1  0.531500  0.230500  0.007500  1.0  0.0965
  H  H33  1  0.230500  0.230500  0.007500  1.0  0.0973
  H  H34  1  0.769500  0.769500  0.992500  1.0  0.0978
  H  H35  1  0.468500  0.769500  0.992500  1.0  0.0974
  H  H36  1  0.769500  0.468500  0.992500  1.0  0.0968
  C  C37  1  0.075250  0.526180  0.055680  1.0  0.7127
  C  C38  1  0.122610  0.532480  0.091740  1.0  -0.1651
  C  C39  1  0.086160  0.534880  0.164760  1.0  -0.0519
  C  C40  1  0.955250  0.501480  0.460380  1.0  -0.0295
  C  C41  1  0.526180  0.342890  0.055680  1.0  0.7153
  C  C42  1  0.532480  0.253170  0.091740  1.0  -0.1723
  C  C43  1  0.534880  0.214200  0.164760  1.0  -0.0513
  C  C44  1  0.501480  0.082890  0.460380  1.0  -0.0267
  C  C45  1  0.342890  0.075250  0.055680  1.0  0.7115
  C  C46  1  0.253170  0.122610  0.091740  1.0  -0.1687
  C  C47  1  0.214200  0.086160  0.164760  1.0  -0.053
  C  C48  1  0.082890  0.955250  0.460380  1.0  -0.0257
  C  C49  1  0.924750  0.657110  0.944320  1.0  0.7124
  C  C50  1  0.877390  0.746830  0.908260  1.0  -0.1676
  C  C51  1  0.913840  0.785800  0.835240  1.0  -0.0524
  C  C52  1  0.044750  0.917110  0.539620  1.0  -0.0237
  C  C53  1  0.473820  0.924750  0.944320  1.0  0.7143
  C  C54  1  0.467520  0.877390  0.908260  1.0  -0.1663
  C  C55  1  0.465120  0.913840  0.835240  1.0  -0.0508
  C  C56  1  0.498520  0.044750  0.539620  1.0  -0.0318
  C  C57  1  0.657110  0.473820  0.944320  1.0  0.7143
  C  C58  1  0.746830  0.467520  0.908260  1.0  -0.169
  C  C59  1  0.785800  0.465120  0.835240  1.0  -0.0481
  C  C60  1  0.917110  0.498520  0.539620  1.0  -0.0305
  C  C61  1  0.924750  0.473820  0.944320  1.0  0.714
  C  C62  1  0.877390  0.467520  0.908260  1.0  -0.1709
  C  C63  1  0.913840  0.465120  0.835240  1.0  -0.0493
  C  C64  1  0.044750  0.498520  0.539620  1.0  -0.0317
  C  C65  1  0.473820  0.657110  0.944320  1.0  0.716
  C  C66  1  0.467520  0.746830  0.908260  1.0  -0.1704
  C  C67  1  0.465120  0.785800  0.835240  1.0  -0.0525
  C  C68  1  0.498520  0.917110  0.539620  1.0  -0.0279
  C  C69  1  0.657110  0.924750  0.944320  1.0  0.7108
  C  C70  1  0.746830  0.877390  0.908260  1.0  -0.1704
  C  C71  1  0.785800  0.913840  0.835240  1.0  -0.0537
  C  C72  1  0.917110  0.044750  0.539620  1.0  -0.0258
  C  C73  1  0.075250  0.342890  0.055680  1.0  0.7136
  C  C74  1  0.122610  0.253170  0.091740  1.0  -0.1706
  C  C75  1  0.086160  0.214200  0.164760  1.0  -0.0532
  C  C76  1  0.955250  0.082890  0.460380  1.0  -0.0236
  C  C77  1  0.526180  0.075250  0.055680  1.0  0.7131
  C  C78  1  0.532480  0.122610  0.091740  1.0  -0.1662
  C  C79  1  0.534880  0.086160  0.164760  1.0  -0.0517
  C  C80  1  0.501480  0.955250  0.460380  1.0  -0.0317
  C  C81  1  0.342890  0.526180  0.055680  1.0  0.7153
  C  C82  1  0.253170  0.532480  0.091740  1.0  -0.1685
  C  C83  1  0.214200  0.534880  0.164760  1.0  -0.048
  C  C84  1  0.082890  0.501480  0.460380  1.0  -0.0271
  C  C85  1  0.205510  0.532060  0.056910  1.0  0.0063
  C  C86  1  0.130580  0.537750  0.201090  1.0  0.1584
  C  C87  1  0.094790  0.532590  0.277830  1.0  -0.1266
  C  C88  1  0.070210  0.515390  0.344190  1.0  -0.1447
  C  C89  1  0.034800  0.507610  0.422790  1.0  0.0421
  C  C90  1  0.532060  0.205520  0.056900  1.0  0.0057
  C  C91  1  0.537750  0.130580  0.201090  1.0  0.1586
  C  C92  1  0.532590  0.094790  0.277830  1.0  -0.1254
  C  C93  1  0.515390  0.070210  0.344190  1.0  -0.144
  C  C94  1  0.507610  0.034800  0.422790  1.0  0.0421
  C  C95  1  0.205520  0.205520  0.056900  1.0  0.0047
  C  C96  1  0.130580  0.130580  0.201090  1.0  0.1576
  C  C97  1  0.094790  0.094790  0.277830  1.0  -0.0751
  C  C98  1  0.070210  0.070210  0.344190  1.0  -0.092
  C  C99  1  0.034800  0.034800  0.422790  1.0  0.036
  C  C100  1  0.794490  0.794480  0.943090  1.0  0.0069
  C  C101  1  0.869420  0.869420  0.798910  1.0  0.1595
  C  C102  1  0.905210  0.905210  0.722170  1.0  -0.0749
  C  C103  1  0.929790  0.929790  0.655810  1.0  -0.0922
  C  C104  1  0.965200  0.965200  0.577210  1.0  0.0337
  C  C105  1  0.467940  0.794490  0.943090  1.0  0.0038
  C  C106  1  0.462250  0.869420  0.798910  1.0  0.1575
  C  C107  1  0.467410  0.905210  0.722170  1.0  -0.1278
  C  C108  1  0.484610  0.929790  0.655810  1.0  -0.1439
  C  C109  1  0.492390  0.965200  0.577210  1.0  0.0413
  C  C110  1  0.794480  0.467940  0.943090  1.0  0.0045
  C  C111  1  0.869420  0.462250  0.798910  1.0  0.1579
  C  C112  1  0.905210  0.467410  0.722170  1.0  -0.1281
  C  C113  1  0.929790  0.484610  0.655810  1.0  -0.1436
  C  C114  1  0.965200  0.492390  0.577210  1.0  0.0415
  O  O115  1  0.004120  0.524070  0.092610  1.0  -0.5809
  O  O116  1  0.114530  0.519870  0.990220  1.0  -0.573
  O  O117  1  0.524070  0.379200  0.092610  1.0  -0.5812
  O  O118  1  0.519870  0.375380  0.990220  1.0  -0.5763
  O  O119  1  0.379200  0.004120  0.092610  1.0  -0.5815
  O  O120  1  0.375380  0.114530  0.990220  1.0  -0.5766
  O  O121  1  0.995880  0.620800  0.907390  1.0  -0.5807
  O  O122  1  0.885470  0.624620  0.009780  1.0  -0.5773
  O  O123  1  0.475930  0.995880  0.907390  1.0  -0.5807
  O  O124  1  0.480130  0.885470  0.009780  1.0  -0.5739
  O  O125  1  0.620800  0.475930  0.907390  1.0  -0.5804
  O  O126  1  0.624620  0.480130  0.009780  1.0  -0.5773
  O  O127  1  0.995880  0.475930  0.907390  1.0  -0.5821
  O  O128  1  0.885470  0.480130  0.009780  1.0  -0.5723
  O  O129  1  0.475930  0.620800  0.907390  1.0  -0.5816
  O  O130  1  0.480130  0.624620  0.009780  1.0  -0.5761
  O  O131  1  0.620800  0.995880  0.907390  1.0  -0.582
  O  O132  1  0.624620  0.885470  0.009780  1.0  -0.5767
  O  O133  1  0.004120  0.379200  0.092610  1.0  -0.5791
  O  O134  1  0.114530  0.375380  0.990220  1.0  -0.5772
  O  O135  1  0.524070  0.004120  0.092610  1.0  -0.5805
  O  O136  1  0.519870  0.114530  0.990220  1.0  -0.574
  O  O137  1  0.379200  0.524070  0.092610  1.0  -0.5801
  O  O138  1  0.375380  0.519870  0.990220  1.0  -0.5773
