# generated using pymatgen
data_NdH27C21(NO)6
_symmetry_space_group_name_H-M   'P 1'
_cell_length_a   8.18810000
_cell_length_b   16.58880000
_cell_length_c   26.73620000
_cell_angle_alpha   90.00000000
_cell_angle_beta   90.00000000
_cell_angle_gamma   100.93900000
_symmetry_Int_Tables_number   1
_chemical_formula_structural   NdH27C21(NO)6
_chemical_formula_sum   'Nd4 H108 C84 N24 O24'
_cell_volume   3565.61121895
_cell_formula_units_Z   4
loop_
 _symmetry_equiv_pos_site_id
 _symmetry_equiv_pos_as_xyz
  1  'x, y, z'
loop_
 _atom_site_type_symbol
 _atom_site_label
 _atom_site_symmetry_multiplicity
 _atom_site_fract_x
 _atom_site_fract_y
 _atom_site_fract_z
 _atom_site_occupancy
 _atom_site_charge
  Nd  Nd1  1  0.785110  0.769640  0.744100  1.0  2.3148
  Nd  Nd2  1  0.714890  0.230360  0.244100  1.0  2.3117
  Nd  Nd3  1  0.214890  0.230360  0.255900  1.0  2.3127
  Nd  Nd4  1  0.285110  0.769640  0.755900  1.0  2.3126
  H  H5  1  0.103000  0.579000  0.814000  1.0  0.1017
  H  H6  1  0.816400  0.468900  0.782800  1.0  0.0803
  H  H7  1  0.987700  0.485200  0.754600  1.0  0.0867
  H  H8  1  0.113400  0.425900  0.820000  1.0  0.0644
  H  H9  1  0.956400  0.362600  0.802300  1.0  0.0818
  H  H10  1  0.920600  0.484500  0.927900  1.0  0.082
  H  H11  1  0.091100  0.502500  0.899300  1.0  0.0537
  H  H12  1  0.794200  0.548900  0.866000  1.0  0.0869
  H  H13  1  0.953900  0.610200  0.883700  1.0  0.0857
  H  H14  1  0.503000  0.993000  0.782000  1.0  0.0874
  H  H15  1  0.684100  0.996000  0.873400  1.0  0.0879
  H  H16  1  0.500000  0.949300  0.866400  1.0  0.0841
  H  H17  1  0.507200  0.080200  0.905600  1.0  0.0847
  H  H18  1  0.407600  0.074400  0.855100  1.0  0.065
  H  H19  1  0.570800  0.151400  0.778100  1.0  0.0628
  H  H20  1  0.754800  0.195000  0.788800  1.0  0.0842
  H  H21  1  0.742200  0.068900  0.745300  1.0  0.0805
  H  H22  1  0.840000  0.070200  0.795800  1.0  0.0832
  H  H23  1  0.361000  0.322000  0.086000  1.0  0.0922
  H  H24  1  0.713200  0.336700  0.086000  1.0  0.0791
  H  H25  1  0.622900  0.411200  0.094200  1.0  0.0806
  H  H26  1  0.350900  0.179600  0.078100  1.0  0.0848
  H  H27  1  0.546000  0.194000  0.077600  1.0  0.0742
  H  H28  1  0.347800  0.246600  0.001600  1.0  0.0646
  H  H29  1  0.455100  0.178200  0.995000  1.0  0.0809
  H  H30  1  0.711000  0.406700  0.011200  1.0  0.0766
  H  H31  1  0.516500  0.396700  0.013600  1.0  0.0551
  H  H32  1  0.397000  0.421000  0.314000  1.0  0.1019
  H  H33  1  0.683600  0.531100  0.282800  1.0  0.0798
  H  H34  1  0.512300  0.514800  0.254600  1.0  0.0871
  H  H35  1  0.386600  0.574100  0.320000  1.0  0.0667
  H  H36  1  0.543600  0.637400  0.302300  1.0  0.0826
  H  H37  1  0.579400  0.515500  0.427900  1.0  0.0828
  H  H38  1  0.408900  0.497500  0.399300  1.0  0.0548
  H  H39  1  0.705800  0.451100  0.366000  1.0  0.087
  H  H40  1  0.546100  0.389800  0.383700  1.0  0.0869
  H  H41  1  0.997000  0.007000  0.282000  1.0  0.0875
  H  H42  1  0.815900  0.004000  0.373400  1.0  0.0918
  H  H43  1  0.000000  0.050700  0.366400  1.0  0.0824
  H  H44  1  0.992800  0.919800  0.405600  1.0  0.0833
  H  H45  1  0.092400  0.925600  0.355100  1.0  0.0619
  H  H46  1  0.929200  0.848600  0.278100  1.0  0.0637
  H  H47  1  0.745200  0.805000  0.288800  1.0  0.0853
  H  H48  1  0.757800  0.931100  0.245300  1.0  0.08
  H  H49  1  0.660000  0.929800  0.295800  1.0  0.0836
  H  H50  1  0.139000  0.678000  0.586000  1.0  0.0921
  H  H51  1  0.786800  0.663300  0.586000  1.0  0.0781
  H  H52  1  0.877100  0.588800  0.594200  1.0  0.0809
  H  H53  1  0.149100  0.820400  0.578100  1.0  0.0833
  H  H54  1  0.954000  0.806000  0.577600  1.0  0.0743
  H  H55  1  0.152200  0.753400  0.501600  1.0  0.0597
  H  H56  1  0.044900  0.821800  0.495000  1.0  0.0814
  H  H57  1  0.789000  0.593300  0.511200  1.0  0.0759
  H  H58  1  0.983500  0.603300  0.513600  1.0  0.0559
  H  H59  1  0.897000  0.421000  0.186000  1.0  0.1014
  H  H60  1  0.183600  0.531100  0.217200  1.0  0.0794
  H  H61  1  0.012300  0.514800  0.245400  1.0  0.086
  H  H62  1  0.886600  0.574100  0.180000  1.0  0.0661
  H  H63  1  0.043600  0.637400  0.197700  1.0  0.0821
  H  H64  1  0.079400  0.515500  0.072100  1.0  0.0824
  H  H65  1  0.908900  0.497500  0.100700  1.0  0.0556
  H  H66  1  0.205800  0.451100  0.134000  1.0  0.0876
  H  H67  1  0.046100  0.389800  0.116300  1.0  0.0861
  H  H68  1  0.497000  0.007000  0.218000  1.0  0.0874
  H  H69  1  0.315900  0.004000  0.126600  1.0  0.0908
  H  H70  1  0.500000  0.050700  0.133600  1.0  0.083
  H  H71  1  0.492800  0.919800  0.094400  1.0  0.085
  H  H72  1  0.592400  0.925600  0.144900  1.0  0.0643
  H  H73  1  0.429200  0.848600  0.221900  1.0  0.0631
  H  H74  1  0.245200  0.805000  0.211200  1.0  0.0861
  H  H75  1  0.257800  0.931100  0.254700  1.0  0.0804
  H  H76  1  0.160000  0.929800  0.204200  1.0  0.0841
  H  H77  1  0.639000  0.678000  0.914000  1.0  0.0921
  H  H78  1  0.286800  0.663300  0.914000  1.0  0.0782
  H  H79  1  0.377100  0.588800  0.905800  1.0  0.0802
  H  H80  1  0.649100  0.820400  0.921900  1.0  0.0835
  H  H81  1  0.454000  0.806000  0.922400  1.0  0.0741
  H  H82  1  0.652200  0.753400  0.998400  1.0  0.0575
  H  H83  1  0.544900  0.821800  0.005000  1.0  0.0807
  H  H84  1  0.289000  0.593300  0.988800  1.0  0.0761
  H  H85  1  0.483500  0.603300  0.986400  1.0  0.0558
  H  H86  1  0.603000  0.579000  0.686000  1.0  0.1012
  H  H87  1  0.316400  0.468900  0.717200  1.0  0.0799
  H  H88  1  0.487700  0.485200  0.745400  1.0  0.0864
  H  H89  1  0.613400  0.425900  0.680000  1.0  0.0641
  H  H90  1  0.456400  0.362600  0.697700  1.0  0.0825
  H  H91  1  0.420600  0.484500  0.572100  1.0  0.0821
  H  H92  1  0.591100  0.502500  0.600700  1.0  0.0543
  H  H93  1  0.294200  0.548900  0.634000  1.0  0.0876
  H  H94  1  0.453900  0.610200  0.616300  1.0  0.0863
  H  H95  1  0.003000  0.993000  0.718000  1.0  0.0875
  H  H96  1  0.184100  0.996000  0.626600  1.0  0.0896
  H  H97  1  0.000000  0.949300  0.633600  1.0  0.0836
  H  H98  1  0.007200  0.080200  0.594400  1.0  0.0852
  H  H99  1  0.907600  0.074400  0.644900  1.0  0.0642
  H  H100  1  0.070800  0.151400  0.721900  1.0  0.0614
  H  H101  1  0.254800  0.195000  0.711200  1.0  0.0842
  H  H102  1  0.242200  0.068900  0.754700  1.0  0.0802
  H  H103  1  0.340000  0.070200  0.704200  1.0  0.084
  H  H104  1  0.861000  0.322000  0.414000  1.0  0.0924
  H  H105  1  0.213200  0.336700  0.414000  1.0  0.0785
  H  H106  1  0.122900  0.411200  0.405800  1.0  0.0814
  H  H107  1  0.850900  0.179600  0.421900  1.0  0.0846
  H  H108  1  0.046000  0.194000  0.422400  1.0  0.0739
  H  H109  1  0.847800  0.246600  0.498400  1.0  0.0635
  H  H110  1  0.955100  0.178200  0.505000  1.0  0.0809
  H  H111  1  0.211000  0.406700  0.488800  1.0  0.0761
  H  H112  1  0.016500  0.396700  0.486400  1.0  0.0544
  C  C113  1  0.922200  0.630600  0.785100  1.0  0.7537
  C  C114  1  0.660100  0.916000  0.784200  1.0  0.7646
  C  C115  1  0.981700  0.564400  0.812600  1.0  -0.1769
  C  C116  1  0.936100  0.482500  0.787400  1.0  -0.153
  C  C117  1  0.992900  0.415400  0.818400  1.0  0.0235
  C  C118  1  0.971400  0.489700  0.895000  1.0  0.0245
  C  C119  1  0.914800  0.558500  0.866600  1.0  -0.1441
  C  C120  1  0.822600  0.346000  0.887700  1.0  0.6315
  C  C121  1  0.610000  0.992100  0.798600  1.0  -0.1703
  C  C122  1  0.580800  0.996900  0.855800  1.0  -0.1652
  C  C123  1  0.516900  0.076300  0.869600  1.0  0.0269
  C  C124  1  0.676400  0.218900  0.878500  1.0  0.6251
  C  C125  1  0.449600  0.282900  0.152300  1.0  0.7686
  C  C126  1  0.670300  0.147500  0.797000  1.0  0.0158
  C  C127  1  0.731200  0.069800  0.781400  1.0  -0.1442
  C  C128  1  0.662300  0.287800  0.949800  1.0  0.6278
  C  C129  1  0.458200  0.299200  0.095400  1.0  -0.1738
  C  C130  1  0.615200  0.358700  0.077400  1.0  -0.1489
  C  C131  1  0.450700  0.217600  0.068100  1.0  -0.1495
  C  C132  1  0.450100  0.229700  0.011600  1.0  0.038
  C  C133  1  0.609700  0.370800  0.022100  1.0  0.0305
  C  C134  1  0.577800  0.369400  0.285100  1.0  0.7575
  C  C135  1  0.839900  0.084000  0.284200  1.0  0.767
  C  C136  1  0.518300  0.435600  0.312600  1.0  -0.1766
  C  C137  1  0.563900  0.517500  0.287400  1.0  -0.154
  C  C138  1  0.507100  0.584600  0.318400  1.0  0.0237
  C  C139  1  0.528600  0.510300  0.395000  1.0  0.0232
  C  C140  1  0.585200  0.441500  0.366600  1.0  -0.1438
  C  C141  1  0.677400  0.654000  0.387700  1.0  0.6327
  C  C142  1  0.890000  0.007900  0.298600  1.0  -0.1697
  C  C143  1  0.919200  0.003100  0.355800  1.0  -0.1682
  C  C144  1  0.983100  0.923700  0.369600  1.0  0.0269
  C  C145  1  0.823600  0.781100  0.378500  1.0  0.6246
  C  C146  1  0.050400  0.717100  0.652300  1.0  0.7672
  C  C147  1  0.829700  0.852500  0.297000  1.0  0.0141
  C  C148  1  0.768800  0.930200  0.281400  1.0  -0.1446
  C  C149  1  0.837700  0.712200  0.449800  1.0  0.6276
  C  C150  1  0.041800  0.700800  0.595400  1.0  -0.1735
  C  C151  1  0.884800  0.641300  0.577400  1.0  -0.1499
  C  C152  1  0.049300  0.782400  0.568100  1.0  -0.1533
  C  C153  1  0.049900  0.770300  0.511600  1.0  0.0385
  C  C154  1  0.890300  0.629200  0.522100  1.0  0.0302
  C  C155  1  0.077800  0.369400  0.214900  1.0  0.7539
  C  C156  1  0.339900  0.084000  0.215800  1.0  0.7664
  C  C157  1  0.018300  0.435600  0.187400  1.0  -0.1757
  C  C158  1  0.063900  0.517500  0.212600  1.0  -0.1539
  C  C159  1  0.007100  0.584600  0.181600  1.0  0.0233
  C  C160  1  0.028600  0.510300  0.105000  1.0  0.0234
  C  C161  1  0.085200  0.441500  0.133400  1.0  -0.1447
  C  C162  1  0.177400  0.654000  0.112300  1.0  0.633
  C  C163  1  0.390000  0.007900  0.201400  1.0  -0.17
  C  C164  1  0.419200  0.003100  0.144200  1.0  -0.1658
  C  C165  1  0.483100  0.923700  0.130400  1.0  0.0283
  C  C166  1  0.323600  0.781100  0.121500  1.0  0.6246
  C  C167  1  0.550400  0.717100  0.847700  1.0  0.7691
  C  C168  1  0.329700  0.852500  0.203000  1.0  0.0151
  C  C169  1  0.268800  0.930200  0.218600  1.0  -0.1442
  C  C170  1  0.337700  0.712200  0.050200  1.0  0.6274
  C  C171  1  0.541800  0.700800  0.904600  1.0  -0.1738
  C  C172  1  0.384800  0.641300  0.922600  1.0  -0.1489
  C  C173  1  0.549300  0.782400  0.931900  1.0  -0.1521
  C  C174  1  0.549900  0.770300  0.988400  1.0  0.0384
  C  C175  1  0.390300  0.629200  0.977900  1.0  0.0312
  C  C176  1  0.422200  0.630600  0.714900  1.0  0.7492
  C  C177  1  0.160100  0.916000  0.715800  1.0  0.7643
  C  C178  1  0.481700  0.564400  0.687400  1.0  -0.1768
  C  C179  1  0.436100  0.482500  0.712600  1.0  -0.1546
  C  C180  1  0.492900  0.415400  0.681600  1.0  0.0235
  C  C181  1  0.471400  0.489700  0.605000  1.0  0.0223
  C  C182  1  0.414800  0.558500  0.633400  1.0  -0.144
  C  C183  1  0.322600  0.346000  0.612300  1.0  0.6317
  C  C184  1  0.110000  0.992100  0.701400  1.0  -0.1699
  C  C185  1  0.080800  0.996900  0.644200  1.0  -0.1646
  C  C186  1  0.016900  0.076300  0.630400  1.0  0.0268
  C  C187  1  0.176400  0.218900  0.621500  1.0  0.625
  C  C188  1  0.949600  0.282900  0.347700  1.0  0.7701
  C  C189  1  0.170300  0.147500  0.703000  1.0  0.0161
  C  C190  1  0.231200  0.069800  0.718600  1.0  -0.1439
  C  C191  1  0.162300  0.287800  0.550200  1.0  0.6275
  C  C192  1  0.958200  0.299200  0.404600  1.0  -0.1737
  C  C193  1  0.115200  0.358700  0.422600  1.0  -0.1483
  C  C194  1  0.950700  0.217600  0.431900  1.0  -0.1492
  C  C195  1  0.950100  0.229700  0.488400  1.0  0.0376
  C  C196  1  0.109700  0.370800  0.477900  1.0  0.0305
  N  N197  1  0.925600  0.413000  0.868400  1.0  -0.217
  N  N198  1  0.781300  0.282400  0.857400  1.0  -0.6934
  N  N199  1  0.767900  0.352800  0.933500  1.0  -0.6815
  N  N200  1  0.633200  0.148700  0.850500  1.0  -0.237
  N  N201  1  0.610900  0.217500  0.923900  1.0  -0.6946
  N  N202  1  0.592300  0.291900  0.996600  1.0  -0.2507
  N  N203  1  0.574400  0.587000  0.368400  1.0  -0.2156
  N  N204  1  0.718700  0.717600  0.357400  1.0  -0.6937
  N  N205  1  0.732100  0.647200  0.433500  1.0  -0.6816
  N  N206  1  0.866800  0.851300  0.350500  1.0  -0.2374
  N  N207  1  0.889100  0.782500  0.423900  1.0  -0.6929
  N  N208  1  0.907700  0.708100  0.496600  1.0  -0.2509
  N  N209  1  0.074400  0.587000  0.131600  1.0  -0.2131
  N  N210  1  0.218700  0.717600  0.142600  1.0  -0.6939
  N  N211  1  0.232100  0.647200  0.066500  1.0  -0.6809
  N  N212  1  0.366800  0.851300  0.149500  1.0  -0.2362
  N  N213  1  0.389100  0.782500  0.076100  1.0  -0.6932
  N  N214  1  0.407700  0.708100  0.003400  1.0  -0.2517
  N  N215  1  0.425600  0.413000  0.631600  1.0  -0.2157
  N  N216  1  0.281300  0.282400  0.642600  1.0  -0.6933
  N  N217  1  0.267900  0.352800  0.566500  1.0  -0.6804
  N  N218  1  0.133200  0.148700  0.649500  1.0  -0.2353
  N  N219  1  0.110900  0.217500  0.576100  1.0  -0.6953
  N  N220  1  0.092300  0.291900  0.503400  1.0  -0.2513
  O  O221  1  0.779000  0.619100  0.765000  1.0  -0.6347
  O  O222  1  0.012700  0.704600  0.784500  1.0  -0.8877
  O  O223  1  0.810500  0.909700  0.787700  1.0  -0.6778
  O  O224  1  0.587200  0.291200  0.175500  1.0  -0.779
  O  O225  1  0.557500  0.855600  0.766300  1.0  -0.8777
  O  O226  1  0.309000  0.260000  0.170800  1.0  -0.7157
  O  O227  1  0.721000  0.380900  0.265000  1.0  -0.6359
  O  O228  1  0.487300  0.295400  0.284500  1.0  -0.8866
  O  O229  1  0.689500  0.090300  0.287700  1.0  -0.6784
  O  O230  1  0.912800  0.708800  0.675500  1.0  -0.7774
  O  O231  1  0.942500  0.144400  0.266300  1.0  -0.8802
  O  O232  1  0.191000  0.740000  0.670800  1.0  -0.7172
  O  O233  1  0.221000  0.380900  0.235000  1.0  -0.6359
  O  O234  1  0.987300  0.295400  0.215500  1.0  -0.8861
  O  O235  1  0.189500  0.090300  0.212300  1.0  -0.6777
  O  O236  1  0.412800  0.708800  0.824500  1.0  -0.7774
  O  O237  1  0.442500  0.144400  0.233700  1.0  -0.8796
  O  O238  1  0.691000  0.740000  0.829200  1.0  -0.7173
  O  O239  1  0.279000  0.619100  0.735000  1.0  -0.6348
  O  O240  1  0.512700  0.704600  0.715500  1.0  -0.8871
  O  O241  1  0.310500  0.909700  0.712300  1.0  -0.6783
  O  O242  1  0.087200  0.291200  0.324500  1.0  -0.7787
  O  O243  1  0.057500  0.855600  0.733700  1.0  -0.8769
  O  O244  1  0.809000  0.260000  0.329200  1.0  -0.7167
