# generated using pymatgen
data_EuH27C21(NO)6
_symmetry_space_group_name_H-M   'P 1'
_cell_length_a   8.07940000
_cell_length_b   16.60420000
_cell_length_c   26.80030000
_cell_angle_alpha   90.00000000
_cell_angle_beta   90.00000000
_cell_angle_gamma   101.19100000
_symmetry_Int_Tables_number   1
_chemical_formula_structural   EuH27C21(NO)6
_chemical_formula_sum   'Eu4 H108 C84 N24 O24'
_cell_volume   3526.95060516
_cell_formula_units_Z   4
loop_
 _symmetry_equiv_pos_site_id
 _symmetry_equiv_pos_as_xyz
  1  'x, y, z'
loop_
 _atom_site_type_symbol
 _atom_site_label
 _atom_site_symmetry_multiplicity
 _atom_site_fract_x
 _atom_site_fract_y
 _atom_site_fract_z
 _atom_site_occupancy
 _atom_site_charge
  Eu  Eu1  1  0.785000  0.772660  0.255670  1.0  2.1546
  Eu  Eu2  1  0.715000  0.227340  0.755670  1.0  2.1549
  Eu  Eu3  1  0.215000  0.227340  0.744330  1.0  2.1541
  Eu  Eu4  1  0.285000  0.772660  0.244330  1.0  2.1533
  H  H5  1  0.640000  0.684000  0.088000  1.0  0.0834
  H  H6  1  0.640800  0.824700  0.079500  1.0  0.076
  H  H7  1  0.442800  0.806700  0.078100  1.0  0.0747
  H  H8  1  0.651700  0.757400  0.003900  1.0  0.0622
  H  H9  1  0.539900  0.824000  0.996600  1.0  0.0743
  H  H10  1  0.289900  0.593200  0.012400  1.0  0.0778
  H  H11  1  0.487400  0.605900  0.014600  1.0  0.0612
  H  H12  1  0.283300  0.660000  0.088400  1.0  0.0675
  H  H13  1  0.385000  0.589300  0.095800  1.0  0.0727
  H  H14  1  0.093200  0.511100  0.926900  1.0  0.0739
  H  H15  1  0.917400  0.492300  0.899800  1.0  0.0656
  H  H16  1  0.215300  0.447700  0.864000  1.0  0.0776
  H  H17  1  0.055700  0.385900  0.883100  1.0  0.0773
  H  H18  1  0.189000  0.526500  0.781900  1.0  0.0682
  H  H19  1  0.014200  0.509900  0.754400  1.0  0.0813
  H  H20  1  0.890400  0.570600  0.819200  1.0  0.0697
  H  H21  1  0.050900  0.633200  0.801300  1.0  0.0798
  H  H22  1  0.898000  0.416000  0.815100  1.0  0.0828
  H  H23  1  0.427700  0.846100  0.781000  1.0  0.068
  H  H24  1  0.238700  0.804300  0.790200  1.0  0.0764
  H  H25  1  0.261200  0.930000  0.746800  1.0  0.0768
  H  H26  1  0.159800  0.930000  0.796700  1.0  0.0731
  H  H27  1  0.309700  0.003600  0.873000  1.0  0.0789
  H  H28  1  0.498700  0.048200  0.867600  1.0  0.0767
  H  H29  1  0.478100  0.920200  0.907200  1.0  0.0758
  H  H30  1  0.584500  0.924300  0.858000  1.0  0.0688
  H  H31  1  0.502000  0.006000  0.784100  1.0  0.0822
  H  H32  1  0.860000  0.316000  0.588000  1.0  0.0823
  H  H33  1  0.859200  0.175300  0.579500  1.0  0.0769
  H  H34  1  0.057200  0.193300  0.578100  1.0  0.0754
  H  H35  1  0.848300  0.242600  0.503900  1.0  0.0673
  H  H36  1  0.960100  0.176000  0.496600  1.0  0.0733
  H  H37  1  0.210100  0.406800  0.512400  1.0  0.0787
  H  H38  1  0.012600  0.394100  0.514600  1.0  0.0613
  H  H39  1  0.216700  0.340000  0.588400  1.0  0.0664
  H  H40  1  0.115000  0.410700  0.595800  1.0  0.0719
  H  H41  1  0.406800  0.488900  0.426900  1.0  0.0727
  H  H42  1  0.582600  0.507700  0.399800  1.0  0.0638
  H  H43  1  0.284700  0.552300  0.364000  1.0  0.0772
  H  H44  1  0.444300  0.614100  0.383100  1.0  0.0755
  H  H45  1  0.311000  0.473500  0.281900  1.0  0.0698
  H  H46  1  0.485800  0.490100  0.254400  1.0  0.081
  H  H47  1  0.609600  0.429400  0.319200  1.0  0.0671
  H  H48  1  0.449100  0.366800  0.301300  1.0  0.0786
  H  H49  1  0.602000  0.584000  0.315100  1.0  0.0823
  H  H50  1  0.072300  0.153900  0.281000  1.0  0.0685
  H  H51  1  0.261300  0.195700  0.290200  1.0  0.0759
  H  H52  1  0.238800  0.070000  0.246800  1.0  0.0771
  H  H53  1  0.340200  0.070000  0.296700  1.0  0.0742
  H  H54  1  0.190300  0.996400  0.373000  1.0  0.0771
  H  H55  1  0.001300  0.951800  0.367600  1.0  0.0775
  H  H56  1  0.021900  0.079800  0.407200  1.0  0.0763
  H  H57  1  0.915500  0.075700  0.358000  1.0  0.0716
  H  H58  1  0.998000  0.994000  0.284100  1.0  0.0807
  H  H59  1  0.360000  0.316000  0.912000  1.0  0.0825
  H  H60  1  0.359200  0.175300  0.920500  1.0  0.0766
  H  H61  1  0.557200  0.193300  0.921900  1.0  0.0752
  H  H62  1  0.348300  0.242600  0.996100  1.0  0.0675
  H  H63  1  0.460100  0.176000  0.003400  1.0  0.0733
  H  H64  1  0.710100  0.406800  0.987600  1.0  0.0789
  H  H65  1  0.512600  0.394100  0.985400  1.0  0.0604
  H  H66  1  0.716700  0.340000  0.911600  1.0  0.0655
  H  H67  1  0.615000  0.410700  0.904200  1.0  0.0727
  H  H68  1  0.906800  0.488900  0.073100  1.0  0.0739
  H  H69  1  0.082600  0.507700  0.100200  1.0  0.0645
  H  H70  1  0.784700  0.552300  0.136000  1.0  0.0775
  H  H71  1  0.944300  0.614100  0.116900  1.0  0.0771
  H  H72  1  0.811000  0.473500  0.218100  1.0  0.0694
  H  H73  1  0.985800  0.490100  0.245600  1.0  0.0806
  H  H74  1  0.109600  0.429400  0.180800  1.0  0.0671
  H  H75  1  0.949100  0.366800  0.198700  1.0  0.0788
  H  H76  1  0.102000  0.584000  0.184900  1.0  0.0824
  H  H77  1  0.572300  0.153900  0.219000  1.0  0.0672
  H  H78  1  0.761300  0.195700  0.209800  1.0  0.0764
  H  H79  1  0.738800  0.070000  0.253200  1.0  0.0764
  H  H80  1  0.840200  0.070000  0.203300  1.0  0.0743
  H  H81  1  0.690300  0.996400  0.127000  1.0  0.0788
  H  H82  1  0.501300  0.951800  0.132400  1.0  0.0765
  H  H83  1  0.521900  0.079800  0.092800  1.0  0.0758
  H  H84  1  0.415500  0.075700  0.142000  1.0  0.0716
  H  H85  1  0.498000  0.994000  0.215900  1.0  0.081
  H  H86  1  0.140000  0.684000  0.412000  1.0  0.0833
  H  H87  1  0.140800  0.824700  0.420500  1.0  0.076
  H  H88  1  0.942800  0.806700  0.421900  1.0  0.0748
  H  H89  1  0.151700  0.757400  0.496100  1.0  0.06
  H  H90  1  0.039900  0.824000  0.503400  1.0  0.0735
  H  H91  1  0.789900  0.593200  0.487600  1.0  0.0786
  H  H92  1  0.987400  0.605900  0.485400  1.0  0.0609
  H  H93  1  0.783300  0.660000  0.411600  1.0  0.0674
  H  H94  1  0.885000  0.589300  0.404200  1.0  0.0723
  H  H95  1  0.593200  0.511100  0.573100  1.0  0.0743
  H  H96  1  0.417400  0.492300  0.600200  1.0  0.067
  H  H97  1  0.715300  0.447700  0.636000  1.0  0.0778
  H  H98  1  0.555700  0.385900  0.616900  1.0  0.0766
  H  H99  1  0.689000  0.526500  0.718100  1.0  0.0683
  H  H100  1  0.514200  0.509900  0.745600  1.0  0.0801
  H  H101  1  0.390400  0.570600  0.680800  1.0  0.0694
  H  H102  1  0.550900  0.633200  0.698700  1.0  0.0791
  H  H103  1  0.398000  0.416000  0.684900  1.0  0.0827
  H  H104  1  0.927700  0.846100  0.719000  1.0  0.0671
  H  H105  1  0.738700  0.804300  0.709800  1.0  0.0777
  H  H106  1  0.761200  0.930000  0.753200  1.0  0.0766
  H  H107  1  0.659800  0.930000  0.703300  1.0  0.0734
  H  H108  1  0.809700  0.003600  0.627000  1.0  0.0781
  H  H109  1  0.998700  0.048200  0.632400  1.0  0.0769
  H  H110  1  0.978100  0.920200  0.592800  1.0  0.0763
  H  H111  1  0.084500  0.924300  0.642000  1.0  0.0696
  H  H112  1  0.002000  0.006000  0.715900  1.0  0.0824
  C  C113  1  0.542900  0.719800  0.153010  1.0  0.7218
  C  C114  1  0.538500  0.704100  0.097040  1.0  -0.1773
  C  C115  1  0.542000  0.785000  0.069300  1.0  -0.1553
  C  C116  1  0.546200  0.772900  0.013290  1.0  0.0336
  C  C117  1  0.391400  0.630300  0.023210  1.0  0.0172
  C  C118  1  0.386000  0.641500  0.079380  1.0  -0.1543
  C  C119  1  0.340500  0.711900  0.950340  1.0  0.6542
  C  C120  1  0.318900  0.781200  0.879340  1.0  0.6154
  C  C121  1  0.181700  0.650600  0.887000  1.0  0.5788
  C  C122  1  0.038400  0.505600  0.894500  1.0  0.0273
  C  C123  1  0.093100  0.437500  0.865680  1.0  -0.1384
  C  C124  1  0.067900  0.513100  0.786880  1.0  -0.1463
  C  C125  1  0.012600  0.580500  0.817410  1.0  0.0169
  C  C126  1  0.337700  0.083500  0.784400  1.0  0.7357
  C  C127  1  0.021300  0.430500  0.812830  1.0  -0.1798
  C  C128  1  0.325700  0.851200  0.798800  1.0  0.0147
  C  C129  1  0.270500  0.929400  0.782890  1.0  -0.1505
  C  C130  1  0.415600  0.001300  0.856560  1.0  -0.1534
  C  C131  1  0.472300  0.923400  0.871150  1.0  0.0458
  C  C132  1  0.392500  0.005900  0.799800  1.0  -0.1702
  C  C133  1  0.082900  0.363800  0.784940  1.0  0.7281
  C  C134  1  0.957100  0.280200  0.653010  1.0  0.723
  C  C135  1  0.961500  0.295900  0.597040  1.0  -0.177
  C  C136  1  0.958000  0.215000  0.569300  1.0  -0.1518
  C  C137  1  0.953800  0.227100  0.513290  1.0  0.0333
  C  C138  1  0.108600  0.369700  0.523210  1.0  0.0173
  C  C139  1  0.114000  0.358500  0.579380  1.0  -0.1541
  C  C140  1  0.159500  0.288100  0.450340  1.0  0.6546
  C  C141  1  0.181100  0.218800  0.379340  1.0  0.6157
  C  C142  1  0.318300  0.349400  0.387000  1.0  0.578
  C  C143  1  0.461600  0.494400  0.394500  1.0  0.0281
  C  C144  1  0.406900  0.562500  0.365680  1.0  -0.14
  C  C145  1  0.432100  0.486900  0.286880  1.0  -0.1448
  C  C146  1  0.487400  0.419500  0.317410  1.0  0.0177
  C  C147  1  0.162300  0.916500  0.284400  1.0  0.7356
  C  C148  1  0.478700  0.569500  0.312830  1.0  -0.1791
  C  C149  1  0.174300  0.148800  0.298800  1.0  0.0155
  C  C150  1  0.229500  0.070600  0.282890  1.0  -0.15
  C  C151  1  0.084400  0.998700  0.356560  1.0  -0.1522
  C  C152  1  0.027700  0.076600  0.371150  1.0  0.0451
  C  C153  1  0.107500  0.994100  0.299800  1.0  -0.1703
  C  C154  1  0.417100  0.636200  0.284940  1.0  0.7252
  C  C155  1  0.457100  0.280200  0.846990  1.0  0.7227
  C  C156  1  0.461500  0.295900  0.902960  1.0  -0.1775
  C  C157  1  0.458000  0.215000  0.930700  1.0  -0.1512
  C  C158  1  0.453800  0.227100  0.986710  1.0  0.0327
  C  C159  1  0.608600  0.369700  0.976790  1.0  0.0171
  C  C160  1  0.614000  0.358500  0.920620  1.0  -0.1532
  C  C161  1  0.659500  0.288100  0.049660  1.0  0.6544
  C  C162  1  0.681100  0.218800  0.120660  1.0  0.6163
  C  C163  1  0.818300  0.349400  0.113000  1.0  0.578
  C  C164  1  0.961600  0.494400  0.105500  1.0  0.027
  C  C165  1  0.906900  0.562500  0.134320  1.0  -0.1391
  C  C166  1  0.932100  0.486900  0.213120  1.0  -0.1476
  C  C167  1  0.987400  0.419500  0.182590  1.0  0.0179
  C  C168  1  0.662300  0.916500  0.215600  1.0  0.7353
  C  C169  1  0.978700  0.569500  0.187170  1.0  -0.1795
  C  C170  1  0.674300  0.148800  0.201200  1.0  0.0162
  C  C171  1  0.729500  0.070600  0.217110  1.0  -0.1499
  C  C172  1  0.584400  0.998700  0.143440  1.0  -0.1528
  C  C173  1  0.527700  0.076600  0.128850  1.0  0.0449
  C  C174  1  0.607500  0.994100  0.200200  1.0  -0.1701
  C  C175  1  0.917100  0.636200  0.215060  1.0  0.7224
  C  C176  1  0.042900  0.719800  0.346990  1.0  0.7224
  C  C177  1  0.038500  0.704100  0.402960  1.0  -0.1777
  C  C178  1  0.042000  0.785000  0.430700  1.0  -0.1542
  C  C179  1  0.046200  0.772900  0.486710  1.0  0.0336
  C  C180  1  0.891400  0.630300  0.476790  1.0  0.0183
  C  C181  1  0.886000  0.641500  0.420620  1.0  -0.1531
  C  C182  1  0.840500  0.711900  0.549660  1.0  0.6537
  C  C183  1  0.818900  0.781200  0.620660  1.0  0.6157
  C  C184  1  0.681700  0.650600  0.613000  1.0  0.5789
  C  C185  1  0.538400  0.505600  0.605500  1.0  0.0287
  C  C186  1  0.593100  0.437500  0.634320  1.0  -0.1392
  C  C187  1  0.567900  0.513100  0.713120  1.0  -0.147
  C  C188  1  0.512600  0.580500  0.682590  1.0  0.0162
  C  C189  1  0.837700  0.083500  0.715600  1.0  0.7349
  C  C190  1  0.521300  0.430500  0.687170  1.0  -0.1797
  C  C191  1  0.825700  0.851200  0.701200  1.0  0.0152
  C  C192  1  0.770500  0.929400  0.717110  1.0  -0.1506
  C  C193  1  0.915600  0.001300  0.643440  1.0  -0.1522
  C  C194  1  0.972300  0.923400  0.628850  1.0  0.0457
  C  C195  1  0.892500  0.005900  0.700200  1.0  -0.1705
  C  C196  1  0.582900  0.363800  0.715060  1.0  0.7254
  N  N197  1  0.404800  0.709000  0.997410  1.0  -0.1923
  N  N198  1  0.386100  0.782600  0.925150  1.0  -0.5404
  N  N199  1  0.236500  0.644200  0.934110  1.0  -0.6898
  N  N200  1  0.217900  0.716800  0.857650  1.0  -0.6983
  N  N201  1  0.357300  0.851100  0.852280  1.0  -0.2071
  N  N202  1  0.082000  0.582700  0.867420  1.0  -0.2054
  N  N203  1  0.095200  0.291000  0.497410  1.0  -0.1918
  N  N204  1  0.113900  0.217400  0.425150  1.0  -0.5408
  N  N205  1  0.263500  0.355800  0.434110  1.0  -0.6897
  N  N206  1  0.282100  0.283200  0.357650  1.0  -0.6973
  N  N207  1  0.142700  0.148900  0.352280  1.0  -0.2062
  N  N208  1  0.418000  0.417300  0.367420  1.0  -0.2081
  N  N209  1  0.595200  0.291000  0.002590  1.0  -0.1923
  N  N210  1  0.613900  0.217400  0.074850  1.0  -0.5407
  N  N211  1  0.763500  0.355800  0.065890  1.0  -0.6893
  N  N212  1  0.782100  0.283200  0.142350  1.0  -0.699
  N  N213  1  0.642700  0.148900  0.147720  1.0  -0.2041
  N  N214  1  0.918000  0.417300  0.132580  1.0  -0.2073
  N  N215  1  0.904800  0.709000  0.502590  1.0  -0.1936
  N  N216  1  0.886100  0.782600  0.574850  1.0  -0.5393
  N  N217  1  0.736500  0.644200  0.565890  1.0  -0.6896
  N  N218  1  0.717900  0.716800  0.642350  1.0  -0.6996
  N  N219  1  0.857300  0.851100  0.647720  1.0  -0.2053
  N  N220  1  0.582000  0.582700  0.632580  1.0  -0.2033
  O  O221  1  0.688300  0.743200  0.171950  1.0  -0.7097
  O  O222  1  0.186500  0.089500  0.788040  1.0  -0.6687
  O  O223  1  0.442500  0.143550  0.766240  1.0  -0.8381
  O  O224  1  0.988900  0.291120  0.783980  1.0  -0.8235
  O  O225  1  0.224200  0.376080  0.765280  1.0  -0.6388
  O  O226  1  0.406500  0.713350  0.176050  1.0  -0.71
  O  O227  1  0.811700  0.256800  0.671950  1.0  -0.7091
  O  O228  1  0.313500  0.910500  0.288040  1.0  -0.6676
  O  O229  1  0.057500  0.856450  0.266240  1.0  -0.839
  O  O230  1  0.511100  0.708880  0.283980  1.0  -0.8254
  O  O231  1  0.275800  0.623920  0.265280  1.0  -0.6375
  O  O232  1  0.093500  0.286650  0.676050  1.0  -0.7099
  O  O233  1  0.311700  0.256800  0.828050  1.0  -0.7101
  O  O234  1  0.813500  0.910500  0.211960  1.0  -0.6678
  O  O235  1  0.557500  0.856450  0.233760  1.0  -0.8388
  O  O236  1  0.011100  0.708880  0.216020  1.0  -0.825
  O  O237  1  0.775800  0.623920  0.234720  1.0  -0.6375
  O  O238  1  0.593500  0.286650  0.823950  1.0  -0.7097
  O  O239  1  0.188300  0.743200  0.328050  1.0  -0.7099
  O  O240  1  0.686500  0.089500  0.711960  1.0  -0.6679
  O  O241  1  0.942500  0.143550  0.733760  1.0  -0.8384
  O  O242  1  0.488900  0.291120  0.716020  1.0  -0.8238
  O  O243  1  0.724200  0.376080  0.734720  1.0  -0.6387
  O  O244  1  0.906500  0.713350  0.323950  1.0  -0.7095
