# generated using pymatgen
data_PrH27C21(NO)6
_symmetry_space_group_name_H-M   'P 1'
_cell_length_a   8.24020000
_cell_length_b   16.57580000
_cell_length_c   26.69200000
_cell_angle_alpha   90.00000000
_cell_angle_beta   90.00000000
_cell_angle_gamma   100.84800000
_symmetry_Int_Tables_number   1
_chemical_formula_structural   PrH27C21(NO)6
_chemical_formula_sum   'Pr4 H108 C84 N24 O24'
_cell_volume   3580.65362260
_cell_formula_units_Z   4
loop_
 _symmetry_equiv_pos_site_id
 _symmetry_equiv_pos_as_xyz
  1  'x, y, z'
loop_
 _atom_site_type_symbol
 _atom_site_label
 _atom_site_symmetry_multiplicity
 _atom_site_fract_x
 _atom_site_fract_y
 _atom_site_fract_z
 _atom_site_occupancy
 _atom_site_charge
  Pr  Pr1  1  0.215130  0.731970  0.743850  1.0  2.2144
  Pr  Pr2  1  0.284870  0.268020  0.243850  1.0  2.2098
  Pr  Pr3  1  0.784870  0.268020  0.256150  1.0  2.2105
  Pr  Pr4  1  0.715130  0.731970  0.756150  1.0  2.21
  H  H5  1  0.501000  0.505000  0.780800  1.0  0.0898
  H  H6  1  0.258300  0.431600  0.745400  1.0  0.0836
  H  H7  1  0.165900  0.431800  0.796900  1.0  0.0819
  H  H8  1  0.427900  0.347900  0.777500  1.0  0.0617
  H  H9  1  0.244500  0.305700  0.788600  1.0  0.0853
  H  H10  1  0.496400  0.420500  0.904000  1.0  0.0813
  H  H11  1  0.592200  0.424300  0.852900  1.0  0.0592
  H  H12  1  0.321800  0.504100  0.871700  1.0  0.0893
  H  H13  1  0.505500  0.549600  0.864500  1.0  0.0814
  H  H14  1  0.886000  0.078100  0.818700  1.0  0.0619
  H  H15  1  0.044200  0.140700  0.802100  1.0  0.0843
  H  H16  1  0.009600  0.017800  0.754200  1.0  0.0911
  H  H17  1  0.180500  0.034500  0.782100  1.0  0.0809
  H  H18  1  0.896000  0.923000  0.814900  1.0  0.0977
  H  H19  1  0.202700  0.954000  0.866200  1.0  0.0896
  H  H20  1  0.045100  0.892300  0.884100  1.0  0.0883
  H  H21  1  0.075200  0.017800  0.928200  1.0  0.0822
  H  H22  1  0.906200  0.999200  0.899300  1.0  0.0572
  H  H23  1  0.287000  0.093700  0.010900  1.0  0.0833
  H  H24  1  0.479800  0.101600  0.012300  1.0  0.0598
  H  H25  1  0.290100  0.161200  0.087100  1.0  0.0802
  H  H26  1  0.381700  0.087000  0.093900  1.0  0.0832
  H  H27  1  0.651000  0.318200  0.078100  1.0  0.0865
  H  H28  1  0.457200  0.304900  0.077200  1.0  0.0772
  H  H29  1  0.653400  0.250100  0.001600  1.0  0.0631
  H  H30  1  0.551800  0.320500  0.994600  1.0  0.0834
  H  H31  1  0.639000  0.175000  0.085800  1.0  0.093
  H  H32  1  0.999000  0.495000  0.280800  1.0  0.0886
  H  H33  1  0.241700  0.568400  0.245400  1.0  0.0836
  H  H34  1  0.334100  0.568200  0.296900  1.0  0.0812
  H  H35  1  0.072100  0.652100  0.277500  1.0  0.0619
  H  H36  1  0.255500  0.694300  0.288600  1.0  0.084
  H  H37  1  0.003600  0.579500  0.404000  1.0  0.0825
  H  H38  1  0.907800  0.575700  0.352900  1.0  0.062
  H  H39  1  0.178200  0.495900  0.371700  1.0  0.0852
  H  H40  1  0.994500  0.450400  0.364500  1.0  0.0826
  H  H41  1  0.614000  0.921900  0.318700  1.0  0.0604
  H  H42  1  0.455800  0.859300  0.302100  1.0  0.0834
  H  H43  1  0.490400  0.982200  0.254200  1.0  0.0908
  H  H44  1  0.319500  0.965500  0.282100  1.0  0.0816
  H  H45  1  0.604000  0.077000  0.314900  1.0  0.0971
  H  H46  1  0.297300  0.046000  0.366200  1.0  0.089
  H  H47  1  0.454900  0.107700  0.384100  1.0  0.0864
  H  H48  1  0.424800  0.982200  0.428200  1.0  0.0815
  H  H49  1  0.593800  0.000800  0.399300  1.0  0.0561
  H  H50  1  0.213000  0.906300  0.510900  1.0  0.084
  H  H51  1  0.020200  0.898400  0.512300  1.0  0.0571
  H  H52  1  0.209900  0.838800  0.587100  1.0  0.0795
  H  H53  1  0.118300  0.913000  0.593900  1.0  0.0832
  H  H54  1  0.849000  0.681800  0.578100  1.0  0.088
  H  H55  1  0.042800  0.695100  0.577200  1.0  0.078
  H  H56  1  0.846600  0.749900  0.501600  1.0  0.0708
  H  H57  1  0.948200  0.679500  0.494600  1.0  0.0819
  H  H58  1  0.861000  0.825000  0.585800  1.0  0.0923
  H  H59  1  0.499000  0.495000  0.219200  1.0  0.089
  H  H60  1  0.741700  0.568400  0.254600  1.0  0.082
  H  H61  1  0.834100  0.568200  0.203100  1.0  0.082
  H  H62  1  0.572100  0.652100  0.222500  1.0  0.0603
  H  H63  1  0.755500  0.694300  0.211400  1.0  0.0841
  H  H64  1  0.503600  0.579500  0.096000  1.0  0.0822
  H  H65  1  0.407800  0.575700  0.147100  1.0  0.0606
  H  H66  1  0.678200  0.495900  0.128300  1.0  0.087
  H  H67  1  0.494500  0.450400  0.135500  1.0  0.0816
  H  H68  1  0.114000  0.921900  0.181300  1.0  0.0606
  H  H69  1  0.955800  0.859300  0.197900  1.0  0.0836
  H  H70  1  0.990400  0.982200  0.245800  1.0  0.0901
  H  H71  1  0.819500  0.965500  0.217900  1.0  0.0815
  H  H72  1  0.104000  0.077000  0.185100  1.0  0.097
  H  H73  1  0.797300  0.046000  0.133800  1.0  0.0895
  H  H74  1  0.954900  0.107700  0.115900  1.0  0.0873
  H  H75  1  0.924800  0.982200  0.071800  1.0  0.0819
  H  H76  1  0.093800  0.000800  0.100700  1.0  0.0562
  H  H77  1  0.713000  0.906300  0.989100  1.0  0.0838
  H  H78  1  0.520200  0.898400  0.987700  1.0  0.056
  H  H79  1  0.709900  0.838800  0.912900  1.0  0.0789
  H  H80  1  0.618300  0.913000  0.906100  1.0  0.0821
  H  H81  1  0.349000  0.681800  0.921900  1.0  0.0881
  H  H82  1  0.542800  0.695100  0.922800  1.0  0.0778
  H  H83  1  0.346600  0.749900  0.998400  1.0  0.071
  H  H84  1  0.448200  0.679500  0.005400  1.0  0.082
  H  H85  1  0.361000  0.825000  0.914200  1.0  0.0921
  H  H86  1  0.001000  0.505000  0.719200  1.0  0.0901
  H  H87  1  0.758300  0.431600  0.754600  1.0  0.082
  H  H88  1  0.665900  0.431800  0.703100  1.0  0.0822
  H  H89  1  0.927900  0.347900  0.722500  1.0  0.0611
  H  H90  1  0.744500  0.305700  0.711400  1.0  0.0862
  H  H91  1  0.996400  0.420500  0.596000  1.0  0.0821
  H  H92  1  0.092200  0.424300  0.647100  1.0  0.0613
  H  H93  1  0.821800  0.504100  0.628300  1.0  0.0892
  H  H94  1  0.005500  0.549600  0.635500  1.0  0.0817
  H  H95  1  0.386000  0.078100  0.681300  1.0  0.0617
  H  H96  1  0.544200  0.140700  0.697900  1.0  0.0837
  H  H97  1  0.509600  0.017800  0.745800  1.0  0.0896
  H  H98  1  0.680500  0.034500  0.717900  1.0  0.0807
  H  H99  1  0.396000  0.923000  0.685100  1.0  0.0973
  H  H100  1  0.702700  0.954000  0.633800  1.0  0.09
  H  H101  1  0.545100  0.892300  0.615900  1.0  0.0876
  H  H102  1  0.575200  0.017800  0.571800  1.0  0.0821
  H  H103  1  0.406200  0.999200  0.600700  1.0  0.0575
  H  H104  1  0.787000  0.093700  0.489100  1.0  0.0834
  H  H105  1  0.979800  0.101600  0.487700  1.0  0.0597
  H  H106  1  0.790100  0.161200  0.412900  1.0  0.0804
  H  H107  1  0.881700  0.087000  0.406100  1.0  0.0811
  H  H108  1  0.151000  0.318200  0.421900  1.0  0.0869
  H  H109  1  0.957200  0.304900  0.422800  1.0  0.0771
  H  H110  1  0.153400  0.250100  0.498400  1.0  0.0611
  H  H111  1  0.051800  0.320500  0.505400  1.0  0.0826
  H  H112  1  0.139000  0.175000  0.414200  1.0  0.0928
  C  C113  1  0.396300  0.506200  0.797730  1.0  -0.1739
  C  C114  1  0.272200  0.430700  0.781500  1.0  -0.1567
  C  C115  1  0.329900  0.352700  0.796540  1.0  0.0293
  C  C116  1  0.484800  0.423700  0.867900  1.0  0.0321
  C  C117  1  0.424300  0.502400  0.854150  1.0  -0.1597
  C  C118  1  0.324200  0.282800  0.878000  1.0  0.6295
  C  C119  1  0.176300  0.154800  0.887250  1.0  0.6241
  C  C120  1  0.340900  0.212400  0.949230  1.0  0.639
  C  C121  1  0.339500  0.585500  0.783560  1.0  0.742
  C  C122  1  0.005800  0.087700  0.817810  1.0  0.0291
  C  C123  1  0.061900  0.020900  0.786910  1.0  -0.149
  C  C124  1  0.016500  0.937700  0.813300  1.0  -0.1792
  C  C125  1  0.082900  0.943900  0.866890  1.0  -0.1523
  C  C126  1  0.025200  0.012500  0.895130  1.0  0.0273
  C  C127  1  0.389300  0.128600  0.021430  1.0  0.0302
  C  C128  1  0.387400  0.139800  0.077590  1.0  -0.1529
  C  C129  1  0.551400  0.280800  0.067960  1.0  -0.1601
  C  C130  1  0.553100  0.268600  0.011260  1.0  0.0299
  C  C131  1  0.547100  0.215600  0.151470  1.0  0.7522
  C  C132  1  0.079300  0.871000  0.785620  1.0  0.7545
  C  C133  1  0.541400  0.198500  0.095000  1.0  -0.1688
  C  C134  1  0.103700  0.493800  0.297730  1.0  -0.1748
  C  C135  1  0.227800  0.569300  0.281500  1.0  -0.1563
  C  C136  1  0.170100  0.647300  0.296540  1.0  0.0299
  C  C137  1  0.015200  0.576300  0.367900  1.0  0.0325
  C  C138  1  0.075700  0.497600  0.354150  1.0  -0.1573
  C  C139  1  0.175800  0.717200  0.378000  1.0  0.6298
  C  C140  1  0.323700  0.845200  0.387250  1.0  0.6237
  C  C141  1  0.159100  0.787600  0.449230  1.0  0.639
  C  C142  1  0.160500  0.414500  0.283560  1.0  0.7394
  C  C143  1  0.494200  0.912300  0.317810  1.0  0.029
  C  C144  1  0.438100  0.979100  0.286910  1.0  -0.1478
  C  C145  1  0.483500  0.062300  0.313300  1.0  -0.1788
  C  C146  1  0.417100  0.056100  0.366890  1.0  -0.1537
  C  C147  1  0.474800  0.987500  0.395130  1.0  0.029
  C  C148  1  0.110700  0.871400  0.521430  1.0  0.0296
  C  C149  1  0.112600  0.860200  0.577590  1.0  -0.1529
  C  C150  1  0.948600  0.719200  0.567960  1.0  -0.1572
  C  C151  1  0.946900  0.731400  0.511260  1.0  0.0291
  C  C152  1  0.952900  0.784400  0.651470  1.0  0.7539
  C  C153  1  0.420700  0.129000  0.285620  1.0  0.7506
  C  C154  1  0.958600  0.801500  0.595000  1.0  -0.1694
  C  C155  1  0.603700  0.493800  0.202270  1.0  -0.1741
  C  C156  1  0.727800  0.569300  0.218500  1.0  -0.1558
  C  C157  1  0.670100  0.647300  0.203460  1.0  0.0302
  C  C158  1  0.515200  0.576300  0.132100  1.0  0.0323
  C  C159  1  0.575700  0.497600  0.145850  1.0  -0.1581
  C  C160  1  0.675800  0.717200  0.122000  1.0  0.6295
  C  C161  1  0.823700  0.845200  0.112750  1.0  0.624
  C  C162  1  0.659100  0.787600  0.050770  1.0  0.6389
  C  C163  1  0.660500  0.414500  0.216440  1.0  0.739
  C  C164  1  0.994200  0.912300  0.182190  1.0  0.0292
  C  C165  1  0.938100  0.979100  0.213090  1.0  -0.1515
  C  C166  1  0.983500  0.062300  0.186700  1.0  -0.1793
  C  C167  1  0.917100  0.056100  0.133110  1.0  -0.1529
  C  C168  1  0.974800  0.987500  0.104870  1.0  0.0274
  C  C169  1  0.610700  0.871400  0.978570  1.0  0.0292
  C  C170  1  0.612600  0.860200  0.922410  1.0  -0.151
  C  C171  1  0.448600  0.719200  0.932040  1.0  -0.1566
  C  C172  1  0.446900  0.731400  0.988740  1.0  0.0283
  C  C173  1  0.452900  0.784400  0.848530  1.0  0.757
  C  C174  1  0.920700  0.129000  0.214380  1.0  0.7472
  C  C175  1  0.458600  0.801500  0.905000  1.0  -0.1699
  C  C176  1  0.896300  0.506200  0.702270  1.0  -0.1735
  C  C177  1  0.772200  0.430700  0.718500  1.0  -0.1565
  C  C178  1  0.829900  0.352700  0.703460  1.0  0.0295
  C  C179  1  0.984800  0.423700  0.632100  1.0  0.0324
  C  C180  1  0.924300  0.502400  0.645850  1.0  -0.1585
  C  C181  1  0.824200  0.282800  0.622000  1.0  0.6293
  C  C182  1  0.676300  0.154800  0.612750  1.0  0.6246
  C  C183  1  0.840900  0.212400  0.550770  1.0  0.639
  C  C184  1  0.839500  0.585500  0.716440  1.0  0.7407
  C  C185  1  0.505800  0.087700  0.682190  1.0  0.0287
  C  C186  1  0.561900  0.020900  0.713090  1.0  -0.151
  C  C187  1  0.516500  0.937700  0.686700  1.0  -0.1794
  C  C188  1  0.582900  0.943900  0.633110  1.0  -0.1535
  C  C189  1  0.525200  0.012500  0.604870  1.0  0.0287
  C  C190  1  0.889300  0.128600  0.478570  1.0  0.0313
  C  C191  1  0.887400  0.139800  0.422410  1.0  -0.1513
  C  C192  1  0.051400  0.280800  0.432040  1.0  -0.1588
  C  C193  1  0.053100  0.268600  0.488740  1.0  0.03
  C  C194  1  0.047100  0.215600  0.348530  1.0  0.7563
  C  C195  1  0.579300  0.871000  0.714380  1.0  0.7516
  C  C196  1  0.041400  0.198500  0.405000  1.0  -0.1695
  N  N197  1  0.367300  0.352000  0.850030  1.0  -0.2229
  N  N198  1  0.218300  0.220300  0.856870  1.0  -0.6914
  N  N199  1  0.391000  0.282800  0.923380  1.0  -0.697
  N  N200  1  0.231500  0.147500  0.933870  1.0  -0.6948
  N  N201  1  0.069300  0.089300  0.868610  1.0  -0.2024
  N  N202  1  0.408400  0.207800  0.995640  1.0  -0.244
  N  N203  1  0.132700  0.648000  0.350030  1.0  -0.2222
  N  N204  1  0.281700  0.779700  0.356870  1.0  -0.6899
  N  N205  1  0.109000  0.717200  0.423380  1.0  -0.6988
  N  N206  1  0.268500  0.852500  0.433870  1.0  -0.6951
  N  N207  1  0.430700  0.910700  0.368610  1.0  -0.2053
  N  N208  1  0.091600  0.792200  0.495640  1.0  -0.2444
  N  N209  1  0.632700  0.648000  0.149970  1.0  -0.2207
  N  N210  1  0.781700  0.779700  0.143130  1.0  -0.6909
  N  N211  1  0.609000  0.717200  0.076620  1.0  -0.6999
  N  N212  1  0.768500  0.852500  0.066130  1.0  -0.694
  N  N213  1  0.930700  0.910700  0.131390  1.0  -0.2039
  N  N214  1  0.591600  0.792200  0.004360  1.0  -0.2447
  N  N215  1  0.867300  0.352000  0.649970  1.0  -0.2222
  N  N216  1  0.718300  0.220300  0.643130  1.0  -0.6923
  N  N217  1  0.891000  0.282800  0.576620  1.0  -0.6974
  N  N218  1  0.731500  0.147500  0.566130  1.0  -0.694
  N  N219  1  0.569300  0.089300  0.631390  1.0  -0.2002
  N  N220  1  0.908400  0.207800  0.504360  1.0  -0.2449
  O  O221  1  0.442800  0.645600  0.766590  1.0  -0.8626
  O  O222  1  0.190800  0.591200  0.787530  1.0  -0.6569
  O  O223  1  0.987800  0.798400  0.784720  1.0  -0.8738
  O  O224  1  0.414100  0.208300  0.174940  1.0  -0.7396
  O  O225  1  0.218300  0.883500  0.765950  1.0  -0.6251
  O  O226  1  0.690400  0.238900  0.169970  1.0  -0.7205
  O  O227  1  0.057200  0.354400  0.266590  1.0  -0.862
  O  O228  1  0.309200  0.408800  0.287530  1.0  -0.6554
  O  O229  1  0.512200  0.201600  0.284720  1.0  -0.8747
  O  O230  1  0.085900  0.791700  0.674940  1.0  -0.7407
  O  O231  1  0.281700  0.116500  0.265950  1.0  -0.6246
  O  O232  1  0.809600  0.761100  0.669970  1.0  -0.7194
  O  O233  1  0.557200  0.354400  0.233410  1.0  -0.8612
  O  O234  1  0.809200  0.408800  0.212470  1.0  -0.656
  O  O235  1  0.012200  0.201600  0.215280  1.0  -0.8748
  O  O236  1  0.585900  0.791700  0.825060  1.0  -0.7405
  O  O237  1  0.781700  0.116500  0.234050  1.0  -0.6242
  O  O238  1  0.309600  0.761100  0.830030  1.0  -0.7203
  O  O239  1  0.942800  0.645600  0.733410  1.0  -0.8617
  O  O240  1  0.690800  0.591200  0.712470  1.0  -0.6564
  O  O241  1  0.487800  0.798400  0.715280  1.0  -0.8739
  O  O242  1  0.914100  0.208300  0.325060  1.0  -0.7385
  O  O243  1  0.718300  0.883500  0.734050  1.0  -0.6243
  O  O244  1  0.190400  0.238900  0.330030  1.0  -0.7204
