# generated using pymatgen
data_CoH16C24(NO2)2
_symmetry_space_group_name_H-M   'P 1'
_cell_length_a   12.73150000
_cell_length_b   22.61400000
_cell_length_c   22.61400000
_cell_angle_alpha   90.00000000
_cell_angle_beta   90.00000000
_cell_angle_gamma   90.00000000
_symmetry_Int_Tables_number   1
_chemical_formula_structural   CoH16C24(NO2)2
_chemical_formula_sum   'Co8 H128 C192 N16 O32'
_cell_volume   6510.79992857
_cell_formula_units_Z   8
loop_
 _symmetry_equiv_pos_site_id
 _symmetry_equiv_pos_as_xyz
  1  'x, y, z'
loop_
 _atom_site_type_symbol
 _atom_site_label
 _atom_site_symmetry_multiplicity
 _atom_site_fract_x
 _atom_site_fract_y
 _atom_site_fract_z
 _atom_site_occupancy
 _atom_site_charge
  Co  Co1  1  0.252490  0.738270  0.256240  1.0  0.6779
  Co  Co2  1  0.252490  0.261730  0.743760  1.0  0.6777
  Co  Co3  1  0.747510  0.761730  0.756240  1.0  0.6769
  Co  Co4  1  0.747510  0.238270  0.243760  1.0  0.6765
  Co  Co5  1  0.252490  0.243760  0.238270  1.0  0.6775
  Co  Co6  1  0.252490  0.756240  0.761730  1.0  0.6774
  Co  Co7  1  0.747510  0.256240  0.738270  1.0  0.6765
  Co  Co8  1  0.747510  0.743760  0.261730  1.0  0.6763
  H  H9  1  0.762400  0.353000  0.314100  1.0  0.0965
  H  H10  1  0.665400  0.436100  0.332200  1.0  0.1218
  H  H11  1  0.438800  0.375000  0.225600  1.0  0.1347
  H  H12  1  0.539900  0.290900  0.210400  1.0  0.0816
  H  H13  1  0.609800  0.524700  0.303000  1.0  0.1084
  H  H14  1  0.519600  0.614500  0.302100  1.0  0.0964
  H  H15  1  0.247900  0.526700  0.272900  1.0  0.1044
  H  H16  1  0.340100  0.439200  0.273300  1.0  0.0971
  H  H17  1  0.690600  0.738900  0.886100  1.0  0.0886
  H  H18  1  0.777600  0.735500  0.975900  1.0  0.1117
  H  H19  1  0.052200  0.722000  0.887600  1.0  0.1307
  H  H20  1  0.957800  0.732000  0.800400  1.0  0.0748
  H  H21  1  0.880100  0.775900  0.047100  1.0  0.1107
  H  H22  1  0.976900  0.776400  0.133500  1.0  0.0975
  H  H23  1  0.195900  0.672400  0.058600  1.0  0.114
  H  H24  1  0.101800  0.675300  0.970800  1.0  0.1076
  H  H25  1  0.762400  0.647000  0.685900  1.0  0.0961
  H  H26  1  0.665400  0.563900  0.667800  1.0  0.1216
  H  H27  1  0.438800  0.625000  0.774400  1.0  0.1352
  H  H28  1  0.539900  0.709100  0.789600  1.0  0.0818
  H  H29  1  0.609800  0.475300  0.697000  1.0  0.1083
  H  H30  1  0.519600  0.385500  0.697900  1.0  0.0971
  H  H31  1  0.247900  0.473300  0.727100  1.0  0.1045
  H  H32  1  0.340100  0.560800  0.726700  1.0  0.097
  H  H33  1  0.690600  0.261100  0.113900  1.0  0.0878
  H  H34  1  0.777600  0.264500  0.024100  1.0  0.1116
  H  H35  1  0.052200  0.278000  0.112400  1.0  0.1302
  H  H36  1  0.957800  0.268000  0.199600  1.0  0.0747
  H  H37  1  0.880100  0.224100  0.952900  1.0  0.1105
  H  H38  1  0.976900  0.223600  0.866500  1.0  0.0975
  H  H39  1  0.195900  0.327600  0.941400  1.0  0.1149
  H  H40  1  0.101800  0.324700  0.029200  1.0  0.1075
  H  H41  1  0.237600  0.147000  0.814100  1.0  0.0957
  H  H42  1  0.334600  0.063900  0.832200  1.0  0.1218
  H  H43  1  0.561200  0.125000  0.725600  1.0  0.1347
  H  H44  1  0.460100  0.209100  0.710400  1.0  0.0814
  H  H45  1  0.390200  0.975300  0.803000  1.0  0.1078
  H  H46  1  0.480400  0.885500  0.802100  1.0  0.0969
  H  H47  1  0.752100  0.973300  0.772900  1.0  0.1041
  H  H48  1  0.659900  0.060800  0.773300  1.0  0.0966
  H  H49  1  0.309400  0.761100  0.386100  1.0  0.0883
  H  H50  1  0.222400  0.764500  0.475900  1.0  0.1116
  H  H51  1  0.947800  0.778000  0.387600  1.0  0.1298
  H  H52  1  0.042200  0.768000  0.300400  1.0  0.075
  H  H53  1  0.119900  0.724100  0.547100  1.0  0.1101
  H  H54  1  0.023100  0.723600  0.633500  1.0  0.098
  H  H55  1  0.804100  0.827600  0.558600  1.0  0.1151
  H  H56  1  0.898200  0.824700  0.470800  1.0  0.108
  H  H57  1  0.237600  0.853000  0.185900  1.0  0.0957
  H  H58  1  0.334600  0.936100  0.167800  1.0  0.1214
  H  H59  1  0.561200  0.875000  0.274400  1.0  0.1357
  H  H60  1  0.460100  0.790900  0.289600  1.0  0.0818
  H  H61  1  0.390200  0.024700  0.197000  1.0  0.1079
  H  H62  1  0.480400  0.114500  0.197900  1.0  0.0963
  H  H63  1  0.752100  0.026700  0.227100  1.0  0.1039
  H  H64  1  0.659900  0.939200  0.226700  1.0  0.0974
  H  H65  1  0.309400  0.238900  0.613900  1.0  0.0883
  H  H66  1  0.222400  0.235500  0.524100  1.0  0.1118
  H  H67  1  0.947800  0.222000  0.612400  1.0  0.1296
  H  H68  1  0.042200  0.232000  0.699600  1.0  0.0748
  H  H69  1  0.119900  0.275900  0.452900  1.0  0.1101
  H  H70  1  0.023100  0.276400  0.366500  1.0  0.0978
  H  H71  1  0.804100  0.172400  0.441400  1.0  0.1138
  H  H72  1  0.898200  0.175300  0.529200  1.0  0.1076
  H  H73  1  0.762400  0.185900  0.853000  1.0  0.0977
  H  H74  1  0.665400  0.167800  0.936100  1.0  0.1209
  H  H75  1  0.438800  0.274400  0.875000  1.0  0.1355
  H  H76  1  0.539900  0.289600  0.790900  1.0  0.0812
  H  H77  1  0.609800  0.197000  0.024700  1.0  0.1081
  H  H78  1  0.519600  0.197900  0.114500  1.0  0.0981
  H  H79  1  0.247900  0.227100  0.026700  1.0  0.1037
  H  H80  1  0.340100  0.226700  0.939200  1.0  0.0979
  H  H81  1  0.690600  0.613900  0.238900  1.0  0.0881
  H  H82  1  0.777600  0.524100  0.235500  1.0  0.1116
  H  H83  1  0.052200  0.612400  0.222000  1.0  0.1306
  H  H84  1  0.957800  0.699600  0.232000  1.0  0.0744
  H  H85  1  0.880100  0.452900  0.275900  1.0  0.111
  H  H86  1  0.976900  0.366500  0.276400  1.0  0.0975
  H  H87  1  0.195900  0.441400  0.172400  1.0  0.1138
  H  H88  1  0.101800  0.529200  0.175300  1.0  0.1088
  H  H89  1  0.762400  0.814100  0.147000  1.0  0.0973
  H  H90  1  0.665400  0.832200  0.063900  1.0  0.1211
  H  H91  1  0.438800  0.725600  0.125000  1.0  0.1351
  H  H92  1  0.539900  0.710400  0.209100  1.0  0.0812
  H  H93  1  0.609800  0.803000  0.975300  1.0  0.1078
  H  H94  1  0.519600  0.802100  0.885500  1.0  0.0978
  H  H95  1  0.247900  0.772900  0.973300  1.0  0.1037
  H  H96  1  0.340100  0.773300  0.060800  1.0  0.0981
  H  H97  1  0.690600  0.386100  0.761100  1.0  0.0879
  H  H98  1  0.777600  0.475900  0.764500  1.0  0.1114
  H  H99  1  0.052200  0.387600  0.778000  1.0  0.1305
  H  H100  1  0.957800  0.300400  0.768000  1.0  0.0742
  H  H101  1  0.880100  0.547100  0.724100  1.0  0.1106
  H  H102  1  0.976900  0.633500  0.723600  1.0  0.0976
  H  H103  1  0.195900  0.558600  0.827600  1.0  0.1142
  H  H104  1  0.101800  0.470800  0.824700  1.0  0.1096
  H  H105  1  0.237600  0.314100  0.353000  1.0  0.0967
  H  H106  1  0.334600  0.332200  0.436100  1.0  0.1212
  H  H107  1  0.561200  0.225600  0.375000  1.0  0.1357
  H  H108  1  0.460100  0.210400  0.290900  1.0  0.081
  H  H109  1  0.390200  0.303000  0.524700  1.0  0.1075
  H  H110  1  0.480400  0.302100  0.614500  1.0  0.0977
  H  H111  1  0.752100  0.272900  0.526700  1.0  0.1031
  H  H112  1  0.659900  0.273300  0.439200  1.0  0.0981
  H  H113  1  0.309400  0.886100  0.738900  1.0  0.0885
  H  H114  1  0.222400  0.975900  0.735500  1.0  0.1121
  H  H115  1  0.947800  0.887600  0.722000  1.0  0.13
  H  H116  1  0.042200  0.800400  0.732000  1.0  0.0743
  H  H117  1  0.119900  0.047100  0.775900  1.0  0.1111
  H  H118  1  0.023100  0.133500  0.776400  1.0  0.0978
  H  H119  1  0.804100  0.058600  0.672400  1.0  0.1142
  H  H120  1  0.898200  0.970800  0.675300  1.0  0.1088
  H  H121  1  0.237600  0.685900  0.647000  1.0  0.0967
  H  H122  1  0.334600  0.667800  0.563900  1.0  0.1207
  H  H123  1  0.561200  0.774400  0.625000  1.0  0.1355
  H  H124  1  0.460100  0.789600  0.709100  1.0  0.0811
  H  H125  1  0.390200  0.697000  0.475300  1.0  0.1073
  H  H126  1  0.480400  0.697900  0.385500  1.0  0.0976
  H  H127  1  0.752100  0.727100  0.473300  1.0  0.1032
  H  H128  1  0.659900  0.726700  0.560800  1.0  0.0988
  H  H129  1  0.309400  0.113900  0.261100  1.0  0.0885
  H  H130  1  0.222400  0.024100  0.264500  1.0  0.1116
  H  H131  1  0.947800  0.112400  0.278000  1.0  0.1298
  H  H132  1  0.042200  0.199600  0.268000  1.0  0.0748
  H  H133  1  0.119900  0.952900  0.224100  1.0  0.1108
  H  H134  1  0.023100  0.866500  0.223600  1.0  0.098
  H  H135  1  0.804100  0.941400  0.327600  1.0  0.1144
  H  H136  1  0.898200  0.029200  0.324700  1.0  0.1093
  C  C137  1  0.695900  0.357500  0.295500  1.0  0.1433
  C  C138  1  0.639100  0.407100  0.305600  1.0  -0.2066
  C  C139  1  0.543700  0.416500  0.278100  1.0  0.1057
  C  C140  1  0.506000  0.371700  0.243600  1.0  -0.1852
  C  C141  1  0.566700  0.321400  0.235000  1.0  0.1639
  C  C142  1  0.483300  0.473200  0.284900  1.0  0.0306
  C  C143  1  0.536400  0.525300  0.295700  1.0  -0.1384
  C  C144  1  0.482300  0.578600  0.295900  1.0  -0.0388
  C  C145  1  0.377700  0.580100  0.287300  1.0  -0.1253
  C  C146  1  0.321800  0.526700  0.278500  1.0  -0.045
  C  C147  1  0.377200  0.475300  0.278300  1.0  -0.1207
  C  C148  1  0.319900  0.638500  0.281400  1.0  0.6096
  C  C149  1  0.765200  0.737400  0.886600  1.0  0.1443
  C  C150  1  0.817100  0.733700  0.940300  1.0  -0.205
  C  C151  1  0.922700  0.727500  0.943200  1.0  0.095
  C  C152  1  0.978100  0.726600  0.888600  1.0  -0.1915
  C  C153  1  0.920700  0.732600  0.836800  1.0  0.1747
  C  C154  1  0.982600  0.725300  0.000100  1.0  0.0433
  C  C155  1  0.945100  0.755400  0.049100  1.0  -0.1368
  C  C156  1  0.002300  0.755400  0.100100  1.0  -0.0352
  C  C157  1  0.096200  0.725400  0.104000  1.0  -0.1286
  C  C158  1  0.132500  0.694400  0.056200  1.0  -0.0504
  C  C159  1  0.075600  0.695700  0.004400  1.0  -0.1274
  C  C160  1  0.161200  0.728500  0.158500  1.0  0.6047
  C  C161  1  0.695900  0.642500  0.704500  1.0  0.143
  C  C162  1  0.639100  0.592900  0.694400  1.0  -0.2067
  C  C163  1  0.543700  0.583500  0.721900  1.0  0.1061
  C  C164  1  0.506000  0.628300  0.756400  1.0  -0.1857
  C  C165  1  0.566700  0.678600  0.765000  1.0  0.1638
  C  C166  1  0.483300  0.526800  0.715100  1.0  0.031
  C  C167  1  0.536400  0.474700  0.704300  1.0  -0.1393
  C  C168  1  0.482300  0.421400  0.704100  1.0  -0.0394
  C  C169  1  0.377700  0.419900  0.712700  1.0  -0.1252
  C  C170  1  0.321800  0.473300  0.721500  1.0  -0.0446
  C  C171  1  0.377200  0.524700  0.721700  1.0  -0.1206
  C  C172  1  0.319900  0.361500  0.718600  1.0  0.6102
  C  C173  1  0.765200  0.262600  0.113400  1.0  0.1438
  C  C174  1  0.817100  0.266300  0.059700  1.0  -0.2043
  C  C175  1  0.922700  0.272500  0.056800  1.0  0.0959
  C  C176  1  0.978100  0.273400  0.111400  1.0  -0.1919
  C  C177  1  0.920700  0.267400  0.163200  1.0  0.1755
  C  C178  1  0.982600  0.274700  0.999900  1.0  0.0429
  C  C179  1  0.945100  0.244600  0.950900  1.0  -0.136
  C  C180  1  0.002300  0.244600  0.899900  1.0  -0.0348
  C  C181  1  0.096200  0.274600  0.896000  1.0  -0.13
  C  C182  1  0.132500  0.305600  0.943800  1.0  -0.0496
  C  C183  1  0.075600  0.304300  0.995600  1.0  -0.1263
  C  C184  1  0.161200  0.271500  0.841500  1.0  0.6034
  C  C185  1  0.304100  0.142500  0.795500  1.0  0.1445
  C  C186  1  0.360900  0.092900  0.805600  1.0  -0.2069
  C  C187  1  0.456300  0.083500  0.778100  1.0  0.1058
  C  C188  1  0.494000  0.128300  0.743600  1.0  -0.1856
  C  C189  1  0.433300  0.178600  0.735000  1.0  0.1636
  C  C190  1  0.516700  0.026800  0.784900  1.0  0.0305
  C  C191  1  0.463600  0.974700  0.795700  1.0  -0.1383
  C  C192  1  0.517700  0.921400  0.795900  1.0  -0.039
  C  C193  1  0.622300  0.919900  0.787300  1.0  -0.1254
  C  C194  1  0.678200  0.973300  0.778500  1.0  -0.0469
  C  C195  1  0.622800  0.024700  0.778300  1.0  -0.1211
  C  C196  1  0.680100  0.861500  0.781400  1.0  0.6097
  C  C197  1  0.234800  0.762600  0.386600  1.0  0.144
  C  C198  1  0.182900  0.766300  0.440300  1.0  -0.2056
  C  C199  1  0.077300  0.772500  0.443200  1.0  0.0953
  C  C200  1  0.021900  0.773400  0.388600  1.0  -0.1922
  C  C201  1  0.079300  0.767400  0.336800  1.0  0.1752
  C  C202  1  0.017400  0.774700  0.500100  1.0  0.0437
  C  C203  1  0.054900  0.744600  0.549100  1.0  -0.1358
  C  C204  1  0.997700  0.744600  0.600100  1.0  -0.0348
  C  C205  1  0.903800  0.774600  0.604000  1.0  -0.1288
  C  C206  1  0.867500  0.805600  0.556200  1.0  -0.0491
  C  C207  1  0.924400  0.804300  0.504400  1.0  -0.1262
  C  C208  1  0.838800  0.771500  0.658500  1.0  0.6038
  C  C209  1  0.304100  0.857500  0.204500  1.0  0.144
  C  C210  1  0.360900  0.907100  0.194400  1.0  -0.2069
  C  C211  1  0.456300  0.916500  0.221900  1.0  0.106
  C  C212  1  0.494000  0.871700  0.256400  1.0  -0.1855
  C  C213  1  0.433300  0.821400  0.265000  1.0  0.1635
  C  C214  1  0.516700  0.973200  0.215100  1.0  0.031
  C  C215  1  0.463600  0.025300  0.204300  1.0  -0.1389
  C  C216  1  0.517700  0.078600  0.204100  1.0  -0.0385
  C  C217  1  0.622300  0.080100  0.212700  1.0  -0.1252
  C  C218  1  0.678200  0.026700  0.221500  1.0  -0.0449
  C  C219  1  0.622800  0.975300  0.221700  1.0  -0.1218
  C  C220  1  0.680100  0.138500  0.218600  1.0  0.6097
  C  C221  1  0.234800  0.237400  0.613400  1.0  0.1443
  C  C222  1  0.182900  0.233700  0.559700  1.0  -0.205
  C  C223  1  0.077300  0.227500  0.556800  1.0  0.0961
  C  C224  1  0.021900  0.226600  0.611400  1.0  -0.1927
  C  C225  1  0.079300  0.232600  0.663200  1.0  0.1756
  C  C226  1  0.017400  0.225300  0.499900  1.0  0.0431
  C  C227  1  0.054900  0.255400  0.450900  1.0  -0.1351
  C  C228  1  0.997700  0.255400  0.399900  1.0  -0.0347
  C  C229  1  0.903800  0.225400  0.396000  1.0  -0.1299
  C  C230  1  0.867500  0.194400  0.443800  1.0  -0.0486
  C  C231  1  0.924400  0.195700  0.495600  1.0  -0.1258
  C  C232  1  0.838800  0.228500  0.341500  1.0  0.6028
  C  C233  1  0.695900  0.204500  0.857500  1.0  0.1448
  C  C234  1  0.639100  0.194400  0.907100  1.0  -0.2057
  C  C235  1  0.543700  0.221900  0.916500  1.0  0.1066
  C  C236  1  0.506000  0.256400  0.871700  1.0  -0.1871
  C  C237  1  0.566700  0.265000  0.821400  1.0  0.1637
  C  C238  1  0.483300  0.215100  0.973200  1.0  0.0305
  C  C239  1  0.536400  0.204300  0.025300  1.0  -0.1383
  C  C240  1  0.482300  0.204100  0.078600  1.0  -0.0377
  C  C241  1  0.377700  0.212700  0.080100  1.0  -0.1255
  C  C242  1  0.321800  0.221500  0.026700  1.0  -0.0425
  C  C243  1  0.377200  0.221700  0.975300  1.0  -0.1202
  C  C244  1  0.319900  0.218600  0.138500  1.0  0.61
  C  C245  1  0.765200  0.613400  0.237400  1.0  0.1432
  C  C246  1  0.817100  0.559700  0.233700  1.0  -0.2034
  C  C247  1  0.922700  0.556800  0.227500  1.0  0.0961
  C  C248  1  0.978100  0.611400  0.226600  1.0  -0.1925
  C  C249  1  0.920700  0.663200  0.232600  1.0  0.1743
  C  C250  1  0.982600  0.499900  0.225300  1.0  0.0435
  C  C251  1  0.945100  0.450900  0.255400  1.0  -0.1372
  C  C252  1  0.002300  0.399900  0.255400  1.0  -0.0353
  C  C253  1  0.096200  0.396000  0.225400  1.0  -0.1278
  C  C254  1  0.132500  0.443800  0.194400  1.0  -0.0472
  C  C255  1  0.075600  0.495600  0.195700  1.0  -0.1222
  C  C256  1  0.161200  0.341500  0.228500  1.0  0.6031
  C  C257  1  0.695900  0.795500  0.142500  1.0  0.1449
  C  C258  1  0.639100  0.805600  0.092900  1.0  -0.206
  C  C259  1  0.543700  0.778100  0.083500  1.0  0.1065
  C  C260  1  0.506000  0.743600  0.128300  1.0  -0.1872
  C  C261  1  0.566700  0.735000  0.178600  1.0  0.1633
  C  C262  1  0.483300  0.784900  0.026800  1.0  0.0298
  C  C263  1  0.536400  0.795700  0.974700  1.0  -0.1378
  C  C264  1  0.482300  0.795900  0.921400  1.0  -0.0379
  C  C265  1  0.377700  0.787300  0.919900  1.0  -0.1251
  C  C266  1  0.321800  0.778500  0.973300  1.0  -0.0435
  C  C267  1  0.377200  0.778300  0.024700  1.0  -0.12
  C  C268  1  0.319900  0.781400  0.861500  1.0  0.6096
  C  C269  1  0.765200  0.386600  0.762600  1.0  0.1434
  C  C270  1  0.817100  0.440300  0.766300  1.0  -0.2034
  C  C271  1  0.922700  0.443200  0.772500  1.0  0.0957
  C  C272  1  0.978100  0.388600  0.773400  1.0  -0.1919
  C  C273  1  0.920700  0.336800  0.767400  1.0  0.1734
  C  C274  1  0.982600  0.500100  0.774700  1.0  0.043
  C  C275  1  0.945100  0.549100  0.744600  1.0  -0.137
  C  C276  1  0.002300  0.600100  0.744600  1.0  -0.0351
  C  C277  1  0.096200  0.604000  0.774600  1.0  -0.1282
  C  C278  1  0.132500  0.556200  0.805600  1.0  -0.0482
  C  C279  1  0.075600  0.504400  0.804300  1.0  -0.123
  C  C280  1  0.161200  0.658500  0.771500  1.0  0.6034
  C  C281  1  0.304100  0.295500  0.357500  1.0  0.1454
  C  C282  1  0.360900  0.305600  0.407100  1.0  -0.2073
  C  C283  1  0.456300  0.278100  0.416500  1.0  0.1066
  C  C284  1  0.494000  0.243600  0.371700  1.0  -0.1873
  C  C285  1  0.433300  0.235000  0.321400  1.0  0.1628
  C  C286  1  0.516700  0.284900  0.473200  1.0  0.0307
  C  C287  1  0.463600  0.295700  0.525300  1.0  -0.1377
  C  C288  1  0.517700  0.295900  0.578600  1.0  -0.0373
  C  C289  1  0.622300  0.287300  0.580100  1.0  -0.1259
  C  C290  1  0.678200  0.278500  0.526700  1.0  -0.0439
  C  C291  1  0.622800  0.278300  0.475300  1.0  -0.1213
  C  C292  1  0.680100  0.281400  0.638500  1.0  0.6097
  C  C293  1  0.234800  0.886600  0.737400  1.0  0.1429
  C  C294  1  0.182900  0.940300  0.733700  1.0  -0.204
  C  C295  1  0.077300  0.943200  0.727500  1.0  0.0959
  C  C296  1  0.021900  0.888600  0.726600  1.0  -0.1929
  C  C297  1  0.079300  0.836800  0.732600  1.0  0.1736
  C  C298  1  0.017400  0.000100  0.725300  1.0  0.0436
  C  C299  1  0.054900  0.049100  0.755400  1.0  -0.1362
  C  C300  1  0.997700  0.100100  0.755400  1.0  -0.0345
  C  C301  1  0.903800  0.104000  0.725400  1.0  -0.128
  C  C302  1  0.867500  0.056200  0.694400  1.0  -0.0447
  C  C303  1  0.924400  0.004400  0.695700  1.0  -0.1223
  C  C304  1  0.838800  0.158500  0.728500  1.0  0.6028
  C  C305  1  0.304100  0.704500  0.642500  1.0  0.1462
  C  C306  1  0.360900  0.694400  0.592900  1.0  -0.206
  C  C307  1  0.456300  0.721900  0.583500  1.0  0.1064
  C  C308  1  0.494000  0.756400  0.628300  1.0  -0.1873
  C  C309  1  0.433300  0.765000  0.678600  1.0  0.1633
  C  C310  1  0.516700  0.715100  0.526800  1.0  0.03
  C  C311  1  0.463600  0.704300  0.474700  1.0  -0.1375
  C  C312  1  0.517700  0.704100  0.421400  1.0  -0.0379
  C  C313  1  0.622300  0.712700  0.419900  1.0  -0.1252
  C  C314  1  0.678200  0.721500  0.473300  1.0  -0.0437
  C  C315  1  0.622800  0.721700  0.524700  1.0  -0.1211
  C  C316  1  0.680100  0.718600  0.361500  1.0  0.6097
  C  C317  1  0.234800  0.113400  0.262600  1.0  0.1438
  C  C318  1  0.182900  0.059700  0.266300  1.0  -0.2044
  C  C319  1  0.077300  0.056800  0.272500  1.0  0.096
  C  C320  1  0.021900  0.111400  0.273400  1.0  -0.1929
  C  C321  1  0.079300  0.163200  0.267400  1.0  0.1745
  C  C322  1  0.017400  0.999900  0.274700  1.0  0.0432
  C  C323  1  0.054900  0.950900  0.244600  1.0  -0.1365
  C  C324  1  0.997700  0.899900  0.244600  1.0  -0.0357
  C  C325  1  0.903800  0.896000  0.274600  1.0  -0.1275
  C  C326  1  0.867500  0.943800  0.305600  1.0  -0.0481
  C  C327  1  0.924400  0.995600  0.304300  1.0  -0.1229
  C  C328  1  0.838800  0.841500  0.271500  1.0  0.6026
  N  N329  1  0.659700  0.314100  0.259300  1.0  -0.3211
  N  N330  1  0.818200  0.739000  0.835100  1.0  -0.3044
  N  N331  1  0.659700  0.685900  0.740700  1.0  -0.3215
  N  N332  1  0.818200  0.261000  0.164900  1.0  -0.3051
  N  N333  1  0.340300  0.185900  0.759300  1.0  -0.3203
  N  N334  1  0.181800  0.761000  0.335100  1.0  -0.3047
  N  N335  1  0.340300  0.814100  0.240700  1.0  -0.32
  N  N336  1  0.181800  0.239000  0.664900  1.0  -0.3046
  N  N337  1  0.659700  0.240700  0.814100  1.0  -0.3224
  N  N338  1  0.818200  0.664900  0.239000  1.0  -0.3028
  N  N339  1  0.659700  0.759300  0.185900  1.0  -0.3212
  N  N340  1  0.818200  0.335100  0.761000  1.0  -0.3035
  N  N341  1  0.340300  0.259300  0.314100  1.0  -0.3206
  N  N342  1  0.181800  0.835100  0.739000  1.0  -0.3031
  N  N343  1  0.340300  0.740700  0.685900  1.0  -0.3206
  N  N344  1  0.181800  0.164900  0.261000  1.0  -0.3032
  O  O345  1  0.374100  0.685700  0.281900  1.0  -0.5157
  O  O346  1  0.221800  0.640100  0.275600  1.0  -0.5388
  O  O347  1  0.253400  0.710300  0.159900  1.0  -0.5415
  O  O348  1  0.121600  0.754500  0.204400  1.0  -0.5186
  O  O349  1  0.374100  0.314300  0.718100  1.0  -0.5156
  O  O350  1  0.221800  0.359900  0.724400  1.0  -0.5391
  O  O351  1  0.253400  0.289700  0.840100  1.0  -0.5409
  O  O352  1  0.121600  0.245500  0.795600  1.0  -0.519
  O  O353  1  0.625900  0.814300  0.781900  1.0  -0.515
  O  O354  1  0.778200  0.859900  0.775600  1.0  -0.539
  O  O355  1  0.746600  0.789700  0.659900  1.0  -0.5424
  O  O356  1  0.878400  0.745500  0.704400  1.0  -0.5182
  O  O357  1  0.625900  0.185700  0.218100  1.0  -0.5157
  O  O358  1  0.778200  0.140100  0.224400  1.0  -0.5387
  O  O359  1  0.746600  0.210300  0.340100  1.0  -0.5414
  O  O360  1  0.878400  0.254500  0.295600  1.0  -0.5184
  O  O361  1  0.374100  0.218100  0.185700  1.0  -0.5161
  O  O362  1  0.221800  0.224400  0.140100  1.0  -0.5384
  O  O363  1  0.253400  0.340100  0.210300  1.0  -0.541
  O  O364  1  0.121600  0.295600  0.254500  1.0  -0.52
  O  O365  1  0.374100  0.781900  0.814300  1.0  -0.5143
  O  O366  1  0.221800  0.775600  0.859900  1.0  -0.5389
  O  O367  1  0.253400  0.659900  0.789700  1.0  -0.5418
  O  O368  1  0.121600  0.704400  0.745500  1.0  -0.5195
  O  O369  1  0.625900  0.281900  0.685700  1.0  -0.5156
  O  O370  1  0.778200  0.275600  0.640100  1.0  -0.5386
  O  O371  1  0.746600  0.159900  0.710300  1.0  -0.5419
  O  O372  1  0.878400  0.204400  0.754500  1.0  -0.5198
  O  O373  1  0.625900  0.718100  0.314300  1.0  -0.5137
  O  O374  1  0.778200  0.724400  0.359900  1.0  -0.5383
  O  O375  1  0.746600  0.840100  0.289700  1.0  -0.5432
  O  O376  1  0.878400  0.795600  0.245500  1.0  -0.5187
