# generated using pymatgen
data_CoH16C24(NO2)2
_symmetry_space_group_name_H-M   'P 1'
_cell_length_a   12.69500000
_cell_length_b   22.69040000
_cell_length_c   22.69040000
_cell_angle_alpha   90.00000000
_cell_angle_beta   90.00000000
_cell_angle_gamma   90.00000000
_symmetry_Int_Tables_number   1
_chemical_formula_structural   CoH16C24(NO2)2
_chemical_formula_sum   'Co8 H128 C192 N16 O32'
_cell_volume   6536.07473117
_cell_formula_units_Z   8
loop_
 _symmetry_equiv_pos_site_id
 _symmetry_equiv_pos_as_xyz
  1  'x, y, z'
loop_
 _atom_site_type_symbol
 _atom_site_label
 _atom_site_symmetry_multiplicity
 _atom_site_fract_x
 _atom_site_fract_y
 _atom_site_fract_z
 _atom_site_occupancy
 _atom_site_charge
  Co  Co1  1  0.746650  0.767920  0.759140  1.0  0.8081
  Co  Co2  1  0.746650  0.232080  0.240860  1.0  0.8108
  Co  Co3  1  0.253350  0.732080  0.259140  1.0  0.8102
  Co  Co4  1  0.253350  0.267920  0.740860  1.0  0.8101
  Co  Co5  1  0.746650  0.740860  0.267920  1.0  0.8077
  Co  Co6  1  0.746650  0.259140  0.732080  1.0  0.8106
  Co  Co7  1  0.253350  0.759140  0.767920  1.0  0.8095
  Co  Co8  1  0.253350  0.240860  0.232080  1.0  0.8093
  H  H9  1  0.461300  0.213600  0.708400  1.0  0.0756
  H  H10  1  0.560600  0.127500  0.722500  1.0  0.134
  H  H11  1  0.334400  0.070600  0.834500  1.0  0.132
  H  H12  1  0.238700  0.155400  0.812700  1.0  0.091
  H  H13  1  0.663600  0.067000  0.775400  1.0  0.106
  H  H14  1  0.751200  0.978000  0.775300  1.0  0.0963
  H  H15  1  0.481700  0.892100  0.807600  1.0  0.1009
  H  H16  1  0.389700  0.982500  0.808800  1.0  0.1232
  H  H17  1  0.307300  0.749400  0.389600  1.0  0.0814
  H  H18  1  0.223000  0.759500  0.478700  1.0  0.1185
  H  H19  1  0.948800  0.775900  0.392500  1.0  0.1211
  H  H20  1  0.040700  0.765300  0.303600  1.0  0.0813
  H  H21  1  0.112700  0.718900  0.549800  1.0  0.1062
  H  H22  1  0.020000  0.722800  0.638000  1.0  0.1078
  H  H23  1  0.804500  0.829400  0.560700  1.0  0.1114
  H  H24  1  0.899600  0.825000  0.471800  1.0  0.1135
  H  H25  1  0.461300  0.786400  0.291600  1.0  0.0763
  H  H26  1  0.560600  0.872500  0.277500  1.0  0.1342
  H  H27  1  0.334400  0.929400  0.165500  1.0  0.1323
  H  H28  1  0.238700  0.844600  0.187300  1.0  0.09
  H  H29  1  0.663600  0.933000  0.224600  1.0  0.1067
  H  H30  1  0.751200  0.022000  0.224700  1.0  0.0961
  H  H31  1  0.481700  0.107900  0.192400  1.0  0.0998
  H  H32  1  0.389700  0.017500  0.191200  1.0  0.1237
  H  H33  1  0.307300  0.250600  0.610400  1.0  0.0813
  H  H34  1  0.223000  0.240500  0.521300  1.0  0.118
  H  H35  1  0.948800  0.224100  0.607500  1.0  0.1224
  H  H36  1  0.040700  0.234700  0.696400  1.0  0.0798
  H  H37  1  0.112700  0.281100  0.450200  1.0  0.1065
  H  H38  1  0.020000  0.277200  0.362000  1.0  0.1074
  H  H39  1  0.804500  0.170600  0.439300  1.0  0.1106
  H  H40  1  0.899600  0.175000  0.528200  1.0  0.1145
  H  H41  1  0.538700  0.286400  0.208400  1.0  0.0758
  H  H42  1  0.439400  0.372500  0.222500  1.0  0.1342
  H  H43  1  0.665600  0.429400  0.334500  1.0  0.1339
  H  H44  1  0.761300  0.344600  0.312700  1.0  0.0874
  H  H45  1  0.336400  0.433000  0.275400  1.0  0.1065
  H  H46  1  0.248800  0.522000  0.275300  1.0  0.0958
  H  H47  1  0.518300  0.607900  0.307600  1.0  0.1001
  H  H48  1  0.610300  0.517500  0.308800  1.0  0.1238
  H  H49  1  0.692700  0.750600  0.889600  1.0  0.0813
  H  H50  1  0.777000  0.740500  0.978700  1.0  0.1184
  H  H51  1  0.051200  0.724100  0.892500  1.0  0.1233
  H  H52  1  0.959300  0.734700  0.803600  1.0  0.0794
  H  H53  1  0.887300  0.781100  0.049800  1.0  0.1061
  H  H54  1  0.980000  0.777200  0.138000  1.0  0.1074
  H  H55  1  0.195500  0.670600  0.060700  1.0  0.1106
  H  H56  1  0.100400  0.675000  0.971800  1.0  0.1146
  H  H57  1  0.538700  0.713600  0.791600  1.0  0.076
  H  H58  1  0.439400  0.627500  0.777500  1.0  0.134
  H  H59  1  0.665600  0.570600  0.665500  1.0  0.1317
  H  H60  1  0.761300  0.655400  0.687300  1.0  0.0904
  H  H61  1  0.336400  0.567000  0.724600  1.0  0.106
  H  H62  1  0.248800  0.478000  0.724700  1.0  0.0958
  H  H63  1  0.518300  0.392100  0.692400  1.0  0.101
  H  H64  1  0.610300  0.482500  0.691200  1.0  0.124
  H  H65  1  0.692700  0.249400  0.110400  1.0  0.0811
  H  H66  1  0.777000  0.259500  0.021300  1.0  0.1178
  H  H67  1  0.051200  0.275900  0.107500  1.0  0.1231
  H  H68  1  0.959300  0.265300  0.196400  1.0  0.0795
  H  H69  1  0.887300  0.218900  0.950200  1.0  0.1063
  H  H70  1  0.980000  0.222800  0.862000  1.0  0.1072
  H  H71  1  0.195500  0.329400  0.939300  1.0  0.1114
  H  H72  1  0.100400  0.325000  0.028200  1.0  0.1145
  H  H73  1  0.461300  0.791600  0.713600  1.0  0.076
  H  H74  1  0.560600  0.777500  0.627500  1.0  0.1339
  H  H75  1  0.334400  0.665500  0.570600  1.0  0.1308
  H  H76  1  0.238700  0.687300  0.655400  1.0  0.0911
  H  H77  1  0.663600  0.724600  0.567000  1.0  0.1075
  H  H78  1  0.751200  0.724700  0.478000  1.0  0.0955
  H  H79  1  0.481700  0.692400  0.392100  1.0  0.1016
  H  H80  1  0.389700  0.691200  0.482500  1.0  0.1229
  H  H81  1  0.307300  0.110400  0.249400  1.0  0.0816
  H  H82  1  0.223000  0.021300  0.259500  1.0  0.1179
  H  H83  1  0.948800  0.107500  0.275900  1.0  0.1222
  H  H84  1  0.040700  0.196400  0.265300  1.0  0.0803
  H  H85  1  0.112700  0.950200  0.218900  1.0  0.1064
  H  H86  1  0.020000  0.862000  0.222800  1.0  0.1077
  H  H87  1  0.804500  0.939300  0.329400  1.0  0.1106
  H  H88  1  0.899600  0.028200  0.325000  1.0  0.1139
  H  H89  1  0.461300  0.208400  0.286400  1.0  0.0756
  H  H90  1  0.560600  0.222500  0.372500  1.0  0.1336
  H  H91  1  0.334400  0.334500  0.429400  1.0  0.1322
  H  H92  1  0.238700  0.312700  0.344600  1.0  0.0915
  H  H93  1  0.663600  0.275400  0.433000  1.0  0.1068
  H  H94  1  0.751200  0.275300  0.522000  1.0  0.0952
  H  H95  1  0.481700  0.307600  0.607900  1.0  0.1016
  H  H96  1  0.389700  0.308800  0.517500  1.0  0.1232
  H  H97  1  0.307300  0.889600  0.750600  1.0  0.0812
  H  H98  1  0.223000  0.978700  0.740500  1.0  0.1184
  H  H99  1  0.948800  0.892500  0.724100  1.0  0.1208
  H  H100  1  0.040700  0.803600  0.734700  1.0  0.0804
  H  H101  1  0.112700  0.049800  0.781100  1.0  0.1057
  H  H102  1  0.020000  0.138000  0.777200  1.0  0.1077
  H  H103  1  0.804500  0.060700  0.670600  1.0  0.1102
  H  H104  1  0.899600  0.971800  0.675000  1.0  0.113
  H  H105  1  0.538700  0.708400  0.213600  1.0  0.0758
  H  H106  1  0.439400  0.722500  0.127500  1.0  0.1332
  H  H107  1  0.665600  0.834500  0.070600  1.0  0.1339
  H  H108  1  0.761300  0.812700  0.155400  1.0  0.0913
  H  H109  1  0.336400  0.775400  0.067000  1.0  0.1071
  H  H110  1  0.248800  0.775300  0.978000  1.0  0.0952
  H  H111  1  0.518300  0.807600  0.892100  1.0  0.1016
  H  H112  1  0.610300  0.808800  0.982500  1.0  0.1235
  H  H113  1  0.692700  0.389600  0.749400  1.0  0.0813
  H  H114  1  0.777000  0.478700  0.759500  1.0  0.1178
  H  H115  1  0.051200  0.392500  0.775900  1.0  0.1229
  H  H116  1  0.959300  0.303600  0.765300  1.0  0.079
  H  H117  1  0.887300  0.549800  0.718900  1.0  0.1058
  H  H118  1  0.980000  0.638000  0.722800  1.0  0.1074
  H  H119  1  0.195500  0.560700  0.829400  1.0  0.1106
  H  H120  1  0.100400  0.471800  0.825000  1.0  0.1157
  H  H121  1  0.538700  0.291600  0.786400  1.0  0.0759
  H  H122  1  0.439400  0.277500  0.872500  1.0  0.1344
  H  H123  1  0.665600  0.165500  0.929400  1.0  0.1333
  H  H124  1  0.761300  0.187300  0.844600  1.0  0.0871
  H  H125  1  0.336400  0.224600  0.933000  1.0  0.1067
  H  H126  1  0.248800  0.224700  0.022000  1.0  0.095
  H  H127  1  0.518300  0.192400  0.107900  1.0  0.1022
  H  H128  1  0.610300  0.191200  0.017500  1.0  0.1232
  H  H129  1  0.692700  0.610400  0.250600  1.0  0.0811
  H  H130  1  0.777000  0.521300  0.240500  1.0  0.1178
  H  H131  1  0.051200  0.607500  0.224100  1.0  0.1229
  H  H132  1  0.959300  0.696400  0.234700  1.0  0.0786
  H  H133  1  0.887300  0.450200  0.281100  1.0  0.106
  H  H134  1  0.980000  0.362000  0.277200  1.0  0.1074
  H  H135  1  0.195500  0.439300  0.170600  1.0  0.1099
  H  H136  1  0.100400  0.528200  0.175000  1.0  0.1144
  C  C137  1  0.433200  0.183500  0.732900  1.0  0.1743
  C  C138  1  0.495000  0.132500  0.742100  1.0  -0.1954
  C  C139  1  0.457000  0.090200  0.780500  1.0  0.0486
  C  C140  1  0.361500  0.098800  0.807400  1.0  -0.2367
  C  C141  1  0.305100  0.149700  0.794100  1.0  0.177
  C  C142  1  0.516200  0.033900  0.787400  1.0  0.0608
  C  C143  1  0.625000  0.031500  0.780700  1.0  -0.1774
  C  C144  1  0.677300  0.978800  0.781600  1.0  -0.0336
  C  C145  1  0.623900  0.927200  0.791600  1.0  -0.1318
  C  C146  1  0.518400  0.927900  0.800800  1.0  -0.0301
  C  C147  1  0.463000  0.981700  0.800300  1.0  -0.1337
  C  C148  1  0.680200  0.867300  0.785500  1.0  0.6537
  C  C149  1  0.233000  0.754000  0.390000  1.0  0.1803
  C  C150  1  0.183100  0.760100  0.443300  1.0  -0.2071
  C  C151  1  0.075200  0.767000  0.445700  1.0  0.0789
  C  C152  1  0.022800  0.769700  0.393100  1.0  -0.1633
  C  C153  1  0.078200  0.763200  0.339800  1.0  0.147
  C  C154  1  0.015600  0.772400  0.501700  1.0  0.0282
  C  C155  1  0.049900  0.741500  0.552000  1.0  -0.1274
  C  C156  1  0.994600  0.743400  0.604400  1.0  -0.0329
  C  C157  1  0.901900  0.775300  0.607600  1.0  -0.124
  C  C158  1  0.867000  0.806500  0.558400  1.0  -0.0532
  C  C159  1  0.924500  0.804200  0.505400  1.0  -0.1448
  C  C160  1  0.837800  0.774700  0.662800  1.0  0.6044
  C  C161  1  0.433200  0.816500  0.267100  1.0  0.1751
  C  C162  1  0.495000  0.867500  0.257900  1.0  -0.1963
  C  C163  1  0.457000  0.909800  0.219500  1.0  0.049
  C  C164  1  0.361500  0.901200  0.192600  1.0  -0.2366
  C  C165  1  0.305100  0.850300  0.205900  1.0  0.1764
  C  C166  1  0.516200  0.966100  0.212600  1.0  0.0613
  C  C167  1  0.625000  0.968500  0.219300  1.0  -0.1771
  C  C168  1  0.677300  0.021200  0.218400  1.0  -0.0387
  C  C169  1  0.623900  0.072800  0.208400  1.0  -0.1313
  C  C170  1  0.518400  0.072100  0.199200  1.0  -0.0211
  C  C171  1  0.463000  0.018300  0.199700  1.0  -0.1336
  C  C172  1  0.680200  0.132700  0.214500  1.0  0.6516
  C  C173  1  0.233000  0.246000  0.610000  1.0  0.1857
  C  C174  1  0.183100  0.239900  0.556700  1.0  -0.2075
  C  C175  1  0.075200  0.233000  0.554300  1.0  0.0781
  C  C176  1  0.022800  0.230300  0.606900  1.0  -0.1629
  C  C177  1  0.078200  0.236800  0.660200  1.0  0.147
  C  C178  1  0.015600  0.227600  0.498300  1.0  0.0281
  C  C179  1  0.049900  0.258500  0.448000  1.0  -0.1271
  C  C180  1  0.994600  0.256600  0.395600  1.0  -0.0327
  C  C181  1  0.901900  0.224700  0.392400  1.0  -0.1245
  C  C182  1  0.867000  0.193500  0.441600  1.0  -0.0559
  C  C183  1  0.924500  0.195800  0.494600  1.0  -0.1446
  C  C184  1  0.837800  0.225300  0.337200  1.0  0.6068
  C  C185  1  0.566800  0.316500  0.232900  1.0  0.1779
  C  C186  1  0.505000  0.367500  0.242100  1.0  -0.1948
  C  C187  1  0.543000  0.409800  0.280500  1.0  0.0481
  C  C188  1  0.638500  0.401200  0.307400  1.0  -0.2336
  C  C189  1  0.694900  0.350300  0.294100  1.0  0.1738
  C  C190  1  0.483800  0.466100  0.287400  1.0  0.0613
  C  C191  1  0.375000  0.468500  0.280700  1.0  -0.177
  C  C192  1  0.322700  0.521200  0.281600  1.0  -0.0401
  C  C193  1  0.376100  0.572800  0.291600  1.0  -0.1314
  C  C194  1  0.481600  0.572100  0.300800  1.0  -0.0266
  C  C195  1  0.537000  0.518300  0.300300  1.0  -0.1333
  C  C196  1  0.319800  0.632700  0.285500  1.0  0.6517
  C  C197  1  0.767000  0.746000  0.890000  1.0  0.1835
  C  C198  1  0.816900  0.739900  0.943300  1.0  -0.2078
  C  C199  1  0.924800  0.733000  0.945700  1.0  0.0785
  C  C200  1  0.977200  0.730300  0.893100  1.0  -0.1623
  C  C201  1  0.921800  0.736800  0.839800  1.0  0.1389
  C  C202  1  0.984400  0.727600  0.001700  1.0  0.0287
  C  C203  1  0.950100  0.758500  0.052000  1.0  -0.1228
  C  C204  1  0.005400  0.756600  0.104400  1.0  -0.0334
  C  C205  1  0.098100  0.724700  0.107600  1.0  -0.1242
  C  C206  1  0.133000  0.693500  0.058400  1.0  -0.0571
  C  C207  1  0.075500  0.695800  0.005400  1.0  -0.1461
  C  C208  1  0.162200  0.725300  0.162800  1.0  0.6061
  C  C209  1  0.566800  0.683500  0.767100  1.0  0.1783
  C  C210  1  0.505000  0.632500  0.757900  1.0  -0.1956
  C  C211  1  0.543000  0.590200  0.719500  1.0  0.0481
  C  C212  1  0.638500  0.598800  0.692600  1.0  -0.2369
  C  C213  1  0.694900  0.649700  0.705900  1.0  0.1772
  C  C214  1  0.483800  0.533900  0.712600  1.0  0.0611
  C  C215  1  0.375000  0.531500  0.719300  1.0  -0.1767
  C  C216  1  0.322700  0.478800  0.718400  1.0  -0.0385
  C  C217  1  0.376100  0.427200  0.708400  1.0  -0.1317
  C  C218  1  0.481600  0.427900  0.699200  1.0  -0.028
  C  C219  1  0.537000  0.481700  0.699700  1.0  -0.1335
  C  C220  1  0.319800  0.367300  0.714500  1.0  0.6521
  C  C221  1  0.767000  0.254000  0.110000  1.0  0.1854
  C  C222  1  0.816900  0.260100  0.056700  1.0  -0.2077
  C  C223  1  0.924800  0.267000  0.054300  1.0  0.0785
  C  C224  1  0.977200  0.269700  0.106900  1.0  -0.1627
  C  C225  1  0.921800  0.263200  0.160200  1.0  0.1388
  C  C226  1  0.984400  0.272400  0.998300  1.0  0.0289
  C  C227  1  0.950100  0.241500  0.948000  1.0  -0.1283
  C  C228  1  0.005400  0.243400  0.895600  1.0  -0.0333
  C  C229  1  0.098100  0.275300  0.892400  1.0  -0.1244
  C  C230  1  0.133000  0.306500  0.941600  1.0  -0.0535
  C  C231  1  0.075500  0.304200  0.994600  1.0  -0.1444
  C  C232  1  0.162200  0.274700  0.837200  1.0  0.6056
  C  C233  1  0.433200  0.767100  0.683500  1.0  0.1755
  C  C234  1  0.495000  0.757900  0.632500  1.0  -0.1943
  C  C235  1  0.457000  0.719500  0.590200  1.0  0.05
  C  C236  1  0.361500  0.692600  0.598800  1.0  -0.237
  C  C237  1  0.305100  0.705900  0.649700  1.0  0.1782
  C  C238  1  0.516200  0.712600  0.533900  1.0  0.0599
  C  C239  1  0.625000  0.719300  0.531500  1.0  -0.176
  C  C240  1  0.677300  0.718400  0.478800  1.0  -0.032
  C  C241  1  0.623900  0.708400  0.427200  1.0  -0.1329
  C  C242  1  0.518400  0.699200  0.427900  1.0  -0.0269
  C  C243  1  0.463000  0.699700  0.481700  1.0  -0.1319
  C  C244  1  0.680200  0.714500  0.367300  1.0  0.651
  C  C245  1  0.233000  0.110000  0.254000  1.0  0.1839
  C  C246  1  0.183100  0.056700  0.260100  1.0  -0.2053
  C  C247  1  0.075200  0.054300  0.267000  1.0  0.079
  C  C248  1  0.022800  0.106900  0.269700  1.0  -0.1631
  C  C249  1  0.078200  0.160200  0.263200  1.0  0.1448
  C  C250  1  0.015600  0.998300  0.272400  1.0  0.0284
  C  C251  1  0.049900  0.948000  0.241500  1.0  -0.1273
  C  C252  1  0.994600  0.895600  0.243400  1.0  -0.0366
  C  C253  1  0.901900  0.892400  0.275300  1.0  -0.1232
  C  C254  1  0.867000  0.941600  0.306500  1.0  -0.0536
  C  C255  1  0.924500  0.994600  0.304200  1.0  -0.1406
  C  C256  1  0.837800  0.837200  0.274700  1.0  0.6068
  C  C257  1  0.433200  0.232900  0.316500  1.0  0.1739
  C  C258  1  0.495000  0.242100  0.367500  1.0  -0.1971
  C  C259  1  0.457000  0.280500  0.409800  1.0  0.0496
  C  C260  1  0.361500  0.307400  0.401200  1.0  -0.2384
  C  C261  1  0.305100  0.294100  0.350300  1.0  0.1784
  C  C262  1  0.516200  0.287400  0.466100  1.0  0.0605
  C  C263  1  0.625000  0.280700  0.468500  1.0  -0.1773
  C  C264  1  0.677300  0.281600  0.521200  1.0  -0.0326
  C  C265  1  0.623900  0.291600  0.572800  1.0  -0.1319
  C  C266  1  0.518400  0.300800  0.572100  1.0  -0.0288
  C  C267  1  0.463000  0.300300  0.518300  1.0  -0.1322
  C  C268  1  0.680200  0.285500  0.632700  1.0  0.6536
  C  C269  1  0.233000  0.890000  0.746000  1.0  0.1783
  C  C270  1  0.183100  0.943300  0.739900  1.0  -0.2063
  C  C271  1  0.075200  0.945700  0.733000  1.0  0.0793
  C  C272  1  0.022800  0.893100  0.730300  1.0  -0.1627
  C  C273  1  0.078200  0.839800  0.736800  1.0  0.1436
  C  C274  1  0.015600  0.001700  0.727600  1.0  0.0285
  C  C275  1  0.049900  0.052000  0.758500  1.0  -0.1265
  C  C276  1  0.994600  0.104400  0.756600  1.0  -0.0357
  C  C277  1  0.901900  0.107600  0.724700  1.0  -0.1227
  C  C278  1  0.867000  0.058400  0.693500  1.0  -0.0463
  C  C279  1  0.924500  0.005400  0.695800  1.0  -0.1392
  C  C280  1  0.837800  0.162800  0.725300  1.0  0.6034
  C  C281  1  0.566800  0.732900  0.183500  1.0  0.1785
  C  C282  1  0.505000  0.742100  0.132500  1.0  -0.1967
  C  C283  1  0.543000  0.780500  0.090200  1.0  0.0492
  C  C284  1  0.638500  0.807400  0.098800  1.0  -0.2373
  C  C285  1  0.694900  0.794100  0.149700  1.0  0.1753
  C  C286  1  0.483800  0.787400  0.033900  1.0  0.0599
  C  C287  1  0.375000  0.780700  0.031500  1.0  -0.1737
  C  C288  1  0.322700  0.781600  0.978800  1.0  -0.0385
  C  C289  1  0.376100  0.791600  0.927200  1.0  -0.1329
  C  C290  1  0.481600  0.800800  0.927900  1.0  -0.0251
  C  C291  1  0.537000  0.800300  0.981700  1.0  -0.1321
  C  C292  1  0.319800  0.785500  0.867300  1.0  0.6529
  C  C293  1  0.767000  0.390000  0.754000  1.0  0.1816
  C  C294  1  0.816900  0.443300  0.760100  1.0  -0.2064
  C  C295  1  0.924800  0.445700  0.767000  1.0  0.0789
  C  C296  1  0.977200  0.393100  0.769700  1.0  -0.1623
  C  C297  1  0.921800  0.339800  0.763200  1.0  0.1353
  C  C298  1  0.984400  0.501700  0.772400  1.0  0.028
  C  C299  1  0.950100  0.552000  0.741500  1.0  -0.1265
  C  C300  1  0.005400  0.604400  0.743400  1.0  -0.0364
  C  C301  1  0.098100  0.607600  0.775300  1.0  -0.123
  C  C302  1  0.133000  0.558400  0.806500  1.0  -0.051
  C  C303  1  0.075500  0.505400  0.804200  1.0  -0.1405
  C  C304  1  0.162200  0.662800  0.774700  1.0  0.6059
  C  C305  1  0.566800  0.267100  0.816500  1.0  0.1775
  C  C306  1  0.505000  0.257900  0.867500  1.0  -0.1946
  C  C307  1  0.543000  0.219500  0.909800  1.0  0.0489
  C  C308  1  0.638500  0.192600  0.901200  1.0  -0.2346
  C  C309  1  0.694900  0.205900  0.850300  1.0  0.1786
  C  C310  1  0.483800  0.212600  0.966100  1.0  0.0609
  C  C311  1  0.375000  0.219300  0.968500  1.0  -0.1766
  C  C312  1  0.322700  0.218400  0.021200  1.0  -0.0316
  C  C313  1  0.376100  0.208400  0.072800  1.0  -0.1315
  C  C314  1  0.481600  0.199200  0.072100  1.0  -0.0275
  C  C315  1  0.537000  0.199700  0.018300  1.0  -0.1319
  C  C316  1  0.319800  0.214500  0.132700  1.0  0.6525
  C  C317  1  0.767000  0.610000  0.246000  1.0  0.1838
  C  C318  1  0.816900  0.556700  0.239900  1.0  -0.2064
  C  C319  1  0.924800  0.554300  0.233000  1.0  0.0788
  C  C320  1  0.977200  0.606900  0.230300  1.0  -0.1626
  C  C321  1  0.921800  0.660200  0.236800  1.0  0.1364
  C  C322  1  0.984400  0.498300  0.227600  1.0  0.0293
  C  C323  1  0.950100  0.448000  0.258500  1.0  -0.1287
  C  C324  1  0.005400  0.395600  0.256600  1.0  -0.0372
  C  C325  1  0.098100  0.392400  0.224700  1.0  -0.1231
  C  C326  1  0.133000  0.441600  0.193500  1.0  -0.0495
  C  C327  1  0.075500  0.494600  0.195800  1.0  -0.1412
  C  C328  1  0.162200  0.337200  0.225300  1.0  0.6057
  N  N329  1  0.339900  0.192000  0.755900  1.0  -0.3295
  N  N330  1  0.181300  0.754300  0.338700  1.0  -0.3086
  N  N331  1  0.339900  0.808000  0.244100  1.0  -0.3304
  N  N332  1  0.181300  0.245700  0.661300  1.0  -0.3071
  N  N333  1  0.660100  0.308000  0.255900  1.0  -0.3273
  N  N334  1  0.818700  0.745700  0.838700  1.0  -0.3073
  N  N335  1  0.660100  0.692000  0.744100  1.0  -0.3274
  N  N336  1  0.818700  0.254300  0.161300  1.0  -0.3068
  N  N337  1  0.339900  0.744100  0.692000  1.0  -0.3297
  N  N338  1  0.181300  0.161300  0.254300  1.0  -0.305
  N  N339  1  0.339900  0.255900  0.308000  1.0  -0.3287
  N  N340  1  0.181300  0.838700  0.745700  1.0  -0.3087
  N  N341  1  0.660100  0.755900  0.192000  1.0  -0.3276
  N  N342  1  0.818700  0.338700  0.754300  1.0  -0.3051
  N  N343  1  0.660100  0.244100  0.808000  1.0  -0.3271
  N  N344  1  0.818700  0.661300  0.245700  1.0  -0.3041
  O  O345  1  0.625100  0.821380  0.785960  1.0  -0.5489
  O  O346  1  0.777300  0.866650  0.778800  1.0  -0.5879
  O  O347  1  0.746800  0.793810  0.663460  1.0  -0.5582
  O  O348  1  0.877000  0.749420  0.707940  1.0  -0.5457
  O  O349  1  0.625100  0.178620  0.214040  1.0  -0.5493
  O  O350  1  0.777300  0.133350  0.221200  1.0  -0.5883
  O  O351  1  0.746800  0.206190  0.336540  1.0  -0.5571
  O  O352  1  0.877000  0.250580  0.292060  1.0  -0.5443
  O  O353  1  0.374900  0.678620  0.285960  1.0  -0.5493
  O  O354  1  0.222700  0.633350  0.278800  1.0  -0.5873
  O  O355  1  0.253200  0.706190  0.163460  1.0  -0.5576
  O  O356  1  0.123000  0.750580  0.207940  1.0  -0.5446
  O  O357  1  0.374900  0.321380  0.714040  1.0  -0.5493
  O  O358  1  0.222700  0.366650  0.721200  1.0  -0.5876
  O  O359  1  0.253200  0.293810  0.836540  1.0  -0.5583
  O  O360  1  0.123000  0.249420  0.792060  1.0  -0.5463
  O  O361  1  0.625100  0.714040  0.321380  1.0  -0.5491
  O  O362  1  0.777300  0.721200  0.366650  1.0  -0.5873
  O  O363  1  0.746800  0.836540  0.293810  1.0  -0.5596
  O  O364  1  0.877000  0.792060  0.249420  1.0  -0.5451
  O  O365  1  0.625100  0.285960  0.678620  1.0  -0.5492
  O  O366  1  0.777300  0.278800  0.633350  1.0  -0.5869
  O  O367  1  0.746800  0.163460  0.706190  1.0  -0.5585
  O  O368  1  0.877000  0.207940  0.750580  1.0  -0.5456
  O  O369  1  0.374900  0.785960  0.821380  1.0  -0.5491
  O  O370  1  0.222700  0.778800  0.866650  1.0  -0.5872
  O  O371  1  0.253200  0.663460  0.793810  1.0  -0.5602
  O  O372  1  0.123000  0.707940  0.749420  1.0  -0.5463
  O  O373  1  0.374900  0.214040  0.178620  1.0  -0.5496
  O  O374  1  0.222700  0.221200  0.133350  1.0  -0.5865
  O  O375  1  0.253200  0.336540  0.206190  1.0  -0.5587
  O  O376  1  0.123000  0.292060  0.250580  1.0  -0.5453
