# generated using pymatgen
data_ZnH13C20NO5
_symmetry_space_group_name_H-M   'P 1'
_cell_length_a   16.24930000
_cell_length_b   16.24930000
_cell_length_c   22.99000000
_cell_angle_alpha   73.12160000
_cell_angle_beta   73.12160000
_cell_angle_gamma   66.29460000
_symmetry_Int_Tables_number   1
_chemical_formula_structural   ZnH13C20NO5
_chemical_formula_sum   'Zn4 H52 C80 N4 O20'
_cell_volume   5213.20881044
_cell_formula_units_Z   4
loop_
 _symmetry_equiv_pos_site_id
 _symmetry_equiv_pos_as_xyz
  1  'x, y, z'
loop_
 _atom_site_type_symbol
 _atom_site_label
 _atom_site_symmetry_multiplicity
 _atom_site_fract_x
 _atom_site_fract_y
 _atom_site_fract_z
 _atom_site_occupancy
 _atom_site_charge
  Zn  Zn1  1  0.993810  0.596570  0.487280  1.0  0.9412
  Zn  Zn2  1  0.403430  0.006190  0.012720  1.0  0.9403
  Zn  Zn3  1  0.006190  0.403430  0.512720  1.0  0.9405
  Zn  Zn4  1  0.596570  0.993810  0.987280  1.0  0.9405
  H  H5  1  0.223800  0.540800  0.569300  1.0  0.0963
  H  H6  1  0.338900  0.504300  0.620800  1.0  0.1378
  H  H7  1  0.370900  0.235500  0.648600  1.0  0.1247
  H  H8  1  0.247600  0.276600  0.598500  1.0  0.1043
  H  H9  1  0.586000  0.253600  0.700800  1.0  0.1209
  H  H10  1  0.608500  0.158500  0.799300  1.0  0.1117
  H  H11  1  0.338900  0.200300  0.848400  1.0  0.1055
  H  H12  1  0.317400  0.301200  0.752800  1.0  0.1214
  H  H13  1  0.080100  0.731900  0.408000  1.0  0.079
  H  H14  1  0.100300  0.860500  0.407700  1.0  0.1345
  H  H15  1  0.908100  0.884700  0.561300  1.0  0.1212
  H  H16  1  0.888400  0.753800  0.554400  1.0  0.0989
  H  H17  1  0.036700  0.011100  0.441200  1.0  0.0947
  H  H18  1  0.459200  0.776200  0.930700  1.0  0.095
  H  H19  1  0.495700  0.661100  0.879200  1.0  0.1376
  H  H20  1  0.764500  0.629100  0.851400  1.0  0.1256
  H  H21  1  0.723400  0.752400  0.901500  1.0  0.1031
  H  H22  1  0.746400  0.414000  0.799200  1.0  0.1214
  H  H23  1  0.841500  0.391500  0.700700  1.0  0.1113
  H  H24  1  0.799700  0.661100  0.651600  1.0  0.1059
  H  H25  1  0.698800  0.682600  0.747200  1.0  0.1211
  H  H26  1  0.268100  0.919900  0.092000  1.0  0.0773
  H  H27  1  0.139500  0.899700  0.092300  1.0  0.1333
  H  H28  1  0.115300  0.091900  0.938700  1.0  0.1216
  H  H29  1  0.246200  0.111600  0.945600  1.0  0.0996
  H  H30  1  0.988900  0.963300  0.058800  1.0  0.0968
  H  H31  1  0.776200  0.459200  0.430700  1.0  0.095
  H  H32  1  0.661100  0.495700  0.379200  1.0  0.1374
  H  H33  1  0.629100  0.764500  0.351400  1.0  0.1243
  H  H34  1  0.752400  0.723400  0.401500  1.0  0.1047
  H  H35  1  0.414000  0.746400  0.299200  1.0  0.122
  H  H36  1  0.391500  0.841500  0.200700  1.0  0.112
  H  H37  1  0.661100  0.799700  0.151600  1.0  0.1054
  H  H38  1  0.682600  0.698800  0.247200  1.0  0.1221
  H  H39  1  0.919900  0.268100  0.592000  1.0  0.0775
  H  H40  1  0.899700  0.139500  0.592300  1.0  0.1337
  H  H41  1  0.091900  0.115300  0.438700  1.0  0.1208
  H  H42  1  0.111600  0.246200  0.445600  1.0  0.0996
  H  H43  1  0.963300  0.988900  0.558800  1.0  0.096
  H  H44  1  0.540800  0.223800  0.069300  1.0  0.0952
  H  H45  1  0.504300  0.338900  0.120800  1.0  0.1366
  H  H46  1  0.235500  0.370900  0.148600  1.0  0.1261
  H  H47  1  0.276600  0.247600  0.098500  1.0  0.1038
  H  H48  1  0.253600  0.586000  0.200800  1.0  0.1222
  H  H49  1  0.158500  0.608500  0.299300  1.0  0.1112
  H  H50  1  0.200300  0.338900  0.348400  1.0  0.1055
  H  H51  1  0.301200  0.317400  0.252800  1.0  0.1207
  H  H52  1  0.731900  0.080100  0.908000  1.0  0.0791
  H  H53  1  0.860500  0.100300  0.907700  1.0  0.1342
  H  H54  1  0.884700  0.908100  0.061300  1.0  0.1214
  H  H55  1  0.753800  0.888400  0.054400  1.0  0.0999
  H  H56  1  0.011100  0.036700  0.941200  1.0  0.096
  C  C57  1  0.142900  0.440300  0.549700  1.0  0.7175
  C  C58  1  0.222600  0.412200  0.578300  1.0  -0.1771
  C  C59  1  0.253500  0.478100  0.586000  1.0  -0.0045
  C  C60  1  0.322500  0.457300  0.615600  1.0  -0.2542
  C  C61  1  0.368200  0.366800  0.637600  1.0  0.2984
  C  C62  1  0.340300  0.298100  0.632200  1.0  -0.2707
  C  C63  1  0.266500  0.322700  0.602100  1.0  -0.0085
  C  C64  1  0.450300  0.284100  0.718400  1.0  0.3068
  C  C65  1  0.535100  0.243500  0.731100  1.0  -0.2226
  C  C66  1  0.549100  0.185900  0.789600  1.0  -0.0399
  C  C67  1  0.475800  0.170600  0.831300  1.0  -0.1566
  C  C68  1  0.389800  0.211600  0.818700  1.0  -0.0085
  C  C69  1  0.377300  0.270500  0.761500  1.0  -0.2474
  C  C70  1  0.489500  0.104700  0.893100  1.0  0.6952
  C  C71  1  0.045700  0.761900  0.441900  1.0  0.1929
  C  C72  1  0.056300  0.840100  0.439600  1.0  -0.228
  C  C73  1  0.003300  0.889900  0.483600  1.0  0.1382
  C  C74  1  0.944400  0.854000  0.528100  1.0  -0.2052
  C  C75  1  0.936000  0.773000  0.526100  1.0  0.1603
  C  C76  1  0.010900  0.982100  0.480400  1.0  -0.09
  C  C77  1  0.559700  0.857100  0.950300  1.0  0.7177
  C  C78  1  0.587800  0.777400  0.921700  1.0  -0.173
  C  C79  1  0.521900  0.746500  0.914000  1.0  -0.0025
  C  C80  1  0.542700  0.677500  0.884400  1.0  -0.2542
  C  C81  1  0.633200  0.631800  0.862400  1.0  0.296
  C  C82  1  0.701900  0.659700  0.867800  1.0  -0.2664
  C  C83  1  0.677300  0.733500  0.897900  1.0  -0.0078
  C  C84  1  0.715900  0.549700  0.781600  1.0  0.3064
  C  C85  1  0.756500  0.464900  0.768900  1.0  -0.2214
  C  C86  1  0.814100  0.450900  0.710400  1.0  -0.0398
  C  C87  1  0.829400  0.524200  0.668700  1.0  -0.1579
  C  C88  1  0.788400  0.610200  0.681300  1.0  -0.0088
  C  C89  1  0.729500  0.622700  0.738500  1.0  -0.2482
  C  C90  1  0.895300  0.510500  0.606900  1.0  0.6943
  C  C91  1  0.238100  0.954300  0.058100  1.0  0.1919
  C  C92  1  0.159900  0.943700  0.060400  1.0  -0.2288
  C  C93  1  0.110100  0.996700  0.016400  1.0  0.1302
  C  C94  1  0.146000  0.055600  0.971900  1.0  -0.207
  C  C95  1  0.227000  0.064000  0.973900  1.0  0.1622
  C  C96  1  0.017900  0.989100  0.019600  1.0  -0.089
  C  C97  1  0.857100  0.559700  0.450300  1.0  0.7166
  C  C98  1  0.777400  0.587800  0.421700  1.0  -0.1768
  C  C99  1  0.746500  0.521900  0.414000  1.0  -0.0037
  C  C100  1  0.677500  0.542700  0.384400  1.0  -0.2541
  C  C101  1  0.631800  0.633200  0.362400  1.0  0.298
  C  C102  1  0.659700  0.701900  0.367800  1.0  -0.2694
  C  C103  1  0.733500  0.677300  0.397900  1.0  -0.0078
  C  C104  1  0.549700  0.715900  0.281600  1.0  0.3072
  C  C105  1  0.464900  0.756500  0.268900  1.0  -0.2131
  C  C106  1  0.450900  0.814100  0.210400  1.0  -0.0438
  C  C107  1  0.524200  0.829400  0.168700  1.0  -0.1572
  C  C108  1  0.610200  0.788400  0.181300  1.0  -0.0085
  C  C109  1  0.622700  0.729500  0.238500  1.0  -0.2448
  C  C110  1  0.510500  0.895300  0.106900  1.0  0.695
  C  C111  1  0.954300  0.238100  0.558100  1.0  0.1922
  C  C112  1  0.943700  0.159900  0.560400  1.0  -0.2263
  C  C113  1  0.996700  0.110100  0.516400  1.0  0.1359
  C  C114  1  0.055600  0.146000  0.471900  1.0  -0.2054
  C  C115  1  0.064000  0.227000  0.473900  1.0  0.1612
  C  C116  1  0.989100  0.017900  0.519600  1.0  -0.0914
  C  C117  1  0.440300  0.142900  0.049700  1.0  0.7179
  C  C118  1  0.412200  0.222600  0.078300  1.0  -0.1754
  C  C119  1  0.478100  0.253500  0.086000  1.0  -0.003
  C  C120  1  0.457300  0.322500  0.115600  1.0  -0.2537
  C  C121  1  0.366800  0.368200  0.137600  1.0  0.2986
  C  C122  1  0.298100  0.340300  0.132200  1.0  -0.2711
  C  C123  1  0.322700  0.266500  0.102100  1.0  -0.0075
  C  C124  1  0.284100  0.450300  0.218400  1.0  0.3065
  C  C125  1  0.243500  0.535100  0.231100  1.0  -0.223
  C  C126  1  0.185900  0.549100  0.289600  1.0  -0.0392
  C  C127  1  0.170600  0.475800  0.331300  1.0  -0.1573
  C  C128  1  0.211600  0.389800  0.318700  1.0  -0.0098
  C  C129  1  0.270500  0.377300  0.261500  1.0  -0.2483
  C  C130  1  0.104700  0.489500  0.393100  1.0  0.695
  C  C131  1  0.761900  0.045700  0.941900  1.0  0.1922
  C  C132  1  0.840100  0.056300  0.939600  1.0  -0.23
  C  C133  1  0.889900  0.003300  0.983600  1.0  0.1382
  C  C134  1  0.854000  0.944400  0.028100  1.0  -0.2081
  C  C135  1  0.773000  0.936000  0.026100  1.0  0.1623
  C  C136  1  0.982100  0.010900  0.980400  1.0  -0.0907
  N  N137  1  0.994100  0.721700  0.484700  1.0  -0.2893
  N  N138  1  0.278300  0.005900  0.015300  1.0  -0.2899
  N  N139  1  0.005900  0.278300  0.515300  1.0  -0.29
  N  N140  1  0.721700  0.994100  0.984700  1.0  -0.2883
  O  O141  1  0.105100  0.523300  0.528700  1.0  -0.6199
  O  O142  1  0.116200  0.377800  0.548900  1.0  -0.6006
  O  O143  1  0.442500  0.345300  0.662000  1.0  -0.2706
  O  O144  1  0.568200  0.075200  0.906200  1.0  -0.6009
  O  O145  1  0.421400  0.086800  0.927600  1.0  -0.6078
  O  O146  1  0.476700  0.894900  0.971300  1.0  -0.6201
  O  O147  1  0.622200  0.883800  0.951100  1.0  -0.6033
  O  O148  1  0.654700  0.557500  0.838000  1.0  -0.2681
  O  O149  1  0.924800  0.431800  0.593800  1.0  -0.6016
  O  O150  1  0.913200  0.578600  0.572400  1.0  -0.6069
  O  O151  1  0.894900  0.476700  0.471300  1.0  -0.6204
  O  O152  1  0.883800  0.622200  0.451100  1.0  -0.6015
  O  O153  1  0.557500  0.654700  0.338000  1.0  -0.2689
  O  O154  1  0.431800  0.924800  0.093800  1.0  -0.601
  O  O155  1  0.578600  0.913200  0.072400  1.0  -0.6077
  O  O156  1  0.523300  0.105100  0.028700  1.0  -0.6192
  O  O157  1  0.377800  0.116200  0.048900  1.0  -0.5984
  O  O158  1  0.345300  0.442500  0.162000  1.0  -0.2702
  O  O159  1  0.075200  0.568200  0.406200  1.0  -0.6009
  O  O160  1  0.086800  0.421400  0.427600  1.0  -0.6076
