# generated using pymatgen
data_CuH28C28(N2O)4
_symmetry_space_group_name_H-M   'P 1'
_cell_length_a   21.29600000
_cell_length_b   9.38200000
_cell_length_c   18.80300000
_cell_angle_alpha   90.00000000
_cell_angle_beta   90.00000000
_cell_angle_gamma   90.00000000
_symmetry_Int_Tables_number   1
_chemical_formula_structural   CuH28C28(N2O)4
_chemical_formula_sum   'Cu4 H112 C112 N32 O16'
_cell_volume   3756.82195082
_cell_formula_units_Z   4
loop_
 _symmetry_equiv_pos_site_id
 _symmetry_equiv_pos_as_xyz
  1  'x, y, z'
loop_
 _atom_site_type_symbol
 _atom_site_label
 _atom_site_symmetry_multiplicity
 _atom_site_fract_x
 _atom_site_fract_y
 _atom_site_fract_z
 _atom_site_occupancy
 _atom_site_charge
  Cu  Cu1  1  0.887910  0.018830  0.882000  1.0  0.3776
  Cu  Cu2  1  0.112090  0.981170  0.382000  1.0  0.3784
  Cu  Cu3  1  0.387910  0.981170  0.882000  1.0  0.3781
  Cu  Cu4  1  0.612090  0.018830  0.382000  1.0  0.3779
  H  H5  1  0.891300  0.753800  0.970900  1.0  0.0734
  H  H6  1  0.025900  0.951200  0.868900  1.0  0.0796
  H  H7  1  0.099000  0.812400  0.919600  1.0  0.0938
  H  H8  1  0.071300  0.643600  0.003700  1.0  0.1128
  H  H9  1  0.062100  0.719800  0.309000  1.0  0.0673
  H  H10  1  0.021000  0.882700  0.493500  1.0  0.0523
  H  H11  1  0.943200  0.722300  0.510400  1.0  0.1086
  H  H12  1  0.917200  0.573500  0.418800  1.0  0.0824
  H  H13  1  0.016700  0.567100  0.109000  1.0  0.2338
  H  H14  1  0.053400  0.528600  0.252700  1.0  0.2994
  H  H15  1  0.954800  0.319300  0.112800  1.0  0.0825
  H  H16  1  0.922500  0.428600  0.164300  1.0  0.0732
  H  H17  1  0.996300  0.281000  0.223400  1.0  0.0947
  H  H18  1  0.049700  0.347200  0.176600  1.0  0.0868
  H  H19  1  0.828800  0.276300  0.948600  1.0  0.0729
  H  H20  1  0.793200  0.079000  0.768500  1.0  0.0914
  H  H21  1  0.704600  0.213300  0.750900  1.0  0.113
  H  H22  1  0.672000  0.364500  0.842000  1.0  0.0906
  H  H23  1  0.637800  0.754400  0.294100  1.0  0.0805
  H  H24  1  0.736900  0.941800  0.444000  1.0  0.0957
  H  H25  1  0.821200  0.801500  0.416800  1.0  0.0834
  H  H26  1  0.816900  0.639000  0.325100  1.0  0.104
  H  H27  1  0.811700  0.482800  0.991300  1.0  0.2768
  H  H28  1  0.801800  0.608900  0.208500  1.0  0.2662
  H  H29  1  0.787200  0.657700  0.068800  1.0  0.0626
  H  H30  1  0.716700  0.608500  0.065700  1.0  0.0733
  H  H31  1  0.811000  0.434400  0.128500  1.0  0.0738
  H  H32  1  0.738400  0.407200  0.133800  1.0  0.0762
  H  H33  1  0.108700  0.246200  0.470900  1.0  0.0735
  H  H34  1  0.974100  0.048800  0.368900  1.0  0.0795
  H  H35  1  0.901000  0.187600  0.419600  1.0  0.0933
  H  H36  1  0.928700  0.356400  0.503700  1.0  0.1133
  H  H37  1  0.937900  0.280200  0.809000  1.0  0.0669
  H  H38  1  0.979000  0.117300  0.993500  1.0  0.0526
  H  H39  1  0.056800  0.277700  0.010400  1.0  0.1068
  H  H40  1  0.082800  0.426500  0.918800  1.0  0.0818
  H  H41  1  0.983300  0.432900  0.609000  1.0  0.238
  H  H42  1  0.946600  0.471400  0.752700  1.0  0.2976
  H  H43  1  0.045200  0.680700  0.612800  1.0  0.0819
  H  H44  1  0.077500  0.571400  0.664300  1.0  0.0738
  H  H45  1  0.003700  0.719000  0.723400  1.0  0.0924
  H  H46  1  0.950300  0.652800  0.676600  1.0  0.0874
  H  H47  1  0.171200  0.723700  0.448600  1.0  0.0726
  H  H48  1  0.206800  0.921000  0.268500  1.0  0.0913
  H  H49  1  0.295400  0.786700  0.250900  1.0  0.1132
  H  H50  1  0.328000  0.635500  0.342000  1.0  0.0907
  H  H51  1  0.362200  0.245600  0.794100  1.0  0.0797
  H  H52  1  0.263100  0.058200  0.944000  1.0  0.0961
  H  H53  1  0.178800  0.198500  0.916800  1.0  0.0835
  H  H54  1  0.183100  0.361000  0.825100  1.0  0.1034
  H  H55  1  0.188300  0.517200  0.491300  1.0  0.2789
  H  H56  1  0.198200  0.391100  0.708500  1.0  0.2675
  H  H57  1  0.212800  0.342300  0.568800  1.0  0.0615
  H  H58  1  0.283300  0.391500  0.565700  1.0  0.0746
  H  H59  1  0.189000  0.565600  0.628500  1.0  0.0727
  H  H60  1  0.261600  0.592800  0.633800  1.0  0.0746
  H  H61  1  0.391300  0.246200  0.970900  1.0  0.0731
  H  H62  1  0.525900  0.048800  0.868900  1.0  0.0797
  H  H63  1  0.599000  0.187600  0.919600  1.0  0.0935
  H  H64  1  0.571300  0.356400  0.003700  1.0  0.113
  H  H65  1  0.562100  0.280200  0.309000  1.0  0.0673
  H  H66  1  0.521000  0.117300  0.493500  1.0  0.053
  H  H67  1  0.443200  0.277700  0.510400  1.0  0.1085
  H  H68  1  0.417200  0.426500  0.418800  1.0  0.082
  H  H69  1  0.516700  0.432900  0.109000  1.0  0.2361
  H  H70  1  0.553400  0.471400  0.252700  1.0  0.2989
  H  H71  1  0.454800  0.680700  0.112800  1.0  0.082
  H  H72  1  0.422500  0.571400  0.164300  1.0  0.0732
  H  H73  1  0.496300  0.719000  0.223400  1.0  0.0925
  H  H74  1  0.549700  0.652800  0.176600  1.0  0.0877
  H  H75  1  0.328800  0.723700  0.948600  1.0  0.0726
  H  H76  1  0.293200  0.921000  0.768500  1.0  0.0913
  H  H77  1  0.204600  0.786700  0.750900  1.0  0.1134
  H  H78  1  0.172000  0.635500  0.842000  1.0  0.0907
  H  H79  1  0.137800  0.245600  0.294100  1.0  0.0801
  H  H80  1  0.236900  0.058200  0.444000  1.0  0.0952
  H  H81  1  0.321200  0.198500  0.416800  1.0  0.0838
  H  H82  1  0.316900  0.361000  0.325100  1.0  0.1034
  H  H83  1  0.311700  0.517200  0.991300  1.0  0.2775
  H  H84  1  0.301800  0.391100  0.208500  1.0  0.2668
  H  H85  1  0.287200  0.342300  0.068800  1.0  0.0604
  H  H86  1  0.216700  0.391500  0.065700  1.0  0.0739
  H  H87  1  0.311000  0.565600  0.128500  1.0  0.0736
  H  H88  1  0.238400  0.592800  0.133800  1.0  0.0749
  H  H89  1  0.608700  0.753800  0.470900  1.0  0.0734
  H  H90  1  0.474100  0.951200  0.368900  1.0  0.0796
  H  H91  1  0.401000  0.812400  0.419600  1.0  0.0941
  H  H92  1  0.428700  0.643600  0.503700  1.0  0.1133
  H  H93  1  0.437900  0.719800  0.809000  1.0  0.0671
  H  H94  1  0.479000  0.882700  0.993500  1.0  0.0521
  H  H95  1  0.556800  0.722300  0.010400  1.0  0.1067
  H  H96  1  0.582800  0.573500  0.918800  1.0  0.0823
  H  H97  1  0.483300  0.567100  0.609000  1.0  0.2359
  H  H98  1  0.446600  0.528600  0.752700  1.0  0.2978
  H  H99  1  0.545200  0.319300  0.612800  1.0  0.0822
  H  H100  1  0.577500  0.428600  0.664300  1.0  0.074
  H  H101  1  0.503700  0.281000  0.723400  1.0  0.0947
  H  H102  1  0.450300  0.347200  0.676600  1.0  0.0871
  H  H103  1  0.671200  0.276300  0.448600  1.0  0.0727
  H  H104  1  0.706800  0.079000  0.268500  1.0  0.0914
  H  H105  1  0.795400  0.213300  0.250900  1.0  0.1132
  H  H106  1  0.828000  0.364500  0.342000  1.0  0.0906
  H  H107  1  0.862200  0.754400  0.794100  1.0  0.0799
  H  H108  1  0.763100  0.941800  0.944000  1.0  0.0955
  H  H109  1  0.678800  0.801500  0.916800  1.0  0.0834
  H  H110  1  0.683100  0.639000  0.825100  1.0  0.1039
  H  H111  1  0.688300  0.482800  0.491300  1.0  0.278
  H  H112  1  0.698200  0.608900  0.708500  1.0  0.2675
  H  H113  1  0.712800  0.657700  0.568800  1.0  0.0626
  H  H114  1  0.783300  0.608500  0.565700  1.0  0.0758
  H  H115  1  0.689000  0.434400  0.628500  1.0  0.0731
  H  H116  1  0.761600  0.407200  0.633800  1.0  0.0756
  C  C117  1  0.976700  0.678700  0.994600  1.0  -0.0375
  C  C118  1  0.933800  0.766000  0.961100  1.0  0.119
  C  C119  1  0.013300  0.881600  0.901100  1.0  0.1402
  C  C120  1  0.057100  0.799900  0.931700  1.0  -0.1521
  C  C121  1  0.040900  0.697900  0.980700  1.0  -0.1659
  C  C122  1  0.952800  0.558300  0.037400  1.0  0.5313
  C  C123  1  0.990600  0.625300  0.354600  1.0  -0.052
  C  C124  1  0.037200  0.721500  0.349600  1.0  0.1448
  C  C125  1  0.013400  0.816500  0.457700  1.0  0.1492
  C  C126  1  0.965800  0.723200  0.468100  1.0  -0.1442
  C  C127  1  0.952200  0.632300  0.415300  1.0  -0.0548
  C  C128  1  0.975600  0.511900  0.300300  1.0  0.5703
  C  C129  1  0.962000  0.402700  0.142100  1.0  -0.0317
  C  C130  1  0.009700  0.367100  0.199200  1.0  -0.0265
  C  C131  1  0.748900  0.338900  0.902700  1.0  -0.0593
  C  C132  1  0.803200  0.262200  0.909100  1.0  0.0776
  C  C133  1  0.782200  0.147300  0.802100  1.0  0.1236
  C  C134  1  0.728300  0.223700  0.792100  1.0  -0.1726
  C  C135  1  0.710200  0.316900  0.845200  1.0  -0.0307
  C  C136  1  0.728200  0.433600  0.961300  1.0  0.5056
  C  C137  1  0.726000  0.684000  0.299000  1.0  -0.0628
  C  C138  1  0.675700  0.767300  0.317700  1.0  0.1138
  C  C139  1  0.733900  0.877000  0.406800  1.0  0.1096
  C  C140  1  0.784500  0.792400  0.390400  1.0  -0.1076
  C  C141  1  0.782300  0.695200  0.336400  1.0  -0.2177
  C  C142  1  0.717200  0.585100  0.237200  1.0  0.5536
  C  C143  1  0.759800  0.575200  0.066600  1.0  0.0175
  C  C144  1  0.770400  0.480700  0.131900  1.0  0.0111
  C  C145  1  0.023300  0.321300  0.494600  1.0  -0.0372
  C  C146  1  0.066200  0.234000  0.461100  1.0  0.1193
  C  C147  1  0.986700  0.118400  0.401100  1.0  0.1402
  C  C148  1  0.942900  0.200100  0.431700  1.0  -0.1513
  C  C149  1  0.959100  0.302100  0.480700  1.0  -0.1666
  C  C150  1  0.047200  0.441700  0.537400  1.0  0.5307
  C  C151  1  0.009400  0.374700  0.854600  1.0  -0.0525
  C  C152  1  0.962800  0.278500  0.849600  1.0  0.144
  C  C153  1  0.986600  0.183500  0.957700  1.0  0.1478
  C  C154  1  0.034200  0.276800  0.968100  1.0  -0.1439
  C  C155  1  0.047800  0.367700  0.915300  1.0  -0.0541
  C  C156  1  0.024400  0.488100  0.800300  1.0  0.5705
  C  C157  1  0.038000  0.597300  0.642100  1.0  -0.0316
  C  C158  1  0.990300  0.632900  0.699200  1.0  -0.0256
  C  C159  1  0.251100  0.661100  0.402700  1.0  -0.0591
  C  C160  1  0.196800  0.737800  0.409100  1.0  0.0772
  C  C161  1  0.217800  0.852700  0.302100  1.0  0.1233
  C  C162  1  0.271700  0.776300  0.292100  1.0  -0.1725
  C  C163  1  0.289800  0.683100  0.345200  1.0  -0.0309
  C  C164  1  0.271800  0.566400  0.461300  1.0  0.506
  C  C165  1  0.274000  0.316000  0.799000  1.0  -0.0637
  C  C166  1  0.324300  0.232700  0.817700  1.0  0.1144
  C  C167  1  0.266100  0.123000  0.906800  1.0  0.1098
  C  C168  1  0.215500  0.207600  0.890400  1.0  -0.1091
  C  C169  1  0.217700  0.304800  0.836400  1.0  -0.2164
  C  C170  1  0.282800  0.414900  0.737200  1.0  0.5529
  C  C171  1  0.240200  0.424800  0.566600  1.0  0.0162
  C  C172  1  0.229600  0.519300  0.631900  1.0  0.0135
  C  C173  1  0.476700  0.321300  0.994600  1.0  -0.0372
  C  C174  1  0.433800  0.234000  0.961100  1.0  0.1193
  C  C175  1  0.513300  0.118400  0.901100  1.0  0.1397
  C  C176  1  0.557100  0.200100  0.931700  1.0  -0.1509
  C  C177  1  0.540900  0.302100  0.980700  1.0  -0.1661
  C  C178  1  0.452800  0.441700  0.037400  1.0  0.531
  C  C179  1  0.490600  0.374700  0.354600  1.0  -0.052
  C  C180  1  0.537200  0.278500  0.349600  1.0  0.1442
  C  C181  1  0.513400  0.183500  0.457700  1.0  0.1486
  C  C182  1  0.465800  0.276800  0.468100  1.0  -0.1441
  C  C183  1  0.452200  0.367700  0.415300  1.0  -0.0541
  C  C184  1  0.475600  0.488100  0.300300  1.0  0.5699
  C  C185  1  0.462000  0.597300  0.142100  1.0  -0.0315
  C  C186  1  0.509700  0.632900  0.199200  1.0  -0.0262
  C  C187  1  0.248900  0.661100  0.902700  1.0  -0.0593
  C  C188  1  0.303200  0.737800  0.909100  1.0  0.0781
  C  C189  1  0.282200  0.852700  0.802100  1.0  0.1236
  C  C190  1  0.228300  0.776300  0.792100  1.0  -0.1726
  C  C191  1  0.210200  0.683100  0.845200  1.0  -0.0306
  C  C192  1  0.228200  0.566400  0.961300  1.0  0.5059
  C  C193  1  0.226000  0.316000  0.299000  1.0  -0.0634
  C  C194  1  0.175700  0.232700  0.317700  1.0  0.1134
  C  C195  1  0.233900  0.123000  0.406800  1.0  0.1097
  C  C196  1  0.284500  0.207600  0.390400  1.0  -0.1082
  C  C197  1  0.282300  0.304800  0.336400  1.0  -0.2178
  C  C198  1  0.217200  0.414900  0.237200  1.0  0.5532
  C  C199  1  0.259800  0.424800  0.066600  1.0  0.0158
  C  C200  1  0.270400  0.519300  0.131900  1.0  0.0135
  C  C201  1  0.523300  0.678700  0.494600  1.0  -0.0373
  C  C202  1  0.566200  0.766000  0.461100  1.0  0.1195
  C  C203  1  0.486700  0.881600  0.401100  1.0  0.141
  C  C204  1  0.442900  0.799900  0.431700  1.0  -0.1518
  C  C205  1  0.459100  0.697900  0.480700  1.0  -0.1671
  C  C206  1  0.547200  0.558300  0.537400  1.0  0.5308
  C  C207  1  0.509400  0.625300  0.854600  1.0  -0.0525
  C  C208  1  0.462800  0.721500  0.849600  1.0  0.1445
  C  C209  1  0.486600  0.816500  0.957700  1.0  0.1485
  C  C210  1  0.534200  0.723200  0.968100  1.0  -0.1441
  C  C211  1  0.547800  0.632300  0.915300  1.0  -0.0544
  C  C212  1  0.524400  0.511900  0.800300  1.0  0.5703
  C  C213  1  0.538000  0.402700  0.642100  1.0  -0.0319
  C  C214  1  0.490300  0.367100  0.699200  1.0  -0.0254
  C  C215  1  0.751100  0.338900  0.402700  1.0  -0.0591
  C  C216  1  0.696800  0.262200  0.409100  1.0  0.0772
  C  C217  1  0.717800  0.147300  0.302100  1.0  0.1232
  C  C218  1  0.771700  0.223700  0.292100  1.0  -0.173
  C  C219  1  0.789800  0.316900  0.345200  1.0  -0.0317
  C  C220  1  0.771800  0.433600  0.461300  1.0  0.5055
  C  C221  1  0.774000  0.684000  0.799000  1.0  -0.063
  C  C222  1  0.824300  0.767300  0.817700  1.0  0.1144
  C  C223  1  0.766100  0.877000  0.906800  1.0  0.1095
  C  C224  1  0.715500  0.792400  0.890400  1.0  -0.1087
  C  C225  1  0.717700  0.695200  0.836400  1.0  -0.2171
  C  C226  1  0.782800  0.585100  0.737200  1.0  0.5532
  C  C227  1  0.740200  0.575200  0.566600  1.0  0.0176
  C  C228  1  0.729600  0.480700  0.631900  1.0  0.0114
  N  N229  1  0.951000  0.867000  0.915200  1.0  -0.334
  N  N230  1  0.050600  0.821400  0.400300  1.0  -0.3323
  N  N231  1  0.983600  0.520700  0.097000  1.0  -0.4015
  N  N232  1  0.018800  0.481200  0.252700  1.0  -0.3934
  N  N233  1  0.820500  0.167100  0.859500  1.0  -0.3239
  N  N234  1  0.679400  0.867200  0.369100  1.0  -0.3241
  N  N235  1  0.773000  0.493900  0.003300  1.0  -0.4323
  N  N236  1  0.767800  0.566300  0.195900  1.0  -0.4297
  N  N237  1  0.049000  0.133000  0.415200  1.0  -0.3344
  N  N238  1  0.949400  0.178600  0.900300  1.0  -0.3326
  N  N239  1  0.016400  0.479300  0.597000  1.0  -0.4017
  N  N240  1  0.981200  0.518800  0.752700  1.0  -0.3943
  N  N241  1  0.179500  0.832900  0.359500  1.0  -0.3241
  N  N242  1  0.320600  0.132800  0.869100  1.0  -0.3242
  N  N243  1  0.227000  0.506100  0.503300  1.0  -0.4296
  N  N244  1  0.232200  0.433700  0.695900  1.0  -0.43
  N  N245  1  0.451000  0.133000  0.915200  1.0  -0.3346
  N  N246  1  0.550600  0.178600  0.400300  1.0  -0.3315
  N  N247  1  0.483600  0.479300  0.097000  1.0  -0.402
  N  N248  1  0.518800  0.518800  0.252700  1.0  -0.393
  N  N249  1  0.320500  0.832900  0.859500  1.0  -0.3241
  N  N250  1  0.179400  0.132800  0.369100  1.0  -0.3247
  N  N251  1  0.273000  0.506100  0.003300  1.0  -0.4317
  N  N252  1  0.267800  0.433700  0.195900  1.0  -0.43
  N  N253  1  0.549000  0.867000  0.415200  1.0  -0.3344
  N  N254  1  0.449400  0.821400  0.900300  1.0  -0.3328
  N  N255  1  0.516400  0.520700  0.597000  1.0  -0.402
  N  N256  1  0.481200  0.481200  0.752700  1.0  -0.3949
  N  N257  1  0.679500  0.167100  0.359500  1.0  -0.3245
  N  N258  1  0.820600  0.867200  0.869100  1.0  -0.324
  N  N259  1  0.727000  0.493900  0.503300  1.0  -0.4298
  N  N260  1  0.732200  0.566300  0.695900  1.0  -0.43
  O  O261  1  0.903200  0.496000  0.021300  1.0  -0.6235
  O  O262  1  0.924700  0.450100  0.300600  1.0  -0.5843
  O  O263  1  0.671600  0.462100  0.969500  1.0  -0.5895
  O  O264  1  0.667500  0.522200  0.228800  1.0  -0.5606
  O  O265  1  0.096800  0.504000  0.521300  1.0  -0.6237
  O  O266  1  0.075300  0.549900  0.800600  1.0  -0.5844
  O  O267  1  0.328400  0.537900  0.469500  1.0  -0.5888
  O  O268  1  0.332500  0.477800  0.728800  1.0  -0.5608
  O  O269  1  0.403200  0.504000  0.021300  1.0  -0.6233
  O  O270  1  0.424700  0.549900  0.300600  1.0  -0.5839
  O  O271  1  0.171600  0.537900  0.969500  1.0  -0.5899
  O  O272  1  0.167500  0.477800  0.228800  1.0  -0.5615
  O  O273  1  0.596800  0.496000  0.521300  1.0  -0.6238
  O  O274  1  0.575300  0.450100  0.800600  1.0  -0.5838
  O  O275  1  0.828400  0.462100  0.469500  1.0  -0.5884
  O  O276  1  0.832500  0.522200  0.728800  1.0  -0.5627
