# generated using pymatgen
data_LaH4C4O5
_symmetry_space_group_name_H-M   'P 1'
_cell_length_a   7.05100000
_cell_length_b   14.59810000
_cell_length_c   10.62140000
_cell_angle_alpha   90.00000000
_cell_angle_beta   108.04600000
_cell_angle_gamma   90.00000000
_symmetry_Int_Tables_number   1
_chemical_formula_structural   LaH4C4O5
_chemical_formula_sum   'La4 H16 C16 O20'
_cell_volume   1039.49329735
_cell_formula_units_Z   4
loop_
 _symmetry_equiv_pos_site_id
 _symmetry_equiv_pos_as_xyz
  1  'x, y, z'
loop_
 _atom_site_type_symbol
 _atom_site_label
 _atom_site_symmetry_multiplicity
 _atom_site_fract_x
 _atom_site_fract_y
 _atom_site_fract_z
 _atom_site_occupancy
 _atom_site_charge
  La  La1  1  0.724350  0.611460  0.498740  1.0  2.1125
  La  La2  1  0.775650  0.111460  0.001260  1.0  2.1131
  La  La3  1  0.275650  0.388540  0.501260  1.0  2.1125
  La  La4  1  0.224350  0.888530  0.998740  1.0  2.1119
  H  H5  1  0.236400  0.749400  0.499900  1.0  0.0559
  H  H6  1  0.289100  0.734000  0.653400  1.0  0.0354
  H  H7  1  0.543800  0.817100  0.728900  1.0  0.0526
  H  H8  1  0.584900  0.857200  0.602500  1.0  0.0615
  H  H9  1  0.263600  0.249400  0.000100  1.0  0.0553
  H  H10  1  0.210900  0.234000  0.846600  1.0  0.0353
  H  H11  1  0.956200  0.317100  0.771100  1.0  0.0519
  H  H12  1  0.915100  0.357200  0.897500  1.0  0.0623
  H  H13  1  0.763600  0.250600  0.500100  1.0  0.0559
  H  H14  1  0.710900  0.266000  0.346600  1.0  0.0357
  H  H15  1  0.456200  0.182900  0.271100  1.0  0.0515
  H  H16  1  0.415100  0.142800  0.397500  1.0  0.063
  H  H17  1  0.736400  0.750600  0.999900  1.0  0.0561
  H  H18  1  0.789100  0.766000  0.153400  1.0  0.0361
  H  H19  1  0.043800  0.682900  0.228900  1.0  0.0522
  H  H20  1  0.084900  0.642800  0.102500  1.0  0.0617
  C  C21  1  0.261900  0.613900  0.550600  1.0  0.7003
  C  C22  1  0.316300  0.713100  0.574000  1.0  -0.1073
  C  C23  1  0.606700  0.804800  0.661300  1.0  -0.1189
  C  C24  1  0.826500  0.789900  0.724900  1.0  0.7039
  C  C25  1  0.238100  0.113900  0.949400  1.0  0.6992
  C  C26  1  0.183700  0.213100  0.926000  1.0  -0.1069
  C  C27  1  0.893300  0.304800  0.838700  1.0  -0.1179
  C  C28  1  0.673500  0.289900  0.775100  1.0  0.7036
  C  C29  1  0.738100  0.386100  0.449400  1.0  0.7028
  C  C30  1  0.683700  0.286900  0.426000  1.0  -0.1075
  C  C31  1  0.393300  0.195200  0.338700  1.0  -0.1185
  C  C32  1  0.173500  0.210100  0.275100  1.0  0.7046
  C  C33  1  0.761900  0.886100  0.050600  1.0  0.7032
  C  C34  1  0.816300  0.786900  0.074000  1.0  -0.1075
  C  C35  1  0.106700  0.695200  0.161300  1.0  -0.1187
  C  C36  1  0.326500  0.710100  0.224900  1.0  0.7048
  O  O37  1  0.394200  0.557910  0.543200  1.0  -0.8303
  O  O38  1  0.086300  0.592130  0.536000  1.0  -0.8264
  O  O39  1  0.520900  0.724870  0.588300  1.0  -0.3627
  O  O40  1  0.914900  0.851920  0.804800  1.0  -0.7563
  O  O41  1  0.906900  0.719600  0.696100  1.0  -0.7217
  O  O42  1  0.105800  0.057910  0.956800  1.0  -0.829
  O  O43  1  0.413700  0.092130  0.964000  1.0  -0.8263
  O  O44  1  0.979100  0.224870  0.911700  1.0  -0.3644
  O  O45  1  0.585100  0.351920  0.695200  1.0  -0.7562
  O  O46  1  0.593100  0.219600  0.803900  1.0  -0.7212
  O  O47  1  0.605800  0.442090  0.456800  1.0  -0.8295
  O  O48  1  0.913700  0.407870  0.464000  1.0  -0.8266
  O  O49  1  0.479100  0.275130  0.411700  1.0  -0.3647
  O  O50  1  0.085100  0.148080  0.195200  1.0  -0.7556
  O  O51  1  0.093100  0.280400  0.303900  1.0  -0.7225
  O  O52  1  0.894200  0.942090  0.043200  1.0  -0.8285
  O  O53  1  0.586300  0.907870  0.036000  1.0  -0.8277
  O  O54  1  0.020900  0.775130  0.088300  1.0  -0.3633
  O  O55  1  0.414900  0.648080  0.304800  1.0  -0.7567
  O  O56  1  0.406900  0.780400  0.196100  1.0  -0.7222
