# generated using pymatgen
data_Cd2H25C29N9O4
_symmetry_space_group_name_H-M   'P 1'
_cell_length_a   12.25490000
_cell_length_b   13.56990000
_cell_length_c   38.23200000
_cell_angle_alpha   97.44300000
_cell_angle_beta   90.00000000
_cell_angle_gamma   90.00000000
_symmetry_Int_Tables_number   1
_chemical_formula_structural   Cd2H25C29N9O4
_chemical_formula_sum   'Cd16 H200 C232 N72 O32'
_cell_volume   6304.32603216
_cell_formula_units_Z   8
loop_
 _symmetry_equiv_pos_site_id
 _symmetry_equiv_pos_as_xyz
  1  'x, y, z'
loop_
 _atom_site_type_symbol
 _atom_site_label
 _atom_site_symmetry_multiplicity
 _atom_site_fract_x
 _atom_site_fract_y
 _atom_site_fract_z
 _atom_site_occupancy
 _atom_site_charge
  Cd  Cd1  1  0.682210  0.948590  0.336110  1.0  0.9726
  Cd  Cd2  1  0.395610  0.331460  0.423100  1.0  0.9526
  Cd  Cd3  1  0.080270  0.872710  0.636430  1.0  0.9332
  Cd  Cd4  1  0.580270  0.127290  0.863570  1.0  0.9338
  Cd  Cd5  1  0.328730  0.512940  0.941110  1.0  1.0566
  Cd  Cd6  1  0.895610  0.668540  0.076900  1.0  0.9526
  Cd  Cd7  1  0.104390  0.331460  0.923100  1.0  0.9539
  Cd  Cd8  1  0.171270  0.512940  0.441110  1.0  1.048
  Cd  Cd9  1  0.919730  0.127290  0.363560  1.0  0.9327
  Cd  Cd10  1  0.419730  0.872710  0.136430  1.0  0.9342
  Cd  Cd11  1  0.604390  0.668540  0.576900  1.0  0.9539
  Cd  Cd12  1  0.317790  0.051410  0.663890  1.0  0.9727
  Cd  Cd13  1  0.671270  0.487060  0.058890  1.0  1.0494
  Cd  Cd14  1  0.817790  0.948590  0.836110  1.0  0.9723
  Cd  Cd15  1  0.182210  0.051410  0.163890  1.0  0.973
  Cd  Cd16  1  0.828730  0.487060  0.558890  1.0  1.0508
  H  H17  1  0.880300  0.665100  0.869900  1.0  0.1128
  H  H18  1  0.029200  0.061200  0.532000  1.0  0.1111
  H  H19  1  0.936900  0.727900  0.162000  1.0  0.1202
  H  H20  1  0.117600  0.787700  0.848900  1.0  0.081
  H  H21  1  0.827800  0.109100  0.980300  1.0  0.1171
  H  H22  1  0.413500  0.465800  0.183300  1.0  0.1014
  H  H23  1  0.020200  0.784300  0.379400  1.0  0.1078
  H  H24  1  0.979800  0.215700  0.620600  1.0  0.1093
  H  H25  1  0.776500  0.680700  0.448900  1.0  0.131
  H  H26  1  0.327800  0.890900  0.519700  1.0  0.1175
  H  H27  1  0.149300  0.580900  0.089700  1.0  0.1213
  H  H28  1  0.278100  0.709700  0.626900  1.0  0.0728
  H  H29  1  0.223700  0.348800  0.586300  1.0  0.1045
  H  H30  1  0.436900  0.272100  0.338000  1.0  0.1202
  H  H31  1  0.813200  0.255400  0.184200  1.0  0.0812
  H  H32  1  0.686800  0.255400  0.684200  1.0  0.0809
  H  H33  1  0.529200  0.938800  0.968000  1.0  0.1113
  H  H34  1  0.817300  0.791300  0.370100  1.0  0.0924
  H  H35  1  0.276500  0.319300  0.051100  1.0  0.1313
  H  H36  1  0.055100  0.640600  0.794000  1.0  0.0921
  H  H37  1  0.172200  0.890900  0.019700  1.0  0.1177
  H  H38  1  0.295900  0.536500  0.311100  1.0  0.1049
  H  H39  1  0.214200  0.455700  0.836700  1.0  0.0969
  H  H40  1  0.658200  0.955100  0.521700  1.0  0.0738
  H  H41  1  0.682700  0.791300  0.870100  1.0  0.0927
  H  H42  1  0.892600  0.224500  0.591100  1.0  0.1081
  H  H43  1  0.926300  0.119600  0.600500  1.0  0.1145
  H  H44  1  0.649300  0.419100  0.410300  1.0  0.1217
  H  H45  1  0.478400  0.528300  0.692300  1.0  0.0754
  H  H46  1  0.158200  0.044900  0.978300  1.0  0.0737
  H  H47  1  0.392300  0.462300  0.314400  1.0  0.1157
  H  H48  1  0.619700  0.665100  0.369900  1.0  0.1156
  H  H49  1  0.037300  0.497100  0.357700  1.0  0.1188
  H  H50  1  0.382400  0.787700  0.348900  1.0  0.0803
  H  H51  1  0.276300  0.348800  0.086300  1.0  0.1044
  H  H52  1  0.297800  0.032800  0.866800  1.0  0.1258
  H  H53  1  0.335300  0.665400  0.012600  1.0  0.1123
  H  H54  1  0.233000  0.641300  0.346600  1.0  0.1146
  H  H55  1  0.703800  0.415200  0.789800  1.0  0.1291
  H  H56  1  0.607400  0.224500  0.091100  1.0  0.1095
  H  H57  1  0.882400  0.212300  0.151100  1.0  0.0806
  H  H58  1  0.903500  0.178500  0.717400  1.0  0.0936
  H  H59  1  0.086500  0.465800  0.683300  1.0  0.1011
  H  H60  1  0.795900  0.463500  0.188900  1.0  0.1073
  H  H61  1  0.620600  0.925800  0.258900  1.0  0.1209
  H  H62  1  0.965500  0.848100  0.710300  1.0  0.0742
  H  H63  1  0.506800  0.700700  0.386200  1.0  0.1013
  H  H64  1  0.098000  0.791500  0.552400  1.0  0.0706
  H  H65  1  0.906800  0.475400  0.841800  1.0  0.1055
  H  H66  1  0.714200  0.544300  0.663300  1.0  0.0984
  H  H67  1  0.944900  0.359400  0.206000  1.0  0.0896
  H  H68  1  0.743300  0.820700  0.537200  1.0  0.1162
  H  H69  1  0.341800  0.044900  0.478300  1.0  0.0739
  H  H70  1  0.915800  0.110600  0.541900  1.0  0.1025
  H  H71  1  0.563100  0.727900  0.662000  1.0  0.1201
  H  H72  1  0.175000  0.799300  0.963500  1.0  0.1074
  H  H73  1  0.444900  0.976000  0.322200  1.0  0.1252
  H  H74  1  0.279100  0.204100  0.602600  1.0  0.0819
  H  H75  1  0.479800  0.784300  0.879400  1.0  0.1085
  H  H76  1  0.860500  0.676300  0.479600  1.0  0.1014
  H  H77  1  0.056200  0.665900  0.951100  1.0  0.1094
  H  H78  1  0.470800  0.061200  0.032000  1.0  0.1111
  H  H79  1  0.776300  0.651200  0.413700  1.0  0.1016
  H  H80  1  0.462700  0.497100  0.857700  1.0  0.1189
  H  H81  1  0.672200  0.109100  0.480300  1.0  0.1175
  H  H82  1  0.186800  0.744600  0.815800  1.0  0.079
  H  H83  1  0.403500  0.821500  0.782600  1.0  0.0957
  H  H84  1  0.465500  0.151900  0.789700  1.0  0.0732
  H  H85  1  0.767000  0.358700  0.653400  1.0  0.1187
  H  H86  1  0.685300  0.898700  0.939700  1.0  0.1041
  H  H87  1  0.652200  0.730300  0.714400  1.0  0.0796
  H  H88  1  0.380300  0.334900  0.630100  1.0  0.1123
  H  H89  1  0.376400  0.458200  0.687400  1.0  0.1114
  H  H90  1  0.498400  0.837800  0.981300  1.0  0.1039
  H  H91  1  0.970800  0.938800  0.468000  1.0  0.111
  H  H92  1  0.123600  0.458200  0.187400  1.0  0.1098
  H  H93  1  0.493200  0.299300  0.613800  1.0  0.1005
  H  H94  1  0.902000  0.208500  0.447600  1.0  0.072
  H  H95  1  0.347800  0.269700  0.285600  1.0  0.0807
  H  H96  1  0.978400  0.471700  0.807700  1.0  0.0754
  H  H97  1  0.267000  0.641300  0.846600  1.0  0.1189
  H  H98  1  0.063100  0.272100  0.838000  1.0  0.1203
  H  H99  1  0.639800  0.018300  0.730600  1.0  0.0639
  H  H100  1  0.053000  0.403700  0.108000  1.0  0.1118
  H  H101  1  0.285800  0.455700  0.336700  1.0  0.0972
  H  H102  1  0.203800  0.584800  0.710200  1.0  0.1289
  H  H103  1  0.096500  0.821500  0.282600  1.0  0.0955
  H  H104  1  0.223500  0.319300  0.551100  1.0  0.1338
  H  H105  1  0.835300  0.334600  0.487400  1.0  0.1125
  H  H106  1  0.426300  0.880400  0.899500  1.0  0.115
  H  H107  1  0.913500  0.534200  0.316700  1.0  0.1008
  H  H108  1  0.598000  0.208500  0.947600  1.0  0.0717
  H  H109  1  0.107400  0.775500  0.408900  1.0  0.1098
  H  H110  1  0.139800  0.981700  0.769400  1.0  0.0636
  H  H111  1  0.313200  0.744600  0.315800  1.0  0.0793
  H  H112  1  0.875500  0.648400  0.387100  1.0  0.0991
  H  H113  1  0.534500  0.848100  0.210300  1.0  0.0743
  H  H114  1  0.325000  0.799300  0.463500  1.0  0.1076
  H  H115  1  0.675000  0.200700  0.536500  1.0  0.1078
  H  H116  1  0.152200  0.269700  0.785600  1.0  0.0794
  H  H117  1  0.797800  0.967200  0.633200  1.0  0.125
  H  H118  1  0.295400  0.900600  0.386300  1.0  0.0723
  H  H119  1  0.509200  0.094500  0.169300  1.0  0.0981
  H  H120  1  0.199600  0.686200  0.880000  1.0  0.0921
  H  H121  1  0.001600  0.837800  0.481300  1.0  0.1038
  H  H122  1  0.800400  0.313800  0.120000  1.0  0.092
  H  H123  1  0.119700  0.334900  0.130100  1.0  0.1154
  H  H124  1  0.704100  0.463500  0.688900  1.0  0.1069
  H  H125  1  0.847800  0.730300  0.214400  1.0  0.0809
  H  H126  1  0.555100  0.359400  0.706000  1.0  0.0902
  H  H127  1  0.944900  0.024000  0.177800  1.0  0.1252
  H  H128  1  0.360500  0.323700  0.020400  1.0  0.1016
  H  H129  1  0.623600  0.541800  0.312600  1.0  0.1102
  H  H130  1  0.943800  0.334100  0.048900  1.0  0.1092
  H  H131  1  0.375500  0.351600  0.112900  1.0  0.1007
  H  H132  1  0.521600  0.471700  0.307700  1.0  0.075
  H  H133  1  0.573700  0.119600  0.100500  1.0  0.1139
  H  H134  1  0.993200  0.700700  0.886200  1.0  0.1003
  H  H135  1  0.860200  0.018300  0.230600  1.0  0.0639
  H  H136  1  0.021600  0.528300  0.192300  1.0  0.0759
  H  H137  1  0.593200  0.475400  0.341800  1.0  0.1051
  H  H138  1  0.596500  0.178500  0.217400  1.0  0.0936
  H  H139  1  0.796200  0.415200  0.289800  1.0  0.1288
  H  H140  1  0.188600  0.221400  0.527400  1.0  0.0965
  H  H141  1  0.850700  0.419100  0.910300  1.0  0.1217
  H  H142  1  0.556200  0.334100  0.548900  1.0  0.1094
  H  H143  1  0.537300  0.502900  0.142300  1.0  0.1193
  H  H144  1  0.841800  0.955100  0.021700  1.0  0.0739
  H  H145  1  0.311400  0.221400  0.027400  1.0  0.0955
  H  H146  1  0.185300  0.101300  0.560300  1.0  0.1043
  H  H147  1  0.093200  0.524600  0.158200  1.0  0.1063
  H  H148  1  0.723700  0.651200  0.913700  1.0  0.1048
  H  H149  1  0.009200  0.905500  0.330700  1.0  0.0981
  H  H150  1  0.256700  0.179300  0.462800  1.0  0.1166
  H  H151  1  0.639500  0.676300  0.979600  1.0  0.1011
  H  H152  1  0.892300  0.537700  0.185600  1.0  0.1152
  H  H153  1  0.723500  0.680700  0.948900  1.0  0.1335
  H  H154  1  0.139500  0.323700  0.520400  1.0  0.1009
  H  H155  1  0.779100  0.795900  0.897400  1.0  0.0817
  H  H156  1  0.444900  0.640600  0.294000  1.0  0.0925
  H  H157  1  0.034500  0.151900  0.289700  1.0  0.0735
  H  H158  1  0.055100  0.976000  0.822200  1.0  0.125
  H  H159  1  0.704600  0.099400  0.613700  1.0  0.073
  H  H160  1  0.296200  0.584800  0.210200  1.0  0.1286
  H  H161  1  0.778100  0.290300  0.873100  1.0  0.0729
  H  H162  1  0.607700  0.537700  0.685600  1.0  0.1152
  H  H163  1  0.073700  0.880400  0.399500  1.0  0.1145
  H  H164  1  0.202200  0.032800  0.366800  1.0  0.1255
  H  H165  1  0.204600  0.900600  0.886300  1.0  0.0724
  H  H166  1  0.624500  0.648400  0.887100  1.0  0.0993
  H  H167  1  0.586500  0.534200  0.816700  1.0  0.0987
  H  H168  1  0.415800  0.889400  0.958100  1.0  0.1028
  H  H169  1  0.720900  0.795900  0.397400  1.0  0.0806
  H  H170  1  0.317300  0.208700  0.129900  1.0  0.0933
  H  H171  1  0.204100  0.536500  0.811100  1.0  0.1053
  H  H172  1  0.756700  0.820700  0.037200  1.0  0.1165
  H  H173  1  0.584200  0.110600  0.041900  1.0  0.1063
  H  H174  1  0.962700  0.502900  0.642300  1.0  0.1191
  H  H175  1  0.520200  0.215700  0.120600  1.0  0.109
  H  H176  1  0.795400  0.099400  0.113700  1.0  0.0734
  H  H177  1  0.221900  0.709700  0.126900  1.0  0.0737
  H  H178  1  0.617600  0.212300  0.651100  1.0  0.0815
  H  H179  1  0.350700  0.580900  0.589700  1.0  0.1216
  H  H180  1  0.825000  0.200700  0.036500  1.0  0.1078
  H  H181  1  0.721900  0.290300  0.373100  1.0  0.0726
  H  H182  1  0.733000  0.358700  0.153400  1.0  0.1138
  H  H183  1  0.998400  0.162200  0.518700  1.0  0.1047
  H  H184  1  0.300400  0.686200  0.380000  1.0  0.0915
  H  H185  1  0.553000  0.596300  0.392000  1.0  0.1129
  H  H186  1  0.811400  0.778600  0.472600  1.0  0.0973
  H  H187  1  0.688600  0.778600  0.972600  1.0  0.097
  H  H188  1  0.314700  0.101300  0.060300  1.0  0.1031
  H  H189  1  0.702200  0.967200  0.133200  1.0  0.1246
  H  H190  1  0.243300  0.179300  0.962800  1.0  0.1165
  H  H191  1  0.447000  0.403700  0.608000  1.0  0.1114
  H  H192  1  0.379400  0.074200  0.741100  1.0  0.1211
  H  H193  1  0.879400  0.925800  0.758900  1.0  0.121
  H  H194  1  0.402000  0.791500  0.052400  1.0  0.0717
  H  H195  1  0.490800  0.905500  0.830700  1.0  0.0983
  H  H196  1  0.555100  0.024000  0.677800  1.0  0.125
  H  H197  1  0.084200  0.889400  0.458100  1.0  0.1055
  H  H198  1  0.501600  0.162200  0.018700  1.0  0.1042
  H  H199  1  0.182700  0.208700  0.629900  1.0  0.093
  H  H200  1  0.220900  0.204100  0.102600  1.0  0.0811
  H  H201  1  0.947000  0.596300  0.892000  1.0  0.1126
  H  H202  1  0.124500  0.351600  0.612900  1.0  0.1005
  H  H203  1  0.164700  0.665400  0.512600  1.0  0.1121
  H  H204  1  0.990800  0.094500  0.669300  1.0  0.0981
  H  H205  1  0.876400  0.541800  0.812600  1.0  0.111
  H  H206  1  0.406800  0.524600  0.658200  1.0  0.1057
  H  H207  1  0.785800  0.544300  0.163300  1.0  0.0995
  H  H208  1  0.120600  0.074200  0.241100  1.0  0.1209
  H  H209  1  0.107700  0.462300  0.814400  1.0  0.1163
  H  H210  1  0.443800  0.665900  0.451100  1.0  0.1092
  H  H211  1  0.006800  0.299300  0.113800  1.0  0.1015
  H  H212  1  0.814700  0.898700  0.439700  1.0  0.1026
  H  H213  1  0.392600  0.775500  0.908900  1.0  0.1088
  H  H214  1  0.360200  0.981700  0.269400  1.0  0.0636
  H  H215  1  0.699600  0.313800  0.620000  1.0  0.0915
  H  H216  1  0.664700  0.334600  0.987400  1.0  0.1121
  C  C217  1  0.009900  0.648300  0.440800  1.0  0.6064
  C  C218  1  0.435500  0.486200  0.675500  1.0  -0.3828
  C  C219  1  0.624600  0.958900  0.716500  1.0  0.185
  C  C220  1  0.547400  0.916000  0.211600  1.0  0.1851
  C  C221  1  0.780000  0.878600  0.586900  1.0  -0.0358
  C  C222  1  0.417100  0.530300  0.177600  1.0  -0.1129
  C  C223  1  0.438100  0.804700  0.540000  1.0  0.1507
  C  C224  1  0.008100  0.598600  0.843000  1.0  0.1808
  C  C225  1  0.620700  0.964900  0.898700  1.0  0.658
  C  C226  1  0.143700  0.695100  0.684400  1.0  0.1655
  C  C227  1  0.665000  0.500000  0.673000  1.0  -0.3929
  C  C228  1  0.628100  0.164800  0.485400  1.0  -0.08
  C  C229  1  0.938100  0.195300  0.960000  1.0  0.1517
  C  C230  1  0.184100  0.042600  0.955300  1.0  0.1935
  C  C231  1  0.600200  0.961800  0.240900  1.0  -0.1869
  C  C232  1  0.940500  0.745500  0.813500  1.0  0.6822
  C  C233  1  0.814700  0.114400  0.772900  1.0  0.3369
  C  C234  1  0.637900  0.272800  0.666000  1.0  -0.1806
  C  C235  1  0.879300  0.964900  0.398700  1.0  0.6577
  C  C236  1  0.152700  0.600200  0.693700  1.0  -0.1366
  C  C237  1  0.587500  0.594100  0.495800  1.0  0.2871
  C  C238  1  0.573700  0.963200  0.684900  1.0  -0.1822
  C  C239  1  0.420900  0.211800  0.324600  1.0  -0.1277
  C  C240  1  0.559500  0.745500  0.313500  1.0  0.682
  C  C241  1  0.188900  0.672300  0.535900  1.0  -0.1488
  C  C242  1  0.949400  0.875700  0.163700  1.0  -0.0474
  C  C243  1  0.371600  0.781500  0.480800  1.0  -0.0895
  C  C244  1  0.188600  0.524200  0.022500  1.0  0.2902
  C  C245  1  0.943300  0.149100  0.923300  1.0  0.2969
  C  C246  1  0.311400  0.524200  0.522500  1.0  0.2901
  C  C247  1  0.230800  0.037700  0.389500  1.0  -0.205
  C  C248  1  0.451900  0.814600  0.901700  1.0  -0.3476
  C  C249  1  0.579100  0.788200  0.675400  1.0  -0.129
  C  C250  1  0.123100  0.936000  0.256900  1.0  0.0171
  C  C251  1  0.532300  0.059800  0.187400  1.0  0.1555
  C  C252  1  0.211800  0.959000  0.901700  1.0  0.1859
  C  C253  1  0.558800  0.298400  0.526500  1.0  -0.0821
  C  C254  1  0.245200  0.700400  0.103500  1.0  0.1862
  C  C255  1  0.299400  0.210900  0.105300  1.0  -0.1991
  C  C256  1  0.314700  0.885600  0.727100  1.0  0.3371
  C  C257  1  0.664200  0.714700  0.961700  1.0  -0.3515
  C  C258  1  0.585900  0.110300  0.216400  1.0  -0.0822
  C  C259  1  0.368700  0.209600  0.292800  1.0  0.154
  C  C260  1  0.694100  0.343200  0.644400  1.0  -0.1454
  C  C261  1  0.623100  0.064000  0.243100  1.0  0.0171
  C  C262  1  0.080100  0.273300  0.561000  1.0  0.0986
  C  C263  1  0.506700  0.121800  0.370700  1.0  0.3264
  C  C264  1  0.440500  0.254500  0.686500  1.0  0.6798
  C  C265  1  0.350700  0.748700  0.060100  1.0  0.1842
  C  C266  1  0.463600  0.675900  0.317200  1.0  -0.1826
  C  C267  1  0.047400  0.084000  0.288400  1.0  0.1846
  C  C268  1  0.491500  0.876800  0.962100  1.0  -0.3456
  C  C269  1  0.490100  0.648300  0.940800  1.0  0.605
  C  C270  1  0.684100  0.957400  0.544700  1.0  0.1935
  C  C271  1  0.082900  0.530300  0.677600  1.0  -0.1141
  C  C272  1  0.236400  0.122700  0.946400  1.0  -0.1586
  C  C273  1  0.991900  0.448100  0.346500  1.0  -0.149
  C  C274  1  0.763600  0.393000  0.953700  1.0  -0.0191
  C  C275  1  0.685300  0.114400  0.272900  1.0  0.3361
  C  C276  1  0.547800  0.644200  0.375700  1.0  -0.3813
  C  C277  1  0.652700  0.399800  0.806300  1.0  -0.1362
  C  C278  1  0.220000  0.121400  0.413100  1.0  -0.0369
  C  C279  1  0.856300  0.304900  0.315600  1.0  0.1662
  C  C280  1  0.862100  0.272800  0.166000  1.0  -0.1798
  C  C281  1  0.298900  0.622400  0.581500  1.0  -0.1541
  C  C282  1  0.006300  0.324100  0.000100  1.0  0.1595
  C  C283  1  0.491900  0.551900  0.153500  1.0  -0.1496
  C  C284  1  0.991900  0.401400  0.157000  1.0  0.1817
  C  C285  1  0.137900  0.727200  0.834000  1.0  -0.1803
  C  C286  1  0.001600  0.647100  0.646300  1.0  0.1772
  C  C287  1  0.993300  0.121800  0.870700  1.0  0.3266
  C  C288  1  0.967700  0.059800  0.687400  1.0  0.1556
  C  C289  1  0.328700  0.212600  0.902000  1.0  0.3425
  C  C290  1  0.077900  0.315200  0.377800  1.0  0.2634
  C  C291  1  0.059500  0.254500  0.186500  1.0  0.6839
  C  C292  1  0.280000  0.121400  0.913100  1.0  -0.037
  C  C293  1  0.426300  0.036800  0.315100  1.0  -0.1775
  C  C294  1  0.799400  0.789100  0.394700  1.0  -0.1987
  C  C295  1  0.347300  0.600200  0.193700  1.0  -0.1387
  C  C296  1  0.356300  0.695100  0.184400  1.0  0.1674
  C  C297  1  0.335800  0.285300  0.038300  1.0  -0.3492
  C  C298  1  0.564500  0.513800  0.324500  1.0  -0.383
  C  C299  1  0.263600  0.607000  0.546300  1.0  -0.0184
  C  C300  1  0.912500  0.594100  0.995800  1.0  0.2891
  C  C301  1  0.561900  0.195300  0.460000  1.0  0.1452
  C  C302  1  0.305900  0.656800  0.355600  1.0  -0.1467
  C  C303  1  0.073700  0.036800  0.815100  1.0  -0.1789
  C  C304  1  0.811100  0.327700  0.464100  1.0  -0.1506
  C  C305  1  0.873900  0.494700  0.116200  1.0  0.6634
  C  C306  1  0.875400  0.958900  0.216500  1.0  0.1842
  C  C307  1  0.688600  0.475800  0.477500  1.0  0.2905
  C  C308  1  0.917100  0.469700  0.322400  1.0  -0.1104
  C  C309  1  0.412500  0.405900  0.504200  1.0  0.289
  C  C310  1  0.963600  0.324100  0.182800  1.0  -0.1832
  C  C311  1  0.358900  0.122500  0.081300  1.0  -0.1851
  C  C312  1  0.798900  0.377600  0.918500  1.0  -0.1536
  C  C313  1  0.236400  0.607000  0.046300  1.0  -0.0173
  C  C314  1  0.171300  0.212600  0.402000  1.0  0.3422
  C  C315  1  0.036400  0.675900  0.817200  1.0  -0.1826
  C  C316  1  0.079100  0.211800  0.824600  1.0  -0.1304
  C  C317  1  0.736400  0.393000  0.453700  1.0  -0.0185
  C  C318  1  0.128100  0.835200  0.014600  1.0  -0.081
  C  C319  1  0.058800  0.701600  0.973500  1.0  -0.0838
  C  C320  1  0.498400  0.647100  0.146300  1.0  0.181
  C  C321  1  0.443300  0.850900  0.576700  1.0  0.2989
  C  C322  1  0.419900  0.273300  0.061000  1.0  0.0994
  C  C323  1  0.935500  0.513800  0.824500  1.0  -0.3819
  C  C324  1  0.008100  0.551900  0.653500  1.0  -0.1496
  C  C325  1  0.920900  0.788200  0.175400  1.0  -0.127
  C  C326  1  0.254800  0.700400  0.603500  1.0  0.186
  C  C327  1  0.991500  0.123200  0.537900  1.0  -0.3441
  C  C328  1  0.164200  0.285300  0.538300  1.0  -0.3516
  C  C329  1  0.315900  0.042600  0.455300  1.0  0.1934
  C  C330  1  0.868700  0.790400  0.207200  1.0  0.1551
  C  C331  1  0.149300  0.748700  0.560100  1.0  0.1839
  C  C332  1  0.662700  0.688600  0.906000  1.0  -0.1469
  C  C333  1  0.449400  0.124300  0.336300  1.0  -0.0474
  C  C334  1  0.952600  0.916000  0.711600  1.0  0.1853
  C  C335  1  0.508500  0.123200  0.037900  1.0  -0.3455
  C  C336  1  0.032300  0.940200  0.312600  1.0  0.1552
  C  C337  1  0.375400  0.041100  0.283500  1.0  0.1848
  C  C338  1  0.061900  0.804700  0.040000  1.0  0.1415
  C  C339  1  0.491900  0.598600  0.343000  1.0  0.1813
  C  C340  1  0.850700  0.251300  0.439900  1.0  0.1842
  C  C341  1  0.376900  0.936000  0.756900  1.0  0.0168
  C  C342  1  0.876900  0.438200  0.147600  1.0  0.1521
  C  C343  1  0.871600  0.218500  0.019200  1.0  -0.084
  C  C344  1  0.269200  0.037700  0.889500  1.0  -0.2052
  C  C345  1  0.623100  0.438200  0.647600  1.0  0.151
  C  C346  1  0.362100  0.727200  0.334000  1.0  -0.1789
  C  C347  1  0.641100  0.877500  0.918700  1.0  -0.1834
  C  C348  1  0.550600  0.875700  0.663700  1.0  -0.0472
  C  C349  1  0.452600  0.084000  0.788400  1.0  0.185
  C  C350  1  0.047800  0.355800  0.124300  1.0  -0.3822
  C  C351  1  0.959000  0.820400  0.429000  1.0  0.1846
  C  C352  1  0.379300  0.035100  0.101300  1.0  0.657
  C  C353  1  0.459000  0.179600  0.071000  1.0  0.1848
  C  C354  1  0.124600  0.041100  0.783500  1.0  0.1851
  C  C355  1  0.626100  0.494700  0.616200  1.0  0.6638
  C  C356  1  0.835800  0.714700  0.461700  1.0  -0.3507
  C  C357  1  0.858900  0.877500  0.418700  1.0  -0.1854
  C  C358  1  0.509900  0.351700  0.059200  1.0  0.6066
  C  C359  1  0.628400  0.218500  0.519200  1.0  -0.0864
  C  C360  1  0.688900  0.327700  0.964100  1.0  -0.1472
  C  C361  1  0.006700  0.878200  0.129300  1.0  0.3259
  C  C362  1  0.643700  0.304900  0.815600  1.0  0.1647
  C  C363  1  0.422100  0.315200  0.877800  1.0  0.2635
  C  C364  1  0.214800  0.781700  0.697700  1.0  0.3054
  C  C365  1  0.185300  0.885600  0.227100  1.0  0.336
  C  C366  1  0.631300  0.790400  0.707200  1.0  0.1557
  C  C367  1  0.871900  0.164800  0.985400  1.0  -0.0791
  C  C368  1  0.701100  0.377600  0.418500  1.0  -0.1526
  C  C369  1  0.452200  0.355800  0.624300  1.0  -0.3809
  C  C370  1  0.671300  0.787400  0.098000  1.0  0.3437
  C  C371  1  0.556700  0.149100  0.423300  1.0  0.2974
  C  C372  1  0.828700  0.787400  0.598000  1.0  0.3438
  C  C373  1  0.050600  0.124300  0.836300  1.0  -0.0471
  C  C374  1  0.922100  0.684800  0.622200  1.0  0.2638
  C  C375  1  0.754800  0.299600  0.896500  1.0  0.185
  C  C376  1  0.194100  0.656800  0.855600  1.0  -0.1499
  C  C377  1  0.041000  0.179600  0.571000  1.0  0.1844
  C  C378  1  0.769200  0.962300  0.610500  1.0  -0.2034
  C  C379  1  0.914100  0.110300  0.716400  1.0  -0.0821
  C  C380  1  0.536400  0.324100  0.682800  1.0  -0.1843
  C  C381  1  0.993700  0.675900  0.999900  1.0  0.157
  C  C382  1  0.162700  0.311400  0.594000  1.0  -0.1464
  C  C383  1  0.441200  0.701600  0.473500  1.0  -0.0848
  C  C384  1  0.123100  0.561800  0.852400  1.0  0.1516
  C  C385  1  0.131300  0.209600  0.792800  1.0  0.1538
  C  C386  1  0.048100  0.814600  0.401700  1.0  -0.3466
  C  C387  1  0.008500  0.876800  0.462100  1.0  -0.3459
  C  C388  1  0.335000  0.500000  0.327000  1.0  -0.3928
  C  C389  1  0.100200  0.038200  0.259100  1.0  -0.188
  C  C390  1  0.126100  0.505300  0.883800  1.0  0.6613
  C  C391  1  0.926300  0.963200  0.184900  1.0  -0.1808
  C  C392  1  0.376900  0.561800  0.352400  1.0  0.1526
  C  C393  1  0.128400  0.781500  0.980800  1.0  -0.0869
  C  C394  1  0.337300  0.311400  0.094000  1.0  -0.1465
  C  C395  1  0.837300  0.688600  0.406000  1.0  -0.1461
  C  C396  1  0.493300  0.878200  0.629300  1.0  0.3262
  C  C397  1  0.811400  0.475800  0.977500  1.0  0.2904
  C  C398  1  0.501600  0.352900  0.853700  1.0  0.1837
  C  C399  1  0.373900  0.505300  0.383800  1.0  0.6608
  C  C400  1  0.548100  0.185400  0.098300  1.0  -0.3465
  C  C401  1  0.311100  0.672300  0.035900  1.0  -0.151
  C  C402  1  0.165000  0.500000  0.827000  1.0  -0.3935
  C  C403  1  0.720000  0.878600  0.086900  1.0  -0.0363
  C  C404  1  0.649300  0.251300  0.939900  1.0  0.1843
  C  C405  1  0.952200  0.644200  0.875700  1.0  -0.3817
  C  C406  1  0.580100  0.726700  0.939000  1.0  0.098
  C  C407  1  0.399800  0.038200  0.759100  1.0  -0.1876
  C  C408  1  0.506300  0.675900  0.499900  1.0  0.159
  C  C409  1  0.951900  0.185400  0.598300  1.0  -0.3485
  C  C410  1  0.736400  0.877300  0.553600  1.0  -0.159
  C  C411  1  0.815900  0.957400  0.044700  1.0  0.193
  C  C412  1  0.285200  0.781700  0.197700  1.0  0.3059
  C  C413  1  0.582900  0.469700  0.822400  1.0  -0.1134
  C  C414  1  0.835000  0.500000  0.173000  1.0  -0.3932
  C  C415  1  0.919900  0.726700  0.439000  1.0  0.0993
  C  C416  1  0.990100  0.351700  0.559200  1.0  0.6058
  C  C417  1  0.876900  0.064000  0.743100  1.0  0.0173
  C  C418  1  0.541000  0.820400  0.929000  1.0  0.1844
  C  C419  1  0.745200  0.299600  0.396500  1.0  0.1854
  C  C420  1  0.711800  0.041000  0.598300  1.0  0.1836
  C  C421  1  0.847300  0.399800  0.306300  1.0  -0.1361
  C  C422  1  0.941200  0.298400  0.026500  1.0  -0.0826
  C  C423  1  0.201100  0.622400  0.081500  1.0  -0.1526
  C  C424  1  0.730800  0.962300  0.110500  1.0  -0.2026
  C  C425  1  0.120700  0.035100  0.601300  1.0  0.6586
  C  C426  1  0.577900  0.684800  0.122200  1.0  0.2637
  C  C427  1  0.998400  0.352900  0.353700  1.0  0.1777
  C  C428  1  0.087500  0.405900  0.004200  1.0  0.2873
  C  C429  1  0.371900  0.835200  0.514600  1.0  -0.078
  C  C430  1  0.200600  0.210900  0.605300  1.0  -0.199
  C  C431  1  0.493700  0.324100  0.500100  1.0  0.1564
  C  C432  1  0.056700  0.850900  0.076700  1.0  0.2992
  C  C433  1  0.714800  0.218300  0.802300  1.0  0.3049
  C  C434  1  0.085900  0.889700  0.283600  1.0  -0.0826
  C  C435  1  0.414100  0.889700  0.783600  1.0  -0.0824
  C  C436  1  0.508100  0.448100  0.846500  1.0  -0.1483
  C  C437  1  0.899800  0.961800  0.740900  1.0  -0.187
  C  C438  1  0.508100  0.401400  0.657000  1.0  0.1809
  C  C439  1  0.141100  0.122500  0.581300  1.0  -0.1836
  C  C440  1  0.785200  0.218300  0.302300  1.0  0.3061
  C  C441  1  0.788200  0.041000  0.098300  1.0  0.1834
  C  C442  1  0.467700  0.940200  0.812600  1.0  0.1555
  C  C443  1  0.288200  0.959000  0.401700  1.0  0.1857
  C  C444  1  0.263600  0.122700  0.446400  1.0  -0.1579
  C  C445  1  0.805900  0.343200  0.144400  1.0  -0.1438
  C  C446  1  0.763600  0.877300  0.053600  1.0  -0.1591
  C  C447  1  0.700600  0.789100  0.894700  1.0  -0.1978
  C  C448  1  0.064500  0.486200  0.175500  1.0  -0.3826
  N  N449  1  0.285100  0.925800  0.698440  1.0  -0.2718
  N  N450  1  0.180500  0.764400  0.593600  1.0  -0.3601
  N  N451  1  0.332700  0.960900  0.433300  1.0  -0.4022
  N  N452  1  0.319500  0.764400  0.093600  1.0  -0.3599
  N  N453  1  0.108000  0.467600  0.033800  1.0  -0.487
  N  N454  1  0.783300  0.700600  0.588300  1.0  -0.2661
  N  N455  1  0.680500  0.235600  0.906400  1.0  -0.3592
  N  N456  1  0.227300  0.793300  0.227520  1.0  -0.4904
  N  N457  1  0.155200  0.368400  0.396500  1.0  -0.3051
  N  N458  1  0.584800  0.783900  0.118800  1.0  -0.4807
  N  N459  1  0.655200  0.631600  0.103500  1.0  -0.3062
  N  N460  1  0.084800  0.216100  0.381200  1.0  -0.4828
  N  N461  1  0.147800  0.421600  0.976810  1.0  -0.2911
  N  N462  1  0.887500  0.068900  0.910200  1.0  -0.347
  N  N463  1  0.647800  0.578400  0.523190  1.0  -0.295
  N  N464  1  0.714900  0.074200  0.301560  1.0  -0.2703
  N  N465  1  0.832700  0.039100  0.066700  1.0  -0.4035
  N  N466  1  0.419400  0.947900  0.624200  1.0  -0.2182
  N  N467  1  0.653800  0.873800  0.728300  1.0  -0.4196
  N  N468  1  0.986400  0.962400  0.685200  1.0  -0.363
  N  N469  1  0.284700  0.500700  0.488380  1.0  -0.3425
  N  N470  1  0.785100  0.074200  0.801560  1.0  -0.27
  N  N471  1  0.995600  0.724700  0.032540  1.0  -0.3628
  N  N472  1  0.283300  0.299400  0.911700  1.0  -0.2645
  N  N473  1  0.727300  0.206700  0.272480  1.0  -0.4917
  N  N474  1  0.989700  0.814500  0.100280  1.0  -0.4851
  N  N475  1  0.612500  0.068900  0.410200  1.0  -0.3469
  N  N476  1  0.153800  0.126200  0.771700  1.0  -0.421
  N  N477  1  0.608000  0.532400  0.466200  1.0  -0.486
  N  N478  1  0.346200  0.126200  0.271700  1.0  -0.4198
  N  N479  1  0.720900  0.141800  0.820850  1.0  -0.3117
  N  N480  1  0.486400  0.037600  0.814800  1.0  -0.3623
  N  N481  1  0.415200  0.216100  0.881200  1.0  -0.4743
  N  N482  1  0.013600  0.037600  0.314800  1.0  -0.3636
  N  N483  1  0.784700  0.499300  0.011620  1.0  -0.3425
  N  N484  1  0.004400  0.275300  0.967460  1.0  -0.3625
  N  N485  1  0.667300  0.039100  0.566700  1.0  -0.4043
  N  N486  1  0.716700  0.700600  0.088300  1.0  -0.2666
  N  N487  1  0.215300  0.500700  0.988380  1.0  -0.343
  N  N488  1  0.112500  0.931100  0.089800  1.0  -0.3476
  N  N489  1  0.220900  0.858200  0.679150  1.0  -0.3106
  N  N490  1  0.510300  0.814500  0.600280  1.0  -0.4854
  N  N491  1  0.852200  0.578400  0.023190  1.0  -0.2952
  N  N492  1  0.489700  0.185500  0.399720  1.0  -0.4841
  N  N493  1  0.069200  0.717600  0.661230  1.0  -0.3675
  N  N494  1  0.216700  0.299400  0.411700  1.0  -0.2673
  N  N495  1  0.272700  0.793300  0.727520  1.0  -0.4905
  N  N496  1  0.715300  0.499300  0.511620  1.0  -0.3497
  N  N497  1  0.504400  0.724700  0.532540  1.0  -0.3614
  N  N498  1  0.344800  0.368400  0.896500  1.0  -0.3041
  N  N499  1  0.214900  0.925800  0.198440  1.0  -0.2714
  N  N500  1  0.846200  0.873800  0.228300  1.0  -0.4215
  N  N501  1  0.569200  0.282400  0.838770  1.0  -0.3679
  N  N502  1  0.915200  0.783900  0.618800  1.0  -0.4805
  N  N503  1  0.392000  0.467600  0.533800  1.0  -0.4864
  N  N504  1  0.167300  0.960900  0.933300  1.0  -0.4037
  N  N505  1  0.919400  0.052100  0.875800  1.0  -0.2193
  N  N506  1  0.580600  0.052100  0.375800  1.0  -0.2185
  N  N507  1  0.892000  0.532400  0.966200  1.0  -0.4862
  N  N508  1  0.930800  0.282400  0.338770  1.0  -0.3681
  N  N509  1  0.819500  0.235600  0.406400  1.0  -0.3587
  N  N510  1  0.080600  0.947900  0.124200  1.0  -0.2172
  N  N511  1  0.844800  0.631600  0.603500  1.0  -0.3053
  N  N512  1  0.387500  0.931100  0.589800  1.0  -0.3472
  N  N513  1  0.279100  0.858200  0.179150  1.0  -0.3101
  N  N514  1  0.779100  0.141800  0.320850  1.0  -0.3109
  N  N515  1  0.430800  0.717600  0.161230  1.0  -0.3681
  N  N516  1  0.495600  0.275300  0.467460  1.0  -0.3637
  N  N517  1  0.352200  0.421600  0.476810  1.0  -0.2924
  N  N518  1  0.010300  0.185500  0.899720  1.0  -0.4854
  N  N519  1  0.772700  0.206700  0.772480  1.0  -0.492
  N  N520  1  0.513600  0.962400  0.185200  1.0  -0.3638
  O  O521  1  0.553400  0.030900  0.909400  1.0  -0.6174
  O  O522  1  0.952100  0.362400  0.531700  1.0  -0.6022
  O  O523  1  0.942700  0.830800  0.830600  1.0  -0.6248
  O  O524  1  0.867500  0.715700  0.793000  1.0  -0.583
  O  O525  1  0.053400  0.969100  0.590600  1.0  -0.6184
  O  O526  1  0.557300  0.830800  0.330600  1.0  -0.6247
  O  O527  1  0.132500  0.284300  0.207000  1.0  -0.5832
  O  O528  1  0.427900  0.423500  0.381950  1.0  -0.6188
  O  O529  1  0.961100  0.406200  0.584400  1.0  -0.5748
  O  O530  1  0.178600  0.540200  0.910250  1.0  -0.6328
  O  O531  1  0.367500  0.284300  0.707000  1.0  -0.5804
  O  O532  1  0.442700  0.169200  0.669400  1.0  -0.6245
  O  O533  1  0.946600  0.030900  0.409400  1.0  -0.618
  O  O534  1  0.821400  0.459800  0.089750  1.0  -0.6336
  O  O535  1  0.572100  0.576500  0.618050  1.0  -0.6181
  O  O536  1  0.678600  0.459800  0.589750  1.0  -0.6332
  O  O537  1  0.038900  0.593800  0.415600  1.0  -0.5731
  O  O538  1  0.072100  0.423500  0.881950  1.0  -0.619
  O  O539  1  0.547900  0.362400  0.031700  1.0  -0.6019
  O  O540  1  0.047900  0.637600  0.468300  1.0  -0.6026
  O  O541  1  0.668600  0.970000  0.869710  1.0  -0.7092
  O  O542  1  0.331400  0.030000  0.130290  1.0  -0.7077
  O  O543  1  0.057300  0.169200  0.169400  1.0  -0.6248
  O  O544  1  0.168600  0.030000  0.630290  1.0  -0.708
  O  O545  1  0.461100  0.593800  0.915600  1.0  -0.574
  O  O546  1  0.831400  0.970000  0.369710  1.0  -0.7089
  O  O547  1  0.632500  0.715700  0.293000  1.0  -0.5826
  O  O548  1  0.927900  0.576500  0.118050  1.0  -0.6185
  O  O549  1  0.321400  0.540200  0.410250  1.0  -0.6343
  O  O550  1  0.452100  0.637600  0.968300  1.0  -0.6028
  O  O551  1  0.538900  0.406200  0.084400  1.0  -0.574
  O  O552  1  0.446600  0.969100  0.090600  1.0  -0.6182
