# generated using pymatgen
data_Cd9H66C104(N2O11)4
_symmetry_space_group_name_H-M   'P 1'
_cell_length_a   15.30420000
_cell_length_b   15.57190000
_cell_length_c   16.35220000
_cell_angle_alpha   104.72300000
_cell_angle_beta   105.15100000
_cell_angle_gamma   101.62800000
_symmetry_Int_Tables_number   1
_chemical_formula_structural   Cd9H66C104(N2O11)4
_chemical_formula_sum   'Cd9 H66 C104 N8 O44'
_cell_volume   3484.90668149
_cell_formula_units_Z   1
loop_
 _symmetry_equiv_pos_site_id
 _symmetry_equiv_pos_as_xyz
  1  'x, y, z'
loop_
 _atom_site_type_symbol
 _atom_site_label
 _atom_site_symmetry_multiplicity
 _atom_site_fract_x
 _atom_site_fract_y
 _atom_site_fract_z
 _atom_site_occupancy
 _atom_site_charge
  Cd  Cd1  1  0.751020  0.966300  0.538910  1.0  1.0731
  Cd  Cd2  1  0.574450  0.040000  0.123880  1.0  1.1051
  Cd  Cd3  1  0.642380  0.002640  0.337460  1.0  1.0975
  Cd  Cd4  1  0.907580  0.051570  0.792840  1.0  1.0895
  Cd  Cd5  1  0.248980  0.033700  0.461090  1.0  1.0683
  Cd  Cd6  1  0.425550  0.960000  0.876120  1.0  1.1065
  Cd  Cd7  1  0.357620  0.997360  0.662540  1.0  1.1015
  Cd  Cd8  1  0.092420  0.948430  0.207160  1.0  1.0898
  Cd  Cd9  1  0.000000  0.000000  0.000000  1.0  1.1904
  H  H10  1  0.245600  0.566700  0.273300  1.0  0.2777
  H  H11  1  0.466400  0.709100  0.422600  1.0  0.125
  H  H12  1  0.204700  0.703500  0.277700  1.0  0.1285
  H  H13  1  0.415900  0.944300  0.383600  1.0  0.1068
  H  H14  1  0.313200  0.396600  0.426900  1.0  0.1117
  H  H15  1  0.246100  0.238000  0.353600  1.0  0.1069
  H  H16  1  0.178000  0.284400  0.116100  1.0  0.1057
  H  H17  1  0.246000  0.442800  0.189200  1.0  0.1189
  H  H18  1  0.082000  0.415500  0.435800  1.0  0.2938
  H  H19  1  0.850800  0.278800  0.299100  1.0  0.1201
  H  H20  1  0.116500  0.278100  0.426000  1.0  0.1192
  H  H21  1  0.911100  0.035300  0.292700  1.0  0.117
  H  H22  1  0.932900  0.604000  0.368900  1.0  0.1127
  H  H23  1  0.019800  0.758100  0.413300  1.0  0.1113
  H  H24  1  0.258800  0.691700  0.506700  1.0  0.109
  H  H25  1  0.173000  0.536500  0.458000  1.0  0.1184
  H  H26  1  0.428500  0.257600  0.345300  1.0  0.0977
  H  H27  1  0.467300  0.324400  0.294800  1.0  0.1194
  H  H28  1  0.521300  0.343500  0.398600  1.0  0.1251
  H  H29  1  0.665900  0.231700  0.288500  1.0  0.1198
  H  H30  1  0.676300  0.327100  0.361500  1.0  0.1279
  H  H31  1  0.622000  0.308000  0.257800  1.0  0.1332
  H  H32  1  0.411000  0.037100  0.284000  1.0  0.1374
  H  H33  1  0.372600  0.119500  0.261500  1.0  0.1061
  H  H34  1  0.422100  0.127700  0.363400  1.0  0.1108
  H  H35  1  0.401700  0.428600  0.101400  1.0  0.2258
  H  H36  1  0.190400  0.285700  0.945300  1.0  0.1167
  H  H37  1  0.451000  0.287400  0.087100  1.0  0.1162
  H  H38  1  0.245600  0.043700  0.953700  1.0  0.1149
  H  H39  1  0.369900  0.583100  0.926900  1.0  0.1072
  H  H40  1  0.432900  0.743500  0.989800  1.0  0.1083
  H  H41  1  0.454300  0.722100  0.235300  1.0  0.0963
  H  H42  1  0.392800  0.562100  0.171800  1.0  0.1143
  H  H43  1  0.754400  0.433300  0.726700  1.0  0.2752
  H  H44  1  0.533600  0.290900  0.577400  1.0  0.125
  H  H45  1  0.795300  0.296500  0.722300  1.0  0.1283
  H  H46  1  0.584100  0.055700  0.616400  1.0  0.1079
  H  H47  1  0.686800  0.603400  0.573100  1.0  0.1111
  H  H48  1  0.753900  0.762000  0.646400  1.0  0.1055
  H  H49  1  0.822000  0.715600  0.883900  1.0  0.1057
  H  H50  1  0.754000  0.557200  0.810800  1.0  0.1185
  H  H51  1  0.918000  0.584500  0.564200  1.0  0.2941
  H  H52  1  0.149200  0.721200  0.700900  1.0  0.1202
  H  H53  1  0.883500  0.721900  0.574000  1.0  0.1184
  H  H54  1  0.088900  0.964700  0.707300  1.0  0.1164
  H  H55  1  0.067100  0.396000  0.631100  1.0  0.1125
  H  H56  1  0.980200  0.241900  0.586700  1.0  0.1108
  H  H57  1  0.741200  0.308300  0.493300  1.0  0.1087
  H  H58  1  0.827000  0.463500  0.542000  1.0  0.118
  H  H59  1  0.571500  0.742400  0.654700  1.0  0.0975
  H  H60  1  0.532700  0.675600  0.705200  1.0  0.1191
  H  H61  1  0.478700  0.656500  0.601400  1.0  0.1252
  H  H62  1  0.334100  0.768300  0.711500  1.0  0.1212
  H  H63  1  0.323700  0.672900  0.638500  1.0  0.1346
  H  H64  1  0.378000  0.692000  0.742200  1.0  0.1338
  H  H65  1  0.589000  0.962900  0.716000  1.0  0.1379
  H  H66  1  0.627400  0.880500  0.738500  1.0  0.1082
  H  H67  1  0.577900  0.872300  0.636600  1.0  0.1108
  H  H68  1  0.598300  0.571400  0.898600  1.0  0.2243
  H  H69  1  0.809600  0.714300  0.054700  1.0  0.1168
  H  H70  1  0.549000  0.712600  0.912900  1.0  0.1148
  H  H71  1  0.754400  0.956300  0.046300  1.0  0.1145
  H  H72  1  0.630100  0.416900  0.073100  1.0  0.1061
  H  H73  1  0.567100  0.256500  0.010200  1.0  0.1091
  H  H74  1  0.545700  0.277900  0.764700  1.0  0.0962
  H  H75  1  0.607200  0.437900  0.828200  1.0  0.1133
  C  C76  1  0.456000  0.834100  0.408600  1.0  -0.1312
  C  C77  1  0.424300  0.739700  0.396800  1.0  -0.0972
  C  C78  1  0.330400  0.691000  0.346800  1.0  0.2374
  C  C79  1  0.268600  0.736900  0.311900  1.0  -0.1566
  C  C80  1  0.299900  0.831100  0.326700  1.0  -0.1437
  C  C81  1  0.394200  0.879900  0.374500  1.0  -0.0184
  C  C82  1  0.284200  0.436100  0.315800  1.0  -0.1007
  C  C83  1  0.285000  0.374000  0.363600  1.0  -0.037
  C  C84  1  0.245200  0.279700  0.320200  1.0  -0.0584
  C  C85  1  0.204200  0.246500  0.228200  1.0  -0.1353
  C  C86  1  0.205000  0.307400  0.179500  1.0  -0.0218
  C  C87  1  0.245100  0.401500  0.223000  1.0  -0.1221
  C  C88  1  0.327700  0.537400  0.365300  1.0  0.5584
  C  C89  1  0.559300  0.884300  0.454800  1.0  0.6582
  C  C90  1  0.231000  0.878400  0.288600  1.0  0.71
  C  C91  1  0.155300  0.144700  0.180100  1.0  0.7005
  C  C92  1  0.866800  0.149700  0.290100  1.0  -0.0986
  C  C93  1  0.895100  0.246300  0.315900  1.0  -0.0774
  C  C94  1  0.988800  0.294300  0.366600  1.0  0.2126
  C  C95  1  0.052800  0.245300  0.390000  1.0  -0.1472
  C  C96  1  0.024600  0.149300  0.361300  1.0  -0.1317
  C  C97  1  0.931000  0.101100  0.311700  1.0  -0.0265
  C  C98  1  0.044000  0.553500  0.407300  1.0  -0.1328
  C  C99  1  0.999600  0.621200  0.395900  1.0  -0.0582
  C  C100  1  0.051200  0.713100  0.423300  1.0  -0.0415
  C  C101  1  0.147400  0.740400  0.464700  1.0  -0.1327
  C  C102  1  0.192400  0.673900  0.477800  1.0  -0.083
  C  C103  1  0.141100  0.581400  0.449000  1.0  -0.1078
  C  C104  1  0.983900  0.454400  0.370800  1.0  0.5475
  C  C105  1  0.765300  0.097300  0.235600  1.0  0.6972
  C  C106  1  0.095200  0.097500  0.383700  1.0  0.7003
  C  C107  1  0.203900  0.840900  0.497000  1.0  0.717
  C  C108  1  0.485500  0.295300  0.340700  1.0  -0.1504
  C  C109  1  0.634900  0.279600  0.305000  1.0  -0.1877
  C  C110  1  0.518800  0.150100  0.296800  1.0  0.6146
  C  C111  1  0.422400  0.104500  0.301900  1.0  -0.351
  C  C112  1  0.202900  0.157500  0.943500  1.0  -0.1426
  C  C113  1  0.233300  0.253400  0.966000  1.0  -0.1073
  C  C114  1  0.326300  0.302400  0.018600  1.0  0.2292
  C  C115  1  0.388400  0.254400  0.048400  1.0  -0.1198
  C  C116  1  0.359300  0.158400  0.021800  1.0  -0.1225
  C  C117  1  0.265900  0.109300  0.970300  1.0  -0.0234
  C  C118  1  0.376200  0.556800  0.043100  1.0  -0.0443
  C  C119  1  0.387800  0.611300  0.989900  1.0  -0.0452
  C  C120  1  0.425100  0.706700  0.027100  1.0  -0.0304
  C  C121  1  0.451200  0.748400  0.119000  1.0  -0.1348
  C  C122  1  0.438000  0.694000  0.172500  1.0  -0.023
  C  C123  1  0.401100  0.598900  0.134700  1.0  -0.1188
  C  C124  1  0.331900  0.454700  0.998000  1.0  0.5791
  C  C125  1  0.100300  0.108000  0.893100  1.0  0.7031
  C  C126  1  0.429900  0.108500  0.048900  1.0  0.6694
  C  C127  1  0.498100  0.851200  0.160600  1.0  0.7295
  C  C128  1  0.544000  0.165900  0.591400  1.0  -0.1312
  C  C129  1  0.575700  0.260300  0.603200  1.0  -0.0962
  C  C130  1  0.669600  0.309000  0.653200  1.0  0.2362
  C  C131  1  0.731400  0.263100  0.688100  1.0  -0.1536
  C  C132  1  0.700100  0.168900  0.673300  1.0  -0.1441
  C  C133  1  0.605800  0.120100  0.625500  1.0  -0.0178
  C  C134  1  0.715800  0.563900  0.684200  1.0  -0.1005
  C  C135  1  0.715000  0.626000  0.636400  1.0  -0.037
  C  C136  1  0.754800  0.720300  0.679800  1.0  -0.0573
  C  C137  1  0.795800  0.753500  0.771800  1.0  -0.1348
  C  C138  1  0.795000  0.692600  0.820500  1.0  -0.0233
  C  C139  1  0.754900  0.598500  0.777000  1.0  -0.1244
  C  C140  1  0.672300  0.462600  0.634700  1.0  0.5594
  C  C141  1  0.440700  0.115700  0.545200  1.0  0.6547
  C  C142  1  0.769000  0.121600  0.711400  1.0  0.7086
  C  C143  1  0.844700  0.855300  0.819900  1.0  0.7037
  C  C144  1  0.133200  0.850300  0.709900  1.0  -0.0984
  C  C145  1  0.104900  0.753700  0.684100  1.0  -0.0757
  C  C146  1  0.011200  0.705700  0.633400  1.0  0.2136
  C  C147  1  0.947200  0.754700  0.610000  1.0  -0.1462
  C  C148  1  0.975400  0.850700  0.638700  1.0  -0.1328
  C  C149  1  0.069000  0.898900  0.688300  1.0  -0.0261
  C  C150  1  0.956000  0.446500  0.592700  1.0  -0.1326
  C  C151  1  0.000400  0.378800  0.604100  1.0  -0.0579
  C  C152  1  0.948800  0.286900  0.576700  1.0  -0.0368
  C  C153  1  0.852600  0.259600  0.535300  1.0  -0.1339
  C  C154  1  0.807600  0.326100  0.522200  1.0  -0.086
  C  C155  1  0.858900  0.418600  0.551000  1.0  -0.1058
  C  C156  1  0.016100  0.545600  0.629200  1.0  0.5479
  C  C157  1  0.234700  0.902700  0.764400  1.0  0.696
  C  C158  1  0.904800  0.902500  0.616300  1.0  0.6997
  C  C159  1  0.796100  0.159100  0.503000  1.0  0.7175
  C  C160  1  0.514500  0.704700  0.659300  1.0  -0.1508
  C  C161  1  0.365100  0.720400  0.695000  1.0  -0.187
  C  C162  1  0.481200  0.849900  0.703200  1.0  0.6165
  C  C163  1  0.577600  0.895500  0.698100  1.0  -0.3502
  C  C164  1  0.797100  0.842500  0.056500  1.0  -0.1425
  C  C165  1  0.766700  0.746600  0.034000  1.0  -0.1059
  C  C166  1  0.673700  0.697600  0.981400  1.0  0.2297
  C  C167  1  0.611600  0.745600  0.951600  1.0  -0.1212
  C  C168  1  0.640700  0.841600  0.978200  1.0  -0.1218
  C  C169  1  0.734100  0.890700  0.029700  1.0  -0.0232
  C  C170  1  0.623800  0.443200  0.956900  1.0  -0.0443
  C  C171  1  0.612200  0.388700  0.010100  1.0  -0.0456
  C  C172  1  0.574900  0.293300  0.972900  1.0  -0.0319
  C  C173  1  0.548800  0.251600  0.881000  1.0  -0.1351
  C  C174  1  0.562000  0.306000  0.827500  1.0  -0.0225
  C  C175  1  0.598900  0.401100  0.865300  1.0  -0.1169
  C  C176  1  0.668100  0.545300  0.002000  1.0  0.5779
  C  C177  1  0.899700  0.892000  0.106900  1.0  0.7041
  C  C178  1  0.570100  0.891500  0.951100  1.0  0.6704
  C  C179  1  0.501900  0.148800  0.839400  1.0  0.7297
  N  N180  1  0.294900  0.593700  0.322300  1.0  -0.3935
  N  N181  1  0.025000  0.392300  0.395900  1.0  -0.3877
  N  N182  1  0.543900  0.236500  0.316200  1.0  0.0454
  N  N183  1  0.359800  0.400600  0.047600  1.0  -0.3945
  N  N184  1  0.705100  0.406300  0.677700  1.0  -0.3949
  N  N185  1  0.975000  0.607700  0.604100  1.0  -0.3875
  N  N186  1  0.456100  0.763500  0.683800  1.0  0.0445
  N  N187  1  0.640200  0.599400  0.952400  1.0  -0.3949
  O  O188  1  0.611280  0.846800  0.497520  1.0  -0.6476
  O  O189  1  0.591910  0.963920  0.450000  1.0  -0.6852
  O  O190  1  0.157330  0.831110  0.224260  1.0  -0.5956
  O  O191  1  0.250230  0.965790  0.320650  1.0  -0.6618
  O  O192  1  0.109200  0.121750  0.098400  1.0  -0.6461
  O  O193  1  0.164100  0.092030  0.226610  1.0  -0.643
  O  O194  1  0.388700  0.566000  0.439400  1.0  -0.5515
  O  O195  1  0.721800  0.132200  0.182400  1.0  -0.5793
  O  O196  1  0.728580  0.021300  0.243410  1.0  -0.6873
  O  O197  1  0.174090  0.141700  0.443800  1.0  -0.5942
  O  O198  1  0.073400  0.011480  0.344500  1.0  -0.7062
  O  O199  1  0.279300  0.863230  0.560970  1.0  -0.5993
  O  O200  1  0.172000  0.893370  0.458570  1.0  -0.617
  O  O201  1  0.903600  0.431700  0.318700  1.0  -0.4985
  O  O202  1  0.567200  0.096980  0.270780  1.0  -0.6589
  O  O203  1  0.052800  0.148900  0.849800  1.0  -0.58
  O  O204  1  0.065010  0.028050  0.894530  1.0  -0.6844
  O  O205  1  0.508500  0.154600  0.106700  1.0  -0.5779
  O  O206  1  0.408500  0.020900  0.013200  1.0  -0.7117
  O  O207  1  0.504900  0.896370  0.108110  1.0  -0.6536
  O  O208  1  0.527200  0.882180  0.244280  1.0  -0.6235
  O  O209  1  0.275000  0.423500  0.922100  1.0  -0.5023
  O  O210  1  0.388720  0.153200  0.502480  1.0  -0.6409
  O  O211  1  0.408090  0.036080  0.550000  1.0  -0.6856
  O  O212  1  0.842670  0.168890  0.775740  1.0  -0.5979
  O  O213  1  0.749770  0.034210  0.679350  1.0  -0.6595
  O  O214  1  0.890800  0.878250  0.901600  1.0  -0.6446
  O  O215  1  0.835900  0.907970  0.773390  1.0  -0.6415
  O  O216  1  0.611300  0.434000  0.560600  1.0  -0.5495
  O  O217  1  0.278200  0.867800  0.817600  1.0  -0.5811
  O  O218  1  0.271420  0.978700  0.756590  1.0  -0.6895
  O  O219  1  0.825910  0.858300  0.556200  1.0  -0.593
  O  O220  1  0.926600  0.988520  0.655500  1.0  -0.7063
  O  O221  1  0.720700  0.136770  0.439030  1.0  -0.5978
  O  O222  1  0.828000  0.106630  0.541430  1.0  -0.616
  O  O223  1  0.096400  0.568300  0.681300  1.0  -0.4988
  O  O224  1  0.432800  0.903020  0.729220  1.0  -0.6588
  O  O225  1  0.947200  0.851100  0.150200  1.0  -0.5772
  O  O226  1  0.934990  0.971950  0.105470  1.0  -0.6846
  O  O227  1  0.491500  0.845400  0.893300  1.0  -0.5798
  O  O228  1  0.591500  0.979100  0.986800  1.0  -0.7119
  O  O229  1  0.495100  0.103630  0.891890  1.0  -0.6498
  O  O230  1  0.472800  0.117820  0.755720  1.0  -0.6214
  O  O231  1  0.725000  0.576500  0.077900  1.0  -0.5048
