# generated using pymatgen
data_TbZnH7C12(NO2)4
_symmetry_space_group_name_H-M   'P 1'
_cell_length_a   9.21400000
_cell_length_b   13.02590000
_cell_length_c   18.59590000
_cell_angle_alpha   72.34640000
_cell_angle_beta   75.65600000
_cell_angle_gamma   69.28750000
_symmetry_Int_Tables_number   1
_chemical_formula_structural   TbZnH7C12(NO2)4
_chemical_formula_sum   'Tb4 Zn4 H28 C48 N16 O32'
_cell_volume   1964.45985141
_cell_formula_units_Z   4
loop_
 _symmetry_equiv_pos_site_id
 _symmetry_equiv_pos_as_xyz
  1  'x, y, z'
loop_
 _atom_site_type_symbol
 _atom_site_label
 _atom_site_symmetry_multiplicity
 _atom_site_fract_x
 _atom_site_fract_y
 _atom_site_fract_z
 _atom_site_occupancy
 _atom_site_charge
  Tb  Tb1  1  0.762790  0.089210  0.993690  1.0  2.2469
  Tb  Tb2  1  0.237210  0.910790  0.006310  1.0  2.2493
  Tb  Tb3  1  0.845690  0.410790  0.506310  1.0  2.2511
  Tb  Tb4  1  0.154310  0.589210  0.493690  1.0  2.2504
  Zn  Zn5  1  0.774000  0.088950  0.334430  1.0  0.9027
  Zn  Zn6  1  0.226000  0.911050  0.665570  1.0  0.9016
  Zn  Zn7  1  0.197380  0.411050  0.165570  1.0  0.9025
  Zn  Zn8  1  0.802620  0.588950  0.834430  1.0  0.904
  H  H9  1  0.620600  0.577800  0.694200  1.0  0.143
  H  H10  1  0.643700  0.957200  0.646600  1.0  0.1368
  H  H11  1  0.287300  0.013600  0.440400  1.0  0.1355
  H  H12  1  0.111700  0.606700  0.908500  1.0  0.1244
  H  H13  1  0.991700  0.819500  0.861500  1.0  0.1311
  H  H14  1  0.008300  0.180500  0.138500  1.0  0.1295
  H  H15  1  0.504000  0.673800  0.643000  1.0  0.1441
  H  H16  1  0.179200  0.173800  0.143000  1.0  0.1475
  H  H17  1  0.496000  0.326200  0.357000  1.0  0.1442
  H  H18  1  0.258700  0.513600  0.940400  1.0  0.1357
  H  H19  1  0.373100  0.106700  0.408500  1.0  0.1232
  H  H20  1  0.327300  0.319500  0.361500  1.0  0.1326
  H  H21  1  0.712700  0.986400  0.559600  1.0  0.1373
  H  H22  1  0.263000  0.307500  0.965300  1.0  0.3052
  H  H23  1  0.379400  0.422200  0.305800  1.0  0.144
  H  H24  1  0.741300  0.486400  0.059600  1.0  0.1343
  H  H25  1  0.626900  0.893300  0.591500  1.0  0.1232
  H  H26  1  0.737000  0.692500  0.034700  1.0  0.3053
  H  H27  1  0.820800  0.826200  0.857000  1.0  0.1495
  H  H28  1  0.888300  0.393300  0.091500  1.0  0.1239
  H  H29  1  0.535800  0.192500  0.534700  1.0  0.3065
  H  H30  1  0.672700  0.680500  0.638500  1.0  0.1335
  H  H31  1  0.356300  0.042800  0.353400  1.0  0.137
  H  H32  1  0.892600  0.922200  0.805800  1.0  0.1449
  H  H33  1  0.752500  0.457200  0.146600  1.0  0.1373
  H  H34  1  0.107400  0.077800  0.194200  1.0  0.1439
  H  H35  1  0.464200  0.807500  0.465300  1.0  0.3077
  H  H36  1  0.247500  0.542800  0.853400  1.0  0.1371
  C  C37  1  0.062820  0.139660  0.581500  1.0  0.7104
  C  C38  1  0.891760  0.552180  0.080300  1.0  0.4403
  C  C39  1  0.771160  0.860980  0.427700  1.0  -0.0094
  C  C40  1  0.084670  0.157460  0.171800  1.0  -0.4458
  C  C41  1  0.883290  0.844920  0.020100  1.0  0.7123
  C  C42  1  0.586070  0.657460  0.671800  1.0  -0.4461
  C  C43  1  0.304590  0.219820  0.543200  1.0  -0.0681
  C  C44  1  0.247360  0.940780  0.814700  1.0  0.6941
  C  C45  1  0.504310  0.768280  0.838100  1.0  -0.0125
  C  C46  1  0.752640  0.059220  0.185300  1.0  0.6961
  C  C47  1  0.474480  0.280040  0.266600  1.0  0.4425
  C  C48  1  0.059840  0.639020  0.072300  1.0  -0.0053
  C  C49  1  0.978880  0.780040  0.766600  1.0  0.4422
  C  C50  1  0.940160  0.360980  0.927700  1.0  -0.0063
  C  C51  1  0.932390  0.719820  0.043200  1.0  -0.066
  C  C52  1  0.441440  0.240120  0.091000  1.0  0.6713
  C  C53  1  0.628400  0.964500  0.595900  1.0  -0.4081
  C  C54  1  0.889310  0.268280  0.338100  1.0  -0.0118
  C  C55  1  0.695410  0.780180  0.456800  1.0  -0.0642
  C  C56  1  0.413930  0.342540  0.328200  1.0  -0.4471
  C  C57  1  0.475760  0.052180  0.580300  1.0  0.4398
  C  C58  1  0.021120  0.219960  0.233400  1.0  0.4427
  C  C59  1  0.116710  0.155080  0.979900  1.0  0.7115
  C  C60  1  0.371600  0.035500  0.404100  1.0  -0.4082
  C  C61  1  0.915330  0.842540  0.828200  1.0  -0.4466
  C  C62  1  0.382400  0.841700  0.799900  1.0  -0.0058
  C  C63  1  0.811200  0.464500  0.095900  1.0  -0.408
  C  C64  1  0.188800  0.535500  0.904100  1.0  -0.4078
  C  C65  1  0.228840  0.139020  0.572300  1.0  -0.0105
  C  C66  1  0.997160  0.440780  0.314700  1.0  0.6937
  C  C67  1  0.024000  0.658300  0.700100  1.0  -0.0082
  C  C68  1  0.251690  0.344920  0.520100  1.0  0.7133
  C  C69  1  0.976000  0.341700  0.299900  1.0  -0.0067
  C  C70  1  0.227440  0.740120  0.591000  1.0  0.6734
  C  C71  1  0.525520  0.719960  0.733400  1.0  0.4424
  C  C72  1  0.748310  0.655080  0.479900  1.0  0.7115
  C  C73  1  0.558560  0.759880  0.909000  1.0  0.6704
  C  C74  1  0.937180  0.860340  0.418500  1.0  0.7095
  C  C75  1  0.617600  0.158300  0.200100  1.0  -0.0064
  C  C76  1  0.110690  0.731720  0.661900  1.0  -0.0121
  C  C77  1  0.216020  0.639660  0.081500  1.0  0.7111
  C  C78  1  0.067610  0.280180  0.956800  1.0  -0.0656
  C  C79  1  0.495690  0.231720  0.161900  1.0  -0.0122
  C  C80  1  0.524240  0.947820  0.419700  1.0  0.44
  C  C81  1  0.772560  0.259880  0.409000  1.0  0.6712
  C  C82  1  0.783980  0.360340  0.918500  1.0  0.7107
  C  C83  1  0.002840  0.559220  0.685300  1.0  0.6945
  C  C84  1  0.108240  0.447820  0.919700  1.0  0.4398
  N  N85  1  0.032650  0.534940  0.096360  1.0  -0.4153
  N  N86  1  0.941940  0.688520  0.766800  1.0  -0.4903
  N  N87  1  0.172040  0.337420  0.951100  1.0  -0.2666
  N  N88  1  0.539440  0.837420  0.451100  1.0  -0.2649
  N  N89  1  0.081020  0.808590  0.704970  1.0  -0.4517
  N  N90  1  0.967350  0.465060  0.903640  1.0  -0.4147
  N  N91  1  0.460560  0.162580  0.548900  1.0  -0.2625
  N  N92  1  0.405420  0.308590  0.204970  1.0  -0.4508
  N  N93  1  0.336050  0.034940  0.596360  1.0  -0.4161
  N  N94  1  0.594580  0.691410  0.795030  1.0  -0.4506
  N  N95  1  0.058060  0.311480  0.233200  1.0  -0.489
  N  N96  1  0.397260  0.811480  0.733200  1.0  -0.4856
  N  N97  1  0.827960  0.662580  0.048900  1.0  -0.2659
  N  N98  1  0.663950  0.965060  0.403640  1.0  -0.4155
  N  N99  1  0.602740  0.188520  0.266800  1.0  -0.4857
  N  N100  1  0.918980  0.191410  0.295030  1.0  -0.4507
  O  O101  1  0.653940  0.602650  0.483670  1.0  -0.6494
  O  O102  1  0.018830  0.100540  0.995200  1.0  -0.8393
  O  O103  1  0.682320  0.681020  0.925140  1.0  -0.5713
  O  O104  1  0.885430  0.600540  0.495200  1.0  -0.8413
  O  O105  1  0.031680  0.051510  0.621330  1.0  -0.5671
  O  O106  1  0.346060  0.397350  0.516330  1.0  -0.6508
  O  O107  1  0.212990  0.965870  0.878950  1.0  -0.7088
  O  O108  1  0.166960  0.995620  0.762460  1.0  -0.5861
  O  O109  1  0.981170  0.899460  0.004800  1.0  -0.8396
  O  O110  1  0.925040  0.504380  0.737540  1.0  -0.582
  O  O111  1  0.787010  0.034130  0.121050  1.0  -0.7091
  O  O112  1  0.833040  0.004380  0.237540  1.0  -0.5849
  O  O113  1  0.513590  0.167410  0.052210  1.0  -0.7143
  O  O114  1  0.740260  0.897350  0.016330  1.0  -0.6514
  O  O115  1  0.738620  0.275090  0.951870  1.0  -0.7453
  O  O116  1  0.295480  0.551510  0.121330  1.0  -0.5673
  O  O117  1  0.114570  0.399460  0.504800  1.0  -0.8419
  O  O118  1  0.317680  0.318980  0.074860  1.0  -0.5729
  O  O119  1  0.074960  0.495620  0.262460  1.0  -0.5832
  O  O120  1  0.266790  0.667410  0.552210  1.0  -0.7137
  O  O121  1  0.057810  0.534130  0.621050  1.0  -0.7083
  O  O122  1  0.965580  0.224910  0.548130  1.0  -0.7461
  O  O123  1  0.711520  0.181020  0.425140  1.0  -0.5717
  O  O124  1  0.034420  0.775090  0.451870  1.0  -0.745
  O  O125  1  0.486410  0.832590  0.947790  1.0  -0.7133
  O  O126  1  0.968320  0.948490  0.378670  1.0  -0.5655
  O  O127  1  0.733210  0.332590  0.447790  1.0  -0.7125
  O  O128  1  0.261380  0.724910  0.048130  1.0  -0.7448
  O  O129  1  0.942190  0.465870  0.378950  1.0  -0.7079
  O  O130  1  0.259740  0.102650  0.983670  1.0  -0.6526
  O  O131  1  0.704520  0.448490  0.878670  1.0  -0.566
  O  O132  1  0.288480  0.818980  0.574860  1.0  -0.5731
