# generated using pymatgen
data_DyZnH7C12(NO2)4
_symmetry_space_group_name_H-M   'P 1'
_cell_length_a   9.18160000
_cell_length_b   12.98510000
_cell_length_c   18.46270000
_cell_angle_alpha   72.06440000
_cell_angle_beta   75.60220000
_cell_angle_gamma   69.29580000
_symmetry_Int_Tables_number   1
_chemical_formula_structural   DyZnH7C12(NO2)4
_chemical_formula_sum   'Dy4 Zn4 H28 C48 N16 O32'
_cell_volume   1934.66309730
_cell_formula_units_Z   4
loop_
 _symmetry_equiv_pos_site_id
 _symmetry_equiv_pos_as_xyz
  1  'x, y, z'
loop_
 _atom_site_type_symbol
 _atom_site_label
 _atom_site_symmetry_multiplicity
 _atom_site_fract_x
 _atom_site_fract_y
 _atom_site_fract_z
 _atom_site_occupancy
 _atom_site_charge
  Dy  Dy1  1  0.236740  0.410710  0.506610  1.0  2.2561
  Dy  Dy2  1  0.763260  0.589290  0.493390  1.0  2.2547
  Dy  Dy3  1  0.845940  0.910710  0.006610  1.0  2.2582
  Dy  Dy4  1  0.154060  0.089290  0.993390  1.0  2.258
  Zn  Zn5  1  0.776210  0.588620  0.835220  1.0  0.9216
  Zn  Zn6  1  0.200050  0.911380  0.664780  1.0  0.9222
  Zn  Zn7  1  0.799950  0.088620  0.335220  1.0  0.9228
  Zn  Zn8  1  0.223790  0.411380  0.164780  1.0  0.9217
  H  H9  1  0.755400  0.954400  0.650400  1.0  0.1358
  H  H10  1  0.244600  0.045600  0.349600  1.0  0.1352
  H  H11  1  0.496700  0.818900  0.860100  1.0  0.1359
  H  H12  1  0.713900  0.490700  0.063900  1.0  0.1336
  H  H13  1  0.462800  0.305800  0.963000  1.0  0.2884
  H  H14  1  0.395400  0.922500  0.804700  1.0  0.1491
  H  H15  1  0.268400  0.805800  0.463000  1.0  0.2871
  H  H16  1  0.639800  0.454400  0.150400  1.0  0.1343
  H  H17  1  0.286100  0.509300  0.936100  1.0  0.1325
  H  H18  1  0.676200  0.173900  0.142300  1.0  0.1296
  H  H19  1  0.877400  0.422500  0.304700  1.0  0.1495
  H  H20  1  0.631900  0.394800  0.090000  1.0  0.1278
  H  H21  1  0.731500  0.990700  0.563900  1.0  0.1315
  H  H22  1  0.007600  0.673900  0.642300  1.0  0.1278
  H  H23  1  0.537200  0.694200  0.037000  1.0  0.2884
  H  H24  1  0.116700  0.105200  0.410000  1.0  0.1279
  H  H25  1  0.992400  0.326100  0.357700  1.0  0.1294
  H  H26  1  0.122600  0.577500  0.695300  1.0  0.1485
  H  H27  1  0.731600  0.194200  0.537000  1.0  0.2871
  H  H28  1  0.883300  0.894800  0.590000  1.0  0.1275
  H  H29  1  0.503300  0.181100  0.139900  1.0  0.1348
  H  H30  1  0.824300  0.318900  0.360100  1.0  0.1381
  H  H31  1  0.360200  0.545600  0.849600  1.0  0.1352
  H  H32  1  0.268500  0.009300  0.436100  1.0  0.1328
  H  H33  1  0.323800  0.826100  0.857700  1.0  0.1323
  H  H34  1  0.368100  0.605200  0.910000  1.0  0.1282
  H  H35  1  0.175700  0.681100  0.639900  1.0  0.1392
  H  H36  1  0.604600  0.077500  0.195300  1.0  0.1473
  C  C37  1  0.063000  0.640100  0.079900  1.0  0.7126
  C  C38  1  0.629000  0.465300  0.097900  1.0  -0.4109
  C  C39  1  0.023880  0.719740  0.733700  1.0  0.4514
  C  C40  1  0.109400  0.947400  0.418400  1.0  0.4159
  C  C41  1  0.497510  0.732680  0.661300  1.0  -0.0087
  C  C42  1  0.418200  0.842300  0.827500  1.0  -0.4556
  C  C43  1  0.475200  0.552600  0.081600  1.0  0.4156
  C  C44  1  0.371000  0.534700  0.902100  1.0  -0.4103
  C  C45  1  0.244900  0.440800  0.315600  1.0  0.6985
  C  C46  1  0.770600  0.361500  0.928300  1.0  0.0009
  C  C47  1  0.998700  0.940800  0.815600  1.0  0.6969
  C  C48  1  0.444250  0.739100  0.590600  1.0  0.6749
  C  C49  1  0.807800  0.965300  0.597900  1.0  -0.4095
  C  C50  1  0.555750  0.260900  0.409400  1.0  0.6746
  C  C51  1  0.021360  0.157580  0.200500  1.0  -0.0194
  C  C52  1  0.502490  0.267320  0.338700  1.0  -0.0095
  C  C53  1  0.251500  0.845600  0.019800  1.0  0.6719
  C  C54  1  0.976120  0.280260  0.266300  1.0  0.4507
  C  C55  1  0.939600  0.861500  0.428300  1.0  0.0027
  C  C56  1  0.304500  0.721400  0.042600  1.0  -0.0618
  C  C57  1  0.695500  0.278600  0.957400  1.0  -0.058
  C  C58  1  0.108510  0.232680  0.161300  1.0  -0.0083
  C  C59  1  0.068500  0.778600  0.457400  1.0  -0.0583
  C  C60  1  0.116900  0.654400  0.480200  1.0  0.6714
  C  C61  1  0.937000  0.359900  0.920100  1.0  0.7126
  C  C62  1  0.379440  0.342420  0.299500  1.0  -0.0185
  C  C63  1  0.001300  0.059200  0.184400  1.0  0.7005
  C  C64  1  0.978640  0.842420  0.799500  1.0  -0.0191
  C  C65  1  0.620560  0.657580  0.700500  1.0  -0.019
  C  C66  1  0.890600  0.052600  0.581600  1.0  0.4159
  C  C67  1  0.773950  0.760900  0.909400  1.0  0.6758
  C  C68  1  0.581800  0.157700  0.172500  1.0  -0.4544
  C  C69  1  0.883100  0.345600  0.519800  1.0  0.6724
  C  C70  1  0.748500  0.154400  0.980200  1.0  0.6735
  C  C71  1  0.192200  0.034700  0.402100  1.0  -0.4104
  C  C72  1  0.931500  0.221400  0.542600  1.0  -0.06
  C  C73  1  0.783000  0.859900  0.420100  1.0  0.7139
  C  C74  1  0.755100  0.559200  0.684400  1.0  0.7002
  C  C75  1  0.524800  0.447400  0.918400  1.0  0.4148
  C  C76  1  0.522680  0.219740  0.233700  1.0  0.4488
  C  C77  1  0.891490  0.767320  0.838700  1.0  -0.0095
  C  C78  1  0.912000  0.342300  0.327500  1.0  -0.4549
  C  C79  1  0.217000  0.140100  0.579900  1.0  0.7129
  C  C80  1  0.226050  0.239100  0.090600  1.0  0.676
  C  C81  1  0.088000  0.657700  0.672500  1.0  -0.4543
  C  C82  1  0.229400  0.638500  0.071700  1.0  0.0021
  C  C83  1  0.477320  0.780260  0.766300  1.0  0.4491
  C  C84  1  0.060400  0.138500  0.571700  1.0  0.0048
  N  N85  1  0.032330  0.035340  0.596400  1.0  -0.4266
  N  N86  1  0.939260  0.189090  0.266990  1.0  -0.4773
  N  N87  1  0.459950  0.663500  0.050400  1.0  -0.2386
  N  N88  1  0.604660  0.689090  0.766990  1.0  -0.4753
  N  N89  1  0.591680  0.190740  0.295700  1.0  -0.4427
  N  N90  1  0.408320  0.809260  0.704300  1.0  -0.4442
  N  N91  1  0.395340  0.310910  0.233010  1.0  -0.4685
  N  N92  1  0.967670  0.964660  0.403600  1.0  -0.427
  N  N93  1  0.335930  0.535340  0.096400  1.0  -0.4272
  N  N94  1  0.060740  0.810910  0.733010  1.0  -0.4712
  N  N95  1  0.826150  0.163500  0.550400  1.0  -0.2435
  N  N96  1  0.173850  0.836500  0.449600  1.0  -0.2436
  N  N97  1  0.078120  0.309260  0.204300  1.0  -0.4447
  N  N98  1  0.921880  0.690740  0.795700  1.0  -0.4438
  N  N99  1  0.664070  0.464660  0.903600  1.0  -0.427
  N  N100  1  0.540050  0.336500  0.949600  1.0  -0.2407
  O  O101  1  0.030180  0.552240  0.120200  1.0  -0.5692
  O  O102  1  0.267880  0.165850  0.052390  1.0  -0.7254
  O  O103  1  0.286550  0.319340  0.073560  1.0  -0.5934
  O  O104  1  0.740160  0.397950  0.516730  1.0  -0.6347
  O  O105  1  0.654840  0.102050  0.983270  1.0  -0.632
  O  O106  1  0.262630  0.226040  0.546300  1.0  -0.7386
  O  O107  1  0.835990  0.503570  0.737650  1.0  -0.585
  O  O108  1  0.969820  0.447760  0.879800  1.0  -0.5677
  O  O109  1  0.713450  0.680660  0.926440  1.0  -0.5959
  O  O110  1  0.212970  0.466850  0.379010  1.0  -0.6915
  O  O111  1  0.787030  0.533150  0.620990  1.0  -0.6938
  O  O112  1  0.513880  0.665850  0.552390  1.0  -0.7258
  O  O113  1  0.297380  0.052240  0.620200  1.0  -0.5691
  O  O114  1  0.885840  0.099730  0.995190  1.0  -0.8294
  O  O115  1  0.941170  0.966850  0.879010  1.0  -0.6908
  O  O116  1  0.034970  0.273960  0.953700  1.0  -0.739
  O  O117  1  0.259840  0.602050  0.483270  1.0  -0.6362
  O  O118  1  0.320550  0.819340  0.573560  1.0  -0.5952
  O  O119  1  0.164010  0.496430  0.262350  1.0  -0.5857
  O  O120  1  0.732120  0.834150  0.947610  1.0  -0.722
  O  O121  1  0.679450  0.180660  0.426440  1.0  -0.5937
  O  O122  1  0.345160  0.897950  0.016730  1.0  -0.6346
  O  O123  1  0.965030  0.726040  0.046300  1.0  -0.7411
  O  O124  1  0.077210  0.996430  0.762350  1.0  -0.5835
  O  O125  1  0.019240  0.599730  0.495190  1.0  -0.8299
  O  O126  1  0.737370  0.773960  0.453700  1.0  -0.7398
  O  O127  1  0.980760  0.400270  0.504810  1.0  -0.8294
  O  O128  1  0.058830  0.033150  0.120990  1.0  -0.6919
  O  O129  1  0.114160  0.900270  0.004810  1.0  -0.8299
  O  O130  1  0.486120  0.334150  0.447610  1.0  -0.7231
  O  O131  1  0.702620  0.947760  0.379800  1.0  -0.568
  O  O132  1  0.922790  0.003570  0.237650  1.0  -0.5832
