# generated using pymatgen
data_GdZnH6C12(NO2)4
_symmetry_space_group_name_H-M   'P 1'
_cell_length_a   9.22360000
_cell_length_b   13.04210000
_cell_length_c   18.63890000
_cell_angle_alpha   72.10350000
_cell_angle_beta   75.67460000
_cell_angle_gamma   69.29180000
_symmetry_Int_Tables_number   1
_chemical_formula_structural   GdZnH6C12(NO2)4
_chemical_formula_sum   'Gd4 Zn4 H24 C48 N16 O32'
_cell_volume   1971.42664107
_cell_formula_units_Z   4
loop_
 _symmetry_equiv_pos_site_id
 _symmetry_equiv_pos_as_xyz
  1  'x, y, z'
loop_
 _atom_site_type_symbol
 _atom_site_label
 _atom_site_symmetry_multiplicity
 _atom_site_fract_x
 _atom_site_fract_y
 _atom_site_fract_z
 _atom_site_occupancy
 _atom_site_charge
  Gd  Gd1  1  0.262550  0.589140  0.493080  1.0  2.1796
  Gd  Gd2  1  0.655230  0.089140  0.993080  1.0  2.1813
  Gd  Gd3  1  0.737450  0.410860  0.506920  1.0  2.1817
  Gd  Gd4  1  0.344770  0.910860  0.006920  1.0  2.1837
  Zn  Zn5  1  0.726430  0.410540  0.166100  1.0  0.9468
  Zn  Zn6  1  0.273570  0.589460  0.833900  1.0  0.9472
  Zn  Zn7  1  0.303070  0.089460  0.333900  1.0  0.9471
  Zn  Zn8  1  0.696930  0.910540  0.666100  1.0  0.9471
  H  H9  1  0.385800  0.897900  0.582700  1.0  0.14
  H  H10  1  0.133600  0.397900  0.082700  1.0  0.1394
  H  H11  1  0.136700  0.449100  0.147900  1.0  0.1536
  H  H12  1  0.733700  0.050900  0.352100  1.0  0.1542
  H  H13  1  0.863300  0.550900  0.852100  1.0  0.1538
  H  H14  1  0.266300  0.949100  0.647900  1.0  0.1543
  H  H15  1  0.363400  0.418400  0.306400  1.0  0.1615
  H  H16  1  0.501100  0.336900  0.350900  1.0  0.1518
  H  H17  1  0.911800  0.918400  0.806400  1.0  0.1608
  H  H18  1  0.655800  0.693000  0.634400  1.0  0.1549
  H  H19  1  0.983200  0.807000  0.865600  1.0  0.153
  H  H20  1  0.230300  0.993800  0.564000  1.0  0.1519
  H  H21  1  0.811100  0.836900  0.850900  1.0  0.1492
  H  H22  1  0.211900  0.493800  0.064000  1.0  0.1542
  H  H23  1  0.788100  0.506200  0.936000  1.0  0.1555
  H  H24  1  0.344200  0.307000  0.365600  1.0  0.1528
  H  H25  1  0.016800  0.193000  0.134400  1.0  0.1524
  H  H26  1  0.769700  0.006200  0.436000  1.0  0.1535
  H  H27  1  0.866400  0.602100  0.917300  1.0  0.1399
  H  H28  1  0.498900  0.663100  0.649100  1.0  0.1501
  H  H29  1  0.614200  0.102100  0.417300  1.0  0.1398
  H  H30  1  0.636600  0.581600  0.693600  1.0  0.1618
  H  H31  1  0.188900  0.163100  0.149100  1.0  0.1493
  H  H32  1  0.088200  0.081600  0.193600  1.0  0.1607
  C  C33  1  0.026200  0.220500  0.233300  1.0  0.4676
  C  C34  1  0.116400  0.658400  0.700600  1.0  0.0084
  C  C35  1  0.393100  0.052500  0.580300  1.0  0.4512
  C  C36  1  0.727400  0.240700  0.091700  1.0  0.7026
  C  C37  1  0.914800  0.840900  0.827700  1.0  -0.4565
  C  C38  1  0.973800  0.779500  0.766700  1.0  0.4617
  C  C39  1  0.583400  0.659100  0.672300  1.0  -0.456
  C  C40  1  0.611700  0.232200  0.162000  1.0  0.0073
  C  C41  1  0.127800  0.465600  0.095000  1.0  -0.4425
  C  C42  1  0.383100  0.345100  0.520100  1.0  0.6665
  C  C43  1  0.616900  0.654900  0.479900  1.0  0.6663
  C  C44  1  0.248300  0.154900  0.979900  1.0  0.666
  C  C45  1  0.688400  0.034400  0.405000  1.0  -0.4417
  C  C46  1  0.475400  0.841600  0.799400  1.0  0.0099
  C  C47  1  0.283800  0.861400  0.417000  1.0  0.7202
  C  C48  1  0.005900  0.267800  0.338000  1.0  0.0066
  C  C49  1  0.272600  0.759300  0.908300  1.0  0.7039
  C  C50  1  0.805900  0.720500  0.041700  1.0  -0.0009
  C  C51  1  0.716200  0.138600  0.583000  1.0  0.7217
  C  C52  1  0.437800  0.361400  0.917000  1.0  0.7226
  C  C53  1  0.994100  0.732200  0.662000  1.0  0.0066
  C  C54  1  0.524600  0.158400  0.200600  1.0  0.0085
  C  C55  1  0.751700  0.845100  0.020100  1.0  0.6668
  C  C56  1  0.431900  0.220500  0.541700  1.0  -0.0016
  C  C57  1  0.388300  0.767800  0.838000  1.0  0.007
  C  C58  1  0.606900  0.947500  0.419700  1.0  0.4519
  C  C59  1  0.940200  0.740700  0.591700  1.0  0.7011
  C  C60  1  0.270100  0.362800  0.927000  1.0  0.033
  C  C61  1  0.883600  0.341600  0.299400  1.0  0.0094
  C  C62  1  0.562200  0.638600  0.083000  1.0  0.7204
  C  C63  1  0.311600  0.965600  0.595000  1.0  -0.4406
  C  C64  1  0.974100  0.552500  0.080300  1.0  0.4516
  C  C65  1  0.729900  0.637200  0.073000  1.0  0.0331
  C  C66  1  0.502500  0.060500  0.184900  1.0  0.7032
  C  C67  1  0.085200  0.159100  0.172300  1.0  -0.4561
  C  C68  1  0.568100  0.779500  0.458300  1.0  0.0008
  C  C69  1  0.025900  0.447500  0.919700  1.0  0.4491
  C  C70  1  0.440100  0.862800  0.427000  1.0  0.0331
  C  C71  1  0.252100  0.560500  0.684900  1.0  0.7038
  C  C72  1  0.497500  0.939500  0.815100  1.0  0.7032
  C  C73  1  0.520000  0.720500  0.733300  1.0  0.4648
  C  C74  1  0.194100  0.279500  0.958300  1.0  0.0021
  C  C75  1  0.559900  0.137200  0.573000  1.0  0.032
  C  C76  1  0.416600  0.340900  0.327700  1.0  -0.456
  C  C77  1  0.480000  0.279500  0.266700  1.0  0.4683
  C  C78  1  0.872200  0.534400  0.905000  1.0  -0.4415
  C  C79  1  0.747900  0.439500  0.315100  1.0  0.7024
  C  C80  1  0.059800  0.259300  0.408300  1.0  0.7014
  N  N81  1  0.557400  0.810600  0.734000  1.0  -0.4331
  N  N82  1  0.532100  0.034700  0.597100  1.0  -0.4254
  N  N83  1  0.442600  0.189400  0.266000  1.0  -0.4358
  N  N84  1  0.102000  0.689400  0.766000  1.0  -0.4221
  N  N85  1  0.904500  0.807800  0.704600  1.0  -0.4075
  N  N86  1  0.898000  0.310600  0.234000  1.0  -0.436
  N  N87  1  0.416900  0.692200  0.795400  1.0  -0.4069
  N  N88  1  0.672200  0.837500  0.451500  1.0  -0.299
  N  N89  1  0.836100  0.534700  0.097100  1.0  -0.4239
  N  N90  1  0.467900  0.965300  0.402900  1.0  -0.4216
  N  N91  1  0.163900  0.465300  0.902900  1.0  -0.4305
  N  N92  1  0.095500  0.192200  0.295400  1.0  -0.4065
  N  N93  1  0.327800  0.162500  0.548500  1.0  -0.2992
  N  N94  1  0.961200  0.662500  0.048500  1.0  -0.3026
  N  N95  1  0.038800  0.337500  0.951500  1.0  -0.2986
  N  N96  1  0.583100  0.307800  0.204600  1.0  -0.4079
  O  O97  1  0.211800  0.680000  0.925000  1.0  -0.5823
  O  O98  1  0.284400  0.535200  0.621000  1.0  -0.7085
  O  O99  1  0.758400  0.603600  0.484600  1.0  -0.6343
  O  O100  1  0.333600  0.505500  0.737300  1.0  -0.5736
  O  O101  1  0.385570  0.101160  0.994900  1.0  -0.8151
  O  O102  1  0.794800  0.051300  0.622100  1.0  -0.5697
  O  O103  1  0.715600  0.464800  0.379000  1.0  -0.7092
  O  O104  1  0.535500  0.275400  0.949400  1.0  -0.7324
  O  O105  1  0.423600  0.005500  0.237300  1.0  -0.5718
  O  O106  1  0.788200  0.320000  0.075000  1.0  -0.5814
  O  O107  1  0.986900  0.330200  0.448000  1.0  -0.7227
  O  O108  1  0.765100  0.169800  0.052000  1.0  -0.7223
  O  O109  1  0.531800  0.551300  0.122100  1.0  -0.5697
  O  O110  1  0.559400  0.035200  0.121000  1.0  -0.7085
  O  O111  1  0.614430  0.898840  0.005100  1.0  -0.8155
  O  O112  1  0.518370  0.601160  0.494900  1.0  -0.813
  O  O113  1  0.666400  0.494500  0.262700  1.0  -0.5734
  O  O114  1  0.205200  0.948700  0.377900  1.0  -0.568
  O  O115  1  0.013100  0.669800  0.552000  1.0  -0.7224
  O  O116  1  0.153400  0.103600  0.984600  1.0  -0.6343
  O  O117  1  0.816800  0.820000  0.575000  1.0  -0.5839
  O  O118  1  0.576400  0.994500  0.762700  1.0  -0.5721
  O  O119  1  0.241600  0.396400  0.515400  1.0  -0.6348
  O  O120  1  0.846600  0.896400  0.015400  1.0  -0.6345
  O  O121  1  0.760300  0.224600  0.550600  1.0  -0.7316
  O  O122  1  0.239700  0.775400  0.449400  1.0  -0.7329
  O  O123  1  0.183200  0.180000  0.425000  1.0  -0.5841
  O  O124  1  0.468200  0.448700  0.877900  1.0  -0.5692
  O  O125  1  0.234900  0.830200  0.948000  1.0  -0.7233
  O  O126  1  0.440600  0.964800  0.879000  1.0  -0.7093
  O  O127  1  0.464500  0.724600  0.050600  1.0  -0.7317
  O  O128  1  0.481630  0.398840  0.505100  1.0  -0.8131
