# generated using pymatgen
data_EuZnH7C12(NO2)4
_symmetry_space_group_name_H-M   'P 1'
_cell_length_a   24.19080000
_cell_length_b   9.14720000
_cell_length_c   18.95670000
_cell_angle_alpha   90.00000000
_cell_angle_beta   114.25200000
_cell_angle_gamma   90.00000000
_symmetry_Int_Tables_number   1
_chemical_formula_structural   EuZnH7C12(NO2)4
_chemical_formula_sum   'Eu8 Zn8 H56 C96 N32 O64'
_cell_volume   3824.51018970
_cell_formula_units_Z   8
loop_
 _symmetry_equiv_pos_site_id
 _symmetry_equiv_pos_as_xyz
  1  'x, y, z'
loop_
 _atom_site_type_symbol
 _atom_site_label
 _atom_site_symmetry_multiplicity
 _atom_site_fract_x
 _atom_site_fract_y
 _atom_site_fract_z
 _atom_site_occupancy
 _atom_site_charge
  Eu  Eu1  1  0.541620  0.305720  0.494300  1.0  2.1381
  Eu  Eu2  1  0.041620  0.805720  0.494300  1.0  2.1381
  Eu  Eu3  1  0.458380  0.305720  0.005700  1.0  2.14
  Eu  Eu4  1  0.958380  0.805720  0.005700  1.0  2.14
  Eu  Eu5  1  0.458380  0.694280  0.505700  1.0  2.1398
  Eu  Eu6  1  0.958380  0.194280  0.505700  1.0  2.1398
  Eu  Eu7  1  0.541620  0.694280  0.994300  1.0  2.1379
  Eu  Eu8  1  0.041620  0.194280  0.994300  1.0  2.1379
  Zn  Zn9  1  0.712220  0.509810  0.336240  1.0  0.9073
  Zn  Zn10  1  0.212220  0.009810  0.336240  1.0  0.9073
  Zn  Zn11  1  0.287780  0.509810  0.163760  1.0  0.9065
  Zn  Zn12  1  0.787780  0.009810  0.163760  1.0  0.9065
  Zn  Zn13  1  0.287780  0.490190  0.663760  1.0  0.9065
  Zn  Zn14  1  0.787780  0.990190  0.663760  1.0  0.9065
  Zn  Zn15  1  0.712220  0.490190  0.836240  1.0  0.9072
  Zn  Zn16  1  0.212220  0.990190  0.836240  1.0  0.9072
  H  H17  1  0.632700  0.904800  0.461200  1.0  0.2866
  H  H18  1  0.700600  0.929100  0.346500  1.0  0.1329
  H  H19  1  0.759100  0.879500  0.417600  1.0  0.1294
  H  H20  1  0.716100  0.997500  0.428200  1.0  0.1291
  H  H21  1  0.639200  0.176400  0.185600  1.0  0.1498
  H  H22  1  0.664900  0.215000  0.124200  1.0  0.1359
  H  H23  1  0.646300  0.340300  0.166600  1.0  0.1439
  H  H24  1  0.132700  0.404800  0.461200  1.0  0.2866
  H  H25  1  0.200600  0.429100  0.346500  1.0  0.1329
  H  H26  1  0.259100  0.379500  0.417600  1.0  0.1294
  H  H27  1  0.216100  0.497500  0.428200  1.0  0.1291
  H  H28  1  0.139200  0.676400  0.185600  1.0  0.1498
  H  H29  1  0.164900  0.715000  0.124200  1.0  0.1359
  H  H30  1  0.146300  0.840300  0.166600  1.0  0.1439
  H  H31  1  0.367300  0.904800  0.038800  1.0  0.286
  H  H32  1  0.299400  0.929100  0.153500  1.0  0.1336
  H  H33  1  0.240900  0.879500  0.082400  1.0  0.1296
  H  H34  1  0.283900  0.997500  0.071800  1.0  0.1289
  H  H35  1  0.360800  0.176400  0.314400  1.0  0.1496
  H  H36  1  0.335100  0.215000  0.375800  1.0  0.1383
  H  H37  1  0.353700  0.340300  0.333400  1.0  0.1417
  H  H38  1  0.867300  0.404800  0.038800  1.0  0.286
  H  H39  1  0.799400  0.429100  0.153500  1.0  0.1336
  H  H40  1  0.740900  0.379500  0.082400  1.0  0.1296
  H  H41  1  0.783900  0.497500  0.071800  1.0  0.1289
  H  H42  1  0.860800  0.676400  0.314400  1.0  0.1496
  H  H43  1  0.835100  0.715000  0.375800  1.0  0.1383
  H  H44  1  0.853700  0.840300  0.333400  1.0  0.1417
  H  H45  1  0.367300  0.095200  0.538800  1.0  0.2858
  H  H46  1  0.299400  0.070900  0.653500  1.0  0.1336
  H  H47  1  0.240900  0.120500  0.582400  1.0  0.1291
  H  H48  1  0.283900  0.002500  0.571800  1.0  0.1282
  H  H49  1  0.360800  0.823600  0.814400  1.0  0.1504
  H  H50  1  0.335100  0.785000  0.875800  1.0  0.1382
  H  H51  1  0.353700  0.659700  0.833400  1.0  0.142
  H  H52  1  0.867300  0.595200  0.538800  1.0  0.2858
  H  H53  1  0.799400  0.570900  0.653500  1.0  0.1336
  H  H54  1  0.740900  0.620500  0.582400  1.0  0.1291
  H  H55  1  0.783900  0.502500  0.571800  1.0  0.1282
  H  H56  1  0.860800  0.323600  0.814400  1.0  0.1504
  H  H57  1  0.835100  0.285000  0.875800  1.0  0.1382
  H  H58  1  0.853700  0.159700  0.833400  1.0  0.142
  H  H59  1  0.632700  0.095200  0.961200  1.0  0.2881
  H  H60  1  0.700600  0.070900  0.846500  1.0  0.1331
  H  H61  1  0.759100  0.120500  0.917600  1.0  0.129
  H  H62  1  0.716100  0.002500  0.928200  1.0  0.1289
  H  H63  1  0.639200  0.823600  0.685600  1.0  0.1498
  H  H64  1  0.664900  0.785000  0.624200  1.0  0.1361
  H  H65  1  0.646300  0.659700  0.666667  1.0  0.1426
  H  H66  1  0.132700  0.595200  0.961200  1.0  0.2881
  H  H67  1  0.200600  0.570900  0.846500  1.0  0.1331
  H  H68  1  0.259100  0.620500  0.917600  1.0  0.129
  H  H69  1  0.216100  0.502500  0.928200  1.0  0.1289
  H  H70  1  0.139200  0.323600  0.685600  1.0  0.1498
  H  H71  1  0.164900  0.285000  0.624200  1.0  0.1361
  H  H72  1  0.146300  0.159700  0.666667  1.0  0.1426
  C  C73  1  0.566000  0.684800  0.480400  1.0  0.6907
  C  C74  1  0.617600  0.685900  0.456300  1.0  -0.0522
  C  C75  1  0.645100  0.583400  0.429800  1.0  0.0179
  C  C76  1  0.641000  0.422000  0.422500  1.0  0.687
  C  C77  1  0.682400  0.792700  0.418000  1.0  0.4161
  C  C78  1  0.717700  0.910100  0.401100  1.0  -0.427
  C  C79  1  0.835600  0.390900  0.408800  1.0  0.6776
  C  C80  1  0.803400  0.303200  0.338400  1.0  0.0053
  C  C81  1  0.820900  0.198500  0.299500  1.0  0.0062
  C  C82  1  0.878300  0.121300  0.314100  1.0  0.7037
  C  C83  1  0.726100  0.245800  0.234100  1.0  0.4483
  C  C84  1  0.663600  0.244200  0.172100  1.0  -0.4218
  C  C85  1  0.066000  0.184800  0.480400  1.0  0.6907
  C  C86  1  0.117600  0.185900  0.456300  1.0  -0.0522
  C  C87  1  0.145100  0.083400  0.429800  1.0  0.0179
  C  C88  1  0.141000  0.922000  0.422500  1.0  0.687
  C  C89  1  0.182400  0.292700  0.418000  1.0  0.4161
  C  C90  1  0.217700  0.410100  0.401100  1.0  -0.427
  C  C91  1  0.335600  0.890900  0.408800  1.0  0.6776
  C  C92  1  0.303400  0.803200  0.338400  1.0  0.0053
  C  C93  1  0.320900  0.698500  0.299500  1.0  0.0062
  C  C94  1  0.378300  0.621300  0.314100  1.0  0.7037
  C  C95  1  0.226100  0.745800  0.234100  1.0  0.4483
  C  C96  1  0.163600  0.744200  0.172100  1.0  -0.4218
  C  C97  1  0.434000  0.684800  0.019600  1.0  0.6868
  C  C98  1  0.382400  0.685900  0.043700  1.0  -0.0499
  C  C99  1  0.354900  0.583400  0.070200  1.0  0.0183
  C  C100  1  0.359000  0.422000  0.077500  1.0  0.6879
  C  C101  1  0.317600  0.792700  0.082000  1.0  0.4195
  C  C102  1  0.282300  0.910100  0.098900  1.0  -0.4265
  C  C103  1  0.164400  0.390900  0.091200  1.0  0.6774
  C  C104  1  0.196600  0.303200  0.161600  1.0  0.0041
  C  C105  1  0.179100  0.198500  0.200500  1.0  0.0048
  C  C106  1  0.121700  0.121300  0.185900  1.0  0.7041
  C  C107  1  0.273900  0.245800  0.265900  1.0  0.452
  C  C108  1  0.336400  0.244200  0.327900  1.0  -0.4234
  C  C109  1  0.934000  0.184800  0.019600  1.0  0.6868
  C  C110  1  0.882400  0.185900  0.043700  1.0  -0.0499
  C  C111  1  0.854900  0.083400  0.070200  1.0  0.0183
  C  C112  1  0.859000  0.922000  0.077500  1.0  0.6879
  C  C113  1  0.817600  0.292700  0.082000  1.0  0.4195
  C  C114  1  0.782300  0.410100  0.098900  1.0  -0.4265
  C  C115  1  0.664400  0.890900  0.091200  1.0  0.6774
  C  C116  1  0.696600  0.803200  0.161600  1.0  0.0041
  C  C117  1  0.679100  0.698500  0.200500  1.0  0.0048
  C  C118  1  0.621700  0.621300  0.185900  1.0  0.7041
  C  C119  1  0.773900  0.745800  0.265900  1.0  0.452
  C  C120  1  0.836400  0.744200  0.327900  1.0  -0.4233
  C  C121  1  0.434000  0.315200  0.519600  1.0  0.6879
  C  C122  1  0.382400  0.314100  0.543700  1.0  -0.0494
  C  C123  1  0.354900  0.416600  0.570200  1.0  0.0175
  C  C124  1  0.359000  0.578000  0.577500  1.0  0.689
  C  C125  1  0.317600  0.207300  0.582000  1.0  0.4194
  C  C126  1  0.282300  0.089900  0.598900  1.0  -0.4266
  C  C127  1  0.164400  0.609100  0.591200  1.0  0.6763
  C  C128  1  0.196600  0.696800  0.661600  1.0  0.0051
  C  C129  1  0.179100  0.801500  0.700500  1.0  0.0046
  C  C130  1  0.121700  0.878700  0.685900  1.0  0.7043
  C  C131  1  0.273900  0.754200  0.765900  1.0  0.4526
  C  C132  1  0.336400  0.755800  0.827900  1.0  -0.4229
  C  C133  1  0.934000  0.815200  0.519600  1.0  0.6879
  C  C134  1  0.882400  0.814100  0.543700  1.0  -0.0494
  C  C135  1  0.854900  0.916600  0.570200  1.0  0.0175
  C  C136  1  0.859000  0.078000  0.577500  1.0  0.689
  C  C137  1  0.817600  0.707300  0.582000  1.0  0.4194
  C  C138  1  0.782300  0.589900  0.598900  1.0  -0.4266
  C  C139  1  0.664400  0.109100  0.591200  1.0  0.6763
  C  C140  1  0.696600  0.196800  0.661600  1.0  0.0051
  C  C141  1  0.679100  0.301500  0.700500  1.0  0.0046
  C  C142  1  0.621700  0.378700  0.685900  1.0  0.7043
  C  C143  1  0.773900  0.254200  0.765900  1.0  0.4526
  C  C144  1  0.836400  0.255800  0.827900  1.0  -0.4229
  C  C145  1  0.566000  0.315200  0.980400  1.0  0.6866
  C  C146  1  0.617600  0.314100  0.956300  1.0  -0.0507
  C  C147  1  0.645100  0.416600  0.929800  1.0  0.0186
  C  C148  1  0.641000  0.578000  0.922500  1.0  0.69
  C  C149  1  0.682400  0.207300  0.918000  1.0  0.4176
  C  C150  1  0.717700  0.089900  0.901100  1.0  -0.4277
  C  C151  1  0.835600  0.609100  0.908800  1.0  0.6762
  C  C152  1  0.803400  0.696800  0.838400  1.0  0.0067
  C  C153  1  0.820900  0.801500  0.799500  1.0  0.0061
  C  C154  1  0.878300  0.878700  0.814100  1.0  0.7039
  C  C155  1  0.726100  0.754200  0.734100  1.0  0.4501
  C  C156  1  0.663600  0.755800  0.672100  1.0  -0.4215
  C  C157  1  0.066000  0.815200  0.980400  1.0  0.6867
  C  C158  1  0.117600  0.814100  0.956300  1.0  -0.0507
  C  C159  1  0.145100  0.916600  0.929800  1.0  0.0186
  C  C160  1  0.141000  0.078000  0.922500  1.0  0.69
  C  C161  1  0.182400  0.707300  0.918000  1.0  0.4176
  C  C162  1  0.217700  0.589900  0.901100  1.0  -0.4277
  C  C163  1  0.335600  0.109100  0.908800  1.0  0.6762
  C  C164  1  0.303400  0.196800  0.838400  1.0  0.0067
  C  C165  1  0.320900  0.301500  0.799500  1.0  0.0061
  C  C166  1  0.378300  0.378700  0.814100  1.0  0.7039
  C  C167  1  0.226100  0.254200  0.734100  1.0  0.4501
  C  C168  1  0.163600  0.255800  0.672100  1.0  -0.4215
  N  N169  1  0.642000  0.818600  0.448500  1.0  -0.2736
  N  N170  1  0.684570  0.651100  0.404400  1.0  -0.4539
  N  N171  1  0.743240  0.332300  0.296400  1.0  -0.4522
  N  N172  1  0.771680  0.163900  0.233100  1.0  -0.4803
  N  N173  1  0.142000  0.318600  0.448500  1.0  -0.2736
  N  N174  1  0.184570  0.151100  0.404400  1.0  -0.4536
  N  N175  1  0.243240  0.832300  0.296400  1.0  -0.4522
  N  N176  1  0.271680  0.663900  0.233100  1.0  -0.4803
  N  N177  1  0.358000  0.818600  0.051500  1.0  -0.274
  N  N178  1  0.315430  0.651100  0.095600  1.0  -0.4462
  N  N179  1  0.256760  0.332300  0.203600  1.0  -0.4524
  N  N180  1  0.228320  0.163900  0.266900  1.0  -0.4799
  N  N181  1  0.858000  0.318600  0.051500  1.0  -0.274
  N  N182  1  0.815430  0.151100  0.095600  1.0  -0.4459
  N  N183  1  0.756760  0.832300  0.203600  1.0  -0.4524
  N  N184  1  0.728320  0.663900  0.266900  1.0  -0.4799
  N  N185  1  0.358000  0.181400  0.551500  1.0  -0.2727
  N  N186  1  0.315430  0.348900  0.595600  1.0  -0.4478
  N  N187  1  0.256760  0.667700  0.703600  1.0  -0.4522
  N  N188  1  0.228320  0.836100  0.766900  1.0  -0.4797
  N  N189  1  0.858000  0.681400  0.551500  1.0  -0.2727
  N  N190  1  0.815430  0.848900  0.595600  1.0  -0.4478
  N  N191  1  0.756760  0.167700  0.703600  1.0  -0.4522
  N  N192  1  0.728320  0.336100  0.766900  1.0  -0.4797
  N  N193  1  0.642000  0.181400  0.948500  1.0  -0.2732
  N  N194  1  0.684570  0.348900  0.904400  1.0  -0.4548
  N  N195  1  0.743240  0.667700  0.796400  1.0  -0.4515
  N  N196  1  0.771680  0.836100  0.733100  1.0  -0.481
  N  N197  1  0.142000  0.681400  0.948500  1.0  -0.2732
  N  N198  1  0.184570  0.848900  0.904400  1.0  -0.4548
  N  N199  1  0.243240  0.167700  0.796400  1.0  -0.4515
  N  N200  1  0.271680  0.336100  0.733100  1.0  -0.481
  O  O201  1  0.547200  0.565800  0.496160  1.0  -0.7992
  O  O202  1  0.540970  0.802800  0.482400  1.0  -0.6017
  O  O203  1  0.615550  0.351200  0.457900  1.0  -0.7316
  O  O204  1  0.664680  0.364700  0.382300  1.0  -0.5719
  O  O205  1  0.804540  0.482100  0.426830  1.0  -0.5599
  O  O206  1  0.892390  0.377200  0.446300  1.0  -0.7092
  O  O207  1  0.923630  0.133600  0.378800  1.0  -0.7009
  O  O208  1  0.879610  0.042400  0.261200  1.0  -0.5822
  O  O209  1  0.047200  0.065800  0.496160  1.0  -0.7989
  O  O210  1  0.040970  0.302800  0.482400  1.0  -0.6017
  O  O211  1  0.115550  0.851200  0.457900  1.0  -0.7298
  O  O212  1  0.164680  0.864700  0.382300  1.0  -0.5717
  O  O213  1  0.304540  0.982100  0.426830  1.0  -0.5599
  O  O214  1  0.392390  0.877200  0.446300  1.0  -0.7092
  O  O215  1  0.423630  0.633600  0.378800  1.0  -0.7009
  O  O216  1  0.379610  0.542400  0.261200  1.0  -0.5822
  O  O217  1  0.452800  0.565800  0.003840  1.0  -0.8002
  O  O218  1  0.459030  0.802800  0.017600  1.0  -0.6003
  O  O219  1  0.384450  0.351200  0.042100  1.0  -0.7278
  O  O220  1  0.335320  0.364700  0.117700  1.0  -0.5732
  O  O221  1  0.195460  0.482100  0.073170  1.0  -0.5605
  O  O222  1  0.107610  0.377200  0.053700  1.0  -0.7051
  O  O223  1  0.076370  0.133600  0.121200  1.0  -0.6996
  O  O224  1  0.120390  0.042400  0.238800  1.0  -0.5821
  O  O225  1  0.952800  0.065800  0.003840  1.0  -0.8005
  O  O226  1  0.959030  0.302800  0.017600  1.0  -0.6003
  O  O227  1  0.884450  0.851200  0.042100  1.0  -0.7278
  O  O228  1  0.835320  0.864700  0.117700  1.0  -0.5739
  O  O229  1  0.695460  0.982100  0.073170  1.0  -0.5605
  O  O230  1  0.607610  0.877200  0.053700  1.0  -0.7051
  O  O231  1  0.576370  0.633600  0.121200  1.0  -0.6996
  O  O232  1  0.620390  0.542400  0.238800  1.0  -0.5821
  O  O233  1  0.452800  0.434200  0.503840  1.0  -0.8005
  O  O234  1  0.459030  0.197200  0.517600  1.0  -0.6024
  O  O235  1  0.384450  0.648800  0.542100  1.0  -0.7267
  O  O236  1  0.335320  0.635300  0.617700  1.0  -0.5718
  O  O237  1  0.195460  0.517900  0.573170  1.0  -0.5619
  O  O238  1  0.107610  0.622800  0.553700  1.0  -0.705
  O  O239  1  0.076370  0.866400  0.621200  1.0  -0.6991
  O  O240  1  0.120390  0.957600  0.738800  1.0  -0.5833
  O  O241  1  0.952800  0.934200  0.503840  1.0  -0.8005
  O  O242  1  0.959030  0.697200  0.517600  1.0  -0.6024
  O  O243  1  0.884450  0.148800  0.542100  1.0  -0.7267
  O  O244  1  0.835320  0.135300  0.617700  1.0  -0.5718
  O  O245  1  0.695460  0.017900  0.573170  1.0  -0.5619
  O  O246  1  0.607610  0.122800  0.553700  1.0  -0.705
  O  O247  1  0.576370  0.366400  0.621200  1.0  -0.6991
  O  O248  1  0.620390  0.457600  0.738800  1.0  -0.5833
  O  O249  1  0.547200  0.434200  0.996160  1.0  -0.8
  O  O250  1  0.540970  0.197200  0.982400  1.0  -0.5976
  O  O251  1  0.615550  0.648800  0.957900  1.0  -0.7314
  O  O252  1  0.664680  0.635300  0.882300  1.0  -0.5719
  O  O253  1  0.804540  0.517900  0.926830  1.0  -0.5614
  O  O254  1  0.892390  0.622800  0.946300  1.0  -0.7088
  O  O255  1  0.923630  0.866400  0.878800  1.0  -0.7005
  O  O256  1  0.879610  0.957600  0.761200  1.0  -0.5823
  O  O257  1  0.047200  0.934200  0.996160  1.0  -0.8
  O  O258  1  0.040970  0.697200  0.982400  1.0  -0.5976
  O  O259  1  0.115550  0.148800  0.957900  1.0  -0.7314
  O  O260  1  0.164680  0.135300  0.882300  1.0  -0.5719
  O  O261  1  0.304540  0.017900  0.926830  1.0  -0.5614
  O  O262  1  0.392390  0.122800  0.946300  1.0  -0.7086
  O  O263  1  0.423630  0.366400  0.878800  1.0  -0.7005
  O  O264  1  0.379610  0.457600  0.761200  1.0  -0.5823
