# generated using pymatgen
data_MnAg2H8(C7N3)2
_symmetry_space_group_name_H-M   'P 1'
_cell_length_a   10.58410000
_cell_length_b   10.58410000
_cell_length_c   12.22460000
_cell_angle_alpha   90.00000000
_cell_angle_beta   90.00000000
_cell_angle_gamma   112.85400000
_symmetry_Int_Tables_number   1
_chemical_formula_structural   MnAg2H8(C7N3)2
_chemical_formula_sum   'Mn2 Ag4 H16 C28 N12'
_cell_volume   1261.93415799
_cell_formula_units_Z   2
loop_
 _symmetry_equiv_pos_site_id
 _symmetry_equiv_pos_as_xyz
  1  'x, y, z'
loop_
 _atom_site_type_symbol
 _atom_site_label
 _atom_site_symmetry_multiplicity
 _atom_site_fract_x
 _atom_site_fract_y
 _atom_site_fract_z
 _atom_site_occupancy
 _atom_site_charge
  Mn  Mn1  1  0.500000  0.500000  0.000000  1.0  0.4782
  Mn  Mn2  1  0.000000  0.000000  0.500000  1.0  0.4782
  Ag  Ag3  1  0.754290  0.245710  0.757890  1.0  0.2264
  Ag  Ag4  1  0.745710  0.254290  0.257890  1.0  0.2259
  Ag  Ag5  1  0.254290  0.745710  0.742110  1.0  0.2262
  Ag  Ag6  1  0.245710  0.754290  0.242110  1.0  0.2258
  H  H7  1  0.733200  0.699200  0.844200  1.0  0.0772
  H  H8  1  0.911000  0.915400  0.837300  1.0  0.1263
  H  H9  1  0.766800  0.800800  0.344200  1.0  0.0767
  H  H10  1  0.589000  0.584600  0.337300  1.0  0.127
  H  H11  1  0.800800  0.766800  0.655800  1.0  0.075
  H  H12  1  0.584600  0.589000  0.662700  1.0  0.1267
  H  H13  1  0.699200  0.733200  0.155800  1.0  0.0753
  H  H14  1  0.915400  0.911000  0.162700  1.0  0.127
  H  H15  1  0.266800  0.300800  0.155800  1.0  0.0763
  H  H16  1  0.089000  0.084600  0.162700  1.0  0.1274
  H  H17  1  0.233200  0.199200  0.655800  1.0  0.077
  H  H18  1  0.411000  0.415400  0.662700  1.0  0.1265
  H  H19  1  0.199200  0.233200  0.344200  1.0  0.0757
  H  H20  1  0.415400  0.411000  0.337300  1.0  0.1269
  H  H21  1  0.300800  0.266800  0.844200  1.0  0.0755
  H  H22  1  0.084600  0.089000  0.837300  1.0  0.1268
  C  C23  1  0.762900  0.748700  0.910500  1.0  0.1455
  C  C24  1  0.876900  0.874700  0.906000  1.0  -0.1848
  C  C25  1  0.737100  0.751300  0.410500  1.0  0.1455
  C  C26  1  0.623100  0.625300  0.406000  1.0  -0.1852
  C  C27  1  0.751300  0.737100  0.589500  1.0  0.1447
  C  C28  1  0.625300  0.623100  0.594000  1.0  -0.1848
  C  C29  1  0.748700  0.762900  0.089500  1.0  0.144
  C  C30  1  0.874700  0.876900  0.094000  1.0  -0.1843
  C  C31  1  0.237100  0.251300  0.089500  1.0  0.1456
  C  C32  1  0.123100  0.125300  0.094000  1.0  -0.185
  C  C33  1  0.262900  0.248700  0.589500  1.0  0.1458
  C  C34  1  0.376900  0.374700  0.594000  1.0  -0.1844
  C  C35  1  0.248700  0.262900  0.410500  1.0  0.1438
  C  C36  1  0.374700  0.376900  0.406000  1.0  -0.1846
  C  C37  1  0.251300  0.237100  0.910500  1.0  0.1443
  C  C38  1  0.125300  0.123100  0.906000  1.0  -0.185
  C  C39  1  0.649000  0.351000  0.831100  1.0  -0.0619
  C  C40  1  0.858600  0.141400  0.683100  1.0  -0.0755
  C  C41  1  0.851000  0.149000  0.331100  1.0  -0.0641
  C  C42  1  0.641400  0.358600  0.183100  1.0  -0.0742
  C  C43  1  0.149000  0.851000  0.668900  1.0  -0.0632
  C  C44  1  0.358600  0.641400  0.816900  1.0  -0.0746
  C  C45  1  0.351000  0.649000  0.168900  1.0  -0.0648
  C  C46  1  0.141400  0.858600  0.316900  1.0  -0.0734
  C  C47  1  0.938200  0.938200  0.000000  1.0  0.0819
  C  C48  1  0.561800  0.561800  0.500000  1.0  0.0816
  C  C49  1  0.061800  0.061800  0.000000  1.0  0.0816
  C  C50  1  0.438200  0.438200  0.500000  1.0  0.0819
  N  N51  1  0.592800  0.407200  0.876500  1.0  -0.2673
  N  N52  1  0.914200  0.085800  0.632600  1.0  -0.2606
  N  N53  1  0.907200  0.092800  0.376500  1.0  -0.2667
  N  N54  1  0.585800  0.414200  0.132600  1.0  -0.2609
  N  N55  1  0.092800  0.907200  0.623500  1.0  -0.2694
  N  N56  1  0.414200  0.585800  0.867400  1.0  -0.2602
  N  N57  1  0.407200  0.592800  0.123500  1.0  -0.269
  N  N58  1  0.085800  0.914200  0.367400  1.0  -0.2606
  N  N59  1  0.695600  0.695600  0.000000  1.0  -0.2054
  N  N60  1  0.804400  0.804400  0.500000  1.0  -0.2074
  N  N61  1  0.304400  0.304400  0.000000  1.0  -0.2074
  N  N62  1  0.195600  0.195600  0.500000  1.0  -0.2054
