# generated using pymatgen
data_MnH8(C3O2)2
_symmetry_space_group_name_H-M   'P 1'
_cell_length_a   13.60600000
_cell_length_b   14.36800000
_cell_length_c   23.15950000
_cell_angle_alpha   91.71730000
_cell_angle_beta   90.00000000
_cell_angle_gamma   90.00000000
_symmetry_Int_Tables_number   1
_chemical_formula_structural   MnH8(C3O2)2
_chemical_formula_sum   'Mn16 H128 C96 O64'
_cell_volume   4525.44051684
_cell_formula_units_Z   16
loop_
 _symmetry_equiv_pos_site_id
 _symmetry_equiv_pos_as_xyz
  1  'x, y, z'
loop_
 _atom_site_type_symbol
 _atom_site_label
 _atom_site_symmetry_multiplicity
 _atom_site_fract_x
 _atom_site_fract_y
 _atom_site_fract_z
 _atom_site_occupancy
 _atom_site_charge
  Mn  Mn1  1  0.501570  0.030480  0.245530  1.0  1.0698
  Mn  Mn2  1  0.485940  0.847810  0.633450  1.0  1.0963
  Mn  Mn3  1  0.998430  0.530480  0.745530  1.0  1.0699
  Mn  Mn4  1  0.781330  0.470620  0.338010  1.0  1.0992
  Mn  Mn5  1  0.252830  0.735170  0.610420  1.0  1.1736
  Mn  Mn6  1  0.752830  0.764830  0.889580  1.0  1.1745
  Mn  Mn7  1  0.498430  0.969520  0.754470  1.0  1.0738
  Mn  Mn8  1  0.514060  0.152190  0.366550  1.0  1.0962
  Mn  Mn9  1  0.985940  0.652190  0.866550  1.0  1.0965
  Mn  Mn10  1  0.247170  0.235170  0.110420  1.0  1.1757
  Mn  Mn11  1  0.001570  0.469520  0.254470  1.0  1.0736
  Mn  Mn12  1  0.218670  0.529380  0.661990  1.0  1.0995
  Mn  Mn13  1  0.281330  0.029380  0.161990  1.0  1.099
  Mn  Mn14  1  0.747170  0.264830  0.389580  1.0  1.177
  Mn  Mn15  1  0.014060  0.347810  0.133450  1.0  1.0965
  Mn  Mn16  1  0.718670  0.970620  0.838010  1.0  1.0998
  H  H17  1  0.017400  0.322300  0.591200  1.0  0.0898
  H  H18  1  0.216700  0.734700  0.838900  1.0  0.1071
  H  H19  1  0.728900  0.855700  0.626000  1.0  0.1119
  H  H20  1  0.906300  0.538200  0.985900  1.0  0.1006
  H  H21  1  0.187200  0.320800  0.940700  1.0  0.0958
  H  H22  1  0.271900  0.456600  0.954000  1.0  0.0781
  H  H23  1  0.076400  0.625700  0.478800  1.0  0.0864
  H  H24  1  0.271100  0.144300  0.374000  1.0  0.112
  H  H25  1  0.265000  0.454800  0.470300  1.0  0.0927
  H  H26  1  0.283300  0.234700  0.338900  1.0  0.1064
  H  H27  1  0.821500  0.490200  0.066100  1.0  0.07
  H  H28  1  0.716700  0.765300  0.661100  1.0  0.1064
  H  H29  1  0.710500  0.447200  0.554100  1.0  0.0965
  H  H30  1  0.886500  0.069300  0.144200  1.0  0.0849
  H  H31  1  0.950900  0.580100  0.430100  1.0  0.086
  H  H32  1  0.953100  0.007000  0.845300  1.0  0.1208
  H  H33  1  0.783300  0.265300  0.161100  1.0  0.1068
  H  H34  1  0.607100  0.021900  0.036700  1.0  0.0863
  H  H35  1  0.879800  0.884500  0.676900  1.0  0.073
  H  H36  1  0.765600  0.509800  0.731300  1.0  0.1048
  H  H37  1  0.234400  0.490200  0.268700  1.0  0.104
  H  H38  1  0.777700  0.602500  0.698000  1.0  0.1092
  H  H39  1  0.678500  0.990200  0.566100  1.0  0.0698
  H  H40  1  0.312800  0.820800  0.440700  1.0  0.0947
  H  H41  1  0.611200  0.475200  0.676700  1.0  0.0806
  H  H42  1  0.468600  0.853400  0.428900  1.0  0.0887
  H  H43  1  0.789500  0.947200  0.054100  1.0  0.0963
  H  H44  1  0.812300  0.481200  0.968000  1.0  0.1088
  H  H45  1  0.574700  0.196200  0.626500  1.0  0.0977
  H  H46  1  0.844800  0.502400  0.596000  1.0  0.0873
  H  H47  1  0.531400  0.146600  0.571100  1.0  0.0886
  H  H48  1  0.155200  0.497600  0.404000  1.0  0.0891
  H  H49  1  0.032500  0.756400  0.579400  1.0  0.1129
  H  H50  1  0.379800  0.615500  0.823100  1.0  0.0713
  H  H51  1  0.532500  0.743600  0.920600  1.0  0.112
  H  H52  1  0.366600  0.780000  0.892100  1.0  0.0859
  H  H53  1  0.735000  0.545200  0.529700  1.0  0.0925
  H  H54  1  0.031400  0.353400  0.928900  1.0  0.0887
  H  H55  1  0.892900  0.521900  0.536700  1.0  0.0844
  H  H56  1  0.967500  0.243600  0.420600  1.0  0.1121
  H  H57  1  0.631200  0.285400  0.203000  1.0  0.075
  H  H58  1  0.046900  0.993000  0.154700  1.0  0.1208
  H  H59  1  0.385300  0.680800  0.915900  1.0  0.0858
  H  H60  1  0.133400  0.280000  0.392100  1.0  0.0857
  H  H61  1  0.784500  0.627100  0.114700  1.0  0.0821
  H  H62  1  0.366000  0.151900  0.923800  1.0  0.078
  H  H63  1  0.228900  0.644300  0.874000  1.0  0.1122
  H  H64  1  0.608600  0.561600  0.765400  1.0  0.0773
  H  H65  1  0.955800  0.969100  0.781400  1.0  0.1182
  H  H66  1  0.687200  0.179200  0.559300  1.0  0.0979
  H  H67  1  0.222300  0.397500  0.302000  1.0  0.1092
  H  H68  1  0.771900  0.043400  0.546000  1.0  0.078
  H  H69  1  0.044200  0.030900  0.218600  1.0  0.1181
  H  H70  1  0.289500  0.552800  0.445900  1.0  0.0964
  H  H71  1  0.284500  0.872900  0.385300  1.0  0.08
  H  H72  1  0.722300  0.102500  0.198000  1.0  0.1092
  H  H73  1  0.734400  0.009800  0.231300  1.0  0.1047
  H  H74  1  0.866000  0.348100  0.576200  1.0  0.0737
  H  H75  1  0.379500  0.347000  0.269200  1.0  0.0821
  H  H76  1  0.549100  0.080100  0.930100  1.0  0.0854
  H  H77  1  0.765000  0.045200  0.029700  1.0  0.0926
  H  H78  1  0.215500  0.372900  0.885300  1.0  0.0813
  H  H79  1  0.613500  0.569300  0.644200  1.0  0.0853
  H  H80  1  0.386500  0.430700  0.355800  1.0  0.085
  H  H81  1  0.467500  0.256400  0.079400  1.0  0.113
  H  H82  1  0.391400  0.438400  0.234600  1.0  0.0755
  H  H83  1  0.049100  0.419900  0.569900  1.0  0.0852
  H  H84  1  0.344800  0.997600  0.904000  1.0  0.0901
  H  H85  1  0.312300  0.018800  0.532000  1.0  0.1093
  H  H86  1  0.114700  0.180800  0.415900  1.0  0.0855
  H  H87  1  0.321500  0.009800  0.433900  1.0  0.07
  H  H88  1  0.482600  0.822300  0.091200  1.0  0.0894
  H  H89  1  0.888800  0.975200  0.176700  1.0  0.0812
  H  H90  1  0.620500  0.653000  0.730800  1.0  0.0831
  H  H91  1  0.108600  0.938400  0.734600  1.0  0.0751
  H  H92  1  0.187700  0.518800  0.032000  1.0  0.1089
  H  H93  1  0.113500  0.930700  0.855800  1.0  0.0856
  H  H94  1  0.634000  0.848100  0.076200  1.0  0.0737
  H  H95  1  0.388800  0.524800  0.323300  1.0  0.0825
  H  H96  1  0.968600  0.646600  0.071100  1.0  0.0892
  H  H97  1  0.461400  0.317500  0.136200  1.0  0.114
  H  H98  1  0.517400  0.177700  0.908800  1.0  0.0922
  H  H99  1  0.423600  0.125700  0.978800  1.0  0.0872
  H  H100  1  0.120500  0.847000  0.769200  1.0  0.0839
  H  H101  1  0.368800  0.714600  0.797000  1.0  0.077
  H  H102  1  0.235000  0.954800  0.970300  1.0  0.0914
  H  H103  1  0.891400  0.061600  0.265400  1.0  0.0778
  H  H104  1  0.111200  0.024800  0.823300  1.0  0.0831
  H  H105  1  0.093700  0.461800  0.014100  1.0  0.1007
  H  H106  1  0.210500  0.052800  0.945900  1.0  0.0964
  H  H107  1  0.131200  0.214600  0.297000  1.0  0.0768
  H  H108  1  0.879500  0.153000  0.230800  1.0  0.0829
  H  H109  1  0.982600  0.677700  0.408800  1.0  0.0915
  H  H110  1  0.546900  0.507000  0.345300  1.0  0.1206
  H  H111  1  0.885300  0.819200  0.584100  1.0  0.0851
  H  H112  1  0.453100  0.493000  0.654700  1.0  0.1207
  H  H113  1  0.450900  0.919900  0.069900  1.0  0.0858
  H  H114  1  0.614700  0.319200  0.084100  1.0  0.0846
  H  H115  1  0.134000  0.651900  0.423800  1.0  0.0782
  H  H116  1  0.038600  0.817500  0.636200  1.0  0.1136
  H  H117  1  0.576400  0.874300  0.021200  1.0  0.0869
  H  H118  1  0.455800  0.530900  0.718600  1.0  0.1191
  H  H119  1  0.107100  0.478100  0.463300  1.0  0.0859
  H  H120  1  0.425300  0.803800  0.373500  1.0  0.0947
  H  H121  1  0.620200  0.384500  0.176900  1.0  0.0734
  H  H122  1  0.392900  0.978100  0.963300  1.0  0.0843
  H  H123  1  0.868800  0.785400  0.703000  1.0  0.0755
  H  H124  1  0.265600  0.990200  0.768700  1.0  0.1046
  H  H125  1  0.961400  0.182500  0.363800  1.0  0.1146
  H  H126  1  0.687700  0.981200  0.468000  1.0  0.1083
  H  H127  1  0.178500  0.509800  0.933900  1.0  0.0706
  H  H128  1  0.120200  0.115500  0.323100  1.0  0.0711
  H  H129  1  0.866600  0.720000  0.607900  1.0  0.0851
  H  H130  1  0.277700  0.897500  0.802000  1.0  0.1089
  H  H131  1  0.925300  0.696200  0.126500  1.0  0.0973
  H  H132  1  0.923600  0.374300  0.521200  1.0  0.0871
  H  H133  1  0.728100  0.543400  0.046000  1.0  0.0789
  H  H134  1  0.406300  0.961800  0.514100  1.0  0.0999
  H  H135  1  0.812800  0.679200  0.059300  1.0  0.0972
  H  H136  1  0.538600  0.682500  0.863800  1.0  0.1144
  H  H137  1  0.074700  0.303800  0.873500  1.0  0.0946
  H  H138  1  0.715500  0.127100  0.614700  1.0  0.0812
  H  H139  1  0.771100  0.355700  0.126000  1.0  0.1112
  H  H140  1  0.655200  0.002400  0.096000  1.0  0.089
  H  H141  1  0.633400  0.220000  0.107900  1.0  0.084
  H  H142  1  0.228100  0.956600  0.454000  1.0  0.0793
  H  H143  1  0.593700  0.038200  0.485900  1.0  0.101
  H  H144  1  0.544200  0.469100  0.281400  1.0  0.1182
  C  C145  1  0.601200  0.279200  0.116100  1.0  -0.0982
  C  C146  1  0.750400  0.075600  0.232200  1.0  -0.3385
  C  C147  1  0.977600  0.956900  0.820300  1.0  -0.3309
  C  C148  1  0.742300  0.828400  0.663000  1.0  -0.3146
  C  C149  1  0.245000  0.560600  0.530300  1.0  0.7574
  C  C150  1  0.491900  0.262700  0.118700  1.0  -0.3434
  C  C151  1  0.590500  0.894500  0.060600  1.0  -0.0747
  C  C152  1  0.704900  0.121500  0.285200  1.0  0.7186
  C  C153  1  0.398800  0.720800  0.883900  1.0  -0.1
  C  C154  1  0.041500  0.679500  0.650900  1.0  0.7355
  C  C155  1  0.998900  0.387500  0.591200  1.0  -0.2556
  C  C156  1  0.255000  0.060600  0.030300  1.0  0.7599
  C  C157  1  0.257700  0.171600  0.337000  1.0  -0.3158
  C  C158  1  0.835000  0.539200  0.986000  1.0  -0.3073
  C  C159  1  0.335000  0.960800  0.514000  1.0  -0.3066
  C  C160  1  0.477600  0.543100  0.679700  1.0  -0.3312
  C  C161  1  0.999000  0.575500  0.347100  1.0  0.7482
  C  C162  1  0.136400  0.912800  0.769200  1.0  -0.0815
  C  C163  1  0.256600  0.019100  0.969400  1.0  -0.2324
  C  C164  1  0.328100  0.875000  0.418400  1.0  -0.0915
  C  C165  1  0.068600  0.132000  0.161500  1.0  0.7632
  C  C166  1  0.352500  0.022300  0.943200  1.0  -0.1289
  C  C167  1  0.250400  0.424400  0.267800  1.0  -0.3384
  C  C168  1  0.501100  0.887500  0.091200  1.0  -0.2546
  C  C169  1  0.700700  0.045400  0.546800  1.0  -0.1183
  C  C170  1  0.646900  0.322600  0.170000  1.0  -0.1064
  C  C171  1  0.536600  0.061000  0.639900  1.0  0.7474
  C  C172  1  0.647500  0.977700  0.056800  1.0  -0.1259
  C  C173  1  0.799300  0.545400  0.046800  1.0  -0.1166
  C  C174  1  0.147500  0.522300  0.443200  1.0  -0.1266
  C  C175  1  0.755000  0.439400  0.469700  1.0  0.7614
  C  C176  1  0.499000  0.924500  0.152900  1.0  0.7458
  C  C177  1  0.568600  0.368000  0.338500  1.0  0.7624
  C  C178  1  0.200500  0.379700  0.049300  1.0  0.7667
  C  C179  1  0.685000  0.882200  0.708200  1.0  0.7377
  C  C180  1  0.409800  0.460300  0.321300  1.0  -0.0813
  C  C181  1  0.931400  0.868000  0.838500  1.0  0.762
  C  C182  1  0.090500  0.605500  0.439400  1.0  -0.0753
  C  C183  1  0.101200  0.220800  0.383900  1.0  -0.0983
  C  C184  1  0.757700  0.328400  0.163000  1.0  -0.3143
  C  C185  1  0.185000  0.617800  0.791800  1.0  0.7416
  C  C186  1  0.522400  0.456900  0.320300  1.0  -0.3332
  C  C187  1  0.498900  0.112500  0.908800  1.0  -0.2533
  C  C188  1  0.815000  0.382200  0.208200  1.0  0.7495
  C  C189  1  0.075600  0.361200  0.896600  1.0  -0.2036
  C  C190  1  0.243400  0.519100  0.469400  1.0  -0.2321
  C  C191  1  0.165000  0.460800  0.014000  1.0  -0.3088
  C  C192  1  0.242300  0.671600  0.837000  1.0  -0.316
  C  C193  1  0.924400  0.638800  0.103400  1.0  -0.2034
  C  C194  1  0.363600  0.412800  0.269200  1.0  -0.0738
  C  C195  1  0.008100  0.762700  0.618700  1.0  -0.3439
  C  C196  1  0.909500  0.394500  0.560600  1.0  -0.074
  C  C197  1  0.541500  0.820500  0.849100  1.0  0.7351
  C  C198  1  0.200700  0.454600  0.953200  1.0  -0.1173
  C  C199  1  0.315000  0.117800  0.291800  1.0  0.7393
  C  C200  1  0.409500  0.105500  0.939400  1.0  -0.0748
  C  C201  1  0.863600  0.087200  0.230800  1.0  -0.0726
  C  C202  1  0.295100  0.878500  0.714800  1.0  0.7282
  C  C203  1  0.743400  0.980900  0.030600  1.0  -0.2313
  C  C204  1  0.424400  0.861200  0.396600  1.0  -0.2039
  C  C205  1  0.249600  0.924400  0.767800  1.0  -0.3381
  C  C206  1  0.022400  0.043100  0.179700  1.0  -0.3319
  C  C207  1  0.001100  0.612500  0.408800  1.0  -0.2508
  C  C208  1  0.590200  0.539700  0.678700  1.0  -0.0807
  C  C209  1  0.090200  0.960300  0.821300  1.0  -0.0819
  C  C210  1  0.575600  0.138800  0.603400  1.0  -0.2045
  C  C211  1  0.299300  0.954600  0.453200  1.0  -0.1159
  C  C212  1  0.036600  0.439000  0.860100  1.0  0.7497
  C  C213  1  0.665000  0.039200  0.486000  1.0  -0.307
  C  C214  1  0.991900  0.237300  0.381300  1.0  -0.3433
  C  C215  1  0.299500  0.879700  0.549300  1.0  0.7661
  C  C216  1  0.671900  0.125000  0.581600  1.0  -0.0953
  C  C217  1  0.001000  0.424500  0.652900  1.0  0.7462
  C  C218  1  0.501000  0.075500  0.847100  1.0  0.7475
  C  C219  1  0.431400  0.632000  0.661500  1.0  0.7645
  C  C220  1  0.756600  0.480900  0.530600  1.0  -0.2331
  C  C221  1  0.898800  0.779200  0.616100  1.0  -0.0981
  C  C222  1  0.963400  0.561000  0.139900  1.0  0.7463
  C  C223  1  0.463400  0.939000  0.360100  1.0  0.7481
  C  C224  1  0.146900  0.177400  0.330000  1.0  -0.1068
  C  C225  1  0.958500  0.320500  0.349100  1.0  0.7344
  C  C226  1  0.853100  0.822600  0.670000  1.0  -0.1055
  C  C227  1  0.852500  0.477700  0.556800  1.0  -0.1279
  C  C228  1  0.171900  0.375000  0.918400  1.0  -0.0931
  C  C229  1  0.636400  0.587200  0.730800  1.0  -0.073
  C  C230  1  0.749600  0.575600  0.732200  1.0  -0.3383
  C  C231  1  0.700500  0.120300  0.450700  1.0  0.7681
  C  C232  1  0.508100  0.737300  0.881300  1.0  -0.3427
  C  C233  1  0.799500  0.620300  0.950700  1.0  0.7677
  C  C234  1  0.909800  0.039700  0.178700  1.0  -0.0795
  C  C235  1  0.745000  0.939400  0.969700  1.0  0.7578
  C  C236  1  0.204900  0.378500  0.214800  1.0  0.72
  C  C237  1  0.458500  0.179500  0.150900  1.0  0.7345
  C  C238  1  0.828100  0.625000  0.081600  1.0  -0.0933
  C  C239  1  0.795100  0.621500  0.785200  1.0  0.72
  C  C240  1  0.353100  0.677400  0.830000  1.0  -0.1056
  O  O241  1  0.509700  0.988500  0.612100  1.0  -0.6077
  O  O242  1  0.385500  0.898300  0.704900  1.0  -0.6862
  O  O243  1  0.885500  0.601700  0.795100  1.0  -0.6898
  O  O244  1  0.917800  0.545400  0.326700  1.0  -0.6818
  O  O245  1  0.635300  0.168700  0.426100  1.0  -0.6876
  O  O246  1  0.518600  0.135500  0.179800  1.0  -0.5989
  O  O247  1  0.770300  0.493600  0.429300  1.0  -0.6234
  O  O248  1  0.245600  0.825000  0.684500  1.0  -0.6009
  O  O249  1  0.982700  0.797000  0.845900  1.0  -0.6394
  O  O250  1  0.866800  0.341800  0.353700  1.0  -0.6994
  O  O251  1  0.582200  0.045400  0.826700  1.0  -0.682
  O  O252  1  0.160500  0.131100  0.153700  1.0  -0.7219
  O  O253  1  0.289500  0.357700  0.053900  1.0  -0.5744
  O  O254  1  0.964200  0.573500  0.193100  1.0  -0.5854
  O  O255  1  0.482700  0.703000  0.654100  1.0  -0.638
  O  O256  1  0.481400  0.864500  0.820200  1.0  -0.5988
  O  O257  1  0.535800  0.073500  0.693100  1.0  -0.5862
  O  O258  1  0.925300  0.430200  0.682900  1.0  -0.5946
  O  O259  1  0.273000  0.067800  0.254000  1.0  -0.6808
  O  O260  1  0.574700  0.930200  0.182900  1.0  -0.5938
  O  O261  1  0.710500  0.642300  0.946100  1.0  -0.5762
  O  O262  1  0.729700  0.993600  0.929300  1.0  -0.6224
  O  O263  1  0.017300  0.203000  0.154100  1.0  -0.6377
  O  O264  1  0.614500  0.101700  0.295100  1.0  -0.6893
  O  O265  1  0.727000  0.932200  0.746000  1.0  -0.6809
  O  O266  1  0.417800  0.954600  0.173300  1.0  -0.684
  O  O267  1  0.839500  0.868900  0.846300  1.0  -0.7218
  O  O268  1  0.745600  0.675000  0.815500  1.0  -0.6028
  O  O269  1  0.464200  0.926500  0.306900  1.0  -0.5859
  O  O270  1  0.135300  0.331300  0.073900  1.0  -0.6874
  O  O271  1  0.239600  0.145400  0.036000  1.0  -0.6028
  O  O272  1  0.408700  0.125000  0.294900  1.0  -0.7028
  O  O273  1  0.133200  0.658200  0.646300  1.0  -0.6985
  O  O274  1  0.754400  0.175000  0.315500  1.0  -0.6028
  O  O275  1  0.091300  0.625000  0.794900  1.0  -0.704
  O  O276  1  0.254400  0.325000  0.184500  1.0  -0.6009
  O  O277  1  0.229700  0.506400  0.570700  1.0  -0.624
  O  O278  1  0.789500  0.142300  0.446100  1.0  -0.5738
  O  O279  1  0.990300  0.488500  0.112100  1.0  -0.6101
  O  O280  1  0.981400  0.635500  0.679800  1.0  -0.5986
  O  O281  1  0.366800  0.158200  0.146300  1.0  -0.7002
  O  O282  1  0.082200  0.454600  0.673300  1.0  -0.6845
  O  O283  1  0.760400  0.854600  0.964000  1.0  -0.6033
  O  O284  1  0.074700  0.569800  0.317100  1.0  -0.5921
  O  O285  1  0.425300  0.069800  0.817100  1.0  -0.5913
  O  O286  1  0.270300  0.006400  0.070700  1.0  -0.6245
  O  O287  1  0.739600  0.354600  0.464000  1.0  -0.6034
  O  O288  1  0.114500  0.398300  0.204900  1.0  -0.6881
  O  O289  1  0.591300  0.875000  0.705100  1.0  -0.7035
  O  O290  1  0.864700  0.668700  0.926100  1.0  -0.6855
  O  O291  1  0.490300  0.011500  0.387900  1.0  -0.6109
  O  O292  1  0.660500  0.368900  0.346300  1.0  -0.7224
  O  O293  1  0.018600  0.364500  0.320200  1.0  -0.599
  O  O294  1  0.633200  0.841800  0.853700  1.0  -0.6984
  O  O295  1  0.517300  0.297000  0.345900  1.0  -0.6399
  O  O296  1  0.009700  0.511500  0.887900  1.0  -0.6099
  O  O297  1  0.260400  0.645400  0.536000  1.0  -0.5999
  O  O298  1  0.364700  0.831300  0.573900  1.0  -0.6849
  O  O299  1  0.908700  0.375000  0.205100  1.0  -0.7022
  O  O300  1  0.035800  0.426500  0.806900  1.0  -0.5858
  O  O301  1  0.339500  0.631100  0.653700  1.0  -0.7213
  O  O302  1  0.773000  0.432200  0.246000  1.0  -0.682
  O  O303  1  0.227000  0.567800  0.754000  1.0  -0.6795
  O  O304  1  0.210500  0.857700  0.553900  1.0  -0.5775
