# generated using pymatgen
data_Ce3P4(CO3)8
_symmetry_space_group_name_H-M   'P 1'
_cell_length_a   11.09690000
_cell_length_b   13.40160000
_cell_length_c   15.93150000
_cell_angle_alpha   65.12750000
_cell_angle_beta   69.61850000
_cell_angle_gamma   90.00000000
_symmetry_Int_Tables_number   1
_chemical_formula_structural   Ce3P4(CO3)8
_chemical_formula_sum   'Ce6 P8 C16 O48'
_cell_volume   1984.82775640
_cell_formula_units_Z   2
loop_
 _symmetry_equiv_pos_site_id
 _symmetry_equiv_pos_as_xyz
  1  'x, y, z'
loop_
 _atom_site_type_symbol
 _atom_site_label
 _atom_site_symmetry_multiplicity
 _atom_site_fract_x
 _atom_site_fract_y
 _atom_site_fract_z
 _atom_site_occupancy
 _atom_site_charge
  Ce  Ce1  1  0.027600  0.627400  0.444000  1.0  2.2581
  Ce  Ce2  1  0.471600  0.372600  0.556000  1.0  2.2573
  Ce  Ce3  1  0.971600  0.071400  0.556000  1.0  2.2581
  Ce  Ce4  1  0.527600  0.928600  0.444000  1.0  2.2565
  Ce  Ce5  1  0.998200  0.000000  0.000000  1.0  2.0709
  Ce  Ce6  1  0.498200  0.000000  0.000000  1.0  2.0707
  P  P7  1  0.843300  0.705800  0.177000  1.0  1.3548
  P  P8  1  0.381600  0.604700  0.395800  1.0  1.4935
  P  P9  1  0.020300  0.294200  0.823000  1.0  1.3507
  P  P10  1  0.777400  0.395300  0.604200  1.0  1.4894
  P  P11  1  0.520300  0.882800  0.823000  1.0  1.3507
  P  P12  1  0.277400  0.000500  0.604200  1.0  1.4869
  P  P13  1  0.343300  0.117200  0.177000  1.0  1.356
  P  P14  1  0.881600  0.999500  0.395800  1.0  1.4865
  C  C15  1  0.996100  0.818800  0.218400  1.0  0.6354
  C  C16  1  0.859700  0.752700  0.264000  1.0  0.1002
  C  C17  1  0.438800  0.689700  0.440800  1.0  0.1221
  C  C18  1  0.542700  0.677900  0.482800  1.0  0.5636
  C  C19  1  0.214500  0.181200  0.781600  1.0  0.6369
  C  C20  1  0.123700  0.247300  0.736000  1.0  0.1005
  C  C21  1  0.879600  0.310300  0.559200  1.0  0.1203
  C  C22  1  0.025500  0.322100  0.517200  1.0  0.5621
  C  C23  1  0.714500  0.037200  0.781600  1.0  0.6384
  C  C24  1  0.623700  0.016700  0.736000  1.0  0.1015
  C  C25  1  0.379600  0.130500  0.559200  1.0  0.119
  C  C26  1  0.525500  0.160700  0.517200  1.0  0.5616
  C  C27  1  0.496100  0.962800  0.218400  1.0  0.6356
  C  C28  1  0.359700  0.983300  0.264000  1.0  0.1008
  C  C29  1  0.938800  0.869500  0.440800  1.0  0.1215
  C  C30  1  0.042700  0.839300  0.482800  1.0  0.563
  O  O31  1  0.852600  0.810000  0.082200  1.0  -0.7323
  O  O32  1  0.067200  0.836400  0.129000  1.0  -0.601
  O  O33  1  0.710600  0.630200  0.224800  1.0  -0.5502
  O  O34  1  0.955400  0.641900  0.153000  1.0  -0.5175
  O  O35  1  0.054300  0.795300  0.279200  1.0  -0.61
  O  O36  1  0.840500  0.662400  0.356800  1.0  -0.5625
  O  O37  1  0.264000  0.647000  0.369400  1.0  -0.7952
  O  O38  1  0.337400  0.481500  0.476000  1.0  -0.7475
  O  O39  1  0.357100  0.765400  0.452600  1.0  -0.6058
  O  O40  1  0.585800  0.584700  0.502600  1.0  -0.6199
  O  O41  1  0.630900  0.761800  0.449800  1.0  -0.6306
  O  O42  1  0.495300  0.605000  0.306000  1.0  -0.5809
  O  O43  1  0.934800  0.190000  0.917800  1.0  -0.7319
  O  O44  1  0.196200  0.163600  0.871000  1.0  -0.5967
  O  O45  1  0.935400  0.369800  0.775200  1.0  -0.5499
  O  O46  1  0.108400  0.358100  0.847000  1.0  -0.5186
  O  O47  1  0.333500  0.204700  0.720800  1.0  -0.6091
  O  O48  1  0.197300  0.337600  0.643200  1.0  -0.5621
  O  O49  1  0.633400  0.353000  0.630600  1.0  -0.7929
  O  O50  1  0.813400  0.518500  0.524000  1.0  -0.7465
  O  O51  1  0.809700  0.234600  0.547400  1.0  -0.6102
  O  O52  1  0.088400  0.415300  0.497400  1.0  -0.618
  O  O53  1  0.080700  0.238200  0.550200  1.0  -0.631
  O  O54  1  0.801300  0.395000  0.694000  1.0  -0.583
  O  O55  1  0.434800  0.892200  0.917800  1.0  -0.7285
  O  O56  1  0.696200  0.965400  0.871000  1.0  -0.5993
  O  O57  1  0.435400  0.855000  0.775200  1.0  -0.5523
  O  O58  1  0.608400  0.794900  0.847000  1.0  -0.5191
  O  O59  1  0.833500  0.074500  0.720800  1.0  -0.6081
  O  O60  1  0.697300  0.019200  0.643200  1.0  -0.5638
  O  O61  1  0.133400  0.016400  0.630600  1.0  -0.7921
  O  O62  1  0.313400  0.957500  0.524000  1.0  -0.7478
  O  O63  1  0.309700  0.218000  0.547400  1.0  -0.6075
  O  O64  1  0.588400  0.087300  0.497400  1.0  -0.6203
  O  O65  1  0.580700  0.211600  0.550200  1.0  -0.6296
  O  O66  1  0.301300  0.911000  0.694000  1.0  -0.5923
  O  O67  1  0.352600  0.107800  0.082200  1.0  -0.7181
  O  O68  1  0.567200  0.034600  0.129000  1.0  -0.5964
  O  O69  1  0.210600  0.145000  0.224800  1.0  -0.554
  O  O70  1  0.455400  0.205100  0.153000  1.0  -0.5215
  O  O71  1  0.554300  0.925500  0.279200  1.0  -0.6088
  O  O72  1  0.340500  0.980800  0.356800  1.0  -0.5626
  O  O73  1  0.764000  0.983600  0.369400  1.0  -0.7949
  O  O74  1  0.837400  0.042500  0.476000  1.0  -0.7472
  O  O75  1  0.857100  0.782000  0.452600  1.0  -0.6048
  O  O76  1  0.085800  0.912700  0.502600  1.0  -0.6241
  O  O77  1  0.130900  0.788400  0.449800  1.0  -0.6312
  O  O78  1  0.995300  0.089000  0.306000  1.0  -0.5951
