# generated using pymatgen
data_Ga3P3HO13
_symmetry_space_group_name_H-M   'P 1'
_cell_length_a   8.70000000
_cell_length_b   18.14600000
_cell_length_c   9.08700000
_cell_angle_alpha   90.00000000
_cell_angle_beta   107.28000000
_cell_angle_gamma   90.00000000
_symmetry_Int_Tables_number   1
_chemical_formula_structural   Ga3P3HO13
_chemical_formula_sum   'Ga12 P12 H4 O52'
_cell_volume   1369.81669500
_cell_formula_units_Z   4
loop_
 _symmetry_equiv_pos_site_id
 _symmetry_equiv_pos_as_xyz
  1  'x, y, z'
loop_
 _atom_site_type_symbol
 _atom_site_label
 _atom_site_symmetry_multiplicity
 _atom_site_fract_x
 _atom_site_fract_y
 _atom_site_fract_z
 _atom_site_occupancy
 _atom_site_charge
  Ga  Ga1  1  0.081800  0.295200  0.291100  1.0  1.6703
  Ga  Ga2  1  0.136400  0.107900  0.161000  1.0  1.6844
  Ga  Ga3  1  0.529100  0.320900  0.196600  1.0  1.7417
  Ga  Ga4  1  0.418200  0.795200  0.208900  1.0  1.6711
  Ga  Ga5  1  0.363600  0.607900  0.339000  1.0  1.6835
  Ga  Ga6  1  0.970900  0.820900  0.303400  1.0  1.7414
  Ga  Ga7  1  0.918200  0.704800  0.708900  1.0  1.6698
  Ga  Ga8  1  0.863600  0.892100  0.839000  1.0  1.686
  Ga  Ga9  1  0.470900  0.679100  0.803400  1.0  1.7417
  Ga  Ga10  1  0.581800  0.204800  0.791100  1.0  1.6698
  Ga  Ga11  1  0.636400  0.392100  0.661000  1.0  1.6866
  Ga  Ga12  1  0.029100  0.179100  0.696600  1.0  1.7418
  P  P13  1  0.350200  0.426800  0.359600  1.0  1.9311
  P  P14  1  0.814800  0.293000  0.482000  1.0  1.8457
  P  P15  1  0.267000  0.169400  0.496500  1.0  1.8594
  P  P16  1  0.149800  0.926800  0.140400  1.0  1.933
  P  P17  1  0.685200  0.793000  0.018000  1.0  1.846
  P  P18  1  0.233000  0.669400  0.003500  1.0  1.8596
  P  P19  1  0.649800  0.573200  0.640400  1.0  1.9331
  P  P20  1  0.185200  0.707000  0.518000  1.0  1.8465
  P  P21  1  0.733000  0.830600  0.503500  1.0  1.86
  P  P22  1  0.850200  0.073200  0.859600  1.0  1.931
  P  P23  1  0.314800  0.207000  0.982000  1.0  1.8463
  P  P24  1  0.767000  0.330600  0.996500  1.0  1.8598
  H  H25  1  0.963600  0.213100  0.096300  1.0  0.4118
  H  H26  1  0.536400  0.713100  0.403700  1.0  0.412
  H  H27  1  0.036400  0.786900  0.903700  1.0  0.412
  H  H28  1  0.463600  0.286900  0.596300  1.0  0.4118
  O  O29  1  0.039500  0.205000  0.180000  1.0  -0.8529
  O  O30  1  0.198300  0.381200  0.301900  1.0  -0.8767
  O  O31  1  0.260600  0.250000  0.442500  1.0  -0.824
  O  O32  1  0.964400  0.306000  0.432300  1.0  -0.9124
  O  O33  1  0.422200  0.156100  0.624200  1.0  -0.8449
  O  O34  1  0.471200  0.404500  0.273200  1.0  -0.8929
  O  O35  1  0.847300  0.232000  0.604800  1.0  -0.8824
  O  O36  1  0.119700  0.151700  0.550000  1.0  -0.8981
  O  O37  1  0.672100  0.266500  0.346000  1.0  -0.8589
  O  O38  1  0.262700  0.115100  0.366400  1.0  -0.7968
  O  O39  1  0.428600  0.414400  0.530700  1.0  -0.8157
  O  O40  1  0.301500  0.506400  0.323500  1.0  -0.8243
  O  O41  1  0.771600  0.364800  0.546700  1.0  -0.8606
  O  O42  1  0.460500  0.705000  0.320000  1.0  -0.8563
  O  O43  1  0.301700  0.881200  0.198100  1.0  -0.877
  O  O44  1  0.239400  0.750000  0.057500  1.0  -0.8242
  O  O45  1  0.535600  0.806000  0.067700  1.0  -0.9135
  O  O46  1  0.077800  0.656100  0.875800  1.0  -0.8447
  O  O47  1  0.028800  0.904500  0.226800  1.0  -0.8925
  O  O48  1  0.652700  0.732000  0.895200  1.0  -0.8821
  O  O49  1  0.380300  0.651700  0.950000  1.0  -0.8977
  O  O50  1  0.827900  0.766500  0.154000  1.0  -0.8596
  O  O51  1  0.237300  0.615100  0.133600  1.0  -0.7975
  O  O52  1  0.071400  0.914400  0.969300  1.0  -0.8153
  O  O53  1  0.198500  0.006400  0.176500  1.0  -0.8245
  O  O54  1  0.728400  0.864800  0.953300  1.0  -0.8607
  O  O55  1  0.960500  0.795000  0.820000  1.0  -0.8559
  O  O56  1  0.801700  0.618800  0.698100  1.0  -0.8803
  O  O57  1  0.739400  0.750000  0.557500  1.0  -0.8241
  O  O58  1  0.035600  0.694000  0.567700  1.0  -0.9126
  O  O59  1  0.577800  0.843900  0.375800  1.0  -0.8477
  O  O60  1  0.528800  0.595500  0.726800  1.0  -0.8914
  O  O61  1  0.152700  0.768000  0.395200  1.0  -0.8826
  O  O62  1  0.880300  0.848300  0.450000  1.0  -0.8974
  O  O63  1  0.327900  0.733500  0.654000  1.0  -0.8599
  O  O64  1  0.737300  0.884900  0.633600  1.0  -0.7977
  O  O65  1  0.571400  0.585600  0.469300  1.0  -0.8168
  O  O66  1  0.698500  0.493600  0.676500  1.0  -0.824
  O  O67  1  0.228400  0.635200  0.453300  1.0  -0.8619
  O  O68  1  0.539500  0.295000  0.680000  1.0  -0.8536
  O  O69  1  0.698300  0.118800  0.801900  1.0  -0.8785
  O  O70  1  0.760600  0.250000  0.942500  1.0  -0.824
  O  O71  1  0.464400  0.194000  0.932300  1.0  -0.9122
  O  O72  1  0.922200  0.343900  0.124200  1.0  -0.848
  O  O73  1  0.971200  0.095500  0.773200  1.0  -0.8918
  O  O74  1  0.347300  0.268000  0.104800  1.0  -0.8827
  O  O75  1  0.619700  0.348300  0.050000  1.0  -0.8979
  O  O76  1  0.172100  0.233500  0.846000  1.0  -0.8587
  O  O77  1  0.762700  0.384900  0.866400  1.0  -0.7975
  O  O78  1  0.928600  0.085600  0.030700  1.0  -0.8167
  O  O79  1  0.801500  0.993600  0.823500  1.0  -0.824
  O  O80  1  0.271600  0.135200  0.046700  1.0  -0.8629
