# generated using pymatgen
data_ZnH18C33NO6
_symmetry_space_group_name_H-M   'P 1'
_cell_length_a   16.15800000
_cell_length_b   18.17100000
_cell_length_c   18.95500000
_cell_angle_alpha   99.19000000
_cell_angle_beta   106.28000000
_cell_angle_gamma   116.34000000
_symmetry_Int_Tables_number   1
_chemical_formula_structural   ZnH18C33NO6
_chemical_formula_sum   'Zn4 H72 C132 N4 O24'
_cell_volume   4518.92528115
_cell_formula_units_Z   4
loop_
 _symmetry_equiv_pos_site_id
 _symmetry_equiv_pos_as_xyz
  1  'x, y, z'
loop_
 _atom_site_type_symbol
 _atom_site_label
 _atom_site_symmetry_multiplicity
 _atom_site_fract_x
 _atom_site_fract_y
 _atom_site_fract_z
 _atom_site_occupancy
 _atom_site_charge
  Zn  Zn1  1  0.304310  0.878730  0.212820  1.0  1.038
  Zn  Zn2  1  0.153440  0.862120  0.010360  1.0  1.0622
  Zn  Zn3  1  0.695690  0.121270  0.787180  1.0  1.0371
  Zn  Zn4  1  0.846560  0.137880  0.989640  1.0  1.0626
  H  H5  1  0.639500  0.631200  0.065500  1.0  0.0972
  H  H6  1  0.442900  0.819000  0.141200  1.0  0.1138
  H  H7  1  0.005400  0.687800  0.199400  1.0  0.1153
  H  H8  1  0.374700  0.693000  0.287600  1.0  0.1086
  H  H9  1  0.385000  0.504700  0.043500  1.0  0.1114
  H  H10  1  0.579900  0.793500  0.205700  1.0  0.1238
  H  H11  1  0.251500  0.533400  0.974400  1.0  0.1056
  H  H12  1  0.773200  0.726400  0.027700  1.0  0.1001
  H  H13  1  0.568600  0.420000  0.500500  1.0  0.1096
  H  H14  1  0.640500  0.661200  0.552100  1.0  0.1023
  H  H15  1  0.407000  0.465800  0.180700  1.0  0.1103
  H  H16  1  0.945400  0.698200  0.782000  1.0  0.1083
  H  H17  1  0.936400  0.797500  0.043100  1.0  0.1146
  H  H18  1  0.865600  0.580200  0.228900  1.0  0.1165
  H  H19  1  0.361900  0.555900  0.305300  1.0  0.1162
  H  H20  1  0.485100  0.266500  0.502500  1.0  0.0998
  H  H21  1  0.298300  0.325000  0.155800  1.0  0.1135
  H  H22  1  0.189800  0.624700  0.963000  1.0  0.1224
  H  H23  1  0.560300  0.404200  0.072100  1.0  0.1125
  H  H24  1  0.709200  0.772900  0.680800  1.0  0.1093
  H  H25  1  0.636700  0.700800  0.220200  1.0  0.1251
  H  H26  1  0.434800  0.159600  0.247300  1.0  0.1071
  H  H27  1  0.234900  0.171700  0.096000  1.0  0.1136
  H  H28  1  0.704200  0.517500  0.219900  1.0  0.1243
  H  H29  1  0.407900  0.120300  0.442400  1.0  0.1166
  H  H30  1  0.824800  0.844900  0.807400  1.0  0.1126
  H  H31  1  0.587200  0.460600  0.302400  1.0  0.1285
  H  H32  1  0.435700  0.483000  0.356300  1.0  0.1157
  H  H33  1  0.707100  0.700800  0.438200  1.0  0.1244
  H  H34  1  0.876900  0.585800  0.649600  1.0  0.1224
  H  H35  1  0.515300  0.315000  0.242900  1.0  0.1188
  H  H36  1  0.766300  0.518900  0.523600  1.0  0.1254
  H  H37  1  0.721900  0.836400  0.420300  1.0  0.1228
  H  H38  1  0.388200  0.100500  0.000000  1.0  0.1117
  H  H39  1  0.645400  0.912700  0.378400  1.0  0.1251
  H  H40  1  0.501500  0.243800  0.017300  1.0  0.1262
  H  H41  1  0.360500  0.368800  0.934500  1.0  0.0971
  H  H42  1  0.557100  0.181000  0.858800  1.0  0.1138
  H  H43  1  0.994600  0.312200  0.800600  1.0  0.1145
  H  H44  1  0.625300  0.307000  0.712400  1.0  0.1101
  H  H45  1  0.615000  0.495300  0.956500  1.0  0.1107
  H  H46  1  0.420100  0.206500  0.794300  1.0  0.1242
  H  H47  1  0.748500  0.466600  0.025600  1.0  0.1053
  H  H48  1  0.226800  0.273600  0.972300  1.0  0.0995
  H  H49  1  0.431400  0.580000  0.499500  1.0  0.1115
  H  H50  1  0.359500  0.338800  0.447900  1.0  0.102
  H  H51  1  0.593000  0.534200  0.819300  1.0  0.11
  H  H52  1  0.054600  0.301800  0.218000  1.0  0.1083
  H  H53  1  0.063600  0.202500  0.956900  1.0  0.1151
  H  H54  1  0.134400  0.419800  0.771100  1.0  0.1171
  H  H55  1  0.638100  0.444100  0.694700  1.0  0.1166
  H  H56  1  0.514900  0.733500  0.497500  1.0  0.1002
  H  H57  1  0.701700  0.675000  0.844200  1.0  0.1141
  H  H58  1  0.810200  0.375300  0.037000  1.0  0.1223
  H  H59  1  0.439700  0.595800  0.927900  1.0  0.1133
  H  H60  1  0.290800  0.227100  0.319200  1.0  0.1096
  H  H61  1  0.363300  0.299200  0.779800  1.0  0.1254
  H  H62  1  0.565200  0.840400  0.752700  1.0  0.1068
  H  H63  1  0.765100  0.828300  0.904000  1.0  0.1132
  H  H64  1  0.295800  0.482500  0.780100  1.0  0.1244
  H  H65  1  0.592100  0.879700  0.557600  1.0  0.1163
  H  H66  1  0.175200  0.155100  0.192600  1.0  0.1117
  H  H67  1  0.412800  0.539400  0.697600  1.0  0.1287
  H  H68  1  0.564300  0.517000  0.643700  1.0  0.1159
  H  H69  1  0.292900  0.299200  0.561800  1.0  0.1241
  H  H70  1  0.123100  0.414200  0.350400  1.0  0.1228
  H  H71  1  0.484700  0.685000  0.757100  1.0  0.1184
  H  H72  1  0.233700  0.481100  0.476400  1.0  0.1259
  H  H73  1  0.278100  0.163600  0.579700  1.0  0.1214
  H  H74  1  0.611800  0.899500  0.000000  1.0  0.1125
  H  H75  1  0.354600  0.087300  0.621600  1.0  0.1248
  H  H76  1  0.498500  0.756200  0.982700  1.0  0.1254
  C  C77  1  0.964700  0.820800  0.892300  1.0  0.7243
  C  C78  1  0.269600  0.790800  0.051200  1.0  0.7001
  C  C79  1  0.363000  0.028900  0.298800  1.0  0.7213
  C  C80  1  0.229000  0.031300  0.034600  1.0  0.6678
  C  C81  1  0.685800  0.622900  0.099900  1.0  -0.1559
  C  C82  1  0.404000  0.761300  0.108700  1.0  -0.0743
  C  C83  1  0.958200  0.695300  0.165200  1.0  -0.0403
  C  C84  1  0.444000  0.721400  0.314600  1.0  -0.0393
  C  C85  1  0.383100  0.618000  0.066400  1.0  0.0374
  C  C86  1  0.855500  0.649200  0.156700  1.0  0.0145
  C  C87  1  0.786600  0.663700  0.105400  1.0  0.0406
  C  C88  1  0.655700  0.572300  0.143400  1.0  0.1522
  C  C89  1  0.423000  0.562400  0.075900  1.0  -0.1449
  C  C90  1  0.511300  0.306300  0.412100  1.0  -0.0042
  C  C91  1  0.442000  0.705500  0.116400  1.0  0.0305
  C  C92  1  0.539800  0.735600  0.173700  1.0  -0.1421
  C  C93  1  0.289500  0.590200  0.008800  1.0  -0.0621
  C  C94  1  0.515600  0.592200  0.131600  1.0  0.1718
  C  C95  1  0.819400  0.718700  0.062900  1.0  -0.1512
  C  C96  1  0.557400  0.398400  0.448700  1.0  -0.1454
  C  C97  1  0.494600  0.449400  0.126600  1.0  0.149
  C  C98  1  0.987600  0.749600  0.124400  1.0  -0.1406
  C  C99  1  0.689300  0.647400  0.571900  1.0  -0.15
  C  C100  1  0.095900  0.802900  0.137500  1.0  0.7281
  C  C101  1  0.414400  0.423600  0.153100  1.0  -0.1132
  C  C102  1  0.494100  0.274100  0.334700  1.0  0.0524
  C  C103  1  0.455300  0.856100  0.293300  1.0  0.6756
  C  C104  1  0.897500  0.712500  0.761200  1.0  -0.0371
  C  C105  1  0.757900  0.691500  0.651100  1.0  0.052
  C  C106  1  0.584400  0.453700  0.408800  1.0  0.1612
  C  C107  1  0.916300  0.760900  0.071700  1.0  -0.057
  C  C108  1  0.821200  0.592500  0.197300  1.0  -0.0773
  C  C109  1  0.431300  0.585600  0.332900  1.0  -0.0681
  C  C110  1  0.359400  0.275200  0.098900  1.0  0.0445
  C  C111  1  0.476000  0.245900  0.451100  1.0  -0.0933
  C  C112  1  0.350400  0.340100  0.138700  1.0  -0.1428
  C  C113  1  0.894500  0.775400  0.806800  1.0  -0.1656
  C  C114  1  0.252400  0.644700  0.001700  1.0  -0.0766
  C  C115  1  0.507700  0.387500  0.088700  1.0  -0.1153
  C  C116  1  0.442100  0.298200  0.074400  1.0  0.0226
  C  C117  1  0.693000  0.586200  0.525000  1.0  0.1622
  C  C118  1  0.756700  0.757600  0.700200  1.0  -0.0616
  C  C119  1  0.829000  0.667600  0.681800  1.0  0.0455
  C  C120  1  0.309700  0.731700  0.053500  1.0  -0.1376
  C  C121  1  0.574000  0.680700  0.181600  1.0  -0.1747
  C  C122  1  0.444700  0.181400  0.298700  1.0  -0.0288
  C  C123  1  0.290100  0.187300  0.082700  1.0  -0.1153
  C  C124  1  0.499900  0.807100  0.326300  1.0  -0.1275
  C  C125  1  0.725000  0.554800  0.192000  1.0  -0.2225
  C  C126  1  0.428900  0.158200  0.414900  1.0  -0.0432
  C  C127  1  0.411900  0.124800  0.337100  1.0  -0.1468
  C  C128  1  0.304000  0.124600  0.047400  1.0  -0.1009
  C  C129  1  0.824900  0.799900  0.776200  1.0  -0.0615
  C  C130  1  0.568300  0.422200  0.329800  1.0  -0.2167
  C  C131  1  0.475100  0.541800  0.363400  1.0  -0.1311
  C  C132  1  0.637500  0.672300  0.413000  1.0  -0.1724
  C  C133  1  0.829900  0.601800  0.630700  1.0  -0.086
  C  C134  1  0.594300  0.719500  0.383500  1.0  0.0564
  C  C135  1  0.525100  0.335300  0.294500  1.0  -0.0611
  C  C136  1  0.581800  0.587000  0.406400  1.0  0.1582
  C  C137  1  0.764600  0.562200  0.555500  1.0  -0.185
  C  C138  1  0.487700  0.673000  0.342000  1.0  0.0218
  C  C139  1  0.652200  0.807700  0.394900  1.0  -0.1384
  C  C140  1  0.381200  0.145000  0.024100  1.0  -0.014
  C  C141  1  0.606900  0.853200  0.368600  1.0  -0.0897
  C  C142  1  0.450600  0.231100  0.035400  1.0  -0.0864
  C  C143  1  0.035300  0.179200  0.107700  1.0  0.7245
  C  C144  1  0.730400  0.209200  0.948800  1.0  0.6997
  C  C145  1  0.637000  0.971100  0.701200  1.0  0.7226
  C  C146  1  0.771000  0.968700  0.965400  1.0  0.6695
  C  C147  1  0.314200  0.377100  0.900100  1.0  -0.1574
  C  C148  1  0.596000  0.238700  0.891300  1.0  -0.0733
  C  C149  1  0.041800  0.304700  0.834800  1.0  -0.044
  C  C150  1  0.556000  0.278600  0.685400  1.0  -0.0403
  C  C151  1  0.616900  0.382000  0.933600  1.0  0.0351
  C  C152  1  0.144500  0.350800  0.843300  1.0  0.0158
  C  C153  1  0.213400  0.336300  0.894600  1.0  0.039
  C  C154  1  0.344300  0.427700  0.856600  1.0  0.1513
  C  C155  1  0.577000  0.437600  0.924100  1.0  -0.1453
  C  C156  1  0.488700  0.693700  0.587900  1.0  -0.0054
  C  C157  1  0.558000  0.294500  0.883600  1.0  0.0301
  C  C158  1  0.460200  0.264400  0.826300  1.0  -0.1424
  C  C159  1  0.710500  0.409800  0.991200  1.0  -0.0613
  C  C160  1  0.484400  0.407800  0.868400  1.0  0.1718
  C  C161  1  0.180600  0.281300  0.937100  1.0  -0.151
  C  C162  1  0.442600  0.601600  0.551300  1.0  -0.1459
  C  C163  1  0.505400  0.550600  0.873400  1.0  0.1486
  C  C164  1  0.012400  0.250400  0.875600  1.0  -0.1405
  C  C165  1  0.310700  0.352600  0.428100  1.0  -0.1491
  C  C166  1  0.904100  0.197100  0.862500  1.0  0.7283
  C  C167  1  0.585600  0.576400  0.846900  1.0  -0.1127
  C  C168  1  0.505900  0.725900  0.665300  1.0  0.0525
  C  C169  1  0.544700  0.143900  0.706700  1.0  0.6763
  C  C170  1  0.102500  0.287500  0.238800  1.0  -0.0383
  C  C171  1  0.242100  0.308500  0.348900  1.0  0.0504
  C  C172  1  0.415600  0.546300  0.591200  1.0  0.1617
  C  C173  1  0.083700  0.239100  0.928300  1.0  -0.0561
  C  C174  1  0.178800  0.407500  0.802700  1.0  -0.078
  C  C175  1  0.568700  0.414400  0.667100  1.0  -0.0678
  C  C176  1  0.640600  0.724800  0.901100  1.0  0.0445
  C  C177  1  0.524000  0.754100  0.548900  1.0  -0.0915
  C  C178  1  0.649600  0.659900  0.861300  1.0  -0.1423
  C  C179  1  0.105500  0.224600  0.193200  1.0  -0.1663
  C  C180  1  0.747600  0.355300  0.998300  1.0  -0.076
  C  C181  1  0.492300  0.612500  0.911300  1.0  -0.1147
  C  C182  1  0.557900  0.701800  0.925600  1.0  0.0223
  C  C183  1  0.307000  0.413800  0.475000  1.0  0.1633
  C  C184  1  0.243300  0.242400  0.299800  1.0  -0.0633
  C  C185  1  0.171000  0.332400  0.318200  1.0  0.0467
  C  C186  1  0.690300  0.268300  0.946500  1.0  -0.1379
  C  C187  1  0.426000  0.319300  0.818400  1.0  -0.1766
  C  C188  1  0.555300  0.818600  0.701300  1.0  -0.0312
  C  C189  1  0.709900  0.812700  0.917300  1.0  -0.1145
  C  C190  1  0.500100  0.192900  0.673700  1.0  -0.1287
  C  C191  1  0.275000  0.445200  0.808000  1.0  -0.222
  C  C192  1  0.571100  0.841800  0.585100  1.0  -0.0422
  C  C193  1  0.588100  0.875200  0.662900  1.0  -0.1452
  C  C194  1  0.696000  0.875400  0.952600  1.0  -0.1024
  C  C195  1  0.175100  0.200100  0.223800  1.0  -0.0621
  C  C196  1  0.431700  0.577800  0.670200  1.0  -0.2173
  C  C197  1  0.524900  0.458200  0.636600  1.0  -0.1298
  C  C198  1  0.362500  0.327700  0.587000  1.0  -0.1714
  C  C199  1  0.170100  0.398200  0.369300  1.0  -0.0814
  C  C200  1  0.405700  0.280500  0.616500  1.0  0.0553
  C  C201  1  0.474900  0.664700  0.705500  1.0  -0.0626
  C  C202  1  0.418200  0.413000  0.593600  1.0  0.1578
  C  C203  1  0.235400  0.437800  0.444500  1.0  -0.1884
  C  C204  1  0.512300  0.327000  0.658000  1.0  0.0218
  C  C205  1  0.347800  0.192300  0.605100  1.0  -0.1401
  C  C206  1  0.618800  0.855000  0.975900  1.0  -0.0149
  C  C207  1  0.393100  0.146800  0.631400  1.0  -0.0875
  C  C208  1  0.549400  0.768900  0.964600  1.0  -0.0894
  N  N209  1  0.558400  0.539000  0.142700  1.0  -0.1729
  N  N210  1  0.627600  0.545500  0.444200  1.0  -0.1974
  N  N211  1  0.441600  0.461000  0.857300  1.0  -0.1741
  N  N212  1  0.372400  0.454500  0.555800  1.0  -0.1986
  O  O213  1  0.315200  0.861590  0.108030  1.0  -0.639
  O  O214  1  0.118000  0.854300  0.100800  1.0  -0.6142
  O  O215  1  0.192200  0.771440  0.993980  1.0  -0.5825
  O  O216  1  0.948700  0.866000  0.936380  1.0  -0.5345
  O  O217  1  0.159700  0.797790  0.188200  1.0  -0.5798
  O  O218  1  0.359100  0.004700  0.232800  1.0  -0.5537
  O  O219  1  0.037000  0.805400  0.911720  1.0  -0.6125
  O  O220  1  0.357800  0.816800  0.266390  1.0  -0.5991
  O  O221  1  0.149300  0.011200  0.045200  1.0  -0.5243
  O  O222  1  0.506200  0.926800  0.288100  1.0  -0.4246
  O  O223  1  0.255000  0.976700  0.019900  1.0  -0.5924
  O  O224  1  0.327700  0.979700  0.333600  1.0  -0.5877
  O  O225  1  0.684800  0.138410  0.891970  1.0  -0.6373
  O  O226  1  0.882000  0.145700  0.899200  1.0  -0.6139
  O  O227  1  0.807800  0.228560  0.006020  1.0  -0.5844
  O  O228  1  0.051300  0.134000  0.063620  1.0  -0.5348
  O  O229  1  0.840300  0.202210  0.811800  1.0  -0.5809
  O  O230  1  0.640900  0.995300  0.767200  1.0  -0.5552
  O  O231  1  0.963000  0.194600  0.088280  1.0  -0.6138
  O  O232  1  0.642200  0.183200  0.733610  1.0  -0.6005
  O  O233  1  0.850700  0.988800  0.954800  1.0  -0.5257
  O  O234  1  0.493800  0.073200  0.711900  1.0  -0.4228
  O  O235  1  0.745000  0.023300  0.980100  1.0  -0.5916
  O  O236  1  0.672300  0.020300  0.666400  1.0  -0.5884
