# generated using pymatgen
data_Zn3P4H3O16
_symmetry_space_group_name_H-M   'P 1'
_cell_length_a   8.45520000
_cell_length_b   10.06140000
_cell_length_c   12.82180000
_cell_angle_alpha   109.01200000
_cell_angle_beta   90.92200000
_cell_angle_gamma   91.29800000
_symmetry_Int_Tables_number   1
_chemical_formula_structural   Zn3P4H3O16
_chemical_formula_sum   'Zn6 P8 H6 O32'
_cell_volume   1030.68189626
_cell_formula_units_Z   2
loop_
 _symmetry_equiv_pos_site_id
 _symmetry_equiv_pos_as_xyz
  1  'x, y, z'
loop_
 _atom_site_type_symbol
 _atom_site_label
 _atom_site_symmetry_multiplicity
 _atom_site_fract_x
 _atom_site_fract_y
 _atom_site_fract_z
 _atom_site_occupancy
 _atom_site_charge
  Zn  Zn1  1  0.052990  0.182170  0.156040  1.0  1.1528
  Zn  Zn2  1  0.259820  0.998320  0.545170  1.0  1.1573
  Zn  Zn3  1  0.185870  0.383270  0.485380  1.0  1.0704
  Zn  Zn4  1  0.947010  0.817830  0.843960  1.0  1.1552
  Zn  Zn5  1  0.740180  0.001680  0.454830  1.0  1.1597
  Zn  Zn6  1  0.814130  0.616730  0.514620  1.0  1.0702
  P  P7  1  0.019050  0.489740  0.309930  1.0  1.7484
  P  P8  1  0.060430  0.086860  0.375360  1.0  1.8063
  P  P9  1  0.508300  0.747840  0.448900  1.0  1.7154
  P  P10  1  0.227870  0.051940  0.929130  1.0  1.7414
  P  P11  1  0.980950  0.510260  0.690070  1.0  1.7482
  P  P12  1  0.939570  0.913140  0.624640  1.0  1.8065
  P  P13  1  0.491700  0.252160  0.551100  1.0  1.7157
  P  P14  1  0.772130  0.948060  0.070870  1.0  1.7397
  H  H15  1  0.329400  0.596500  0.363900  1.0  0.3959
  H  H16  1  0.009100  0.719200  0.361400  1.0  0.3594
  H  H17  1  0.121900  0.082500  0.793200  1.0  0.3704
  H  H18  1  0.670600  0.403500  0.636100  1.0  0.394
  H  H19  1  0.990900  0.280800  0.638600  1.0  0.3621
  H  H20  1  0.878100  0.917500  0.206800  1.0  0.3726
  O  O21  1  0.170800  0.479600  0.375200  1.0  -0.8645
  O  O22  1  0.871500  0.477200  0.373560  1.0  -0.7506
  O  O23  1  0.026300  0.640100  0.293900  1.0  -0.5129
  O  O24  1  0.013700  0.383100  0.194100  1.0  -0.7279
  O  O25  1  0.173900  0.982300  0.400460  1.0  -0.7901
  O  O26  1  0.049300  0.220800  0.476670  1.0  -0.8167
  O  O27  1  0.892900  0.015500  0.345310  1.0  -0.8712
  O  O28  1  0.125700  0.122300  0.276490  1.0  -0.8111
  O  O29  1  0.400900  0.652800  0.348300  1.0  -0.5791
  O  O30  1  0.404200  0.844900  0.535400  1.0  -0.7726
  O  O31  1  0.614500  0.827000  0.392100  1.0  -0.7499
  O  O32  1  0.593400  0.654700  0.502100  1.0  -0.7624
  O  O33  1  0.219000  0.136500  0.050980  1.0  -0.7253
  O  O34  1  0.156400  0.900400  0.901200  1.0  -0.7365
  O  O35  1  0.122800  0.131000  0.866200  1.0  -0.4859
  O  O36  1  0.397500  0.041200  0.891800  1.0  -0.566
  O  O37  1  0.829200  0.520400  0.624800  1.0  -0.8655
  O  O38  1  0.128500  0.522800  0.626440  1.0  -0.7472
  O  O39  1  0.973700  0.359900  0.706100  1.0  -0.5155
  O  O40  1  0.986300  0.616900  0.805900  1.0  -0.7253
  O  O41  1  0.826100  0.017700  0.599540  1.0  -0.7889
  O  O42  1  0.950700  0.779200  0.523330  1.0  -0.8172
  O  O43  1  0.107100  0.984500  0.654690  1.0  -0.8724
  O  O44  1  0.874300  0.877700  0.723510  1.0  -0.8113
  O  O45  1  0.599100  0.347200  0.651700  1.0  -0.582
  O  O46  1  0.595800  0.155100  0.464600  1.0  -0.7732
  O  O47  1  0.385500  0.173000  0.607900  1.0  -0.7502
  O  O48  1  0.406600  0.345300  0.497900  1.0  -0.7616
  O  O49  1  0.781000  0.863500  0.949020  1.0  -0.7249
  O  O50  1  0.843600  0.099600  0.098800  1.0  -0.7385
  O  O51  1  0.877200  0.869000  0.133800  1.0  -0.4886
  O  O52  1  0.602500  0.958800  0.108200  1.0  -0.5564
