# generated using pymatgen
data_Hf3H32C53O12
_symmetry_space_group_name_H-M   'P 1'
_cell_length_a   21.04000000
_cell_length_b   21.04000000
_cell_length_c   24.99900000
_cell_angle_alpha   65.11370000
_cell_angle_beta   65.11370000
_cell_angle_gamma   89.99990000
_symmetry_Int_Tables_number   1
_chemical_formula_structural   Hf3H32C53O12
_chemical_formula_sum   'Hf6 H64 C106 O24'
_cell_volume   8893.46556230
_cell_formula_units_Z   2
loop_
 _symmetry_equiv_pos_site_id
 _symmetry_equiv_pos_as_xyz
  1  'x, y, z'
loop_
 _atom_site_type_symbol
 _atom_site_label
 _atom_site_symmetry_multiplicity
 _atom_site_fract_x
 _atom_site_fract_y
 _atom_site_fract_z
 _atom_site_occupancy
 _atom_site_charge
  Hf  Hf1  1  0.561220  0.561220  0.877560  1.0  2.5387
  Hf  Hf2  1  0.438780  0.438780  0.122440  1.0  2.5365
  Hf  Hf3  1  0.617000  0.499540  0.000000  1.0  2.359
  Hf  Hf4  1  0.383000  0.500460  0.000000  1.0  2.3722
  Hf  Hf5  1  0.499540  0.383000  0.000000  1.0  2.3694
  Hf  Hf6  1  0.500460  0.617000  0.000000  1.0  2.3704
  H  H7  1  0.140600  0.665100  0.511000  1.0  0.0998
  H  H8  1  0.018300  0.629000  0.586600  1.0  0.1078
  H  H9  1  0.049700  0.739300  0.676000  1.0  0.1104
  H  H10  1  0.172000  0.775400  0.600400  1.0  0.1054
  H  H11  1  0.904200  0.687100  0.628600  1.0  0.1063
  H  H12  1  0.782100  0.646300  0.710200  1.0  0.107
  H  H13  1  0.844500  0.571700  0.853200  1.0  0.1114
  H  H14  1  0.965000  0.613400  0.770000  1.0  0.1031
  H  H15  1  0.348400  0.823900  0.511000  1.0  0.1001
  H  H16  1  0.395100  0.784400  0.586600  1.0  0.1088
  H  H17  1  0.274300  0.584700  0.676000  1.0  0.1105
  H  H18  1  0.227600  0.624200  0.600400  1.0  0.1042
  H  H19  1  0.467200  0.684300  0.628600  1.0  0.1084
  H  H20  1  0.507700  0.643500  0.710200  1.0  0.1058
  H  H21  1  0.302300  0.575100  0.853200  1.0  0.1127
  H  H22  1  0.265000  0.616600  0.770000  1.0  0.1034
  H  H23  1  0.665100  0.348400  0.511000  1.0  0.1009
  H  H24  1  0.629000  0.395100  0.586600  1.0  0.1099
  H  H25  1  0.739300  0.274300  0.676000  1.0  0.1098
  H  H26  1  0.775400  0.227600  0.600400  1.0  0.1063
  H  H27  1  0.687100  0.467200  0.628600  1.0  0.1073
  H  H28  1  0.646300  0.507700  0.710200  1.0  0.1072
  H  H29  1  0.571700  0.302300  0.853200  1.0  0.1127
  H  H30  1  0.613400  0.265000  0.770000  1.0  0.1014
  H  H31  1  0.823900  0.140600  0.511000  1.0  0.1032
  H  H32  1  0.784400  0.018300  0.586600  1.0  0.109
  H  H33  1  0.584700  0.049700  0.676000  1.0  0.1102
  H  H34  1  0.624200  0.172000  0.600400  1.0  0.1045
  H  H35  1  0.684300  0.904200  0.628600  1.0  0.1073
  H  H36  1  0.643500  0.782100  0.710200  1.0  0.107
  H  H37  1  0.575100  0.844500  0.853200  1.0  0.1119
  H  H38  1  0.616600  0.965000  0.770000  1.0  0.1022
  H  H39  1  0.859400  0.334900  0.489000  1.0  0.1006
  H  H40  1  0.981700  0.371000  0.413400  1.0  0.1087
  H  H41  1  0.950300  0.260700  0.324000  1.0  0.1103
  H  H42  1  0.828000  0.224600  0.399600  1.0  0.1051
  H  H43  1  0.095800  0.312900  0.371400  1.0  0.1066
  H  H44  1  0.217900  0.353700  0.289800  1.0  0.1072
  H  H45  1  0.155500  0.428300  0.146800  1.0  0.1111
  H  H46  1  0.035000  0.386600  0.230000  1.0  0.1025
  H  H47  1  0.651600  0.176100  0.489000  1.0  0.1011
  H  H48  1  0.604900  0.215600  0.413400  1.0  0.1096
  H  H49  1  0.725700  0.415300  0.324000  1.0  0.1098
  H  H50  1  0.772400  0.375800  0.399600  1.0  0.1046
  H  H51  1  0.532800  0.315700  0.371400  1.0  0.1087
  H  H52  1  0.492300  0.356500  0.289800  1.0  0.1068
  H  H53  1  0.697700  0.424900  0.146800  1.0  0.1132
  H  H54  1  0.735000  0.383400  0.230000  1.0  0.1035
  H  H55  1  0.334900  0.651600  0.489000  1.0  0.1021
  H  H56  1  0.371000  0.604900  0.413400  1.0  0.1108
  H  H57  1  0.260700  0.725700  0.324000  1.0  0.11
  H  H58  1  0.224600  0.772400  0.399600  1.0  0.1077
  H  H59  1  0.312900  0.532800  0.371400  1.0  0.1071
  H  H60  1  0.353700  0.492300  0.289800  1.0  0.1069
  H  H61  1  0.428300  0.697700  0.146800  1.0  0.1121
  H  H62  1  0.386600  0.735000  0.230000  1.0  0.1011
  H  H63  1  0.176100  0.859400  0.489000  1.0  0.1022
  H  H64  1  0.215600  0.981700  0.413400  1.0  0.1086
  H  H65  1  0.415300  0.950300  0.324000  1.0  0.1101
  H  H66  1  0.375800  0.828000  0.399600  1.0  0.1052
  H  H67  1  0.315700  0.095800  0.371400  1.0  0.1073
  H  H68  1  0.356500  0.217900  0.289800  1.0  0.1065
  H  H69  1  0.424900  0.155500  0.146800  1.0  0.1119
  H  H70  1  0.383400  0.035000  0.230000  1.0  0.1018
  C  C71  1  0.167880  0.723700  0.548520  1.0  0.0284
  C  C72  1  0.022400  0.680800  0.638400  1.0  0.0514
  C  C73  1  0.122180  0.680280  0.544440  1.0  -0.1117
  C  C74  1  0.049520  0.658720  0.589360  1.0  -0.151
  C  C75  1  0.068150  0.724250  0.642500  1.0  -0.1914
  C  C76  1  0.140820  0.745720  0.597560  1.0  -0.1501
  C  C77  1  0.944000  0.653930  0.692000  1.0  0.0247
  C  C78  1  0.892200  0.663600  0.674400  1.0  -0.1323
  C  C79  1  0.819000  0.639200  0.723200  1.0  -0.0701
  C  C80  1  0.802600  0.605500  0.788600  1.0  -0.1216
  C  C81  1  0.855900  0.595200  0.807400  1.0  -0.0855
  C  C82  1  0.927500  0.620100  0.757800  1.0  -0.13
  C  C83  1  0.724600  0.577300  0.842400  1.0  0.7363
  C  C84  1  0.283600  0.727780  0.548520  1.0  0.029
  C  C85  1  0.339200  0.680800  0.638400  1.0  0.0528
  C  C86  1  0.333380  0.775280  0.544440  1.0  -0.1179
  C  C87  1  0.361120  0.751920  0.589360  1.0  -0.1476
  C  C88  1  0.289350  0.633250  0.642500  1.0  -0.1855
  C  C89  1  0.261620  0.656720  0.597560  1.0  -0.1573
  C  C90  1  0.364000  0.654070  0.692000  1.0  0.0236
  C  C91  1  0.433400  0.662000  0.674400  1.0  -0.1325
  C  C92  1  0.457800  0.637600  0.723200  1.0  -0.0701
  C  C93  1  0.408800  0.605900  0.788600  1.0  -0.1247
  C  C94  1  0.336700  0.597400  0.807400  1.0  -0.0854
  C  C95  1  0.314700  0.622100  0.757800  1.0  -0.1273
  C  C96  1  0.433000  0.580300  0.842400  1.0  0.7389
  C  C97  1  0.723700  0.283600  0.548520  1.0  0.0297
  C  C98  1  0.680800  0.339200  0.638400  1.0  0.0543
  C  C99  1  0.680280  0.333380  0.544440  1.0  -0.1152
  C  C100  1  0.658720  0.361120  0.589360  1.0  -0.1476
  C  C101  1  0.724250  0.289350  0.642500  1.0  -0.1878
  C  C102  1  0.745720  0.261620  0.597560  1.0  -0.1537
  C  C103  1  0.653930  0.364000  0.692000  1.0  0.0241
  C  C104  1  0.663600  0.433400  0.674400  1.0  -0.1318
  C  C105  1  0.639200  0.457800  0.723200  1.0  -0.0725
  C  C106  1  0.605500  0.408800  0.788600  1.0  -0.1227
  C  C107  1  0.595200  0.336700  0.807400  1.0  -0.0854
  C  C108  1  0.620100  0.314700  0.757800  1.0  -0.1304
  C  C109  1  0.577300  0.433000  0.842400  1.0  0.7367
  C  C110  1  0.727780  0.167880  0.548520  1.0  0.0319
  C  C111  1  0.680800  0.022400  0.638400  1.0  0.0538
  C  C112  1  0.775280  0.122180  0.544440  1.0  -0.1102
  C  C113  1  0.751920  0.049520  0.589360  1.0  -0.1441
  C  C114  1  0.633250  0.068150  0.642500  1.0  -0.1867
  C  C115  1  0.656720  0.140820  0.597560  1.0  -0.1539
  C  C116  1  0.654070  0.944000  0.692000  1.0  0.0245
  C  C117  1  0.662000  0.892200  0.674400  1.0  -0.1308
  C  C118  1  0.637600  0.819000  0.723200  1.0  -0.0738
  C  C119  1  0.605900  0.802600  0.788600  1.0  -0.1214
  C  C120  1  0.597400  0.855900  0.807400  1.0  -0.0849
  C  C121  1  0.622100  0.927500  0.757800  1.0  -0.1299
  C  C122  1  0.580300  0.724600  0.842400  1.0  0.7352
  C  C123  1  0.832120  0.276300  0.451480  1.0  0.0283
  C  C124  1  0.977600  0.319200  0.361600  1.0  0.0513
  C  C125  1  0.877820  0.319720  0.455560  1.0  -0.1139
  C  C126  1  0.950480  0.341280  0.410640  1.0  -0.1493
  C  C127  1  0.931850  0.275750  0.357500  1.0  -0.1888
  C  C128  1  0.859180  0.254280  0.402440  1.0  -0.1493
  C  C129  1  0.056000  0.346070  0.308000  1.0  0.0224
  C  C130  1  0.107800  0.336400  0.325600  1.0  -0.1332
  C  C131  1  0.181000  0.360800  0.276800  1.0  -0.0701
  C  C132  1  0.197400  0.394500  0.211400  1.0  -0.121
  C  C133  1  0.144100  0.404800  0.192600  1.0  -0.0875
  C  C134  1  0.072500  0.379900  0.242200  1.0  -0.131
  C  C135  1  0.275400  0.422700  0.157600  1.0  0.7359
  C  C136  1  0.716400  0.272220  0.451480  1.0  0.0322
  C  C137  1  0.660800  0.319200  0.361600  1.0  0.0519
  C  C138  1  0.666667  0.224720  0.455560  1.0  -0.1148
  C  C139  1  0.638880  0.248080  0.410640  1.0  -0.1468
  C  C140  1  0.710650  0.366750  0.357500  1.0  -0.1847
  C  C141  1  0.738380  0.343280  0.402440  1.0  -0.1555
  C  C142  1  0.636000  0.345930  0.308000  1.0  0.0234
  C  C143  1  0.566600  0.338000  0.325600  1.0  -0.132
  C  C144  1  0.542200  0.362400  0.276800  1.0  -0.0698
  C  C145  1  0.591200  0.394100  0.211400  1.0  -0.1238
  C  C146  1  0.663300  0.402600  0.192600  1.0  -0.0862
  C  C147  1  0.685300  0.377900  0.242200  1.0  -0.125
  C  C148  1  0.567000  0.419700  0.157600  1.0  0.7384
  C  C149  1  0.276300  0.716400  0.451480  1.0  0.0324
  C  C150  1  0.319200  0.660800  0.361600  1.0  0.0531
  C  C151  1  0.319720  0.666667  0.455560  1.0  -0.1125
  C  C152  1  0.341280  0.638880  0.410640  1.0  -0.1466
  C  C153  1  0.275750  0.710650  0.357500  1.0  -0.1861
  C  C154  1  0.254280  0.738380  0.402440  1.0  -0.1517
  C  C155  1  0.346070  0.636000  0.308000  1.0  0.0237
  C  C156  1  0.336400  0.566600  0.325600  1.0  -0.1331
  C  C157  1  0.360800  0.542200  0.276800  1.0  -0.0709
  C  C158  1  0.394500  0.591200  0.211400  1.0  -0.1231
  C  C159  1  0.404800  0.663300  0.192600  1.0  -0.0869
  C  C160  1  0.379900  0.685300  0.242200  1.0  -0.1299
  C  C161  1  0.422700  0.567000  0.157600  1.0  0.7356
  C  C162  1  0.272220  0.832120  0.451480  1.0  0.0323
  C  C163  1  0.319200  0.977600  0.361600  1.0  0.0538
  C  C164  1  0.224720  0.877820  0.455560  1.0  -0.1103
  C  C165  1  0.248080  0.950480  0.410640  1.0  -0.1452
  C  C166  1  0.366750  0.931850  0.357500  1.0  -0.1859
  C  C167  1  0.343280  0.859180  0.402440  1.0  -0.1538
  C  C168  1  0.345930  0.056000  0.308000  1.0  0.0244
  C  C169  1  0.338000  0.107800  0.325600  1.0  -0.1327
  C  C170  1  0.362400  0.181000  0.276800  1.0  -0.073
  C  C171  1  0.394100  0.197400  0.211400  1.0  -0.1218
  C  C172  1  0.402600  0.144100  0.192600  1.0  -0.0881
  C  C173  1  0.377900  0.072500  0.242200  1.0  -0.1295
  C  C174  1  0.419700  0.275400  0.157600  1.0  0.7343
  C  C175  1  0.250000  0.750000  0.500000  1.0  -0.0343
  C  C176  1  0.750000  0.250000  0.500000  1.0  -0.0344
  O  O177  1  0.677270  0.588470  0.822260  1.0  -0.6213
  O  O178  1  0.714800  0.548200  0.901400  1.0  -0.6627
  O  O179  1  0.588690  0.470390  0.941620  1.0  -1.0868
  O  O180  1  0.500470  0.589270  0.822260  1.0  -0.6209
  O  O181  1  0.383800  0.550400  0.901400  1.0  -0.6605
  O  O182  1  0.469690  0.587990  0.941620  1.0  -1.0869
  O  O183  1  0.588470  0.500470  0.822260  1.0  -0.6196
  O  O184  1  0.548200  0.383800  0.901400  1.0  -0.6596
  O  O185  1  0.470390  0.469690  0.941620  1.0  -1.0825
  O  O186  1  0.589270  0.677270  0.822260  1.0  -0.6148
  O  O187  1  0.550400  0.714800  0.901400  1.0  -0.6602
  O  O188  1  0.587990  0.588690  0.941620  1.0  -1.0857
  O  O189  1  0.322730  0.411530  0.177740  1.0  -0.622
  O  O190  1  0.285200  0.451800  0.098600  1.0  -0.6638
  O  O191  1  0.411310  0.529610  0.058380  1.0  -1.0859
  O  O192  1  0.499530  0.410730  0.177740  1.0  -0.6199
  O  O193  1  0.616200  0.449600  0.098600  1.0  -0.6627
  O  O194  1  0.530310  0.412010  0.058380  1.0  -1.0866
  O  O195  1  0.411530  0.499530  0.177740  1.0  -0.6217
  O  O196  1  0.451800  0.616200  0.098600  1.0  -0.6573
  O  O197  1  0.529610  0.530310  0.058380  1.0  -1.0813
  O  O198  1  0.410730  0.322730  0.177740  1.0  -0.6148
  O  O199  1  0.449600  0.285200  0.098600  1.0  -0.6606
  O  O200  1  0.412010  0.411310  0.058380  1.0  -1.0856
