# generated using pymatgen
data_Zr3H32C53O12
_symmetry_space_group_name_H-M   'P 1'
_cell_length_a   19.93600000
_cell_length_b   19.93600000
_cell_length_c   25.39700000
_cell_angle_alpha   66.89060000
_cell_angle_beta   66.89060000
_cell_angle_gamma   89.99990000
_symmetry_Int_Tables_number   1
_chemical_formula_structural   Zr3H32C53O12
_chemical_formula_sum   'Zr6 H64 C106 O24'
_cell_volume   8396.19050097
_cell_formula_units_Z   2
loop_
 _symmetry_equiv_pos_site_id
 _symmetry_equiv_pos_as_xyz
  1  'x, y, z'
loop_
 _atom_site_type_symbol
 _atom_site_label
 _atom_site_symmetry_multiplicity
 _atom_site_fract_x
 _atom_site_fract_y
 _atom_site_fract_z
 _atom_site_occupancy
 _atom_site_charge
  Zr  Zr1  1  0.057810  0.057810  0.884380  1.0  2.0996
  Zr  Zr2  1  0.942190  0.942190  0.115620  1.0  2.1002
  Zr  Zr3  1  0.874870  0.999160  0.000000  1.0  2.0879
  Zr  Zr4  1  0.125130  0.000840  0.000000  1.0  2.0717
  Zr  Zr5  1  0.999160  0.125130  0.000000  1.0  2.0894
  Zr  Zr6  1  0.000840  0.874870  0.000000  1.0  2.0866
  H  H7  1  0.002500  0.155300  0.726000  1.0  0.1126
  H  H8  1  0.969300  0.191800  0.641400  1.0  0.1241
  H  H9  1  0.758000  0.085700  0.763400  1.0  0.1192
  H  H10  1  0.791200  0.049200  0.848000  1.0  0.119
  H  H11  1  0.892400  0.274900  0.600600  1.0  0.1271
  H  H12  1  0.846900  0.323300  0.523600  1.0  0.1202
  H  H13  1  0.730100  0.119500  0.587000  1.0  0.1261
  H  H14  1  0.775600  0.071300  0.663800  1.0  0.1272
  H  H15  1  0.271500  0.118700  0.726000  1.0  0.1125
  H  H16  1  0.389300  0.166800  0.641400  1.0  0.122
  H  H17  1  0.478600  0.150900  0.763400  1.0  0.12
  H  H18  1  0.360800  0.102800  0.848000  1.0  0.118
  H  H19  1  0.507000  0.124500  0.600600  1.0  0.1264
  H  H20  1  0.629500  0.153100  0.523600  1.0  0.1204
  H  H21  1  0.682900  0.293500  0.587000  1.0  0.1255
  H  H22  1  0.560600  0.264900  0.663800  1.0  0.1276
  H  H23  1  0.155300  0.271500  0.726000  1.0  0.1142
  H  H24  1  0.191800  0.389300  0.641400  1.0  0.1235
  H  H25  1  0.085700  0.478600  0.763400  1.0  0.1199
  H  H26  1  0.049200  0.360800  0.848000  1.0  0.1185
  H  H27  1  0.274900  0.507000  0.600600  1.0  0.1273
  H  H28  1  0.323300  0.629500  0.523600  1.0  0.1221
  H  H29  1  0.119500  0.682900  0.587000  1.0  0.1255
  H  H30  1  0.071300  0.560600  0.663800  1.0  0.1268
  H  H31  1  0.118700  0.002500  0.726000  1.0  0.1157
  H  H32  1  0.166800  0.969300  0.641400  1.0  0.1239
  H  H33  1  0.150900  0.758000  0.763400  1.0  0.1205
  H  H34  1  0.102800  0.791200  0.848000  1.0  0.1195
  H  H35  1  0.124500  0.892400  0.600600  1.0  0.1278
  H  H36  1  0.153100  0.846900  0.523600  1.0  0.1209
  H  H37  1  0.293500  0.730100  0.587000  1.0  0.1283
  H  H38  1  0.264900  0.775600  0.663800  1.0  0.1264
  H  H39  1  0.997500  0.844700  0.274000  1.0  0.1137
  H  H40  1  0.030700  0.808200  0.358600  1.0  0.1237
  H  H41  1  0.242000  0.914300  0.236600  1.0  0.1189
  H  H42  1  0.208800  0.950800  0.152000  1.0  0.1195
  H  H43  1  0.107600  0.725100  0.399400  1.0  0.1266
  H  H44  1  0.153100  0.676700  0.476400  1.0  0.1204
  H  H45  1  0.269900  0.880500  0.413000  1.0  0.1245
  H  H46  1  0.224400  0.928700  0.336200  1.0  0.1269
  H  H47  1  0.728500  0.881300  0.274000  1.0  0.1129
  H  H48  1  0.610700  0.833200  0.358600  1.0  0.1219
  H  H49  1  0.521400  0.849100  0.236600  1.0  0.1196
  H  H50  1  0.639200  0.897200  0.152000  1.0  0.1181
  H  H51  1  0.493000  0.875500  0.399400  1.0  0.127
  H  H52  1  0.370500  0.846900  0.476400  1.0  0.12
  H  H53  1  0.317100  0.706500  0.413000  1.0  0.1267
  H  H54  1  0.439400  0.735100  0.336200  1.0  0.1273
  H  H55  1  0.844700  0.728500  0.274000  1.0  0.1138
  H  H56  1  0.808200  0.610700  0.358600  1.0  0.1234
  H  H57  1  0.914300  0.521400  0.236600  1.0  0.1192
  H  H58  1  0.950800  0.639200  0.152000  1.0  0.1187
  H  H59  1  0.725100  0.493000  0.399400  1.0  0.1275
  H  H60  1  0.676700  0.370500  0.476400  1.0  0.1219
  H  H61  1  0.880500  0.317100  0.413000  1.0  0.1269
  H  H62  1  0.928700  0.439400  0.336200  1.0  0.1266
  H  H63  1  0.881300  0.997500  0.274000  1.0  0.1158
  H  H64  1  0.833200  0.030700  0.358600  1.0  0.1238
  H  H65  1  0.849100  0.242000  0.236600  1.0  0.121
  H  H66  1  0.897200  0.208800  0.152000  1.0  0.1198
  H  H67  1  0.875500  0.107600  0.399400  1.0  0.1272
  H  H68  1  0.846900  0.153100  0.476400  1.0  0.1206
  H  H69  1  0.706500  0.269900  0.413000  1.0  0.1263
  H  H70  1  0.735100  0.224400  0.336200  1.0  0.1266
  C  C71  1  0.925650  0.078050  0.845500  1.0  0.7069
  C  C72  1  0.899910  0.098810  0.794980  1.0  -0.1491
  C  C73  1  0.952810  0.141210  0.733580  1.0  -0.0565
  C  C74  1  0.933160  0.162860  0.683280  1.0  -0.1187
  C  C75  1  0.860610  0.142210  0.694380  1.0  0.0399
  C  C76  1  0.807720  0.099820  0.755760  1.0  -0.1036
  C  C77  1  0.827370  0.078170  0.806060  1.0  -0.0424
  C  C78  1  0.838310  0.168610  0.639380  1.0  0.0598
  C  C79  1  0.859520  0.243420  0.597760  1.0  -0.1231
  C  C80  1  0.832440  0.272040  0.552120  1.0  -0.1548
  C  C81  1  0.784260  0.225960  0.548080  1.0  0.0343
  C  C82  1  0.763060  0.151160  0.589680  1.0  -0.1436
  C  C83  1  0.790130  0.122430  0.635340  1.0  -0.1414
  C  C84  1  0.228850  0.076450  0.845500  1.0  0.7036
  C  C85  1  0.305110  0.106210  0.794980  1.0  -0.149
  C  C86  1  0.313610  0.125210  0.733580  1.0  -0.0571
  C  C87  1  0.383560  0.153860  0.683280  1.0  -0.1196
  C  C88  1  0.445010  0.163410  0.694380  1.0  0.0386
  C  C89  1  0.436520  0.144420  0.755760  1.0  -0.1028
  C  C90  1  0.366570  0.115770  0.806060  1.0  -0.0448
  C  C91  1  0.522310  0.192010  0.639380  1.0  0.0576
  C  C92  1  0.542720  0.158820  0.597760  1.0  -0.1261
  C  C93  1  0.615440  0.175840  0.552120  1.0  -0.1464
  C  C94  1  0.667660  0.225960  0.548080  1.0  0.0319
  C  C95  1  0.647260  0.259160  0.589680  1.0  -0.1438
  C  C96  1  0.574530  0.242230  0.635340  1.0  -0.1446
  C  C97  1  0.078050  0.228850  0.845500  1.0  0.7052
  C  C98  1  0.098810  0.305110  0.794980  1.0  -0.1486
  C  C99  1  0.141210  0.313610  0.733580  1.0  -0.0547
  C  C100  1  0.162860  0.383560  0.683280  1.0  -0.1201
  C  C101  1  0.142210  0.445010  0.694380  1.0  0.0396
  C  C102  1  0.099820  0.436520  0.755760  1.0  -0.1052
  C  C103  1  0.078170  0.366570  0.806060  1.0  -0.0445
  C  C104  1  0.168610  0.522310  0.639380  1.0  0.0601
  C  C105  1  0.243420  0.542720  0.597760  1.0  -0.1208
  C  C106  1  0.272040  0.615440  0.552120  1.0  -0.1472
  C  C107  1  0.225960  0.667660  0.548080  1.0  0.0376
  C  C108  1  0.151160  0.647260  0.589680  1.0  -0.142
  C  C109  1  0.122430  0.574530  0.635340  1.0  -0.1396
  C  C110  1  0.076450  0.925650  0.845500  1.0  0.7044
  C  C111  1  0.106210  0.899910  0.794980  1.0  -0.1504
  C  C112  1  0.125210  0.952810  0.733580  1.0  -0.0568
  C  C113  1  0.153860  0.933160  0.683280  1.0  -0.1194
  C  C114  1  0.163410  0.860610  0.694380  1.0  0.0392
  C  C115  1  0.144420  0.807720  0.755760  1.0  -0.1018
  C  C116  1  0.115770  0.827370  0.806060  1.0  -0.0444
  C  C117  1  0.192010  0.838310  0.639380  1.0  0.0621
  C  C118  1  0.158820  0.859520  0.597760  1.0  -0.1231
  C  C119  1  0.175840  0.832440  0.552120  1.0  -0.1502
  C  C120  1  0.225960  0.784260  0.548080  1.0  0.0324
  C  C121  1  0.259160  0.763060  0.589680  1.0  -0.1414
  C  C122  1  0.242230  0.790130  0.635340  1.0  -0.1403
  C  C123  1  0.074350  0.921950  0.154500  1.0  0.7075
  C  C124  1  0.100090  0.901190  0.205020  1.0  -0.1492
  C  C125  1  0.047190  0.858790  0.266420  1.0  -0.0573
  C  C126  1  0.066840  0.837140  0.316720  1.0  -0.1199
  C  C127  1  0.139390  0.857790  0.305620  1.0  0.0399
  C  C128  1  0.192280  0.900180  0.244240  1.0  -0.101
  C  C129  1  0.172630  0.921830  0.193940  1.0  -0.0414
  C  C130  1  0.161690  0.831390  0.360620  1.0  0.0574
  C  C131  1  0.140480  0.756580  0.402240  1.0  -0.124
  C  C132  1  0.167560  0.727960  0.447880  1.0  -0.1521
  C  C133  1  0.215740  0.774040  0.451920  1.0  0.0341
  C  C134  1  0.236940  0.848840  0.410320  1.0  -0.1428
  C  C135  1  0.209870  0.877570  0.364660  1.0  -0.1408
  C  C136  1  0.771150  0.923550  0.154500  1.0  0.7029
  C  C137  1  0.694890  0.893790  0.205020  1.0  -0.1485
  C  C138  1  0.686390  0.874790  0.266420  1.0  -0.0553
  C  C139  1  0.616440  0.846140  0.316720  1.0  -0.1197
  C  C140  1  0.554990  0.836590  0.305620  1.0  0.0384
  C  C141  1  0.563480  0.855580  0.244240  1.0  -0.1044
  C  C142  1  0.633430  0.884230  0.193940  1.0  -0.0444
  C  C143  1  0.477690  0.807990  0.360620  1.0  0.0573
  C  C144  1  0.457280  0.841180  0.402240  1.0  -0.1257
  C  C145  1  0.384560  0.824160  0.447880  1.0  -0.1452
  C  C146  1  0.332340  0.774040  0.451920  1.0  0.0338
  C  C147  1  0.352740  0.740840  0.410320  1.0  -0.1395
  C  C148  1  0.425470  0.757770  0.364660  1.0  -0.1441
  C  C149  1  0.921950  0.771150  0.154500  1.0  0.7047
  C  C150  1  0.901190  0.694890  0.205020  1.0  -0.149
  C  C151  1  0.858790  0.686390  0.266420  1.0  -0.055
  C  C152  1  0.837140  0.616440  0.316720  1.0  -0.12
  C  C153  1  0.857790  0.554990  0.305620  1.0  0.0396
  C  C154  1  0.900180  0.563480  0.244240  1.0  -0.1037
  C  C155  1  0.921830  0.633430  0.193940  1.0  -0.0438
  C  C156  1  0.831390  0.477690  0.360620  1.0  0.0599
  C  C157  1  0.756580  0.457280  0.402240  1.0  -0.1234
  C  C158  1  0.727960  0.384560  0.447880  1.0  -0.1473
  C  C159  1  0.774040  0.332340  0.451920  1.0  0.039
  C  C160  1  0.848840  0.352740  0.410320  1.0  -0.1412
  C  C161  1  0.877570  0.425470  0.364660  1.0  -0.1383
  C  C162  1  0.923550  0.074350  0.154500  1.0  0.7052
  C  C163  1  0.893790  0.100090  0.205020  1.0  -0.1506
  C  C164  1  0.874790  0.047190  0.266420  1.0  -0.0553
  C  C165  1  0.846140  0.066840  0.316720  1.0  -0.1199
  C  C166  1  0.836590  0.139390  0.305620  1.0  0.0393
  C  C167  1  0.855580  0.192280  0.244240  1.0  -0.104
  C  C168  1  0.884230  0.172630  0.193940  1.0  -0.0453
  C  C169  1  0.807990  0.161690  0.360620  1.0  0.0606
  C  C170  1  0.841180  0.140480  0.402240  1.0  -0.1205
  C  C171  1  0.824160  0.167560  0.447880  1.0  -0.1521
  C  C172  1  0.774040  0.215740  0.451920  1.0  0.0355
  C  C173  1  0.740840  0.236940  0.410320  1.0  -0.1415
  C  C174  1  0.757770  0.209870  0.364660  1.0  -0.1411
  C  C175  1  0.750000  0.250000  0.500000  1.0  -0.0479
  C  C176  1  0.250000  0.750000  0.500000  1.0  -0.0475
  O  O177  1  0.992030  0.083630  0.831140  1.0  -0.5915
  O  O178  1  0.871720  0.044820  0.904160  1.0  -0.632
  O  O179  1  0.964810  0.092810  0.943380  1.0  -1.1136
  O  O180  1  0.176830  0.085230  0.831140  1.0  -0.5998
  O  O181  1  0.224120  0.051020  0.904160  1.0  -0.6331
  O  O182  1  0.091810  0.963810  0.943380  1.0  -1.117
  O  O183  1  0.083630  0.176830  0.831140  1.0  -0.59
  O  O184  1  0.044820  0.224120  0.904160  1.0  -0.6334
  O  O185  1  0.092810  0.091810  0.943380  1.0  -1.1218
  O  O186  1  0.085230  0.992030  0.831140  1.0  -0.5882
  O  O187  1  0.051020  0.871720  0.904160  1.0  -0.6307
  O  O188  1  0.963810  0.964810  0.943380  1.0  -1.1174
  O  O189  1  0.007970  0.916370  0.168860  1.0  -0.5905
  O  O190  1  0.128280  0.955180  0.095840  1.0  -0.6334
  O  O191  1  0.035190  0.907190  0.056620  1.0  -1.111
  O  O192  1  0.823170  0.914770  0.168860  1.0  -0.601
  O  O193  1  0.775880  0.948980  0.095840  1.0  -0.6347
  O  O194  1  0.908190  0.036190  0.056620  1.0  -1.1178
  O  O195  1  0.916370  0.823170  0.168860  1.0  -0.5897
  O  O196  1  0.955180  0.775880  0.095840  1.0  -0.6329
  O  O197  1  0.907190  0.908190  0.056620  1.0  -1.1242
  O  O198  1  0.914770  0.007970  0.168860  1.0  -0.5894
  O  O199  1  0.948980  0.128280  0.095840  1.0  -0.6294
  O  O200  1  0.036190  0.035190  0.056620  1.0  -1.1159
