# generated using pymatgen
data_Cd3H5C14(NO5)2
_symmetry_space_group_name_H-M   'P 1'
_cell_length_a   10.22400000
_cell_length_b   11.21720000
_cell_length_c   11.33020000
_cell_angle_alpha   69.05900000
_cell_angle_beta   76.93000000
_cell_angle_gamma   88.66600000
_symmetry_Int_Tables_number   1
_chemical_formula_structural   Cd3H5C14(NO5)2
_chemical_formula_sum   'Cd6 H10 C28 N4 O20'
_cell_volume   1179.76799315
_cell_formula_units_Z   2
loop_
 _symmetry_equiv_pos_site_id
 _symmetry_equiv_pos_as_xyz
  1  'x, y, z'
loop_
 _atom_site_type_symbol
 _atom_site_label
 _atom_site_symmetry_multiplicity
 _atom_site_fract_x
 _atom_site_fract_y
 _atom_site_fract_z
 _atom_site_occupancy
 _atom_site_charge
  Cd  Cd1  1  0.116560  0.364800  0.474510  1.0  0.9054
  Cd  Cd2  1  0.661010  0.940910  0.896640  1.0  0.8348
  Cd  Cd3  1  0.725360  0.204000  0.287450  1.0  1.0022
  Cd  Cd4  1  0.883440  0.635200  0.525490  1.0  0.9084
  Cd  Cd5  1  0.338990  0.059090  0.103360  1.0  0.8386
  Cd  Cd6  1  0.274640  0.796000  0.712550  1.0  1.0025
  H  H7  1  0.524200  0.323700  0.857200  1.0  0.4551
  H  H8  1  0.360500  0.487500  0.770100  1.0  0.1308
  H  H9  1  0.572600  0.262700  0.596700  1.0  0.136
  H  H10  1  0.185200  0.109900  0.681800  1.0  0.1272
  H  H11  1  0.925400  0.242400  0.923300  1.0  0.1311
  H  H12  1  0.475800  0.676300  0.142800  1.0  0.4542
  H  H13  1  0.639500  0.512500  0.229900  1.0  0.1306
  H  H14  1  0.427400  0.737300  0.403300  1.0  0.1355
  H  H15  1  0.814800  0.890100  0.318200  1.0  0.1274
  H  H16  1  0.074600  0.757600  0.076700  1.0  0.1314
  C  C17  1  0.285800  0.456100  0.634700  1.0  0.1408
  C  C18  1  0.373300  0.444200  0.712500  1.0  -0.128
  C  C19  1  0.483700  0.366100  0.705500  1.0  0.3417
  C  C20  1  0.498600  0.309900  0.610700  1.0  -0.1099
  C  C21  1  0.403600  0.325000  0.539000  1.0  0.1545
  C  C22  1  0.171500  0.543600  0.632600  1.0  0.7037
  C  C23  1  0.413900  0.262400  0.439300  1.0  0.7408
  C  C24  1  0.230700  0.082900  0.852200  1.0  0.164
  C  C25  1  0.159300  0.127300  0.757900  1.0  -0.0782
  C  C26  1  0.046700  0.199200  0.776100  1.0  0.314
  C  C27  1  0.005000  0.205100  0.901600  1.0  -0.0585
  C  C28  1  0.081300  0.156000  0.991700  1.0  0.1615
  C  C29  1  0.357000  0.013700  0.831900  1.0  0.673
  C  C30  1  0.043200  0.165200  0.124000  1.0  0.6967
  C  C31  1  0.714200  0.543900  0.365300  1.0  0.1411
  C  C32  1  0.626700  0.555800  0.287500  1.0  -0.1268
  C  C33  1  0.516300  0.633900  0.294500  1.0  0.3425
  C  C34  1  0.501400  0.690100  0.389300  1.0  -0.1091
  C  C35  1  0.596400  0.675000  0.461000  1.0  0.1521
  C  C36  1  0.828500  0.456400  0.367400  1.0  0.7027
  C  C37  1  0.586100  0.737600  0.560700  1.0  0.7399
  C  C38  1  0.769300  0.917100  0.147800  1.0  0.1625
  C  C39  1  0.840700  0.872700  0.242100  1.0  -0.0792
  C  C40  1  0.953300  0.800800  0.223900  1.0  0.3113
  C  C41  1  0.995000  0.794900  0.098400  1.0  -0.0582
  C  C42  1  0.918700  0.844000  0.008300  1.0  0.1617
  C  C43  1  0.643000  0.986300  0.168100  1.0  0.6746
  C  C44  1  0.956800  0.834800  0.876000  1.0  0.6945
  N  N45  1  0.296300  0.394070  0.551440  1.0  -0.371
  N  N46  1  0.196300  0.100160  0.966800  1.0  -0.3606
  N  N47  1  0.703700  0.605930  0.448560  1.0  -0.371
  N  N48  1  0.803700  0.899840  0.033200  1.0  -0.3627
  O  O49  1  0.088720  0.539620  0.566370  1.0  -0.766
  O  O50  1  0.166800  0.618310  0.694310  1.0  -0.7351
  O  O51  1  0.521500  0.215970  0.408380  1.0  -0.7199
  O  O52  1  0.312900  0.262930  0.393420  1.0  -0.6205
  O  O53  1  0.566760  0.347960  0.781310  1.0  -0.5022
  O  O54  1  0.437860  0.009520  0.902430  1.0  -0.702
  O  O55  1  0.374140  0.965960  0.745000  1.0  -0.7202
  O  O56  1  0.930600  0.206430  0.156120  1.0  -0.7163
  O  O57  1  0.125900  0.132500  0.194810  1.0  -0.6258
  O  O58  1  0.984830  0.256560  0.682750  1.0  -0.5979
  O  O59  1  0.911280  0.460380  0.433630  1.0  -0.7643
  O  O60  1  0.833200  0.381690  0.305690  1.0  -0.7361
  O  O61  1  0.478500  0.784030  0.591620  1.0  -0.7173
  O  O62  1  0.687100  0.737070  0.606580  1.0  -0.6231
  O  O63  1  0.433240  0.652040  0.218690  1.0  -0.4995
  O  O64  1  0.562140  0.990480  0.097570  1.0  -0.7016
  O  O65  1  0.625860  0.034040  0.255000  1.0  -0.72
  O  O66  1  0.069400  0.793570  0.843880  1.0  -0.7171
  O  O67  1  0.874100  0.867500  0.805190  1.0  -0.6266
  O  O68  1  0.015170  0.743440  0.317250  1.0  -0.6002
