# generated using pymatgen
data_Zn4H14C30O13
_symmetry_space_group_name_H-M   'P 1'
_cell_length_a   18.47800000
_cell_length_b   12.18100000
_cell_length_c   23.05500000
_cell_angle_alpha   90.00000000
_cell_angle_beta   90.00000000
_cell_angle_gamma   90.00000000
_symmetry_Int_Tables_number   1
_chemical_formula_structural   Zn4H14C30O13
_chemical_formula_sum   'Zn16 H56 C120 O52'
_cell_volume   5189.23134249
_cell_formula_units_Z   4
loop_
 _symmetry_equiv_pos_site_id
 _symmetry_equiv_pos_as_xyz
  1  'x, y, z'
loop_
 _atom_site_type_symbol
 _atom_site_label
 _atom_site_symmetry_multiplicity
 _atom_site_fract_x
 _atom_site_fract_y
 _atom_site_fract_z
 _atom_site_occupancy
 _atom_site_charge
  Zn  Zn1  1  0.299170  0.237540  0.185670  1.0  1.0449
  Zn  Zn2  1  0.200140  0.237940  0.299520  1.0  1.0076
  Zn  Zn3  1  0.170200  0.066380  0.204220  1.0  1.0758
  Zn  Zn4  1  0.319820  0.061470  0.287980  1.0  1.0128
  Zn  Zn5  1  0.200830  0.762460  0.685670  1.0  1.0452
  Zn  Zn6  1  0.299860  0.762060  0.799520  1.0  1.0088
  Zn  Zn7  1  0.329800  0.933620  0.704220  1.0  1.0727
  Zn  Zn8  1  0.180180  0.938530  0.787980  1.0  1.0106
  Zn  Zn9  1  0.700830  0.737540  0.314330  1.0  1.0413
  Zn  Zn10  1  0.799860  0.737940  0.200480  1.0  1.0084
  Zn  Zn11  1  0.829800  0.566380  0.295780  1.0  1.0748
  Zn  Zn12  1  0.680180  0.561470  0.212020  1.0  1.0129
  Zn  Zn13  1  0.799170  0.262460  0.814330  1.0  1.0428
  Zn  Zn14  1  0.700140  0.262060  0.700480  1.0  1.008
  Zn  Zn15  1  0.670200  0.433620  0.795780  1.0  1.0741
  Zn  Zn16  1  0.819820  0.438530  0.712020  1.0  1.0105
  H  H17  1  0.030600  0.456600  0.232700  1.0  0.1172
  H  H18  1  0.995500  0.667000  0.102000  1.0  0.1135
  H  H19  1  0.178800  0.493100  0.106600  1.0  0.1108
  H  H20  1  0.019500  0.683300  0.009500  1.0  0.1214
  H  H21  1  0.057400  0.781300  0.929500  1.0  0.1266
  H  H22  1  0.262700  0.714500  0.972600  1.0  0.1171
  H  H23  1  0.223500  0.621300  0.053100  1.0  0.1244
  H  H24  1  0.527700  0.929900  0.234600  1.0  0.1214
  H  H25  1  0.679900  0.985800  0.112400  1.0  0.1085
  H  H26  1  0.488100  0.139900  0.104600  1.0  0.116
  H  H27  1  0.511600  0.140200  0.006100  1.0  0.1288
  H  H28  1  0.549300  0.245800  0.926200  1.0  0.1156
  H  H29  1  0.752000  0.224100  0.980400  1.0  0.0996
  H  H30  1  0.718100  0.120900  0.059000  1.0  0.1248
  H  H31  1  0.469400  0.543400  0.732700  1.0  0.1168
  H  H32  1  0.504500  0.333000  0.602000  1.0  0.1135
  H  H33  1  0.321200  0.506900  0.606600  1.0  0.1101
  H  H34  1  0.480500  0.316700  0.509500  1.0  0.1194
  H  H35  1  0.442600  0.218700  0.429500  1.0  0.1268
  H  H36  1  0.237300  0.285500  0.472600  1.0  0.1169
  H  H37  1  0.276500  0.378700  0.553100  1.0  0.125
  H  H38  1  0.972300  0.070100  0.734600  1.0  0.1214
  H  H39  1  0.820100  0.014200  0.612400  1.0  0.1079
  H  H40  1  0.011900  0.860100  0.604600  1.0  0.116
  H  H41  1  0.988400  0.859800  0.506100  1.0  0.1282
  H  H42  1  0.950700  0.754200  0.426200  1.0  0.1156
  H  H43  1  0.748000  0.775900  0.480400  1.0  0.1005
  H  H44  1  0.781900  0.879100  0.559000  1.0  0.1245
  H  H45  1  0.969400  0.956600  0.267300  1.0  0.1174
  H  H46  1  0.004500  0.167000  0.398000  1.0  0.1125
  H  H47  1  0.821200  0.993100  0.393400  1.0  0.1098
  H  H48  1  0.980500  0.183300  0.490500  1.0  0.1193
  H  H49  1  0.942600  0.281300  0.570500  1.0  0.1259
  H  H50  1  0.737300  0.214500  0.527400  1.0  0.1167
  H  H51  1  0.776500  0.121300  0.446900  1.0  0.1247
  H  H52  1  0.472300  0.429900  0.265400  1.0  0.1213
  H  H53  1  0.320100  0.485800  0.387600  1.0  0.1076
  H  H54  1  0.511900  0.639900  0.395400  1.0  0.1152
  H  H55  1  0.488400  0.640200  0.493900  1.0  0.1277
  H  H56  1  0.450700  0.745800  0.573800  1.0  0.1152
  H  H57  1  0.248000  0.724100  0.519600  1.0  0.1009
  H  H58  1  0.281900  0.620900  0.441000  1.0  0.1241
  H  H59  1  0.530600  0.043400  0.767300  1.0  0.1176
  H  H60  1  0.495500  0.833000  0.898000  1.0  0.1132
  H  H61  1  0.678800  0.006900  0.893400  1.0  0.1105
  H  H62  1  0.519500  0.816700  0.990500  1.0  0.1221
  H  H63  1  0.557400  0.718700  0.070500  1.0  0.1267
  H  H64  1  0.762700  0.785500  0.027400  1.0  0.1169
  H  H65  1  0.723500  0.878700  0.946900  1.0  0.1247
  H  H66  1  0.027700  0.570100  0.765400  1.0  0.1211
  H  H67  1  0.179900  0.514200  0.887600  1.0  0.1077
  H  H68  1  0.988100  0.360100  0.895400  1.0  0.1156
  H  H69  1  0.011600  0.359800  0.993900  1.0  0.1284
  H  H70  1  0.049300  0.254200  0.073800  1.0  0.1154
  H  H71  1  0.252000  0.275900  0.019600  1.0  0.0999
  H  H72  1  0.218100  0.379100  0.941000  1.0  0.1251
  C  C73  1  0.114000  0.462700  0.175000  1.0  -0.1652
  C  C74  1  0.046100  0.489800  0.198550  1.0  0.0288
  C  C75  1  0.002300  0.565800  0.170960  1.0  -0.1386
  C  C76  1  0.025100  0.615900  0.120200  1.0  -0.0501
  C  C77  1  0.092100  0.590100  0.096240  1.0  0.011
  C  C78  1  0.134800  0.512600  0.123400  1.0  -0.062
  C  C79  1  0.161100  0.380500  0.203240  1.0  0.6964
  C  C80  1  0.931000  0.594800  0.198600  1.0  0.732
  C  C81  1  0.117100  0.648500  0.041460  1.0  0.0403
  C  C82  1  0.068800  0.692300  0.002900  1.0  -0.1186
  C  C83  1  0.091300  0.749700  0.954200  1.0  -0.0683
  C  C84  1  0.164400  0.759800  0.942570  1.0  -0.1205
  C  C85  1  0.213400  0.710100  0.980300  1.0  -0.0468
  C  C86  1  0.190000  0.654700  0.028800  1.0  -0.1112
  C  C87  1  0.190600  0.818100  0.888950  1.0  0.7027
  C  C88  1  0.497000  0.036000  0.172680  1.0  -0.1425
  C  C89  1  0.542700  0.964800  0.200830  1.0  0.0267
  C  C90  1  0.612300  0.944800  0.178600  1.0  -0.1524
  C  C91  1  0.633800  0.998200  0.127300  1.0  -0.0782
  C  C92  1  0.587100  0.069200  0.098700  1.0  -0.0671
  C  C93  1  0.519000  0.089900  0.122400  1.0  -0.049
  C  C94  1  0.423300  0.065000  0.197600  1.0  0.7236
  C  C95  1  0.663100  0.868700  0.209250  1.0  0.6967
  C  C96  1  0.610400  0.128900  0.045750  1.0  0.0795
  C  C97  1  0.560000  0.160300  0.002500  1.0  -0.1244
  C  C98  1  0.582900  0.222600  0.953600  1.0  -0.0542
  C  C99  1  0.655200  0.248300  0.946900  1.0  -0.124
  C  C100  1  0.703100  0.209400  0.986000  1.0  -0.0193
  C  C101  1  0.682900  0.148600  0.034300  1.0  -0.1528
  C  C102  1  0.679000  0.316300  0.895220  1.0  0.6931
  C  C103  1  0.386000  0.537300  0.675000  1.0  -0.1667
  C  C104  1  0.453900  0.510200  0.698550  1.0  0.0283
  C  C105  1  0.497700  0.434200  0.670960  1.0  -0.1387
  C  C106  1  0.474900  0.384100  0.620200  1.0  -0.0494
  C  C107  1  0.407900  0.409900  0.596240  1.0  0.0119
  C  C108  1  0.365200  0.487400  0.623400  1.0  -0.0634
  C  C109  1  0.338900  0.619500  0.703240  1.0  0.6962
  C  C110  1  0.569000  0.405200  0.698600  1.0  0.7311
  C  C111  1  0.382900  0.351500  0.541460  1.0  0.0399
  C  C112  1  0.431200  0.307700  0.502900  1.0  -0.1178
  C  C113  1  0.408700  0.250300  0.454200  1.0  -0.0685
  C  C114  1  0.335600  0.240200  0.442570  1.0  -0.1222
  C  C115  1  0.286600  0.289900  0.480300  1.0  -0.0449
  C  C116  1  0.310000  0.345300  0.528800  1.0  -0.1126
  C  C117  1  0.309400  0.181900  0.388950  1.0  0.7024
  C  C118  1  0.003000  0.964000  0.672680  1.0  -0.1429
  C  C119  1  0.957300  0.035200  0.700830  1.0  0.0272
  C  C120  1  0.887700  0.055200  0.678600  1.0  -0.153
  C  C121  1  0.866200  0.001800  0.627300  1.0  -0.0779
  C  C122  1  0.912900  0.930800  0.598700  1.0  -0.0673
  C  C123  1  0.981000  0.910100  0.622400  1.0  -0.0498
  C  C124  1  0.076700  0.935000  0.697600  1.0  0.7241
  C  C125  1  0.836900  0.131300  0.709250  1.0  0.6963
  C  C126  1  0.889600  0.871100  0.545750  1.0  0.0805
  C  C127  1  0.940000  0.839700  0.502500  1.0  -0.12
  C  C128  1  0.917100  0.777400  0.453600  1.0  -0.0518
  C  C129  1  0.844800  0.751700  0.446900  1.0  -0.1249
  C  C130  1  0.796900  0.790600  0.486000  1.0  -0.0216
  C  C131  1  0.817100  0.851400  0.534300  1.0  -0.1521
  C  C132  1  0.821000  0.683700  0.395220  1.0  0.6929
  C  C133  1  0.886000  0.962700  0.325000  1.0  -0.1653
  C  C134  1  0.953900  0.989800  0.301450  1.0  0.0286
  C  C135  1  0.997700  0.065800  0.329040  1.0  -0.1388
  C  C136  1  0.974900  0.115900  0.379800  1.0  -0.0498
  C  C137  1  0.907900  0.090100  0.403760  1.0  0.0116
  C  C138  1  0.865200  0.012600  0.376600  1.0  -0.0627
  C  C139  1  0.838900  0.880500  0.296760  1.0  0.6972
  C  C140  1  0.069000  0.094800  0.301400  1.0  0.7314
  C  C141  1  0.882900  0.148500  0.458540  1.0  0.0396
  C  C142  1  0.931200  0.192300  0.497100  1.0  -0.1181
  C  C143  1  0.908700  0.249700  0.545800  1.0  -0.0676
  C  C144  1  0.835600  0.259800  0.557430  1.0  -0.122
  C  C145  1  0.786600  0.210100  0.519700  1.0  -0.0475
  C  C146  1  0.810000  0.154700  0.471200  1.0  -0.1122
  C  C147  1  0.809400  0.318100  0.611050  1.0  0.7013
  C  C148  1  0.503000  0.536000  0.327320  1.0  -0.143
  C  C149  1  0.457300  0.464800  0.299170  1.0  0.0286
  C  C150  1  0.387700  0.444800  0.321400  1.0  -0.152
  C  C151  1  0.366200  0.498200  0.372700  1.0  -0.0786
  C  C152  1  0.412900  0.569200  0.401300  1.0  -0.067
  C  C153  1  0.481000  0.589900  0.377600  1.0  -0.0495
  C  C154  1  0.576700  0.565000  0.302400  1.0  0.7242
  C  C155  1  0.336900  0.368700  0.290750  1.0  0.697
  C  C156  1  0.389600  0.628900  0.454250  1.0  0.0797
  C  C157  1  0.440000  0.660300  0.497500  1.0  -0.1208
  C  C158  1  0.417100  0.722600  0.546400  1.0  -0.0512
  C  C159  1  0.344800  0.748300  0.553100  1.0  -0.1239
  C  C160  1  0.296900  0.709400  0.514000  1.0  -0.0229
  C  C161  1  0.317100  0.648600  0.465700  1.0  -0.1527
  C  C162  1  0.321000  0.816300  0.604780  1.0  0.6924
  C  C163  1  0.614000  0.037300  0.825000  1.0  -0.166
  C  C164  1  0.546100  0.010200  0.801450  1.0  0.0298
  C  C165  1  0.502300  0.934200  0.829040  1.0  -0.1401
  C  C166  1  0.525100  0.884100  0.879800  1.0  -0.0489
  C  C167  1  0.592100  0.909900  0.903760  1.0  0.0111
  C  C168  1  0.634800  0.987400  0.876600  1.0  -0.0605
  C  C169  1  0.661100  0.119500  0.796760  1.0  0.6967
  C  C170  1  0.431000  0.905200  0.801400  1.0  0.732
  C  C171  1  0.617100  0.851500  0.958540  1.0  0.0402
  C  C172  1  0.568800  0.807700  0.997100  1.0  -0.1199
  C  C173  1  0.591300  0.750300  0.045800  1.0  -0.0684
  C  C174  1  0.664400  0.740200  0.057430  1.0  -0.1229
  C  C175  1  0.713400  0.789900  0.019700  1.0  -0.0468
  C  C176  1  0.690000  0.845300  0.971200  1.0  -0.111
  C  C177  1  0.690600  0.681900  0.111050  1.0  0.7024
  C  C178  1  0.997000  0.464000  0.827320  1.0  -0.1432
  C  C179  1  0.042700  0.535200  0.799170  1.0  0.0294
  C  C180  1  0.112300  0.555200  0.821400  1.0  -0.1525
  C  C181  1  0.133800  0.501800  0.872700  1.0  -0.079
  C  C182  1  0.087100  0.430800  0.901300  1.0  -0.0671
  C  C183  1  0.019000  0.410100  0.877600  1.0  -0.0494
  C  C184  1  0.923300  0.435000  0.802400  1.0  0.7235
  C  C185  1  0.163100  0.631300  0.790750  1.0  0.6963
  C  C186  1  0.110400  0.371100  0.954250  1.0  0.0798
  C  C187  1  0.060000  0.339700  0.997500  1.0  -0.1249
  C  C188  1  0.082900  0.277400  0.046400  1.0  -0.0544
  C  C189  1  0.155200  0.251700  0.053100  1.0  -0.1254
  C  C190  1  0.203100  0.290600  0.014000  1.0  -0.0199
  C  C191  1  0.182900  0.351400  0.965700  1.0  -0.1524
  C  C192  1  0.179000  0.183700  0.104780  1.0  0.6939
  O  O193  1  0.247840  0.138400  0.243410  1.0  -1.1899
  O  O194  1  0.222820  0.362500  0.180580  1.0  -0.6165
  O  O195  1  0.137990  0.335900  0.250270  1.0  -0.5778
  O  O196  1  0.915180  0.549300  0.245760  1.0  -0.6134
  O  O197  1  0.892190  0.664600  0.171440  1.0  -0.5838
  O  O198  1  0.141760  0.860000  0.856580  1.0  -0.5898
  O  O199  1  0.256900  0.824400  0.879310  1.0  -0.6079
  O  O200  1  0.384270  0.126800  0.169450  1.0  -0.6007
  O  O201  1  0.408030  0.018700  0.245400  1.0  -0.5971
  O  O202  1  0.726100  0.861000  0.187300  1.0  -0.5891
  O  O203  1  0.639020  0.817600  0.252370  1.0  -0.5857
  O  O204  1  0.628740  0.347400  0.861530  1.0  -0.6076
  O  O205  1  0.743530  0.334700  0.887640  1.0  -0.608
  O  O206  1  0.252160  0.861600  0.743410  1.0  -1.1905
  O  O207  1  0.277180  0.637500  0.680580  1.0  -0.6174
  O  O208  1  0.362010  0.664100  0.750270  1.0  -0.5776
  O  O209  1  0.584820  0.450700  0.745760  1.0  -0.6108
  O  O210  1  0.607810  0.335400  0.671440  1.0  -0.584
  O  O211  1  0.358240  0.140000  0.356580  1.0  -0.589
  O  O212  1  0.243100  0.175600  0.379310  1.0  -0.6076
  O  O213  1  0.115730  0.873200  0.669450  1.0  -0.6015
  O  O214  1  0.091970  0.981300  0.745400  1.0  -0.5965
  O  O215  1  0.773900  0.139000  0.687300  1.0  -0.5891
  O  O216  1  0.860980  0.182400  0.752370  1.0  -0.585
  O  O217  1  0.871260  0.652600  0.361530  1.0  -0.6039
  O  O218  1  0.756470  0.665300  0.387640  1.0  -0.6082
  O  O219  1  0.752160  0.638400  0.256590  1.0  -1.1893
  O  O220  1  0.777180  0.862500  0.319420  1.0  -0.6179
  O  O221  1  0.862010  0.835900  0.249730  1.0  -0.5784
  O  O222  1  0.084820  0.049300  0.254240  1.0  -0.6137
  O  O223  1  0.107810  0.164600  0.328560  1.0  -0.5829
  O  O224  1  0.858240  0.360000  0.643420  1.0  -0.5893
  O  O225  1  0.743100  0.324400  0.620690  1.0  -0.6087
  O  O226  1  0.615730  0.626800  0.330550  1.0  -0.6015
  O  O227  1  0.591970  0.518700  0.254600  1.0  -0.5949
  O  O228  1  0.273900  0.361000  0.312700  1.0  -0.5892
  O  O229  1  0.360980  0.317600  0.247630  1.0  -0.5853
  O  O230  1  0.371260  0.847400  0.638470  1.0  -0.606
  O  O231  1  0.256470  0.834700  0.612360  1.0  -0.6088
  O  O232  1  0.747840  0.361600  0.756590  1.0  -1.1906
  O  O233  1  0.722820  0.137500  0.819420  1.0  -0.616
  O  O234  1  0.637990  0.164100  0.749730  1.0  -0.5776
  O  O235  1  0.415180  0.950700  0.754240  1.0  -0.6135
  O  O236  1  0.392190  0.835400  0.828560  1.0  -0.5837
  O  O237  1  0.641760  0.640000  0.143420  1.0  -0.5908
  O  O238  1  0.756900  0.675600  0.120690  1.0  -0.6079
  O  O239  1  0.884270  0.373200  0.830550  1.0  -0.6011
  O  O240  1  0.908030  0.481300  0.754600  1.0  -0.5974
  O  O241  1  0.226100  0.639000  0.812700  1.0  -0.5892
  O  O242  1  0.139020  0.682400  0.747630  1.0  -0.5848
  O  O243  1  0.128740  0.152600  0.138470  1.0  -0.6058
  O  O244  1  0.243530  0.165300  0.112360  1.0  -0.609
