# generated using pymatgen
data_ZnH2(C5O4)2
_symmetry_space_group_name_H-M   'P 1'
_cell_length_a   11.58370000
_cell_length_b   14.74220000
_cell_length_c   11.61940000
_cell_angle_alpha   90.00000000
_cell_angle_beta   102.31900000
_cell_angle_gamma   90.00000000
_symmetry_Int_Tables_number   1
_chemical_formula_structural   ZnH2(C5O4)2
_chemical_formula_sum   'Zn4 H8 C40 O32'
_cell_volume   1938.54862441
_cell_formula_units_Z   4
loop_
 _symmetry_equiv_pos_site_id
 _symmetry_equiv_pos_as_xyz
  1  'x, y, z'
loop_
 _atom_site_type_symbol
 _atom_site_label
 _atom_site_symmetry_multiplicity
 _atom_site_fract_x
 _atom_site_fract_y
 _atom_site_fract_z
 _atom_site_occupancy
 _atom_site_charge
  Zn  Zn1  1  0.992440  0.032050  0.749330  1.0  1.1112
  Zn  Zn2  1  0.507560  0.532050  0.750670  1.0  1.1111
  Zn  Zn3  1  0.007560  0.967950  0.250670  1.0  1.1107
  Zn  Zn4  1  0.492440  0.467950  0.249330  1.0  1.1107
  H  H5  1  0.767000  0.693400  0.319600  1.0  0.1443
  H  H6  1  0.707200  0.824900  0.661800  1.0  0.1425
  H  H7  1  0.733000  0.193400  0.180400  1.0  0.1447
  H  H8  1  0.792800  0.324900  0.838200  1.0  0.1422
  H  H9  1  0.233000  0.306600  0.680400  1.0  0.1443
  H  H10  1  0.292800  0.175100  0.338200  1.0  0.1422
  H  H11  1  0.267000  0.806600  0.819600  1.0  0.1443
  H  H12  1  0.207200  0.675100  0.161800  1.0  0.1428
  C  C13  1  0.773150  0.849560  0.517880  1.0  -0.0894
  C  C14  1  0.790710  0.809440  0.413830  1.0  -0.0917
  C  C15  1  0.755500  0.719600  0.389140  1.0  -0.0188
  C  C16  1  0.703780  0.667950  0.465060  1.0  -0.0623
  C  C17  1  0.686440  0.708120  0.569350  1.0  -0.1249
  C  C18  1  0.720340  0.798190  0.593190  1.0  0.0202
  C  C19  1  0.807260  0.946500  0.553700  1.0  0.6944
  C  C20  1  0.852160  0.855350  0.327510  1.0  0.7549
  C  C21  1  0.671580  0.571020  0.425890  1.0  0.6943
  C  C22  1  0.630450  0.659740  0.657690  1.0  0.7387
  C  C23  1  0.726850  0.349560  0.982120  1.0  -0.0894
  C  C24  1  0.709290  0.309440  0.086170  1.0  -0.0947
  C  C25  1  0.744500  0.219600  0.110860  1.0  -0.0192
  C  C26  1  0.796220  0.167950  0.034940  1.0  -0.0618
  C  C27  1  0.813560  0.208120  0.930650  1.0  -0.1212
  C  C28  1  0.779660  0.298190  0.906810  1.0  0.021
  C  C29  1  0.692740  0.446500  0.946300  1.0  0.6944
  C  C30  1  0.647840  0.355350  0.172490  1.0  0.7544
  C  C31  1  0.828420  0.071020  0.074110  1.0  0.6998
  C  C32  1  0.869550  0.159740  0.842310  1.0  0.7395
  C  C33  1  0.226850  0.150440  0.482120  1.0  -0.09
  C  C34  1  0.209290  0.190560  0.586170  1.0  -0.0952
  C  C35  1  0.244500  0.280400  0.610860  1.0  -0.0205
  C  C36  1  0.296220  0.332050  0.534940  1.0  -0.0626
  C  C37  1  0.313560  0.291880  0.430650  1.0  -0.1211
  C  C38  1  0.279660  0.201810  0.406810  1.0  0.0219
  C  C39  1  0.192740  0.053500  0.446300  1.0  0.6931
  C  C40  1  0.147840  0.144650  0.672490  1.0  0.7546
  C  C41  1  0.328420  0.428980  0.574110  1.0  0.6995
  C  C42  1  0.369550  0.340260  0.342310  1.0  0.7407
  C  C43  1  0.273150  0.650440  0.017880  1.0  -0.0897
  C  C44  1  0.290710  0.690560  0.913830  1.0  -0.0867
  C  C45  1  0.255500  0.780400  0.889140  1.0  -0.0198
  C  C46  1  0.203780  0.832050  0.965060  1.0  -0.0625
  C  C47  1  0.186440  0.791880  0.069350  1.0  -0.125
  C  C48  1  0.220340  0.701810  0.093190  1.0  0.0214
  C  C49  1  0.307260  0.553500  0.053700  1.0  0.6933
  C  C50  1  0.352160  0.644650  0.827510  1.0  0.755
  C  C51  1  0.171580  0.928980  0.925890  1.0  0.7003
  C  C52  1  0.130450  0.840260  0.157690  1.0  0.7397
  O  O53  1  0.774120  0.009990  0.485660  1.0  -0.4133
  O  O54  1  0.864930  0.953490  0.661180  1.0  -0.5943
  O  O55  1  0.822220  0.834020  0.221800  1.0  -0.4475
  O  O56  1  0.932510  0.912450  0.368480  1.0  -0.5216
  O  O57  1  0.588230  0.567020  0.334440  1.0  -0.5861
  O  O58  1  0.730290  0.506440  0.474550  1.0  -0.3951
  O  O59  1  0.575250  0.586520  0.625250  1.0  -0.5303
  O  O60  1  0.639640  0.693450  0.756960  1.0  -0.4283
  O  O61  1  0.725880  0.509990  0.014340  1.0  -0.4125
  O  O62  1  0.635070  0.453490  0.838820  1.0  -0.5937
  O  O63  1  0.677780  0.334020  0.278200  1.0  -0.4489
  O  O64  1  0.567490  0.412450  0.131520  1.0  -0.5207
  O  O65  1  0.911770  0.067020  0.165560  1.0  -0.5884
  O  O66  1  0.769710  0.006440  0.025450  1.0  -0.3944
  O  O67  1  0.924750  0.086520  0.874750  1.0  -0.5304
  O  O68  1  0.860360  0.193450  0.743040  1.0  -0.4298
  O  O69  1  0.225880  0.990010  0.514340  1.0  -0.4131
  O  O70  1  0.135070  0.046510  0.338820  1.0  -0.5938
  O  O71  1  0.177780  0.165980  0.778200  1.0  -0.4482
  O  O72  1  0.067490  0.087550  0.631520  1.0  -0.5203
  O  O73  1  0.411770  0.432980  0.665560  1.0  -0.5878
  O  O74  1  0.269710  0.493560  0.525450  1.0  -0.3975
  O  O75  1  0.424750  0.413480  0.374750  1.0  -0.53
  O  O76  1  0.360360  0.306550  0.243040  1.0  -0.4295
  O  O77  1  0.274120  0.490010  0.985660  1.0  -0.4133
  O  O78  1  0.364930  0.546510  0.161180  1.0  -0.5944
  O  O79  1  0.322220  0.665980  0.721800  1.0  -0.4481
  O  O80  1  0.432510  0.587550  0.868480  1.0  -0.5207
  O  O81  1  0.088230  0.932980  0.834440  1.0  -0.5865
  O  O82  1  0.230290  0.993560  0.974550  1.0  -0.3983
  O  O83  1  0.075250  0.913480  0.125250  1.0  -0.53
  O  O84  1  0.139640  0.806550  0.256960  1.0  -0.4288
