# generated using pymatgen
data_CoH36(C15N2)2
_symmetry_space_group_name_H-M   'P 1'
_cell_length_a   10.29690000
_cell_length_b   15.75120000
_cell_length_c   18.77120000
_cell_angle_alpha   90.00000000
_cell_angle_beta   90.00000000
_cell_angle_gamma   90.00000000
_symmetry_Int_Tables_number   1
_chemical_formula_structural   CoH36(C15N2)2
_chemical_formula_sum   'Co4 H144 C120 N16'
_cell_volume   3044.47335836
_cell_formula_units_Z   4
loop_
 _symmetry_equiv_pos_site_id
 _symmetry_equiv_pos_as_xyz
  1  'x, y, z'
loop_
 _atom_site_type_symbol
 _atom_site_label
 _atom_site_symmetry_multiplicity
 _atom_site_fract_x
 _atom_site_fract_y
 _atom_site_fract_z
 _atom_site_occupancy
 _atom_site_charge
  Co  Co1  1  0.739670  0.859810  0.997100  1.0  0.6504
  Co  Co2  1  0.260330  0.140190  0.497100  1.0  0.6494
  Co  Co3  1  0.760330  0.359810  0.997100  1.0  0.6498
  Co  Co4  1  0.239670  0.640190  0.497100  1.0  0.65
  H  H5  1  0.681800  0.818900  0.154100  1.0  0.0601
  H  H6  1  0.739000  0.730700  0.247500  1.0  0.1083
  H  H7  1  0.977300  0.605100  0.112500  1.0  0.1052
  H  H8  1  0.912100  0.695800  0.022600  1.0  0.0607
  H  H9  1  0.966100  0.639700  0.285100  1.0  0.084
  H  H10  1  0.976600  0.560600  0.232200  1.0  0.087
  H  H11  1  0.846700  0.536700  0.339900  1.0  0.0571
  H  H12  1  0.738900  0.597500  0.305500  1.0  0.0627
  H  H13  1  0.825100  0.440700  0.243600  1.0  0.0527
  H  H14  1  0.722300  0.502300  0.206200  1.0  0.0622
  H  H15  1  0.570600  0.476100  0.298800  1.0  0.076
  H  H16  1  0.610900  0.389200  0.260700  1.0  0.08
  H  H17  1  0.767600  0.368600  0.357900  1.0  0.0788
  H  H18  1  0.697800  0.446100  0.397600  1.0  0.0719
  H  H19  1  0.434800  0.422400  0.404000  1.0  0.0968
  H  H20  1  0.286600  0.326800  0.448600  1.0  0.0601
  H  H21  1  0.541600  0.141600  0.439000  1.0  0.0571
  H  H22  1  0.697100  0.231400  0.393400  1.0  0.1132
  H  H23  1  0.779900  0.897500  0.839300  1.0  0.0618
  H  H24  1  0.751100  0.999000  0.752300  1.0  0.0958
  H  H25  1  0.530700  0.132700  0.890900  1.0  0.1207
  H  H26  1  0.572700  0.029500  0.975600  1.0  0.0617
  H  H27  1  0.546500  0.180300  0.764600  1.0  0.0741
  H  H28  1  0.625600  0.123300  0.708700  1.0  0.0753
  H  H29  1  0.733500  0.246500  0.804800  1.0  0.0624
  H  H30  1  0.825100  0.177200  0.768100  1.0  0.0823
  H  H31  1  0.772000  0.230900  0.654900  1.0  0.0731
  H  H32  1  0.838300  0.302000  0.703300  1.0  0.0649
  H  H33  1  0.630400  0.364000  0.723800  1.0  0.0576
  H  H34  1  0.566000  0.293700  0.673300  1.0  0.0662
  H  H35  1  0.756100  0.414500  0.626000  1.0  0.0854
  H  H36  1  0.692100  0.344300  0.575700  1.0  0.096
  H  H37  1  0.682700  0.551400  0.592300  1.0  0.101
  H  H38  1  0.522900  0.641300  0.553000  1.0  0.0668
  H  H39  1  0.266300  0.456800  0.553400  1.0  0.0563
  H  H40  1  0.418400  0.361500  0.593900  1.0  0.0907
  H  H41  1  0.318200  0.181100  0.654100  1.0  0.0599
  H  H42  1  0.261000  0.269300  0.747500  1.0  0.1084
  H  H43  1  0.022700  0.394900  0.612500  1.0  0.1057
  H  H44  1  0.087900  0.304200  0.522600  1.0  0.0613
  H  H45  1  0.033900  0.360300  0.785100  1.0  0.0851
  H  H46  1  0.023400  0.439400  0.732200  1.0  0.0869
  H  H47  1  0.153300  0.463300  0.839900  1.0  0.0582
  H  H48  1  0.261100  0.402500  0.805500  1.0  0.0628
  H  H49  1  0.174900  0.559300  0.743600  1.0  0.0539
  H  H50  1  0.277700  0.497700  0.706200  1.0  0.0623
  H  H51  1  0.429400  0.523900  0.798800  1.0  0.0749
  H  H52  1  0.389100  0.610800  0.760700  1.0  0.08
  H  H53  1  0.232400  0.631400  0.857900  1.0  0.0769
  H  H54  1  0.302200  0.553900  0.897600  1.0  0.0729
  H  H55  1  0.565200  0.577600  0.904000  1.0  0.0963
  H  H56  1  0.713400  0.673200  0.948600  1.0  0.0602
  H  H57  1  0.458400  0.858400  0.939000  1.0  0.057
  H  H58  1  0.302900  0.768600  0.893400  1.0  0.1131
  H  H59  1  0.220100  0.102500  0.339300  1.0  0.0618
  H  H60  1  0.248900  0.001000  0.252300  1.0  0.096
  H  H61  1  0.469300  0.867300  0.390900  1.0  0.1208
  H  H62  1  0.427300  0.970500  0.475600  1.0  0.0613
  H  H63  1  0.453500  0.819700  0.264600  1.0  0.0754
  H  H64  1  0.374400  0.876700  0.208700  1.0  0.0751
  H  H65  1  0.266500  0.753500  0.304800  1.0  0.0631
  H  H66  1  0.174900  0.822800  0.268100  1.0  0.0813
  H  H67  1  0.228000  0.769100  0.154900  1.0  0.0737
  H  H68  1  0.161700  0.698000  0.203300  1.0  0.0648
  H  H69  1  0.369600  0.636000  0.223800  1.0  0.0581
  H  H70  1  0.434000  0.706300  0.173300  1.0  0.0671
  H  H71  1  0.243900  0.585500  0.126000  1.0  0.0852
  H  H72  1  0.307900  0.655700  0.075700  1.0  0.0963
  H  H73  1  0.317300  0.448600  0.092300  1.0  0.1009
  H  H74  1  0.477100  0.358700  0.053000  1.0  0.0667
  H  H75  1  0.733700  0.543200  0.053400  1.0  0.0567
  H  H76  1  0.581600  0.638500  0.093900  1.0  0.0909
  H  H77  1  0.818200  0.318900  0.154100  1.0  0.06
  H  H78  1  0.761000  0.230700  0.247500  1.0  0.1083
  H  H79  1  0.522700  0.105100  0.112500  1.0  0.1053
  H  H80  1  0.587900  0.195800  0.022600  1.0  0.0609
  H  H81  1  0.533900  0.139700  0.285100  1.0  0.0846
  H  H82  1  0.523400  0.060600  0.232200  1.0  0.0865
  H  H83  1  0.653300  0.036700  0.339900  1.0  0.0579
  H  H84  1  0.761100  0.097500  0.305500  1.0  0.063
  H  H85  1  0.674900  0.940700  0.243600  1.0  0.0531
  H  H86  1  0.777700  0.002300  0.206200  1.0  0.0623
  H  H87  1  0.929400  0.976100  0.298800  1.0  0.0761
  H  H88  1  0.889100  0.889200  0.260700  1.0  0.0801
  H  H89  1  0.732400  0.868600  0.357900  1.0  0.078
  H  H90  1  0.802200  0.946100  0.397600  1.0  0.0717
  H  H91  1  0.065200  0.922400  0.404000  1.0  0.0965
  H  H92  1  0.213400  0.826800  0.448600  1.0  0.0604
  H  H93  1  0.958400  0.641600  0.439000  1.0  0.0569
  H  H94  1  0.802900  0.731400  0.393400  1.0  0.1134
  H  H95  1  0.720100  0.397500  0.839300  1.0  0.0617
  H  H96  1  0.748900  0.499000  0.752300  1.0  0.0958
  H  H97  1  0.969300  0.632700  0.890900  1.0  0.1205
  H  H98  1  0.927300  0.529500  0.975600  1.0  0.0616
  H  H99  1  0.953500  0.680300  0.764600  1.0  0.0751
  H  H100  1  0.874400  0.623300  0.708700  1.0  0.075
  H  H101  1  0.766500  0.746500  0.804800  1.0  0.0631
  H  H102  1  0.674900  0.677200  0.768100  1.0  0.0815
  H  H103  1  0.728000  0.730900  0.654900  1.0  0.0733
  H  H104  1  0.661700  0.802000  0.703300  1.0  0.0648
  H  H105  1  0.869600  0.864000  0.723800  1.0  0.0583
  H  H106  1  0.934000  0.793700  0.673300  1.0  0.0665
  H  H107  1  0.743900  0.914500  0.626000  1.0  0.0855
  H  H108  1  0.807900  0.844300  0.575700  1.0  0.0961
  H  H109  1  0.817300  0.051400  0.592300  1.0  0.101
  H  H110  1  0.977100  0.141300  0.553000  1.0  0.0672
  H  H111  1  0.233700  0.956800  0.553400  1.0  0.0566
  H  H112  1  0.081600  0.861500  0.593900  1.0  0.091
  H  H113  1  0.181800  0.681100  0.654100  1.0  0.0598
  H  H114  1  0.239000  0.769300  0.747500  1.0  0.1086
  H  H115  1  0.477300  0.894900  0.612500  1.0  0.1054
  H  H116  1  0.412100  0.804200  0.522600  1.0  0.0605
  H  H117  1  0.466100  0.860300  0.785100  1.0  0.0849
  H  H118  1  0.476600  0.939400  0.732200  1.0  0.0874
  H  H119  1  0.346700  0.963300  0.839900  1.0  0.0575
  H  H120  1  0.238900  0.902500  0.805500  1.0  0.0632
  H  H121  1  0.325100  0.059300  0.743600  1.0  0.0536
  H  H122  1  0.222300  0.997700  0.706200  1.0  0.0622
  H  H123  1  0.070600  0.023900  0.798800  1.0  0.0752
  H  H124  1  0.110900  0.110800  0.760700  1.0  0.0799
  H  H125  1  0.267600  0.131400  0.857900  1.0  0.0782
  H  H126  1  0.197800  0.053900  0.897600  1.0  0.073
  H  H127  1  0.934800  0.077600  0.904000  1.0  0.0965
  H  H128  1  0.786600  0.173200  0.948600  1.0  0.06
  H  H129  1  0.041600  0.358400  0.939000  1.0  0.0571
  H  H130  1  0.197100  0.268600  0.893400  1.0  0.1131
  H  H131  1  0.279900  0.602500  0.339300  1.0  0.0614
  H  H132  1  0.251100  0.501000  0.252300  1.0  0.096
  H  H133  1  0.030700  0.367300  0.390900  1.0  0.1206
  H  H134  1  0.072700  0.470500  0.475600  1.0  0.0612
  H  H135  1  0.046500  0.319700  0.264600  1.0  0.0743
  H  H136  1  0.125600  0.376700  0.208700  1.0  0.0751
  H  H137  1  0.233500  0.253500  0.304800  1.0  0.0626
  H  H138  1  0.325100  0.322800  0.268100  1.0  0.082
  H  H139  1  0.272000  0.269100  0.154900  1.0  0.0736
  H  H140  1  0.338300  0.198000  0.203300  1.0  0.0646
  H  H141  1  0.130400  0.136000  0.223800  1.0  0.0576
  H  H142  1  0.066000  0.206300  0.173300  1.0  0.0663
  H  H143  1  0.256100  0.085500  0.126000  1.0  0.0853
  H  H144  1  0.192100  0.155700  0.075700  1.0  0.0962
  H  H145  1  0.182700  0.948600  0.092300  1.0  0.1006
  H  H146  1  0.022900  0.858700  0.053000  1.0  0.0664
  H  H147  1  0.766300  0.043200  0.053400  1.0  0.0563
  H  H148  1  0.918400  0.138500  0.093900  1.0  0.0907
  C  C149  1  0.742690  0.774800  0.145500  1.0  0.1609
  C  C150  1  0.777140  0.722660  0.201860  1.0  -0.2476
  C  C151  1  0.868130  0.658210  0.191310  1.0  0.1026
  C  C152  1  0.916650  0.648920  0.122650  1.0  -0.2567
  C  C153  1  0.876830  0.703360  0.068970  1.0  0.1405
  C  C154  1  0.916090  0.603520  0.251830  1.0  -0.2326
  C  C155  1  0.809810  0.557170  0.294350  1.0  -0.0982
  C  C156  1  0.754360  0.481800  0.252840  1.0  -0.1183
  C  C157  1  0.643110  0.435760  0.291410  1.0  -0.0925
  C  C158  1  0.683990  0.398940  0.363530  1.0  -0.2122
  C  C159  1  0.584680  0.338710  0.393670  1.0  0.0985
  C  C160  1  0.459530  0.364820  0.410700  1.0  -0.239
  C  C161  1  0.371360  0.307190  0.437350  1.0  0.1472
  C  C162  1  0.519510  0.199510  0.431660  1.0  0.1471
  C  C163  1  0.613360  0.252800  0.404580  1.0  -0.2461
  C  C164  1  0.731300  0.946990  0.850540  1.0  0.1475
  C  C165  1  0.713500  0.007050  0.798030  1.0  -0.2404
  C  C166  1  0.640680  0.079440  0.811950  1.0  0.1067
  C  C167  1  0.585040  0.085930  0.879400  1.0  -0.2492
  C  C168  1  0.609850  0.023410  0.929590  1.0  0.1453
  C  C169  1  0.628400  0.148790  0.756920  1.0  -0.2307
  C  C170  1  0.744350  0.210500  0.761950  1.0  -0.0973
  C  C171  1  0.758810  0.267410  0.697180  1.0  -0.1323
  C  C172  1  0.645790  0.327190  0.681940  1.0  -0.141
  C  C173  1  0.675300  0.382210  0.616720  1.0  -0.2399
  C  C174  1  0.570660  0.443940  0.596170  1.0  0.1288
  C  C175  1  0.597720  0.530010  0.584040  1.0  -0.232
  C  C176  1  0.501790  0.583260  0.560310  1.0  0.149
  C  C177  1  0.352720  0.476140  0.560690  1.0  0.1444
  C  C178  1  0.443240  0.418580  0.584900  1.0  -0.2422
  C  C179  1  0.257310  0.225200  0.645500  1.0  0.1599
  C  C180  1  0.222860  0.277340  0.701860  1.0  -0.2478
  C  C181  1  0.131870  0.341790  0.691310  1.0  0.1019
  C  C182  1  0.083350  0.351080  0.622650  1.0  -0.2572
  C  C183  1  0.123170  0.296640  0.568970  1.0  0.1415
  C  C184  1  0.083910  0.396480  0.751830  1.0  -0.2333
  C  C185  1  0.190190  0.442830  0.794350  1.0  -0.098
  C  C186  1  0.245640  0.518200  0.752840  1.0  -0.1183
  C  C187  1  0.356890  0.564240  0.791410  1.0  -0.0914
  C  C188  1  0.316010  0.601060  0.863530  1.0  -0.2137
  C  C189  1  0.415320  0.661290  0.893670  1.0  0.098
  C  C190  1  0.540470  0.635180  0.910700  1.0  -0.24
  C  C191  1  0.628640  0.692810  0.937350  1.0  0.1474
  C  C192  1  0.480490  0.800490  0.931660  1.0  0.1464
  C  C193  1  0.386640  0.747200  0.904580  1.0  -0.2464
  C  C194  1  0.268700  0.053010  0.350540  1.0  0.1472
  C  C195  1  0.286500  0.992950  0.298030  1.0  -0.2386
  C  C196  1  0.359320  0.920560  0.311950  1.0  0.1073
  C  C197  1  0.414960  0.914070  0.379400  1.0  -0.2496
  C  C198  1  0.390150  0.976590  0.429590  1.0  0.1441
  C  C199  1  0.371600  0.851210  0.256920  1.0  -0.2299
  C  C200  1  0.255650  0.789500  0.261950  1.0  -0.0971
  C  C201  1  0.241190  0.732590  0.197180  1.0  -0.1337
  C  C202  1  0.354210  0.672810  0.181940  1.0  -0.141
  C  C203  1  0.324700  0.617790  0.116720  1.0  -0.2413
  C  C204  1  0.429340  0.556060  0.096170  1.0  0.1283
  C  C205  1  0.402280  0.469990  0.084040  1.0  -0.2315
  C  C206  1  0.498210  0.416740  0.060310  1.0  0.1467
  C  C207  1  0.647280  0.523860  0.060690  1.0  0.1434
  C  C208  1  0.556760  0.581420  0.084900  1.0  -0.2407
  C  C209  1  0.757310  0.274800  0.145500  1.0  0.1599
  C  C210  1  0.722860  0.222660  0.201860  1.0  -0.2482
  C  C211  1  0.631870  0.158210  0.191310  1.0  0.1024
  C  C212  1  0.583350  0.148920  0.122650  1.0  -0.257
  C  C213  1  0.623170  0.203360  0.068970  1.0  0.1417
  C  C214  1  0.583910  0.103520  0.251830  1.0  -0.2334
  C  C215  1  0.690190  0.057170  0.294350  1.0  -0.0977
  C  C216  1  0.745640  0.981800  0.252840  1.0  -0.1184
  C  C217  1  0.856890  0.935760  0.291410  1.0  -0.0921
  C  C218  1  0.816010  0.898940  0.363530  1.0  -0.2132
  C  C219  1  0.915320  0.838710  0.393670  1.0  0.0979
  C  C220  1  0.040470  0.864820  0.410700  1.0  -0.2386
  C  C221  1  0.128640  0.807190  0.437350  1.0  0.1469
  C  C222  1  0.980490  0.699510  0.431660  1.0  0.1465
  C  C223  1  0.886640  0.752800  0.404580  1.0  -0.246
  C  C224  1  0.768700  0.446990  0.850540  1.0  0.1478
  C  C225  1  0.786500  0.507050  0.798030  1.0  -0.2388
  C  C226  1  0.859320  0.579440  0.811950  1.0  0.107
  C  C227  1  0.914960  0.585930  0.879400  1.0  -0.2492
  C  C228  1  0.890150  0.523410  0.929590  1.0  0.1443
  C  C229  1  0.871600  0.648790  0.756920  1.0  -0.2306
  C  C230  1  0.755650  0.710500  0.761950  1.0  -0.0971
  C  C231  1  0.741190  0.767410  0.697180  1.0  -0.134
  C  C232  1  0.854210  0.827190  0.681940  1.0  -0.1408
  C  C233  1  0.824700  0.882210  0.616720  1.0  -0.2411
  C  C234  1  0.929340  0.943940  0.596170  1.0  0.1289
  C  C235  1  0.902280  0.030010  0.584040  1.0  -0.2323
  C  C236  1  0.998210  0.083260  0.560310  1.0  0.1479
  C  C237  1  0.147280  0.976140  0.560690  1.0  0.1442
  C  C238  1  0.056760  0.918580  0.584900  1.0  -0.2423
  C  C239  1  0.242690  0.725200  0.645500  1.0  0.1612
  C  C240  1  0.277140  0.777340  0.701860  1.0  -0.2475
  C  C241  1  0.368130  0.841790  0.691310  1.0  0.1019
  C  C242  1  0.416650  0.851080  0.622650  1.0  -0.2567
  C  C243  1  0.376830  0.796640  0.568970  1.0  0.1406
  C  C244  1  0.416090  0.896480  0.751830  1.0  -0.2329
  C  C245  1  0.309810  0.942830  0.794350  1.0  -0.0982
  C  C246  1  0.254360  0.018200  0.752840  1.0  -0.1182
  C  C247  1  0.143110  0.064240  0.791410  1.0  -0.0918
  C  C248  1  0.183990  0.101060  0.863530  1.0  -0.2123
  C  C249  1  0.084680  0.161290  0.893670  1.0  0.0986
  C  C250  1  0.959530  0.135180  0.910700  1.0  -0.2403
  C  C251  1  0.871360  0.192810  0.937350  1.0  0.147
  C  C252  1  0.019510  0.300490  0.931660  1.0  0.1476
  C  C253  1  0.113360  0.247200  0.904580  1.0  -0.2458
  C  C254  1  0.231300  0.553010  0.350540  1.0  0.1471
  C  C255  1  0.213500  0.492950  0.298030  1.0  -0.2404
  C  C256  1  0.140680  0.420560  0.311950  1.0  0.1069
  C  C257  1  0.085040  0.414070  0.379400  1.0  -0.2491
  C  C258  1  0.109850  0.476590  0.429590  1.0  0.1453
  C  C259  1  0.128400  0.351210  0.256920  1.0  -0.2303
  C  C260  1  0.244350  0.289500  0.261950  1.0  -0.0974
  C  C261  1  0.258810  0.232590  0.197180  1.0  -0.1321
  C  C262  1  0.145790  0.172810  0.181940  1.0  -0.1407
  C  C263  1  0.175300  0.117790  0.116720  1.0  -0.2402
  C  C264  1  0.070660  0.056060  0.096170  1.0  0.1284
  C  C265  1  0.097720  0.969990  0.084040  1.0  -0.2315
  C  C266  1  0.001790  0.916740  0.060310  1.0  0.1471
  C  C267  1  0.852720  0.023860  0.060690  1.0  0.1444
  C  C268  1  0.943240  0.081420  0.084900  1.0  -0.2407
  N  N269  1  0.790760  0.766400  0.079200  1.0  -0.3614
  N  N270  1  0.398720  0.224530  0.448360  1.0  -0.3737
  N  N271  1  0.683580  0.954700  0.916740  1.0  -0.3663
  N  N272  1  0.379140  0.557990  0.546690  1.0  -0.3823
  N  N273  1  0.209240  0.233600  0.579200  1.0  -0.362
  N  N274  1  0.601280  0.775470  0.948360  1.0  -0.374
  N  N275  1  0.316420  0.045300  0.416740  1.0  -0.3661
  N  N276  1  0.620860  0.442010  0.046690  1.0  -0.3836
  N  N277  1  0.709240  0.266400  0.079200  1.0  -0.3615
  N  N278  1  0.101280  0.724530  0.448360  1.0  -0.3734
  N  N279  1  0.816420  0.454700  0.916740  1.0  -0.3662
  N  N280  1  0.120860  0.057990  0.546690  1.0  -0.3828
  N  N281  1  0.290760  0.733600  0.579200  1.0  -0.3625
  N  N282  1  0.898720  0.275470  0.948360  1.0  -0.3734
  N  N283  1  0.183580  0.545300  0.416740  1.0  -0.3662
  N  N284  1  0.879140  0.942010  0.046690  1.0  -0.3843
