# generated using pymatgen
data_Cu2H8C13N6
_symmetry_space_group_name_H-M   'P 1'
_cell_length_a   5.27880000
_cell_length_b   15.46700000
_cell_length_c   8.29500000
_cell_angle_alpha   90.00000000
_cell_angle_beta   92.55200000
_cell_angle_gamma   90.00000000
_symmetry_Int_Tables_number   1
_chemical_formula_structural   Cu2H8C13N6
_chemical_formula_sum   'Cu4 H16 C26 N12'
_cell_volume   676.59182592
_cell_formula_units_Z   2
loop_
 _symmetry_equiv_pos_site_id
 _symmetry_equiv_pos_as_xyz
  1  'x, y, z'
loop_
 _atom_site_type_symbol
 _atom_site_label
 _atom_site_symmetry_multiplicity
 _atom_site_fract_x
 _atom_site_fract_y
 _atom_site_fract_z
 _atom_site_occupancy
 _atom_site_charge
  Cu  Cu1  1  0.906890  0.500000  0.703940  1.0  0.397
  Cu  Cu2  1  0.093110  0.500000  0.296060  1.0  0.393
  Cu  Cu3  1  0.000000  0.161600  0.000000  1.0  0.4042
  Cu  Cu4  1  0.000000  0.838400  0.000000  1.0  0.4044
  H  H5  1  0.188200  0.338800  0.899000  1.0  0.0583
  H  H6  1  0.501100  0.395700  0.749700  1.0  0.1048
  H  H7  1  0.731700  0.153800  0.660100  1.0  0.1102
  H  H8  1  0.407200  0.104400  0.807400  1.0  0.064
  H  H9  1  0.811800  0.338800  0.101000  1.0  0.0586
  H  H10  1  0.498900  0.395700  0.250300  1.0  0.1054
  H  H11  1  0.268300  0.153800  0.339900  1.0  0.111
  H  H12  1  0.592800  0.104400  0.192600  1.0  0.0648
  H  H13  1  0.811800  0.661200  0.101000  1.0  0.058
  H  H14  1  0.498900  0.604300  0.250300  1.0  0.1047
  H  H15  1  0.268300  0.846200  0.339900  1.0  0.1098
  H  H16  1  0.592800  0.895600  0.192600  1.0  0.0616
  H  H17  1  0.188200  0.661200  0.899000  1.0  0.058
  H  H18  1  0.501100  0.604300  0.749700  1.0  0.1041
  H  H19  1  0.731700  0.846200  0.660100  1.0  0.109
  H  H20  1  0.407200  0.895600  0.807400  1.0  0.0614
  C  C21  1  0.856200  0.312310  0.583000  1.0  0.2908
  C  C22  1  0.297700  0.301120  0.849300  1.0  0.152
  C  C23  1  0.486900  0.336090  0.760100  1.0  -0.1716
  C  C24  1  0.656300  0.281870  0.685700  1.0  0.0673
  C  C25  1  0.622700  0.192900  0.706500  1.0  -0.1575
  C  C26  1  0.427200  0.163780  0.796100  1.0  0.1439
  C  C27  1  0.143800  0.312310  0.417000  1.0  0.2922
  C  C28  1  0.702300  0.301120  0.150700  1.0  0.1513
  C  C29  1  0.513100  0.336090  0.239900  1.0  -0.1707
  C  C30  1  0.343700  0.281870  0.314300  1.0  0.0669
  C  C31  1  0.377300  0.192900  0.293500  1.0  -0.1567
  C  C32  1  0.572800  0.163780  0.203900  1.0  0.1435
  C  C33  1  0.143800  0.687690  0.417000  1.0  0.2922
  C  C34  1  0.702300  0.698880  0.150700  1.0  0.1512
  C  C35  1  0.513100  0.663910  0.239900  1.0  -0.1709
  C  C36  1  0.343700  0.718130  0.314300  1.0  0.0672
  C  C37  1  0.377300  0.807100  0.293500  1.0  -0.1584
  C  C38  1  0.572800  0.836220  0.203900  1.0  0.1439
  C  C39  1  0.856200  0.687690  0.583000  1.0  0.2908
  C  C40  1  0.297700  0.698880  0.849300  1.0  0.1522
  C  C41  1  0.486900  0.663910  0.760100  1.0  -0.1709
  C  C42  1  0.656300  0.718130  0.685700  1.0  0.0675
  C  C43  1  0.622700  0.807100  0.706500  1.0  -0.1581
  C  C44  1  0.427200  0.836220  0.796100  1.0  0.1438
  C  C45  1  0.026600  0.500000  0.068200  1.0  0.0743
  C  C46  1  0.000000  0.962400  0.000000  1.0  0.0583
  N  N47  1  0.907400  0.396480  0.555600  1.0  -0.3021
  N  N48  1  0.262700  0.216070  0.868500  1.0  -0.3688
  N  N49  1  0.092600  0.396480  0.444400  1.0  -0.3014
  N  N50  1  0.737300  0.216070  0.131500  1.0  -0.3662
  N  N51  1  0.092600  0.603520  0.444400  1.0  -0.2979
  N  N52  1  0.737300  0.783930  0.131500  1.0  -0.3666
  N  N53  1  0.907400  0.603520  0.555600  1.0  -0.3001
  N  N54  1  0.262700  0.783930  0.868500  1.0  -0.3687
  N  N55  1  0.973400  0.500000  0.931800  1.0  -0.3722
  N  N56  1  0.000000  0.037600  0.000000  1.0  -0.3052
  N  N57  1  0.000000  0.258230  0.500000  1.0  -0.5144
  N  N58  1  0.000000  0.741770  0.500000  1.0  -0.5132
