# generated using pymatgen
data_CuH6C6(N2O)4
_symmetry_space_group_name_H-M   'P 1'
_cell_length_a   24.07400000
_cell_length_b   24.07400000
_cell_length_c   5.10210000
_cell_angle_alpha   90.00000000
_cell_angle_beta   90.00000000
_cell_angle_gamma   90.00000000
_symmetry_Int_Tables_number   1
_chemical_formula_structural   CuH6C6(N2O)4
_chemical_formula_sum   'Cu8 H48 C48 N64 O32'
_cell_volume   2956.96019830
_cell_formula_units_Z   8
loop_
 _symmetry_equiv_pos_site_id
 _symmetry_equiv_pos_as_xyz
  1  'x, y, z'
loop_
 _atom_site_type_symbol
 _atom_site_label
 _atom_site_symmetry_multiplicity
 _atom_site_fract_x
 _atom_site_fract_y
 _atom_site_fract_z
 _atom_site_occupancy
 _atom_site_charge
  Cu  Cu1  1  0.500000  0.000000  0.000000  1.0  0.6624
  Cu  Cu2  1  0.000000  0.500000  0.500000  1.0  0.6624
  Cu  Cu3  1  0.000000  0.000000  0.500000  1.0  0.6624
  Cu  Cu4  1  0.500000  0.500000  0.000000  1.0  0.6624
  Cu  Cu5  1  0.750000  0.750000  0.250000  1.0  0.6624
  Cu  Cu6  1  0.750000  0.250000  0.750000  1.0  0.6624
  Cu  Cu7  1  0.250000  0.250000  0.750000  1.0  0.6624
  Cu  Cu8  1  0.250000  0.750000  0.250000  1.0  0.6624
  H  H9  1  0.559100  0.835900  0.681700  1.0  0.1592
  H  H10  1  0.591600  0.879800  0.514400  1.0  0.1579
  H  H11  1  0.624600  0.789800  0.085400  1.0  0.1369
  H  H12  1  0.059100  0.335900  0.181700  1.0  0.1592
  H  H13  1  0.091600  0.379800  0.014400  1.0  0.1579
  H  H14  1  0.124600  0.289800  0.585400  1.0  0.1369
  H  H15  1  0.940900  0.164100  0.181700  1.0  0.1586
  H  H16  1  0.908400  0.120200  0.014400  1.0  0.1582
  H  H17  1  0.875400  0.210200  0.585400  1.0  0.1362
  H  H18  1  0.440900  0.664100  0.681700  1.0  0.1586
  H  H19  1  0.408400  0.620200  0.514400  1.0  0.1582
  H  H20  1  0.375400  0.710200  0.085400  1.0  0.1362
  H  H21  1  0.914100  0.809100  0.931700  1.0  0.1584
  H  H22  1  0.870200  0.841600  0.764400  1.0  0.1576
  H  H23  1  0.960200  0.874600  0.335400  1.0  0.1365
  H  H24  1  0.414100  0.309100  0.431700  1.0  0.1584
  H  H25  1  0.370200  0.341600  0.264400  1.0  0.1576
  H  H26  1  0.460200  0.374600  0.835400  1.0  0.1365
  H  H27  1  0.585900  0.190900  0.431700  1.0  0.1588
  H  H28  1  0.629800  0.158400  0.264400  1.0  0.1577
  H  H29  1  0.539800  0.125400  0.835400  1.0  0.1358
  H  H30  1  0.085900  0.690900  0.931700  1.0  0.1588
  H  H31  1  0.129800  0.658400  0.764400  1.0  0.1577
  H  H32  1  0.039800  0.625400  0.335400  1.0  0.1358
  H  H33  1  0.440900  0.164100  0.318300  1.0  0.1584
  H  H34  1  0.408400  0.120200  0.485600  1.0  0.158
  H  H35  1  0.375400  0.210200  0.914600  1.0  0.1365
  H  H36  1  0.940900  0.664100  0.818300  1.0  0.1584
  H  H37  1  0.908400  0.620200  0.985600  1.0  0.158
  H  H38  1  0.875400  0.710200  0.414600  1.0  0.1365
  H  H39  1  0.059100  0.835900  0.818300  1.0  0.1593
  H  H40  1  0.091600  0.879800  0.985600  1.0  0.1577
  H  H41  1  0.124600  0.789800  0.414600  1.0  0.137
  H  H42  1  0.559100  0.335900  0.318300  1.0  0.1593
  H  H43  1  0.591600  0.379800  0.485600  1.0  0.1577
  H  H44  1  0.624600  0.289800  0.914600  1.0  0.137
  H  H45  1  0.085900  0.190900  0.068300  1.0  0.1587
  H  H46  1  0.129800  0.158400  0.235600  1.0  0.1578
  H  H47  1  0.039800  0.125400  0.664600  1.0  0.1361
  H  H48  1  0.585900  0.690900  0.568300  1.0  0.1587
  H  H49  1  0.629800  0.658400  0.735600  1.0  0.1578
  H  H50  1  0.539800  0.625400  0.164600  1.0  0.1361
  H  H51  1  0.414100  0.809100  0.568300  1.0  0.1583
  H  H52  1  0.370200  0.841600  0.735600  1.0  0.1574
  H  H53  1  0.460200  0.874600  0.164600  1.0  0.1367
  H  H54  1  0.914100  0.309100  0.068300  1.0  0.1583
  H  H55  1  0.870200  0.341600  0.235600  1.0  0.1574
  H  H56  1  0.960200  0.374600  0.664600  1.0  0.1367
  C  C57  1  0.567370  0.911590  0.877600  1.0  0.6823
  C  C58  1  0.587200  0.864710  0.689400  1.0  -0.1805
  C  C59  1  0.651230  0.805520  0.976000  1.0  0.1613
  C  C60  1  0.067370  0.411590  0.377600  1.0  0.6823
  C  C61  1  0.087200  0.364710  0.189400  1.0  -0.1805
  C  C62  1  0.151230  0.305520  0.476000  1.0  0.1613
  C  C63  1  0.932630  0.088410  0.377600  1.0  0.6824
  C  C64  1  0.912800  0.135290  0.189400  1.0  -0.1788
  C  C65  1  0.848770  0.194480  0.476000  1.0  0.1612
  C  C66  1  0.432630  0.588410  0.877600  1.0  0.6824
  C  C67  1  0.412800  0.635290  0.689400  1.0  -0.1788
  C  C68  1  0.348770  0.694480  0.976000  1.0  0.1612
  C  C69  1  0.838410  0.817370  0.127600  1.0  0.6789
  C  C70  1  0.885290  0.837200  0.939400  1.0  -0.1779
  C  C71  1  0.944480  0.901230  0.226000  1.0  0.1608
  C  C72  1  0.338410  0.317370  0.627600  1.0  0.6789
  C  C73  1  0.385290  0.337200  0.439400  1.0  -0.1779
  C  C74  1  0.444480  0.401230  0.726000  1.0  0.1608
  C  C75  1  0.661590  0.182630  0.627600  1.0  0.6818
  C  C76  1  0.614710  0.162800  0.439400  1.0  -0.1777
  C  C77  1  0.555520  0.098770  0.726000  1.0  0.1597
  C  C78  1  0.161590  0.682630  0.127600  1.0  0.6818
  C  C79  1  0.114710  0.662800  0.939400  1.0  -0.1777
  C  C80  1  0.055520  0.598770  0.226000  1.0  0.1597
  C  C81  1  0.432630  0.088410  0.122400  1.0  0.6829
  C  C82  1  0.412800  0.135290  0.310600  1.0  -0.1751
  C  C83  1  0.348770  0.194480  0.024000  1.0  0.1605
  C  C84  1  0.932630  0.588410  0.622400  1.0  0.6829
  C  C85  1  0.912800  0.635290  0.810600  1.0  -0.1751
  C  C86  1  0.848770  0.694480  0.524000  1.0  0.1605
  C  C87  1  0.067370  0.911590  0.622400  1.0  0.6825
  C  C88  1  0.087200  0.864710  0.810600  1.0  -0.1771
  C  C89  1  0.151230  0.805520  0.524000  1.0  0.1606
  C  C90  1  0.567370  0.411590  0.122400  1.0  0.6825
  C  C91  1  0.587200  0.364710  0.310600  1.0  -0.1771
  C  C92  1  0.651230  0.305520  0.024000  1.0  0.1606
  C  C93  1  0.161590  0.182630  0.872400  1.0  0.682
  C  C94  1  0.114710  0.162800  0.060600  1.0  -0.1735
  C  C95  1  0.055520  0.098770  0.774000  1.0  0.1593
  C  C96  1  0.661590  0.682630  0.372400  1.0  0.682
  C  C97  1  0.614710  0.662800  0.560600  1.0  -0.1735
  C  C98  1  0.555520  0.598770  0.274000  1.0  0.1593
  C  C99  1  0.338410  0.817370  0.372400  1.0  0.6796
  C  C100  1  0.385290  0.837200  0.560600  1.0  -0.1743
  C  C101  1  0.444480  0.901230  0.274000  1.0  0.1599
  C  C102  1  0.838410  0.317370  0.872400  1.0  0.6796
  C  C103  1  0.885290  0.337200  0.060600  1.0  -0.1743
  C  C104  1  0.944480  0.401230  0.774000  1.0  0.1599
  N  N105  1  0.640820  0.839770  0.776200  1.0  0.191
  N  N106  1  0.690110  0.854360  0.665600  1.0  -0.1805
  N  N107  1  0.729080  0.828830  0.794000  1.0  -0.1197
  N  N108  1  0.706370  0.797480  0.993500  1.0  -0.2654
  N  N109  1  0.140820  0.339770  0.276200  1.0  0.191
  N  N110  1  0.190110  0.354360  0.165600  1.0  -0.1805
  N  N111  1  0.229080  0.328830  0.294000  1.0  -0.1197
  N  N112  1  0.206370  0.297480  0.493500  1.0  -0.2654
  N  N113  1  0.859180  0.160230  0.276200  1.0  0.1921
  N  N114  1  0.809890  0.145640  0.165600  1.0  -0.1781
  N  N115  1  0.770920  0.171170  0.294000  1.0  -0.1136
  N  N116  1  0.793630  0.202520  0.493500  1.0  -0.2661
  N  N117  1  0.359180  0.660230  0.776200  1.0  0.1921
  N  N118  1  0.309890  0.645640  0.665600  1.0  -0.1781
  N  N119  1  0.270920  0.671170  0.794000  1.0  -0.1136
  N  N120  1  0.293630  0.702520  0.993500  1.0  -0.2661
  N  N121  1  0.910230  0.890820  0.026200  1.0  0.1918
  N  N122  1  0.895640  0.940110  0.915600  1.0  -0.1789
  N  N123  1  0.921170  0.979080  0.044000  1.0  -0.1169
  N  N124  1  0.952520  0.956370  0.243500  1.0  -0.266
  N  N125  1  0.410230  0.390820  0.526200  1.0  0.1918
  N  N126  1  0.395640  0.440110  0.415600  1.0  -0.1789
  N  N127  1  0.421170  0.479080  0.544000  1.0  -0.1169
  N  N128  1  0.452520  0.456370  0.743500  1.0  -0.266
  N  N129  1  0.589770  0.109180  0.526200  1.0  0.1937
  N  N130  1  0.604360  0.059890  0.415600  1.0  -0.1792
  N  N131  1  0.578830  0.020920  0.544000  1.0  -0.1189
  N  N132  1  0.547480  0.043630  0.743500  1.0  -0.2652
  N  N133  1  0.089770  0.609180  0.026200  1.0  0.1937
  N  N134  1  0.104360  0.559890  0.915600  1.0  -0.1792
  N  N135  1  0.078830  0.520920  0.044000  1.0  -0.1189
  N  N136  1  0.047480  0.543630  0.243500  1.0  -0.2652
  N  N137  1  0.359180  0.160230  0.223800  1.0  0.1928
  N  N138  1  0.309890  0.145640  0.334400  1.0  -0.1793
  N  N139  1  0.270920  0.171170  0.206000  1.0  -0.1137
  N  N140  1  0.293630  0.202520  0.006500  1.0  -0.2654
  N  N141  1  0.859180  0.660230  0.723800  1.0  0.1928
  N  N142  1  0.809890  0.645640  0.834400  1.0  -0.1793
  N  N143  1  0.770920  0.671170  0.706000  1.0  -0.1137
  N  N144  1  0.793630  0.702520  0.506500  1.0  -0.2654
  N  N145  1  0.140820  0.839770  0.723800  1.0  0.1917
  N  N146  1  0.190110  0.854360  0.834400  1.0  -0.1802
  N  N147  1  0.229080  0.828830  0.706000  1.0  -0.12
  N  N148  1  0.206370  0.797480  0.506500  1.0  -0.265
  N  N149  1  0.640820  0.339770  0.223800  1.0  0.1917
  N  N150  1  0.690110  0.354360  0.334400  1.0  -0.1802
  N  N151  1  0.729080  0.328830  0.206000  1.0  -0.12
  N  N152  1  0.706370  0.297480  0.006500  1.0  -0.265
  N  N153  1  0.089770  0.109180  0.973800  1.0  0.1944
  N  N154  1  0.104360  0.059890  0.084400  1.0  -0.1797
  N  N155  1  0.078830  0.020920  0.956000  1.0  -0.1186
  N  N156  1  0.047480  0.043630  0.756500  1.0  -0.2651
  N  N157  1  0.589770  0.609180  0.473800  1.0  0.1944
  N  N158  1  0.604360  0.559890  0.584400  1.0  -0.1797
  N  N159  1  0.578830  0.520920  0.456000  1.0  -0.1186
  N  N160  1  0.547480  0.543630  0.256500  1.0  -0.2651
  N  N161  1  0.410230  0.890820  0.473800  1.0  0.1925
  N  N162  1  0.395640  0.940110  0.584400  1.0  -0.1799
  N  N163  1  0.421170  0.979080  0.456000  1.0  -0.1179
  N  N164  1  0.452520  0.956370  0.256500  1.0  -0.2656
  N  N165  1  0.910230  0.390820  0.973800  1.0  0.1925
  N  N166  1  0.895640  0.440110  0.084400  1.0  -0.1799
  N  N167  1  0.921170  0.479080  0.956000  1.0  -0.1179
  N  N168  1  0.952520  0.456370  0.756500  1.0  -0.2656
  O  O169  1  0.518840  0.930150  0.818700  1.0  -0.5532
  O  O170  1  0.597180  0.927960  0.057100  1.0  -0.5328
  O  O171  1  0.018840  0.430150  0.318700  1.0  -0.5532
  O  O172  1  0.097180  0.427960  0.557100  1.0  -0.5328
  O  O173  1  0.981160  0.069850  0.318700  1.0  -0.553
  O  O174  1  0.902820  0.072040  0.557100  1.0  -0.5274
  O  O175  1  0.481160  0.569850  0.818700  1.0  -0.553
  O  O176  1  0.402820  0.572040  0.057100  1.0  -0.5274
  O  O177  1  0.819850  0.768840  0.068700  1.0  -0.5526
  O  O178  1  0.822040  0.847180  0.307100  1.0  -0.5249
  O  O179  1  0.319850  0.268840  0.568700  1.0  -0.5526
  O  O180  1  0.322040  0.347180  0.807100  1.0  -0.5249
  O  O181  1  0.680150  0.231160  0.568700  1.0  -0.5533
  O  O182  1  0.677960  0.152820  0.807100  1.0  -0.5207
  O  O183  1  0.180150  0.731160  0.068700  1.0  -0.5533
  O  O184  1  0.177960  0.652820  0.307100  1.0  -0.5207
  O  O185  1  0.481160  0.069850  0.181300  1.0  -0.5533
  O  O186  1  0.402820  0.072040  0.942900  1.0  -0.5296
  O  O187  1  0.981160  0.569850  0.681300  1.0  -0.5533
  O  O188  1  0.902820  0.572040  0.442900  1.0  -0.5296
  O  O189  1  0.018840  0.930150  0.681300  1.0  -0.5534
  O  O190  1  0.097180  0.927960  0.442900  1.0  -0.5285
  O  O191  1  0.518840  0.430150  0.181300  1.0  -0.5534
  O  O192  1  0.597180  0.427960  0.942900  1.0  -0.5285
  O  O193  1  0.180150  0.231160  0.931300  1.0  -0.5538
  O  O194  1  0.177960  0.152820  0.692900  1.0  -0.5215
  O  O195  1  0.680150  0.731160  0.431300  1.0  -0.5538
  O  O196  1  0.677960  0.652820  0.192900  1.0  -0.5215
  O  O197  1  0.319850  0.768840  0.431300  1.0  -0.5527
  O  O198  1  0.322040  0.847180  0.192900  1.0  -0.5246
  O  O199  1  0.819850  0.268840  0.931300  1.0  -0.5527
  O  O200  1  0.822040  0.347180  0.692900  1.0  -0.5246
