# generated using pymatgen
data_ErC3SeO10
_symmetry_space_group_name_H-M   'P 1'
_cell_length_a   8.75400000
_cell_length_b   15.87300000
_cell_length_c   9.46600000
_cell_angle_alpha   90.00000000
_cell_angle_beta   99.88700000
_cell_angle_gamma   90.00000000
_symmetry_Int_Tables_number   1
_chemical_formula_structural   ErC3SeO10
_chemical_formula_sum   'Er4 C12 Se4 O40'
_cell_volume   1295.78716968
_cell_formula_units_Z   4
loop_
 _symmetry_equiv_pos_site_id
 _symmetry_equiv_pos_as_xyz
  1  'x, y, z'
loop_
 _atom_site_type_symbol
 _atom_site_label
 _atom_site_symmetry_multiplicity
 _atom_site_fract_x
 _atom_site_fract_y
 _atom_site_fract_z
 _atom_site_occupancy
 _atom_site_charge
  Er  Er1  1  0.028320  0.195290  0.524510  1.0  1.4329
  Er  Er2  1  0.471680  0.695290  0.975490  1.0  1.4312
  Er  Er3  1  0.971680  0.804710  0.475490  1.0  1.4325
  Er  Er4  1  0.528320  0.304710  0.024510  1.0  1.432
  C  C5  1  0.769000  0.203700  0.249000  1.0  0.6426
  C  C6  1  0.792500  0.296000  0.298000  1.0  0.6551
  C  C7  1  0.067500  0.999200  0.458500  1.0  0.6556
  C  C8  1  0.731000  0.703700  0.251000  1.0  0.6442
  C  C9  1  0.707500  0.796000  0.202000  1.0  0.6552
  C  C10  1  0.432500  0.499200  0.041500  1.0  0.6541
  C  C11  1  0.231000  0.796300  0.751000  1.0  0.6434
  C  C12  1  0.207500  0.704000  0.702000  1.0  0.6545
  C  C13  1  0.932500  0.000800  0.541500  1.0  0.6541
  C  C14  1  0.269000  0.296300  0.749000  1.0  0.6426
  C  C15  1  0.292500  0.204000  0.798000  1.0  0.6545
  C  C16  1  0.567500  0.500800  0.958500  1.0  0.6556
  Se  Se17  1  0.722030  0.278720  0.708710  1.0  1.2025
  Se  Se18  1  0.777970  0.778720  0.791290  1.0  1.202
  Se  Se19  1  0.277970  0.721280  0.291290  1.0  1.2019
  Se  Se20  1  0.222030  0.221280  0.208710  1.0  1.2024
  O  O21  1  0.741300  0.377960  0.674100  1.0  -0.4133
  O  O22  1  0.882600  0.227300  0.697400  1.0  -0.5993
  O  O23  1  0.696900  0.266200  0.874800  1.0  -0.6192
  O  O24  1  0.576000  0.241400  0.597800  1.0  -0.4899
  O  O25  1  0.852200  0.150030  0.325500  1.0  -0.402
  O  O26  1  0.669500  0.189040  0.140400  1.0  -0.3978
  O  O27  1  0.710300  0.350130  0.220900  1.0  -0.4164
  O  O28  1  0.888500  0.310240  0.408200  1.0  -0.4009
  O  O29  1  0.139500  0.067480  0.454300  1.0  -0.414
  O  O30  1  0.095900  0.930630  0.403200  1.0  -0.4363
  O  O31  1  0.758700  0.877960  0.825900  1.0  -0.4125
  O  O32  1  0.617400  0.727300  0.802600  1.0  -0.5996
  O  O33  1  0.803100  0.766200  0.625200  1.0  -0.6179
  O  O34  1  0.924000  0.741400  0.902200  1.0  -0.4908
  O  O35  1  0.647800  0.650030  0.174500  1.0  -0.4011
  O  O36  1  0.830500  0.689040  0.359600  1.0  -0.3976
  O  O37  1  0.789700  0.850130  0.279100  1.0  -0.4167
  O  O38  1  0.611500  0.810240  0.091800  1.0  -0.4008
  O  O39  1  0.360500  0.567480  0.045700  1.0  -0.4136
  O  O40  1  0.404100  0.430630  0.096800  1.0  -0.4361
  O  O41  1  0.258700  0.622040  0.325900  1.0  -0.4134
  O  O42  1  0.117400  0.772700  0.302600  1.0  -0.5993
  O  O43  1  0.303100  0.733800  0.125200  1.0  -0.6162
  O  O44  1  0.424000  0.758600  0.402200  1.0  -0.4904
  O  O45  1  0.147800  0.849970  0.674500  1.0  -0.3997
  O  O46  1  0.330500  0.810960  0.859600  1.0  -0.3978
  O  O47  1  0.289700  0.649870  0.779100  1.0  -0.4195
  O  O48  1  0.111500  0.689760  0.591800  1.0  -0.4016
  O  O49  1  0.860500  0.932520  0.545700  1.0  -0.4118
  O  O50  1  0.904100  0.069370  0.596800  1.0  -0.4365
  O  O51  1  0.241300  0.122040  0.174100  1.0  -0.4143
  O  O52  1  0.382600  0.272700  0.197400  1.0  -0.5989
  O  O53  1  0.196900  0.233800  0.374800  1.0  -0.6174
  O  O54  1  0.076000  0.258600  0.097800  1.0  -0.4895
  O  O55  1  0.352200  0.349970  0.825500  1.0  -0.4007
  O  O56  1  0.169500  0.310960  0.640400  1.0  -0.3971
  O  O57  1  0.210300  0.149870  0.720900  1.0  -0.42
  O  O58  1  0.388500  0.189760  0.908200  1.0  -0.4013
  O  O59  1  0.639500  0.432520  0.954300  1.0  -0.4106
  O  O60  1  0.595900  0.569370  0.903200  1.0  -0.4372
