# generated using pymatgen
data_Nd2C3(SO7)2
_symmetry_space_group_name_H-M   'P 1'
_cell_length_a   7.06490000
_cell_length_b   11.27710000
_cell_length_c   11.83180000
_cell_angle_alpha   67.37000000
_cell_angle_beta   80.03500000
_cell_angle_gamma   82.82100000
_symmetry_Int_Tables_number   1
_chemical_formula_structural   Nd2C3(SO7)2
_chemical_formula_sum   'Nd4 C6 S4 O28'
_cell_volume   855.18638493
_cell_formula_units_Z   2
loop_
 _symmetry_equiv_pos_site_id
 _symmetry_equiv_pos_as_xyz
  1  'x, y, z'
loop_
 _atom_site_type_symbol
 _atom_site_label
 _atom_site_symmetry_multiplicity
 _atom_site_fract_x
 _atom_site_fract_y
 _atom_site_fract_z
 _atom_site_occupancy
 _atom_site_charge
  Nd  Nd1  1  0.222420  0.546930  0.574010  1.0  2.2541
  Nd  Nd2  1  0.286860  0.010110  0.752140  1.0  2.2168
  Nd  Nd3  1  0.777580  0.453070  0.425990  1.0  2.2533
  Nd  Nd4  1  0.713140  0.989890  0.247860  1.0  2.2167
  C  C5  1  0.213200  0.823200  0.603700  1.0  0.5654
  C  C6  1  0.255400  0.726500  0.731800  1.0  0.5768
  C  C7  1  0.980400  0.931000  0.013500  1.0  0.5853
  C  C8  1  0.786800  0.176800  0.396300  1.0  0.5652
  C  C9  1  0.744600  0.273500  0.268200  1.0  0.5807
  C  C10  1  0.019600  0.069000  0.986500  1.0  0.5848
  S  S11  1  0.289320  0.321410  0.461490  1.0  1.6703
  S  S12  1  0.444320  0.716150  0.252580  1.0  1.6567
  S  S13  1  0.710680  0.678590  0.538510  1.0  1.6669
  S  S14  1  0.555680  0.283850  0.747420  1.0  1.6556
  O  O15  1  0.440900  0.397900  0.469400  1.0  -0.9071
  O  O16  1  0.106500  0.393900  0.489600  1.0  -0.9094
  O  O17  1  0.299000  0.192900  0.556800  1.0  -0.7194
  O  O18  1  0.305800  0.316700  0.340400  1.0  -0.6148
  O  O19  1  0.286000  0.659900  0.351200  1.0  -0.7831
  O  O20  1  0.471600  0.845400  0.244900  1.0  -0.7207
  O  O21  1  0.622600  0.634800  0.275700  1.0  -0.704
  O  O22  1  0.390900  0.721900  0.136000  1.0  -0.62
  O  O23  1  0.169800  0.778200  0.530900  1.0  -0.5893
  O  O24  1  0.237900  0.609600  0.750500  1.0  -0.5933
  O  O25  1  0.228600  0.939200  0.583200  1.0  -0.5905
  O  O26  1  0.300700  0.769500  0.804200  1.0  -0.577
  O  O27  1  0.064900  0.885600  0.935400  1.0  -0.6099
  O  O28  1  0.874800  0.871100  0.111600  1.0  -0.5837
  O  O29  1  0.559100  0.602100  0.530600  1.0  -0.9052
  O  O30  1  0.893500  0.606100  0.510400  1.0  -0.9115
  O  O31  1  0.701000  0.807100  0.443200  1.0  -0.7199
  O  O32  1  0.694200  0.683300  0.659600  1.0  -0.6178
  O  O33  1  0.714000  0.340100  0.648800  1.0  -0.7834
  O  O34  1  0.528400  0.154600  0.755100  1.0  -0.7193
  O  O35  1  0.377400  0.365200  0.724300  1.0  -0.7024
  O  O36  1  0.609100  0.278100  0.864000  1.0  -0.6209
  O  O37  1  0.830200  0.221800  0.469100  1.0  -0.5891
  O  O38  1  0.762100  0.390400  0.249500  1.0  -0.5903
  O  O39  1  0.771400  0.060800  0.416800  1.0  -0.5911
  O  O40  1  0.699300  0.230500  0.195800  1.0  -0.5788
  O  O41  1  0.935100  0.114400  0.064600  1.0  -0.6113
  O  O42  1  0.125200  0.128900  0.888400  1.0  -0.5852
