# generated using pymatgen
data_YC3SeO10
_symmetry_space_group_name_H-M   'P 1'
_cell_length_a   8.77490000
_cell_length_b   15.88030000
_cell_length_c   9.50770000
_cell_angle_alpha   90.00000000
_cell_angle_beta   99.85500000
_cell_angle_gamma   90.00000000
_symmetry_Int_Tables_number   1
_chemical_formula_structural   YC3SeO10
_chemical_formula_sum   'Y4 C12 Se4 O40'
_cell_volume   1305.32955496
_cell_formula_units_Z   4
loop_
 _symmetry_equiv_pos_site_id
 _symmetry_equiv_pos_as_xyz
  1  'x, y, z'
loop_
 _atom_site_type_symbol
 _atom_site_label
 _atom_site_symmetry_multiplicity
 _atom_site_fract_x
 _atom_site_fract_y
 _atom_site_fract_z
 _atom_site_occupancy
 _atom_site_charge
  Y  Y1  1  0.028770  0.195560  0.525190  1.0  2.0684
  Y  Y2  1  0.471230  0.695560  0.974810  1.0  2.0651
  Y  Y3  1  0.971230  0.804440  0.474810  1.0  2.0684
  Y  Y4  1  0.528770  0.304440  0.025190  1.0  2.0652
  C  C5  1  0.769600  0.203500  0.250000  1.0  0.6033
  C  C6  1  0.792400  0.295700  0.298500  1.0  0.6138
  C  C7  1  0.068200  0.998800  0.458900  1.0  0.6067
  C  C8  1  0.730400  0.703500  0.250000  1.0  0.6049
  C  C9  1  0.707600  0.795700  0.201500  1.0  0.6137
  C  C10  1  0.431800  0.498800  0.041100  1.0  0.605
  C  C11  1  0.230400  0.796500  0.750000  1.0  0.6037
  C  C12  1  0.207600  0.704300  0.701500  1.0  0.6125
  C  C13  1  0.931800  0.001200  0.541100  1.0  0.605
  C  C14  1  0.269600  0.296500  0.750000  1.0  0.6029
  C  C15  1  0.292400  0.204300  0.798500  1.0  0.6125
  C  C16  1  0.568200  0.501200  0.958900  1.0  0.6067
  Se  Se17  1  0.721860  0.278790  0.709010  1.0  1.1177
  Se  Se18  1  0.778140  0.778790  0.790990  1.0  1.1173
  Se  Se19  1  0.278140  0.721210  0.290990  1.0  1.117
  Se  Se20  1  0.221860  0.221210  0.209010  1.0  1.1175
  O  O21  1  0.740100  0.377900  0.673500  1.0  -0.4484
  O  O22  1  0.882100  0.228260  0.696600  1.0  -0.6657
  O  O23  1  0.696900  0.266400  0.875300  1.0  -0.6531
  O  O24  1  0.575600  0.240900  0.598200  1.0  -0.5226
  O  O25  1  0.853300  0.150410  0.326000  1.0  -0.4483
  O  O26  1  0.670800  0.189210  0.141700  1.0  -0.4399
  O  O27  1  0.710500  0.349690  0.221800  1.0  -0.4561
  O  O28  1  0.887600  0.310450  0.408200  1.0  -0.4369
  O  O29  1  0.140100  0.067160  0.455500  1.0  -0.4598
  O  O30  1  0.095700  0.930970  0.402600  1.0  -0.4783
  O  O31  1  0.759900  0.877900  0.826500  1.0  -0.4478
  O  O32  1  0.617900  0.728260  0.803400  1.0  -0.6663
  O  O33  1  0.803100  0.766400  0.624700  1.0  -0.6519
  O  O34  1  0.924400  0.740900  0.901800  1.0  -0.5234
  O  O35  1  0.646700  0.650410  0.174000  1.0  -0.4474
  O  O36  1  0.829200  0.689210  0.358300  1.0  -0.4394
  O  O37  1  0.789500  0.849690  0.278200  1.0  -0.457
  O  O38  1  0.612400  0.810450  0.091800  1.0  -0.4372
  O  O39  1  0.359900  0.567160  0.044500  1.0  -0.4587
  O  O40  1  0.404300  0.430970  0.097400  1.0  -0.4784
  O  O41  1  0.259900  0.622100  0.326500  1.0  -0.4487
  O  O42  1  0.117900  0.771740  0.303400  1.0  -0.6658
  O  O43  1  0.303100  0.733600  0.124700  1.0  -0.65
  O  O44  1  0.424400  0.759100  0.401800  1.0  -0.5233
  O  O45  1  0.146700  0.849590  0.674000  1.0  -0.4456
  O  O46  1  0.329200  0.810790  0.858300  1.0  -0.44
  O  O47  1  0.289500  0.650310  0.778200  1.0  -0.4581
  O  O48  1  0.112400  0.689550  0.591800  1.0  -0.4377
  O  O49  1  0.859900  0.932840  0.544500  1.0  -0.458
  O  O50  1  0.904300  0.069030  0.597400  1.0  -0.4786
  O  O51  1  0.240100  0.122100  0.173500  1.0  -0.4492
  O  O52  1  0.382100  0.271740  0.196600  1.0  -0.6649
  O  O53  1  0.196900  0.233600  0.375300  1.0  -0.6511
  O  O54  1  0.075600  0.259100  0.098200  1.0  -0.5226
  O  O55  1  0.353300  0.349590  0.826000  1.0  -0.4465
  O  O56  1  0.170800  0.310790  0.641700  1.0  -0.439
  O  O57  1  0.210500  0.150310  0.721800  1.0  -0.4579
  O  O58  1  0.387600  0.189550  0.908200  1.0  -0.4371
  O  O59  1  0.640100  0.432840  0.955500  1.0  -0.4582
  O  O60  1  0.595700  0.569030  0.902600  1.0  -0.4786
