# generated using pymatgen
data_AgH6(C2N)4
_symmetry_space_group_name_H-M   'P 1'
_cell_length_a   10.81610000
_cell_length_b   10.81610000
_cell_length_c   9.74820000
_cell_angle_alpha   90.00000000
_cell_angle_beta   90.00000000
_cell_angle_gamma   120.00000000
_symmetry_Int_Tables_number   1
_chemical_formula_structural   AgH6(C2N)4
_chemical_formula_sum   'Ag3 H18 C24 N12'
_cell_volume   987.63495033
_cell_formula_units_Z   3
loop_
 _symmetry_equiv_pos_site_id
 _symmetry_equiv_pos_as_xyz
  1  'x, y, z'
loop_
 _atom_site_type_symbol
 _atom_site_label
 _atom_site_symmetry_multiplicity
 _atom_site_fract_x
 _atom_site_fract_y
 _atom_site_fract_z
 _atom_site_occupancy
 _atom_site_charge
  Ag  Ag1  1  0.515020  0.515020  0.000000  1.0  0.3021
  Ag  Ag2  1  0.484980  0.000000  0.333333  1.0  0.3048
  Ag  Ag3  1  0.000000  0.484980  0.666667  1.0  0.3018
  H  H4  1  0.643000  0.537900  0.308600  1.0  0.0345
  H  H5  1  0.602100  0.827800  0.519400  1.0  0.0306
  H  H6  1  0.499400  0.762700  0.134600  1.0  -0.0161
  H  H7  1  0.462100  0.105100  0.641930  1.0  0.0354
  H  H8  1  0.172200  0.774300  0.852730  1.0  0.0302
  H  H9  1  0.237300  0.736700  0.467930  1.0  -0.016
  H  H10  1  0.894900  0.357000  0.975270  1.0  0.0349
  H  H11  1  0.225700  0.397900  0.186070  1.0  0.0307
  H  H12  1  0.263300  0.500600  0.801270  1.0  -0.0157
  H  H13  1  0.537900  0.643000  0.691400  1.0  0.034
  H  H14  1  0.827800  0.602100  0.480600  1.0  0.0305
  H  H15  1  0.762700  0.499400  0.865400  1.0  -0.0166
  H  H16  1  0.105100  0.462100  0.358070  1.0  0.0335
  H  H17  1  0.774300  0.172200  0.147270  1.0  0.0305
  H  H18  1  0.736700  0.237300  0.532070  1.0  -0.0164
  H  H19  1  0.357000  0.894900  0.024730  1.0  0.0352
  H  H20  1  0.397900  0.225700  0.813930  1.0  0.0301
  H  H21  1  0.500600  0.263300  0.198730  1.0  -0.0173
  C  C22  1  0.616800  0.607700  0.313800  1.0  0.1068
  C  C23  1  0.630100  0.674800  0.436900  1.0  0.0222
  C  C24  1  0.592500  0.778700  0.438100  1.0  0.0918
  C  C25  1  0.533200  0.739900  0.212800  1.0  0.3622
  C  C26  1  0.392300  0.009100  0.647130  1.0  0.1076
  C  C27  1  0.325200  0.955300  0.770230  1.0  0.0207
  C  C28  1  0.221300  0.813800  0.771430  1.0  0.0943
  C  C29  1  0.260100  0.793300  0.546130  1.0  0.3622
  C  C30  1  0.990900  0.383200  0.980470  1.0  0.1098
  C  C31  1  0.044700  0.369900  0.103570  1.0  0.0225
  C  C32  1  0.186200  0.407500  0.104770  1.0  0.097
  C  C33  1  0.206700  0.466800  0.879470  1.0  0.3621
  C  C34  1  0.607700  0.616800  0.686200  1.0  0.1116
  C  C35  1  0.674800  0.630100  0.563100  1.0  0.0225
  C  C36  1  0.778700  0.592500  0.561900  1.0  0.0979
  C  C37  1  0.739900  0.533200  0.787200  1.0  0.3629
  C  C38  1  0.009100  0.392300  0.352870  1.0  0.1096
  C  C39  1  0.955300  0.325200  0.229770  1.0  0.0229
  C  C40  1  0.813800  0.221300  0.228570  1.0  0.0931
  C  C41  1  0.793300  0.260100  0.453870  1.0  0.3628
  C  C42  1  0.383200  0.990900  0.019530  1.0  0.1095
  C  C43  1  0.369900  0.044700  0.896430  1.0  0.0202
  C  C44  1  0.407500  0.186200  0.895230  1.0  0.0948
  C  C45  1  0.466800  0.206700  0.120530  1.0  0.3627
  N  N46  1  0.567200  0.639200  0.200300  1.0  -0.3897
  N  N47  1  0.542500  0.812100  0.326300  1.0  -0.3973
  N  N48  1  0.360800  0.928000  0.533630  1.0  -0.3891
  N  N49  1  0.187900  0.730400  0.659630  1.0  -0.4015
  N  N50  1  0.072000  0.432800  0.866970  1.0  -0.3885
  N  N51  1  0.269600  0.457500  0.992970  1.0  -0.4024
  N  N52  1  0.639200  0.567200  0.799700  1.0  -0.387
  N  N53  1  0.812100  0.542500  0.673700  1.0  -0.4026
  N  N54  1  0.928000  0.360800  0.466370  1.0  -0.3865
  N  N55  1  0.730400  0.187900  0.340370  1.0  -0.3971
  N  N56  1  0.432800  0.072000  0.133030  1.0  -0.3872
  N  N57  1  0.457500  0.269600  0.007030  1.0  -0.4016
