# generated using pymatgen
data_AgH6(C2N)4
_symmetry_space_group_name_H-M   'P 1'
_cell_length_a   17.23600000
_cell_length_b   9.18350000
_cell_length_c   15.47800000
_cell_angle_alpha   90.00000000
_cell_angle_beta   90.00000000
_cell_angle_gamma   90.00000000
_symmetry_Int_Tables_number   1
_chemical_formula_structural   AgH6(C2N)4
_chemical_formula_sum   'Ag8 H48 C64 N32'
_cell_volume   2449.96318327
_cell_formula_units_Z   8
loop_
 _symmetry_equiv_pos_site_id
 _symmetry_equiv_pos_as_xyz
  1  'x, y, z'
loop_
 _atom_site_type_symbol
 _atom_site_label
 _atom_site_symmetry_multiplicity
 _atom_site_fract_x
 _atom_site_fract_y
 _atom_site_fract_z
 _atom_site_occupancy
 _atom_site_charge
  Ag  Ag1  1  0.750000  0.250000  0.750080  1.0  0.3186
  Ag  Ag2  1  0.750000  0.750000  0.250080  1.0  0.3186
  Ag  Ag3  1  0.250000  0.750000  0.750080  1.0  0.3186
  Ag  Ag4  1  0.250000  0.250000  0.250080  1.0  0.3186
  Ag  Ag5  1  0.000000  0.000000  0.000080  1.0  0.3185
  Ag  Ag6  1  0.000000  0.500000  0.500080  1.0  0.3186
  Ag  Ag7  1  0.500000  0.500000  0.000080  1.0  0.3186
  Ag  Ag8  1  0.500000  0.000000  0.500080  1.0  0.3185
  H  H9  1  0.880700  0.083400  0.855100  1.0  -0.0187
  H  H10  1  0.882200  0.490600  0.789200  1.0  0.0169
  H  H11  1  0.059900  0.315500  0.914600  1.0  0.0357
  H  H12  1  0.880700  0.583400  0.355100  1.0  -0.0187
  H  H13  1  0.882200  0.990600  0.289200  1.0  0.0169
  H  H14  1  0.059900  0.815500  0.414600  1.0  0.0357
  H  H15  1  0.380700  0.083400  0.355100  1.0  -0.0187
  H  H16  1  0.382200  0.490600  0.289200  1.0  0.0169
  H  H17  1  0.559900  0.315500  0.414600  1.0  0.0357
  H  H18  1  0.380700  0.583400  0.855100  1.0  -0.0187
  H  H19  1  0.382200  0.990600  0.789200  1.0  0.0169
  H  H20  1  0.559900  0.815500  0.914600  1.0  0.0357
  H  H21  1  0.119300  0.916600  0.855100  1.0  -0.0186
  H  H22  1  0.117800  0.509400  0.789200  1.0  0.0164
  H  H23  1  0.940100  0.684500  0.914600  1.0  0.0347
  H  H24  1  0.119300  0.416600  0.355100  1.0  -0.0186
  H  H25  1  0.117800  0.009400  0.289200  1.0  0.0164
  H  H26  1  0.940100  0.184500  0.414600  1.0  0.0347
  H  H27  1  0.619300  0.916600  0.355100  1.0  -0.0186
  H  H28  1  0.617800  0.509400  0.289200  1.0  0.0164
  H  H29  1  0.440100  0.684500  0.414600  1.0  0.0347
  H  H30  1  0.619300  0.416600  0.855100  1.0  -0.0186
  H  H31  1  0.617800  0.009400  0.789200  1.0  0.0164
  H  H32  1  0.440100  0.184500  0.914600  1.0  0.0347
  H  H33  1  0.130700  0.166600  0.105100  1.0  -0.0193
  H  H34  1  0.132200  0.759400  0.039200  1.0  0.0161
  H  H35  1  0.309900  0.934500  0.164600  1.0  0.0356
  H  H36  1  0.130700  0.666667  0.605100  1.0  -0.0187
  H  H37  1  0.132200  0.259400  0.539200  1.0  0.0161
  H  H38  1  0.309900  0.434500  0.664600  1.0  0.0356
  H  H39  1  0.630700  0.166600  0.605100  1.0  -0.0193
  H  H40  1  0.632200  0.759400  0.539200  1.0  0.0161
  H  H41  1  0.809900  0.934500  0.664600  1.0  0.0356
  H  H42  1  0.630700  0.666667  0.105100  1.0  -0.0187
  H  H43  1  0.632200  0.259400  0.039200  1.0  0.0161
  H  H44  1  0.809900  0.434500  0.164600  1.0  0.0356
  H  H45  1  0.369300  0.333400  0.105100  1.0  -0.0184
  H  H46  1  0.367800  0.740600  0.039200  1.0  0.0168
  H  H47  1  0.190100  0.565500  0.164600  1.0  0.0346
  H  H48  1  0.369300  0.833400  0.605100  1.0  -0.0184
  H  H49  1  0.367800  0.240600  0.539200  1.0  0.0168
  H  H50  1  0.190100  0.065500  0.664600  1.0  0.0346
  H  H51  1  0.869300  0.333400  0.605100  1.0  -0.0184
  H  H52  1  0.867800  0.740600  0.539200  1.0  0.0168
  H  H53  1  0.690100  0.565500  0.664600  1.0  0.0346
  H  H54  1  0.869300  0.833400  0.105100  1.0  -0.0184
  H  H55  1  0.867800  0.240600  0.039200  1.0  0.0168
  H  H56  1  0.690100  0.065500  0.164600  1.0  0.0346
  C  C57  1  0.905700  0.173200  0.854500  1.0  0.351
  C  C58  1  0.906700  0.410600  0.814000  1.0  0.1089
  C  C59  1  0.979100  0.428900  0.847800  1.0  0.0234
  C  C60  1  0.011200  0.307400  0.889100  1.0  0.1117
  C  C61  1  0.905700  0.673200  0.354500  1.0  0.351
  C  C62  1  0.906700  0.910600  0.314000  1.0  0.1089
  C  C63  1  0.979100  0.928900  0.347800  1.0  0.0234
  C  C64  1  0.011200  0.807400  0.389100  1.0  0.1117
  C  C65  1  0.405700  0.173200  0.354500  1.0  0.351
  C  C66  1  0.406700  0.410600  0.314000  1.0  0.1089
  C  C67  1  0.479100  0.428900  0.347800  1.0  0.0234
  C  C68  1  0.511200  0.307400  0.389100  1.0  0.1117
  C  C69  1  0.405700  0.673200  0.854500  1.0  0.351
  C  C70  1  0.406700  0.910600  0.814000  1.0  0.1089
  C  C71  1  0.479100  0.928900  0.847800  1.0  0.0234
  C  C72  1  0.511200  0.807400  0.889100  1.0  0.1117
  C  C73  1  0.094300  0.826800  0.854500  1.0  0.3528
  C  C74  1  0.093300  0.589400  0.814000  1.0  0.118
  C  C75  1  0.020900  0.571100  0.847800  1.0  0.0236
  C  C76  1  0.988800  0.692600  0.889100  1.0  0.1111
  C  C77  1  0.094300  0.326800  0.354500  1.0  0.3528
  C  C78  1  0.093300  0.089400  0.314000  1.0  0.118
  C  C79  1  0.020900  0.071100  0.347800  1.0  0.0236
  C  C80  1  0.988800  0.192600  0.389100  1.0  0.1111
  C  C81  1  0.594300  0.826800  0.354500  1.0  0.3528
  C  C82  1  0.593300  0.589400  0.314000  1.0  0.118
  C  C83  1  0.520900  0.571100  0.347800  1.0  0.0236
  C  C84  1  0.488800  0.692600  0.389100  1.0  0.1111
  C  C85  1  0.594300  0.326800  0.854500  1.0  0.3528
  C  C86  1  0.593300  0.089400  0.814000  1.0  0.118
  C  C87  1  0.520900  0.071100  0.847800  1.0  0.0236
  C  C88  1  0.488800  0.192600  0.889100  1.0  0.1111
  C  C89  1  0.155700  0.076800  0.104500  1.0  0.3526
  C  C90  1  0.156700  0.839400  0.064000  1.0  0.1089
  C  C91  1  0.229100  0.821100  0.097800  1.0  0.0235
  C  C92  1  0.261200  0.942600  0.139100  1.0  0.1113
  C  C93  1  0.155700  0.576800  0.604500  1.0  0.3533
  C  C94  1  0.156700  0.339400  0.564000  1.0  0.1089
  C  C95  1  0.229100  0.321100  0.597800  1.0  0.0235
  C  C96  1  0.261200  0.442600  0.639100  1.0  0.1113
  C  C97  1  0.655700  0.076800  0.604500  1.0  0.3526
  C  C98  1  0.656700  0.839400  0.564000  1.0  0.1089
  C  C99  1  0.729100  0.821100  0.597800  1.0  0.0235
  C  C100  1  0.761200  0.942600  0.639100  1.0  0.1113
  C  C101  1  0.655700  0.576800  0.104500  1.0  0.3533
  C  C102  1  0.656700  0.339400  0.064000  1.0  0.1089
  C  C103  1  0.729100  0.321100  0.097800  1.0  0.0235
  C  C104  1  0.761200  0.442600  0.139100  1.0  0.1113
  C  C105  1  0.344300  0.423200  0.104500  1.0  0.3502
  C  C106  1  0.343300  0.660600  0.064000  1.0  0.1181
  C  C107  1  0.270900  0.678900  0.097800  1.0  0.0235
  C  C108  1  0.238800  0.557400  0.139100  1.0  0.1123
  C  C109  1  0.344300  0.923200  0.604500  1.0  0.3502
  C  C110  1  0.343300  0.160600  0.564000  1.0  0.1181
  C  C111  1  0.270900  0.178900  0.597800  1.0  0.0235
  C  C112  1  0.238800  0.057400  0.639100  1.0  0.1123
  C  C113  1  0.844300  0.423200  0.604500  1.0  0.3502
  C  C114  1  0.843300  0.660600  0.564000  1.0  0.1181
  C  C115  1  0.770900  0.678900  0.597800  1.0  0.0235
  C  C116  1  0.738800  0.557400  0.639100  1.0  0.1123
  C  C117  1  0.844300  0.923200  0.104500  1.0  0.3502
  C  C118  1  0.843300  0.160600  0.064000  1.0  0.1181
  C  C119  1  0.770900  0.178900  0.097800  1.0  0.0235
  C  C120  1  0.738800  0.057400  0.139100  1.0  0.1123
  N  N121  1  0.869200  0.283700  0.814900  1.0  -0.3899
  N  N122  1  0.974160  0.181000  0.892700  1.0  -0.4001
  N  N123  1  0.869200  0.783700  0.314900  1.0  -0.3899
  N  N124  1  0.974160  0.681000  0.392700  1.0  -0.4001
  N  N125  1  0.369200  0.283700  0.314900  1.0  -0.3899
  N  N126  1  0.474160  0.181000  0.392700  1.0  -0.4001
  N  N127  1  0.369200  0.783700  0.814900  1.0  -0.3899
  N  N128  1  0.474160  0.681000  0.892700  1.0  -0.4001
  N  N129  1  0.130800  0.716300  0.814900  1.0  -0.3917
  N  N130  1  0.025840  0.819000  0.892700  1.0  -0.4034
  N  N131  1  0.130800  0.216300  0.314900  1.0  -0.3917
  N  N132  1  0.025840  0.319000  0.392700  1.0  -0.4034
  N  N133  1  0.630800  0.716300  0.314900  1.0  -0.3917
  N  N134  1  0.525840  0.819000  0.392700  1.0  -0.4034
  N  N135  1  0.630800  0.216300  0.814900  1.0  -0.3917
  N  N136  1  0.525840  0.319000  0.892700  1.0  -0.4034
  N  N137  1  0.119200  0.966300  0.064900  1.0  -0.3889
  N  N138  1  0.224160  0.069000  0.142700  1.0  -0.4023
  N  N139  1  0.119200  0.466300  0.564900  1.0  -0.3889
  N  N140  1  0.224160  0.569000  0.642700  1.0  -0.4022
  N  N141  1  0.619200  0.966300  0.564900  1.0  -0.3889
  N  N142  1  0.724160  0.069000  0.642700  1.0  -0.4023
  N  N143  1  0.619200  0.466300  0.064900  1.0  -0.3889
  N  N144  1  0.724160  0.569000  0.142700  1.0  -0.4022
  N  N145  1  0.380800  0.533700  0.064900  1.0  -0.3916
  N  N146  1  0.275840  0.431000  0.142700  1.0  -0.4026
  N  N147  1  0.380800  0.033700  0.564900  1.0  -0.3916
  N  N148  1  0.275840  0.931000  0.642700  1.0  -0.4026
  N  N149  1  0.880800  0.533700  0.564900  1.0  -0.3916
  N  N150  1  0.775840  0.431000  0.642700  1.0  -0.4026
  N  N151  1  0.880800  0.033700  0.064900  1.0  -0.3916
  N  N152  1  0.775840  0.931000  0.142700  1.0  -0.4026
