# generated using pymatgen
data_EuH7(C5O2)3
_symmetry_space_group_name_H-M   'P 1'
_cell_length_a   24.63300000
_cell_length_b   13.03800000
_cell_length_c   14.72500000
_cell_angle_alpha   90.00000000
_cell_angle_beta   96.69000000
_cell_angle_gamma   90.00000000
_symmetry_Int_Tables_number   1
_chemical_formula_structural   EuH7(C5O2)3
_chemical_formula_sum   'Eu8 H56 C120 O48'
_cell_volume   4696.95458811
_cell_formula_units_Z   8
loop_
 _symmetry_equiv_pos_site_id
 _symmetry_equiv_pos_as_xyz
  1  'x, y, z'
loop_
 _atom_site_type_symbol
 _atom_site_label
 _atom_site_symmetry_multiplicity
 _atom_site_fract_x
 _atom_site_fract_y
 _atom_site_fract_z
 _atom_site_occupancy
 _atom_site_charge
  Eu  Eu1  1  0.328010  0.705910  0.031010  1.0  2.1232
  Eu  Eu2  1  0.828010  0.205910  0.031010  1.0  2.1233
  Eu  Eu3  1  0.671990  0.705910  0.468990  1.0  2.1209
  Eu  Eu4  1  0.171990  0.205910  0.468990  1.0  2.1209
  Eu  Eu5  1  0.671990  0.294090  0.968990  1.0  2.1209
  Eu  Eu6  1  0.171990  0.794090  0.968990  1.0  2.1202
  Eu  Eu7  1  0.328010  0.294090  0.531010  1.0  2.1214
  Eu  Eu8  1  0.828010  0.794090  0.531010  1.0  2.1214
  H  H9  1  0.271700  0.455700  0.790100  1.0  0.1182
  H  H10  1  0.131100  0.302500  0.728000  1.0  0.1006
  H  H11  1  0.144200  0.509900  0.931200  1.0  0.109
  H  H12  1  0.048300  0.506700  0.895000  1.0  0.1117
  H  H13  1  0.966500  0.454200  0.940900  1.0  0.1001
  H  H14  1  0.999300  0.164200  0.878400  1.0  0.1099
  H  H15  1  0.080400  0.216600  0.828800  1.0  0.1099
  H  H16  1  0.771700  0.955700  0.790100  1.0  0.1182
  H  H17  1  0.631100  0.802500  0.728000  1.0  0.1006
  H  H18  1  0.644200  0.009900  0.931200  1.0  0.109
  H  H19  1  0.548300  0.006700  0.895000  1.0  0.1117
  H  H20  1  0.466500  0.954200  0.940900  1.0  0.1001
  H  H21  1  0.499300  0.664200  0.878400  1.0  0.1099
  H  H22  1  0.580400  0.716600  0.828800  1.0  0.1099
  H  H23  1  0.728300  0.455700  0.709900  1.0  0.119
  H  H24  1  0.868900  0.302500  0.772000  1.0  0.1001
  H  H25  1  0.855800  0.509900  0.568800  1.0  0.1086
  H  H26  1  0.951700  0.506700  0.605000  1.0  0.1109
  H  H27  1  0.033500  0.454200  0.559100  1.0  0.1001
  H  H28  1  0.000700  0.164200  0.621600  1.0  0.1096
  H  H29  1  0.919600  0.216600  0.671200  1.0  0.1089
  H  H30  1  0.228300  0.955700  0.709900  1.0  0.119
  H  H31  1  0.368900  0.802500  0.772000  1.0  0.1001
  H  H32  1  0.355800  0.009900  0.568800  1.0  0.1086
  H  H33  1  0.451700  0.006700  0.605000  1.0  0.1109
  H  H34  1  0.533500  0.954200  0.559100  1.0  0.1001
  H  H35  1  0.500700  0.664200  0.621600  1.0  0.1096
  H  H36  1  0.419600  0.716600  0.671200  1.0  0.1089
  H  H37  1  0.728300  0.544300  0.209900  1.0  0.1191
  H  H38  1  0.868900  0.697500  0.272000  1.0  0.0997
  H  H39  1  0.855800  0.490100  0.068800  1.0  0.1086
  H  H40  1  0.951700  0.493300  0.105000  1.0  0.1108
  H  H41  1  0.033500  0.545800  0.059100  1.0  0.0999
  H  H42  1  0.000700  0.835800  0.121600  1.0  0.1099
  H  H43  1  0.919600  0.783400  0.171200  1.0  0.1096
  H  H44  1  0.228300  0.044300  0.209900  1.0  0.1191
  H  H45  1  0.368900  0.197500  0.272000  1.0  0.0997
  H  H46  1  0.355800  0.990100  0.068800  1.0  0.1086
  H  H47  1  0.451700  0.993300  0.105000  1.0  0.1108
  H  H48  1  0.533500  0.045800  0.059100  1.0  0.0999
  H  H49  1  0.500700  0.335800  0.121600  1.0  0.1099
  H  H50  1  0.419600  0.283400  0.171200  1.0  0.1096
  H  H51  1  0.271700  0.544300  0.290100  1.0  0.1182
  H  H52  1  0.131100  0.697500  0.228000  1.0  0.1007
  H  H53  1  0.144200  0.490100  0.431200  1.0  0.1094
  H  H54  1  0.048300  0.493300  0.395000  1.0  0.1116
  H  H55  1  0.966500  0.545800  0.440900  1.0  0.0998
  H  H56  1  0.999300  0.835800  0.378400  1.0  0.1101
  H  H57  1  0.080400  0.783400  0.328800  1.0  0.1101
  H  H58  1  0.771700  0.044300  0.290100  1.0  0.1182
  H  H59  1  0.631100  0.197500  0.228000  1.0  0.1007
  H  H60  1  0.644200  0.990100  0.431200  1.0  0.1094
  H  H61  1  0.548300  0.993300  0.395000  1.0  0.1116
  H  H62  1  0.466500  0.045800  0.440900  1.0  0.0998
  H  H63  1  0.499300  0.335800  0.378400  1.0  0.1101
  H  H64  1  0.580400  0.283400  0.328800  1.0  0.1101
  C  C65  1  0.213110  0.493900  0.869800  1.0  -0.1226
  C  C66  1  0.235690  0.443100  0.800000  1.0  0.0167
  C  C67  1  0.204370  0.373600  0.745200  1.0  -0.1576
  C  C68  1  0.151620  0.350600  0.763900  1.0  -0.0566
  C  C69  1  0.128920  0.398500  0.835700  1.0  0.0164
  C  C70  1  0.159570  0.473400  0.886300  1.0  -0.0615
  C  C71  1  0.247780  0.568600  0.928300  1.0  0.7349
  C  C72  1  0.226560  0.321500  0.665600  1.0  0.7992
  C  C73  1  0.074270  0.367100  0.858800  1.0  0.0591
  C  C74  1  0.038930  0.437600  0.891900  1.0  -0.1411
  C  C75  1  0.989900  0.405900  0.920100  1.0  -0.0589
  C  C76  1  0.975260  0.303700  0.918000  1.0  -0.1749
  C  C77  1  0.009290  0.233000  0.882500  1.0  -0.0631
  C  C78  1  0.058080  0.264600  0.852900  1.0  -0.1166
  C  C79  1  0.924930  0.270500  0.958700  1.0  0.6843
  C  C80  1  0.713110  0.993900  0.869800  1.0  -0.1226
  C  C81  1  0.735690  0.943100  0.800000  1.0  0.0167
  C  C82  1  0.704370  0.873600  0.745200  1.0  -0.1576
  C  C83  1  0.651620  0.850600  0.763900  1.0  -0.0566
  C  C84  1  0.628920  0.898500  0.835700  1.0  0.0164
  C  C85  1  0.659570  0.973400  0.886300  1.0  -0.0615
  C  C86  1  0.747780  0.068600  0.928300  1.0  0.7349
  C  C87  1  0.726560  0.821500  0.665600  1.0  0.7992
  C  C88  1  0.574270  0.867100  0.858800  1.0  0.0591
  C  C89  1  0.538930  0.937600  0.891900  1.0  -0.1411
  C  C90  1  0.489900  0.905900  0.920100  1.0  -0.0589
  C  C91  1  0.475260  0.803700  0.918000  1.0  -0.1749
  C  C92  1  0.509290  0.733000  0.882500  1.0  -0.0631
  C  C93  1  0.558080  0.764600  0.852900  1.0  -0.1166
  C  C94  1  0.424930  0.770500  0.958700  1.0  0.6843
  C  C95  1  0.786890  0.493900  0.630200  1.0  -0.1219
  C  C96  1  0.764310  0.443100  0.700000  1.0  0.0139
  C  C97  1  0.795630  0.373600  0.754800  1.0  -0.1584
  C  C98  1  0.848380  0.350600  0.736100  1.0  -0.0565
  C  C99  1  0.871080  0.398500  0.664300  1.0  0.0167
  C  C100  1  0.840430  0.473400  0.613700  1.0  -0.0608
  C  C101  1  0.752220  0.568600  0.571700  1.0  0.7353
  C  C102  1  0.773440  0.321500  0.834400  1.0  0.7991
  C  C103  1  0.925730  0.367100  0.641200  1.0  0.0578
  C  C104  1  0.961070  0.437600  0.608100  1.0  -0.1418
  C  C105  1  0.010100  0.405900  0.579900  1.0  -0.0608
  C  C106  1  0.024740  0.303700  0.582000  1.0  -0.1731
  C  C107  1  0.990710  0.233000  0.617500  1.0  -0.0635
  C  C108  1  0.941920  0.264600  0.647100  1.0  -0.1173
  C  C109  1  0.075070  0.270500  0.541300  1.0  0.6837
  C  C110  1  0.286890  0.993900  0.630200  1.0  -0.1219
  C  C111  1  0.264310  0.943100  0.700000  1.0  0.0139
  C  C112  1  0.295630  0.873600  0.754800  1.0  -0.1584
  C  C113  1  0.348380  0.850600  0.736100  1.0  -0.0565
  C  C114  1  0.371080  0.898500  0.664300  1.0  0.0167
  C  C115  1  0.340430  0.973400  0.613700  1.0  -0.0608
  C  C116  1  0.252220  0.068600  0.571700  1.0  0.7353
  C  C117  1  0.273440  0.821500  0.834400  1.0  0.7991
  C  C118  1  0.425730  0.867100  0.641200  1.0  0.0578
  C  C119  1  0.461070  0.937600  0.608100  1.0  -0.1418
  C  C120  1  0.510100  0.905900  0.579900  1.0  -0.0608
  C  C121  1  0.524740  0.803700  0.582000  1.0  -0.1731
  C  C122  1  0.490710  0.733000  0.617500  1.0  -0.0635
  C  C123  1  0.441920  0.764600  0.647100  1.0  -0.1173
  C  C124  1  0.575070  0.770500  0.541300  1.0  0.6837
  C  C125  1  0.786890  0.506100  0.130200  1.0  -0.1223
  C  C126  1  0.764310  0.556900  0.200000  1.0  0.0142
  C  C127  1  0.795630  0.626400  0.254800  1.0  -0.1583
  C  C128  1  0.848380  0.649400  0.236100  1.0  -0.0566
  C  C129  1  0.871080  0.601500  0.164300  1.0  0.0166
  C  C130  1  0.840430  0.526600  0.113700  1.0  -0.0609
  C  C131  1  0.752220  0.431400  0.071700  1.0  0.7353
  C  C132  1  0.773440  0.678500  0.334400  1.0  0.7994
  C  C133  1  0.925730  0.632900  0.141200  1.0  0.0573
  C  C134  1  0.961070  0.562400  0.108100  1.0  -0.1409
  C  C135  1  0.010100  0.594100  0.079900  1.0  -0.0603
  C  C136  1  0.024740  0.696300  0.082000  1.0  -0.1723
  C  C137  1  0.990710  0.767000  0.117500  1.0  -0.0625
  C  C138  1  0.941920  0.735400  0.147100  1.0  -0.1179
  C  C139  1  0.075070  0.729500  0.041300  1.0  0.6849
  C  C140  1  0.286890  0.006100  0.130200  1.0  -0.1223
  C  C141  1  0.264310  0.056900  0.200000  1.0  0.0142
  C  C142  1  0.295630  0.126400  0.254800  1.0  -0.1583
  C  C143  1  0.348380  0.149400  0.236100  1.0  -0.0566
  C  C144  1  0.371080  0.101500  0.164300  1.0  0.0166
  C  C145  1  0.340430  0.026600  0.113700  1.0  -0.0609
  C  C146  1  0.252220  0.931400  0.071700  1.0  0.7353
  C  C147  1  0.273440  0.178500  0.334400  1.0  0.7994
  C  C148  1  0.425730  0.132900  0.141200  1.0  0.0573
  C  C149  1  0.461070  0.062400  0.108100  1.0  -0.1409
  C  C150  1  0.510100  0.094100  0.079900  1.0  -0.0603
  C  C151  1  0.524740  0.196300  0.082000  1.0  -0.1723
  C  C152  1  0.490710  0.267000  0.117500  1.0  -0.0625
  C  C153  1  0.441920  0.235400  0.147100  1.0  -0.1179
  C  C154  1  0.575070  0.229500  0.041300  1.0  0.6849
  C  C155  1  0.213110  0.506100  0.369800  1.0  -0.1226
  C  C156  1  0.235690  0.556900  0.300000  1.0  0.0168
  C  C157  1  0.204370  0.626400  0.245200  1.0  -0.1573
  C  C158  1  0.151620  0.649400  0.263900  1.0  -0.057
  C  C159  1  0.128920  0.601500  0.335700  1.0  0.0163
  C  C160  1  0.159570  0.526600  0.386300  1.0  -0.0616
  C  C161  1  0.247780  0.431400  0.428300  1.0  0.7353
  C  C162  1  0.226560  0.678500  0.165600  1.0  0.7993
  C  C163  1  0.074270  0.632900  0.358800  1.0  0.0589
  C  C164  1  0.038930  0.562400  0.391900  1.0  -0.1404
  C  C165  1  0.989900  0.594100  0.420100  1.0  -0.0589
  C  C166  1  0.975260  0.696300  0.418000  1.0  -0.1742
  C  C167  1  0.009290  0.767000  0.382500  1.0  -0.0636
  C  C168  1  0.058080  0.735400  0.352900  1.0  -0.1174
  C  C169  1  0.924930  0.729500  0.458700  1.0  0.6849
  C  C170  1  0.713110  0.006100  0.369800  1.0  -0.1226
  C  C171  1  0.735690  0.056900  0.300000  1.0  0.0168
  C  C172  1  0.704370  0.126400  0.245200  1.0  -0.1573
  C  C173  1  0.651620  0.149400  0.263900  1.0  -0.057
  C  C174  1  0.628920  0.101500  0.335700  1.0  0.0163
  C  C175  1  0.659570  0.026600  0.386300  1.0  -0.0616
  C  C176  1  0.747780  0.931400  0.428300  1.0  0.7353
  C  C177  1  0.726560  0.178500  0.165600  1.0  0.7993
  C  C178  1  0.574270  0.132900  0.358800  1.0  0.0589
  C  C179  1  0.538930  0.062400  0.391900  1.0  -0.1404
  C  C180  1  0.489900  0.094100  0.420100  1.0  -0.0589
  C  C181  1  0.475260  0.196300  0.418000  1.0  -0.1742
  C  C182  1  0.509290  0.267000  0.382500  1.0  -0.0636
  C  C183  1  0.558080  0.235400  0.352900  1.0  -0.1174
  C  C184  1  0.424930  0.229500  0.458700  1.0  0.6849
  O  O185  1  0.225390  0.645230  0.962210  1.0  -0.8574
  O  O186  1  0.298060  0.553200  0.943390  1.0  -0.6182
  O  O187  1  0.273780  0.345900  0.648860  1.0  -0.7546
  O  O188  1  0.195440  0.257000  0.622820  1.0  -0.6968
  O  O189  1  0.912020  0.176300  0.957900  1.0  -0.6814
  O  O190  1  0.896690  0.336300  0.993700  1.0  -0.6252
  O  O191  1  0.725390  0.145230  0.962210  1.0  -0.8574
  O  O192  1  0.798060  0.053200  0.943390  1.0  -0.6186
  O  O193  1  0.773780  0.845900  0.648860  1.0  -0.7546
  O  O194  1  0.695440  0.757000  0.622820  1.0  -0.6968
  O  O195  1  0.412020  0.676300  0.957900  1.0  -0.6823
  O  O196  1  0.396690  0.836300  0.993700  1.0  -0.6252
  O  O197  1  0.774610  0.645230  0.537790  1.0  -0.8571
  O  O198  1  0.701940  0.553200  0.556610  1.0  -0.6172
  O  O199  1  0.726220  0.345900  0.851140  1.0  -0.7574
  O  O200  1  0.804560  0.257000  0.877180  1.0  -0.6966
  O  O201  1  0.087980  0.176300  0.542100  1.0  -0.682
  O  O202  1  0.103310  0.336300  0.506300  1.0  -0.6273
  O  O203  1  0.274610  0.145230  0.537790  1.0  -0.8571
  O  O204  1  0.201940  0.053200  0.556610  1.0  -0.6175
  O  O205  1  0.226220  0.845900  0.851140  1.0  -0.7574
  O  O206  1  0.304560  0.757000  0.877180  1.0  -0.6966
  O  O207  1  0.587980  0.676300  0.542100  1.0  -0.6819
  O  O208  1  0.603310  0.836300  0.506300  1.0  -0.6273
  O  O209  1  0.774610  0.354770  0.037790  1.0  -0.857
  O  O210  1  0.701940  0.446800  0.056610  1.0  -0.6194
  O  O211  1  0.726220  0.654100  0.351140  1.0  -0.7566
  O  O212  1  0.804560  0.743000  0.377180  1.0  -0.696
  O  O213  1  0.087980  0.823700  0.042100  1.0  -0.6821
  O  O214  1  0.103310  0.663700  0.006300  1.0  -0.6268
  O  O215  1  0.274610  0.854770  0.037790  1.0  -0.857
  O  O216  1  0.201940  0.946800  0.056610  1.0  -0.6199
  O  O217  1  0.226220  0.154100  0.351140  1.0  -0.7566
  O  O218  1  0.304560  0.243000  0.377180  1.0  -0.696
  O  O219  1  0.587980  0.323700  0.042100  1.0  -0.683
  O  O220  1  0.603310  0.163700  0.006300  1.0  -0.6268
  O  O221  1  0.225390  0.354770  0.462210  1.0  -0.8572
  O  O222  1  0.298060  0.446800  0.443390  1.0  -0.6172
  O  O223  1  0.273780  0.654100  0.148860  1.0  -0.7559
  O  O224  1  0.195440  0.743000  0.122820  1.0  -0.6959
  O  O225  1  0.912020  0.823700  0.457900  1.0  -0.682
  O  O226  1  0.896690  0.663700  0.493700  1.0  -0.6253
  O  O227  1  0.725390  0.854770  0.462210  1.0  -0.8572
  O  O228  1  0.798060  0.946800  0.443390  1.0  -0.6175
  O  O229  1  0.773780  0.154100  0.148860  1.0  -0.7559
  O  O230  1  0.695440  0.243000  0.122820  1.0  -0.6959
  O  O231  1  0.412020  0.323700  0.457900  1.0  -0.6819
  O  O232  1  0.396690  0.163700  0.493700  1.0  -0.6253
