# generated using pymatgen
data_MgH8(C7O3)2
_symmetry_space_group_name_H-M   'P 1'
_cell_length_a   8.58970000
_cell_length_b   17.44460000
_cell_length_c   17.44460000
_cell_angle_alpha   120.00000000
_cell_angle_beta   90.00000000
_cell_angle_gamma   90.00000000
_symmetry_Int_Tables_number   1
_chemical_formula_structural   MgH8(C7O3)2
_chemical_formula_sum   'Mg3 H24 C42 O18'
_cell_volume   2263.76144548
_cell_formula_units_Z   3
loop_
 _symmetry_equiv_pos_site_id
 _symmetry_equiv_pos_as_xyz
  1  'x, y, z'
loop_
 _atom_site_type_symbol
 _atom_site_label
 _atom_site_symmetry_multiplicity
 _atom_site_fract_x
 _atom_site_fract_y
 _atom_site_fract_z
 _atom_site_occupancy
 _atom_site_charge
  Mg  Mg1  1  0.666667  0.000000  0.535160  1.0  1.5222
  Mg  Mg2  1  0.333333  0.464840  0.464840  1.0  1.5226
  Mg  Mg3  1  0.000000  0.535160  0.000000  1.0  1.5207
  H  H4  1  0.543130  0.878900  0.689700  1.0  0.0873
  H  H5  1  0.532570  0.042300  0.243000  1.0  0.0795
  H  H6  1  0.876470  0.810800  0.121100  1.0  0.0866
  H  H7  1  0.868000  0.546000  0.128000  1.0  0.4335
  H  H8  1  0.134100  0.243000  0.042300  1.0  0.0807
  H  H9  1  0.465330  0.454000  0.582000  1.0  0.4357
  H  H10  1  0.325030  0.462800  0.696000  1.0  0.0874
  H  H11  1  0.798670  0.128000  0.546000  1.0  0.4325
  H  H12  1  0.456870  0.189200  0.310300  1.0  0.0868
  H  H13  1  0.991700  0.304000  0.766800  1.0  0.0886
  H  H14  1  0.008300  0.537200  0.233200  1.0  0.0886
  H  H15  1  0.199230  0.757000  0.799300  1.0  0.0804
  H  H16  1  0.790200  0.121100  0.810800  1.0  0.0869
  H  H17  1  0.800770  0.957700  0.200700  1.0  0.0801
  H  H18  1  0.534670  0.872000  0.418000  1.0  0.4353
  H  H19  1  0.674970  0.766800  0.304000  1.0  0.0891
  H  H20  1  0.467430  0.799300  0.757000  1.0  0.0793
  H  H21  1  0.209800  0.310300  0.189200  1.0  0.087
  H  H22  1  0.658370  0.233200  0.537200  1.0  0.0891
  H  H23  1  0.132000  0.418000  0.872000  1.0  0.4364
  H  H24  1  0.865900  0.200700  0.957700  1.0  0.0796
  H  H25  1  0.123530  0.689700  0.878900  1.0  0.0871
  H  H26  1  0.201330  0.582000  0.454000  1.0  0.4371
  H  H27  1  0.341630  0.696000  0.462800  1.0  0.0892
  C  C28  1  0.976000  0.301300  0.953500  1.0  -0.0674
  C  C29  1  0.024000  0.347800  0.046500  1.0  -0.0672
  C  C30  1  0.642670  0.046500  0.347800  1.0  -0.0667
  C  C31  1  0.034300  0.476990  0.193880  1.0  -0.1315
  C  C32  1  0.154000  0.343400  0.168500  1.0  -0.0788
  C  C33  1  0.892300  0.222600  0.919300  1.0  -0.1664
  C  C34  1  0.502830  0.844600  0.525090  1.0  0.628
  C  C35  1  0.836170  0.680490  0.155400  1.0  0.6271
  C  C36  1  0.169500  0.474910  0.319510  1.0  0.6277
  C  C37  1  0.367630  0.716890  0.523010  1.0  -0.1341
  C  C38  1  0.107700  0.303300  0.080700  1.0  -0.1653
  C  C39  1  0.299030  0.523010  0.716890  1.0  -0.1315
  C  C40  1  0.346330  0.562970  0.669510  1.0  0.2293
  C  C41  1  0.846000  0.174900  0.831500  1.0  -0.0801
  C  C42  1  0.547270  0.224960  0.430200  1.0  -0.1616
  C  C43  1  0.786070  0.775040  0.205240  1.0  -0.161
  C  C44  1  0.820670  0.831500  0.174900  1.0  -0.08
  C  C45  1  0.700970  0.806120  0.283110  1.0  -0.1355
  C  C46  1  0.632370  0.193880  0.476990  1.0  -0.1329
  C  C47  1  0.987000  0.437030  0.106540  1.0  0.2312
  C  C48  1  0.774370  0.919300  0.222600  1.0  -0.1658
  C  C49  1  0.512670  0.168500  0.343400  1.0  -0.0798
  C  C50  1  0.213930  0.569800  0.794760  1.0  -0.1594
  C  C51  1  0.558970  0.080700  0.303300  1.0  -0.1655
  C  C52  1  0.965700  0.283110  0.806120  1.0  -0.1334
  C  C53  1  0.830500  0.155400  0.680490  1.0  0.6285
  C  C54  1  0.690670  0.953500  0.301300  1.0  -0.067
  C  C55  1  0.320330  0.669510  0.562970  1.0  0.23
  C  C56  1  0.013000  0.330490  0.893460  1.0  0.2296
  C  C57  1  0.497170  0.319510  0.474910  1.0  0.6275
  C  C58  1  0.357330  0.698700  0.652200  1.0  -0.0673
  C  C59  1  0.179330  0.656600  0.825100  1.0  -0.0808
  C  C60  1  0.487330  0.825100  0.656600  1.0  -0.0787
  C  C61  1  0.653670  0.893460  0.330490  1.0  0.2328
  C  C62  1  0.119400  0.430200  0.224960  1.0  -0.1604
  C  C63  1  0.679670  0.106540  0.437030  1.0  0.2323
  C  C64  1  0.225630  0.696700  0.777400  1.0  -0.1679
  C  C65  1  0.441030  0.777400  0.696700  1.0  -0.1677
  C  C66  1  0.163830  0.525090  0.844600  1.0  0.6274
  C  C67  1  0.880600  0.205240  0.775040  1.0  -0.162
  C  C68  1  0.452730  0.794760  0.569800  1.0  -0.1619
  C  C69  1  0.309330  0.652200  0.698700  1.0  -0.0671
  O  O70  1  0.235430  0.592600  0.515980  1.0  -0.6216
  O  O71  1  0.862200  0.188510  0.631550  1.0  -0.4682
  O  O72  1  0.902100  0.484020  0.076620  1.0  -0.619
  O  O73  1  0.431230  0.515980  0.592600  1.0  -0.621
  O  O74  1  0.097900  0.407400  0.923380  1.0  -0.6222
  O  O75  1  0.764570  0.076620  0.484020  1.0  -0.6205
  O  O76  1  0.759200  0.084310  0.654500  1.0  -0.6135
  O  O77  1  0.240800  0.429810  0.345500  1.0  -0.6145
  O  O78  1  0.568770  0.923380  0.407400  1.0  -0.6215
  O  O79  1  0.092530  0.570190  0.915690  1.0  -0.6159
  O  O80  1  0.195530  0.443040  0.811490  1.0  -0.4659
  O  O81  1  0.907470  0.654500  0.084310  1.0  -0.6152
  O  O82  1  0.471130  0.811490  0.443040  1.0  -0.4687
  O  O83  1  0.425870  0.345500  0.429810  1.0  -0.615
  O  O84  1  0.528870  0.368450  0.556960  1.0  -0.4646
  O  O85  1  0.574130  0.915690  0.570190  1.0  -0.6137
  O  O86  1  0.137800  0.556960  0.368450  1.0  -0.4675
  O  O87  1  0.804470  0.631550  0.188510  1.0  -0.4673
