# generated using pymatgen
data_Co3H8C14(NO5)2
_symmetry_space_group_name_H-M   'P 1'
_cell_length_a   11.15750000
_cell_length_b   11.26060000
_cell_length_c   11.42400000
_cell_angle_alpha   76.76200000
_cell_angle_beta   65.81400000
_cell_angle_gamma   80.68000000
_symmetry_Int_Tables_number   1
_chemical_formula_structural   Co3H8C14(NO5)2
_chemical_formula_sum   'Co6 H16 C28 N4 O20'
_cell_volume   1270.77257812
_cell_formula_units_Z   2
loop_
 _symmetry_equiv_pos_site_id
 _symmetry_equiv_pos_as_xyz
  1  'x, y, z'
loop_
 _atom_site_type_symbol
 _atom_site_label
 _atom_site_symmetry_multiplicity
 _atom_site_fract_x
 _atom_site_fract_y
 _atom_site_fract_z
 _atom_site_occupancy
 _atom_site_charge
  Co  Co1  1  0.897180  0.607080  0.500680  1.0  0.9778
  Co  Co2  1  0.970840  0.428200  0.289770  1.0  1.1936
  Co  Co3  1  0.007180  0.640720  0.991330  1.0  1.1293
  Co  Co4  1  0.102820  0.392920  0.499320  1.0  0.9754
  Co  Co5  1  0.029160  0.571800  0.710230  1.0  1.1958
  Co  Co6  1  0.992820  0.359280  0.008670  1.0  1.128
  H  H7  1  0.126800  0.476100  0.078100  1.0  0.4452
  H  H8  1  0.146600  0.627500  0.461000  1.0  0.4354
  H  H9  1  0.031900  0.964400  0.139300  1.0  0.1284
  H  H10  1  0.865900  0.070000  0.491400  1.0  0.118
  H  H11  1  0.827100  0.866500  0.589500  1.0  0.0898
  H  H12  1  0.453500  0.585800  0.861000  1.0  0.1246
  H  H13  1  0.428400  0.644200  0.507100  1.0  0.125
  H  H14  1  0.654900  0.655900  0.410000  1.0  0.0899
  H  H15  1  0.873200  0.523900  0.921900  1.0  0.4454
  H  H16  1  0.853400  0.372500  0.539000  1.0  0.4351
  H  H17  1  0.968100  0.035600  0.860700  1.0  0.1284
  H  H18  1  0.134100  0.930000  0.508600  1.0  0.1187
  H  H19  1  0.172900  0.133500  0.410500  1.0  0.0902
  H  H20  1  0.546500  0.414200  0.139000  1.0  0.1238
  H  H21  1  0.571600  0.355800  0.492900  1.0  0.1256
  H  H22  1  0.345100  0.344100  0.590000  1.0  0.0897
  C  C23  1  0.996540  0.721160  0.225420  1.0  0.6448
  C  C24  1  0.965940  0.827180  0.296280  1.0  0.0863
  C  C25  1  0.991000  0.946190  0.231820  1.0  -0.0779
  C  C26  1  0.954940  0.038480  0.305270  1.0  -0.0671
  C  C27  1  0.892900  0.008310  0.439290  1.0  -0.1246
  C  C28  1  0.870300  0.886470  0.497270  1.0  0.16
  C  C29  1  0.983300  0.169160  0.241500  1.0  0.6912
  C  C30  1  0.719600  0.586130  0.775260  1.0  0.657
  C  C31  1  0.627520  0.603940  0.704150  1.0  0.0975
  C  C32  1  0.493200  0.598600  0.768430  1.0  -0.0741
  C  C33  1  0.416270  0.612310  0.694950  1.0  -0.0533
  C  C34  1  0.478200  0.633760  0.559570  1.0  -0.1643
  C  C35  1  0.613300  0.639730  0.502510  1.0  0.16
  C  C36  1  0.269810  0.602130  0.759650  1.0  0.6797
  C  C37  1  0.003460  0.278840  0.774580  1.0  0.6473
  C  C38  1  0.034060  0.172820  0.703720  1.0  0.0889
  C  C39  1  0.009000  0.053810  0.768180  1.0  -0.0786
  C  C40  1  0.045060  0.961520  0.694730  1.0  -0.0696
  C  C41  1  0.107100  0.991690  0.560710  1.0  -0.1237
  C  C42  1  0.129700  0.113530  0.502730  1.0  0.1603
  C  C43  1  0.016700  0.830840  0.758500  1.0  0.6901
  C  C44  1  0.280400  0.413870  0.224740  1.0  0.662
  C  C45  1  0.372480  0.396060  0.295850  1.0  0.098
  C  C46  1  0.506800  0.401400  0.231570  1.0  -0.0738
  C  C47  1  0.583730  0.387690  0.305050  1.0  -0.0534
  C  C48  1  0.521800  0.366240  0.440430  1.0  -0.1644
  C  C49  1  0.386700  0.360270  0.497490  1.0  0.1544
  C  C50  1  0.730190  0.397870  0.240350  1.0  0.6795
  N  N51  1  0.907110  0.797050  0.427860  1.0  -0.3326
  N  N52  1  0.687740  0.623560  0.572590  1.0  -0.3406
  N  N53  1  0.092890  0.202950  0.572140  1.0  -0.3266
  N  N54  1  0.312260  0.376440  0.427410  1.0  -0.3412
  O  O55  1  0.960960  0.619570  0.298540  1.0  -0.6265
  O  O56  1  0.049940  0.740550  0.103920  1.0  -0.5527
  O  O57  1  0.961440  0.242330  0.317030  1.0  -0.6171
  O  O58  1  0.026860  0.193960  0.118540  1.0  -0.6301
  O  O59  1  0.841060  0.593380  0.699070  1.0  -0.6458
  O  O60  1  0.676420  0.567810  0.895110  1.0  -0.508
  O  O61  1  0.208960  0.641280  0.863950  1.0  -0.579
  O  O62  1  0.222640  0.551130  0.701470  1.0  -0.6243
  O  O63  1  0.049480  0.470100  0.093740  1.0  -1.0494
  O  O64  1  0.082780  0.575800  0.511640  1.0  -0.9706
  O  O65  1  0.039040  0.380430  0.701460  1.0  -0.6264
  O  O66  1  0.950060  0.259450  0.896080  1.0  -0.5524
  O  O67  1  0.038560  0.757670  0.682970  1.0  -0.6179
  O  O68  1  0.973140  0.806040  0.881460  1.0  -0.6309
  O  O69  1  0.158940  0.406620  0.300930  1.0  -0.6411
  O  O70  1  0.323580  0.432190  0.104890  1.0  -0.5067
  O  O71  1  0.791040  0.358720  0.136050  1.0  -0.5791
  O  O72  1  0.777360  0.448870  0.298530  1.0  -0.6293
  O  O73  1  0.950520  0.529900  0.906260  1.0  -1.0492
  O  O74  1  0.917220  0.424200  0.488360  1.0  -0.9677
