# generated using pymatgen
data_CuH12(CN2)12
_symmetry_space_group_name_H-M   'P 1'
_cell_length_a   8.02030000
_cell_length_b   20.45500000
_cell_length_c   8.61200000
_cell_angle_alpha   90.00000000
_cell_angle_beta   90.65000000
_cell_angle_gamma   90.00000000
_symmetry_Int_Tables_number   1
_chemical_formula_structural   CuH12(CN2)12
_chemical_formula_sum   'Cu2 H24 C24 N48'
_cell_volume   1412.75278061
_cell_formula_units_Z   2
loop_
 _symmetry_equiv_pos_site_id
 _symmetry_equiv_pos_as_xyz
  1  'x, y, z'
loop_
 _atom_site_type_symbol
 _atom_site_label
 _atom_site_symmetry_multiplicity
 _atom_site_fract_x
 _atom_site_fract_y
 _atom_site_fract_z
 _atom_site_occupancy
 _atom_site_charge
  Cu  Cu1  1  0.000000  0.500000  0.500000  1.0  0.8024
  Cu  Cu2  1  0.500000  0.000000  0.000000  1.0  0.8024
  H  H3  1  0.396800  0.499500  0.629700  1.0  0.1183
  H  H4  1  0.181000  0.502400  0.045100  1.0  0.0985
  H  H5  1  0.946800  0.636400  0.329700  1.0  0.1189
  H  H6  1  0.443500  0.651600  0.329500  1.0  0.0952
  H  H7  1  0.497500  0.859200  0.203100  1.0  0.1127
  H  H8  1  0.005800  0.837300  0.148500  1.0  0.0992
  H  H9  1  0.603200  0.500500  0.370300  1.0  0.1178
  H  H10  1  0.819000  0.497600  0.954900  1.0  0.0982
  H  H11  1  0.053200  0.363600  0.670300  1.0  0.1186
  H  H12  1  0.556500  0.348400  0.670500  1.0  0.0953
  H  H13  1  0.502500  0.140800  0.796900  1.0  0.1135
  H  H14  1  0.994200  0.162700  0.851500  1.0  0.0989
  H  H15  1  0.103200  0.999500  0.870300  1.0  0.1178
  H  H16  1  0.319000  0.002400  0.454900  1.0  0.0982
  H  H17  1  0.553200  0.136400  0.170300  1.0  0.1187
  H  H18  1  0.056500  0.151600  0.170500  1.0  0.0955
  H  H19  1  0.002500  0.359200  0.296900  1.0  0.1134
  H  H20  1  0.494200  0.337300  0.351500  1.0  0.0987
  H  H21  1  0.896800  0.000500  0.129700  1.0  0.1183
  H  H22  1  0.681000  0.997600  0.545100  1.0  0.0985
  H  H23  1  0.446800  0.863600  0.829700  1.0  0.1184
  H  H24  1  0.943500  0.848400  0.829500  1.0  0.0947
  H  H25  1  0.997500  0.640800  0.703100  1.0  0.1125
  H  H26  1  0.505800  0.662700  0.648500  1.0  0.0989
  C  C27  1  0.315500  0.500340  0.709100  1.0  0.1371
  C  C28  1  0.196800  0.501940  0.936000  1.0  0.1265
  C  C29  1  0.062200  0.627270  0.343400  1.0  0.1379
  C  C30  1  0.334100  0.634960  0.343200  1.0  0.1159
  C  C31  1  0.383700  0.867230  0.178000  1.0  0.133
  C  C32  1  0.114800  0.855490  0.148200  1.0  0.1512
  C  C33  1  0.684500  0.499660  0.290900  1.0  0.1372
  C  C34  1  0.803200  0.498060  0.064000  1.0  0.1281
  C  C35  1  0.937800  0.372730  0.656600  1.0  0.1382
  C  C36  1  0.665900  0.365040  0.656800  1.0  0.117
  C  C37  1  0.616300  0.132770  0.822000  1.0  0.1326
  C  C38  1  0.885200  0.144510  0.851800  1.0  0.1502
  C  C39  1  0.184500  0.000340  0.790900  1.0  0.1372
  C  C40  1  0.303200  0.001940  0.564000  1.0  0.128
  C  C41  1  0.437800  0.127270  0.156600  1.0  0.1393
  C  C42  1  0.165900  0.134960  0.156800  1.0  0.1157
  C  C43  1  0.116300  0.367230  0.322000  1.0  0.1332
  C  C44  1  0.385200  0.355490  0.351800  1.0  0.1506
  C  C45  1  0.815500  0.999660  0.209100  1.0  0.1372
  C  C46  1  0.696800  0.998060  0.436000  1.0  0.1266
  C  C47  1  0.562200  0.872730  0.843400  1.0  0.1373
  C  C48  1  0.834100  0.865040  0.843200  1.0  0.1163
  C  C49  1  0.883700  0.632770  0.678000  1.0  0.1327
  C  C50  1  0.614800  0.644510  0.648200  1.0  0.1506
  N  N51  1  0.154200  0.501630  0.687840  1.0  -0.1915
  N  N52  1  0.078100  0.502710  0.831900  1.0  -0.2721
  N  N53  1  0.347300  0.500420  0.864100  1.0  0.1583
  N  N54  1  0.505000  0.500040  0.927800  1.0  -0.2477
  N  N55  1  0.125600  0.574020  0.403000  1.0  -0.171
  N  N56  1  0.298300  0.577880  0.401700  1.0  -0.2792
  N  N57  1  0.189400  0.667240  0.304600  1.0  0.1123
  N  N58  1  0.156700  0.730340  0.251100  1.0  -0.3054
  N  N59  1  0.325000  0.920950  0.119100  1.0  -0.2065
  N  N60  1  0.152500  0.914260  0.100400  1.0  -0.2792
  N  N61  1  0.256900  0.824240  0.198000  1.0  0.1189
  N  N62  1  0.288700  0.761400  0.250200  1.0  -0.2824
  N  N63  1  0.845800  0.498370  0.312160  1.0  -0.1915
  N  N64  1  0.921900  0.497290  0.168100  1.0  -0.2735
  N  N65  1  0.652700  0.499580  0.135900  1.0  0.1545
  N  N66  1  0.495000  0.499960  0.072200  1.0  -0.2479
  N  N67  1  0.874400  0.425980  0.597000  1.0  -0.171
  N  N68  1  0.701700  0.422120  0.598300  1.0  -0.2794
  N  N69  1  0.810600  0.332760  0.695400  1.0  0.1125
  N  N70  1  0.843300  0.269660  0.748900  1.0  -0.3046
  N  N71  1  0.675000  0.079050  0.880900  1.0  -0.2054
  N  N72  1  0.847500  0.085740  0.899600  1.0  -0.2777
  N  N73  1  0.743100  0.175760  0.802000  1.0  0.119
  N  N74  1  0.711300  0.238600  0.749800  1.0  -0.2803
  N  N75  1  0.345800  0.001630  0.812160  1.0  -0.1913
  N  N76  1  0.421900  0.002710  0.668100  1.0  -0.2735
  N  N77  1  0.152700  0.000420  0.635900  1.0  0.1558
  N  N78  1  0.995000  0.000040  0.572200  1.0  -0.2479
  N  N79  1  0.374400  0.074020  0.097000  1.0  -0.1712
  N  N80  1  0.201700  0.077880  0.098300  1.0  -0.2791
  N  N81  1  0.310600  0.167240  0.195400  1.0  0.113
  N  N82  1  0.343300  0.230340  0.248900  1.0  -0.305
  N  N83  1  0.175000  0.420950  0.380900  1.0  -0.2062
  N  N84  1  0.347500  0.414260  0.399600  1.0  -0.2782
  N  N85  1  0.243100  0.324240  0.302000  1.0  0.1179
  N  N86  1  0.211300  0.261400  0.249800  1.0  -0.2802
  N  N87  1  0.654200  0.998370  0.187840  1.0  -0.1916
  N  N88  1  0.578100  0.997290  0.331900  1.0  -0.2719
  N  N89  1  0.847300  0.999580  0.364100  1.0  0.1569
  N  N90  1  0.005000  0.999960  0.427800  1.0  -0.2477
  N  N91  1  0.625600  0.925980  0.903000  1.0  -0.171
  N  N92  1  0.798300  0.922120  0.901700  1.0  -0.2796
  N  N93  1  0.689400  0.832760  0.804600  1.0  0.1109
  N  N94  1  0.656700  0.769660  0.751100  1.0  -0.3054
  N  N95  1  0.825000  0.579050  0.619100  1.0  -0.2054
  N  N96  1  0.652500  0.585740  0.600400  1.0  -0.2783
  N  N97  1  0.756900  0.675760  0.698000  1.0  0.1196
  N  N98  1  0.788700  0.738600  0.750200  1.0  -0.2829
