# generated using pymatgen
data_CdH11C14(NO2)2
_symmetry_space_group_name_H-M   'P 1'
_cell_length_a   16.35520000
_cell_length_b   16.00350000
_cell_length_c   12.10240000
_cell_angle_alpha   90.00000000
_cell_angle_beta   111.39900000
_cell_angle_gamma   90.00000000
_symmetry_Int_Tables_number   1
_chemical_formula_structural   CdH11C14(NO2)2
_chemical_formula_sum   'Cd8 H88 C112 N16 O32'
_cell_volume   2949.31407909
_cell_formula_units_Z   8
loop_
 _symmetry_equiv_pos_site_id
 _symmetry_equiv_pos_as_xyz
  1  'x, y, z'
loop_
 _atom_site_type_symbol
 _atom_site_label
 _atom_site_symmetry_multiplicity
 _atom_site_fract_x
 _atom_site_fract_y
 _atom_site_fract_z
 _atom_site_occupancy
 _atom_site_charge
  Cd  Cd1  1  0.488090  0.180600  0.591790  1.0  0.9705
  Cd  Cd2  1  0.988090  0.680600  0.591790  1.0  0.9705
  Cd  Cd3  1  0.511910  0.180600  0.908210  1.0  0.9699
  Cd  Cd4  1  0.011910  0.680600  0.908210  1.0  0.9699
  Cd  Cd5  1  0.511910  0.819400  0.408210  1.0  0.9681
  Cd  Cd6  1  0.011910  0.319400  0.408210  1.0  0.9681
  Cd  Cd7  1  0.488090  0.819400  0.091790  1.0  0.9694
  Cd  Cd8  1  0.988090  0.319400  0.091790  1.0  0.9694
  H  H9  1  0.414100  0.021400  0.576000  1.0  0.2835
  H  H10  1  0.360000  0.075200  0.618000  1.0  0.31
  H  H11  1  0.381900  0.333700  0.428700  1.0  0.0868
  H  H12  1  0.454700  0.123400  0.332500  1.0  0.0709
  H  H13  1  0.301600  0.366400  0.234100  1.0  0.1053
  H  H14  1  0.376500  0.150900  0.137200  1.0  0.1171
  H  H15  1  0.249300  0.165500  0.478600  1.0  0.1083
  H  H16  1  0.259300  0.983800  0.186400  1.0  0.1043
  H  H17  1  0.153400  0.086200  0.139600  1.0  0.1274
  H  H18  1  0.247900  0.333500  0.026700  1.0  0.0871
  H  H19  1  0.322100  0.291200  0.993400  1.0  0.1124
  H  H20  1  0.914100  0.521400  0.576000  1.0  0.2835
  H  H21  1  0.860000  0.575200  0.618000  1.0  0.31
  H  H22  1  0.881900  0.833700  0.428700  1.0  0.0868
  H  H23  1  0.954700  0.623400  0.332500  1.0  0.0709
  H  H24  1  0.801600  0.866400  0.234100  1.0  0.1053
  H  H25  1  0.876500  0.650900  0.137200  1.0  0.1171
  H  H26  1  0.749300  0.665500  0.478600  1.0  0.1083
  H  H27  1  0.759300  0.483800  0.186400  1.0  0.1043
  H  H28  1  0.653400  0.586200  0.139600  1.0  0.1274
  H  H29  1  0.747900  0.833500  0.026700  1.0  0.0871
  H  H30  1  0.822100  0.791200  0.993400  1.0  0.1124
  H  H31  1  0.585900  0.021400  0.924000  1.0  0.2839
  H  H32  1  0.640000  0.075200  0.882000  1.0  0.3107
  H  H33  1  0.618100  0.333700  0.071300  1.0  0.0865
  H  H34  1  0.545300  0.123400  0.167500  1.0  0.0694
  H  H35  1  0.698400  0.366400  0.265900  1.0  0.1049
  H  H36  1  0.623500  0.150900  0.362800  1.0  0.1172
  H  H37  1  0.750700  0.165500  0.021400  1.0  0.1079
  H  H38  1  0.740700  0.983800  0.313600  1.0  0.1042
  H  H39  1  0.846600  0.086200  0.360400  1.0  0.1272
  H  H40  1  0.752100  0.333500  0.473300  1.0  0.0875
  H  H41  1  0.677900  0.291200  0.506600  1.0  0.113
  H  H42  1  0.085900  0.521400  0.924000  1.0  0.2839
  H  H43  1  0.140000  0.575200  0.882000  1.0  0.3107
  H  H44  1  0.118100  0.833700  0.071300  1.0  0.0865
  H  H45  1  0.045300  0.623400  0.167500  1.0  0.0694
  H  H46  1  0.198400  0.866400  0.265900  1.0  0.1049
  H  H47  1  0.123500  0.650900  0.362800  1.0  0.1172
  H  H48  1  0.250700  0.665500  0.021400  1.0  0.1079
  H  H49  1  0.240700  0.483800  0.313600  1.0  0.1042
  H  H50  1  0.346600  0.586200  0.360400  1.0  0.1272
  H  H51  1  0.252100  0.833500  0.473300  1.0  0.0875
  H  H52  1  0.177900  0.791200  0.506600  1.0  0.113
  H  H53  1  0.585900  0.978600  0.424000  1.0  0.2843
  H  H54  1  0.640000  0.924800  0.382000  1.0  0.3102
  H  H55  1  0.618100  0.666300  0.571300  1.0  0.0869
  H  H56  1  0.545300  0.876600  0.667500  1.0  0.0709
  H  H57  1  0.698400  0.633600  0.765900  1.0  0.1045
  H  H58  1  0.623500  0.849100  0.862800  1.0  0.1171
  H  H59  1  0.750700  0.834500  0.521400  1.0  0.1078
  H  H60  1  0.740700  0.016200  0.813600  1.0  0.1041
  H  H61  1  0.846600  0.913800  0.860400  1.0  0.1271
  H  H62  1  0.752100  0.666500  0.973300  1.0  0.0857
  H  H63  1  0.677900  0.708800  0.006600  1.0  0.1138
  H  H64  1  0.085900  0.478600  0.424000  1.0  0.2843
  H  H65  1  0.140000  0.424800  0.382000  1.0  0.3102
  H  H66  1  0.118100  0.166300  0.571300  1.0  0.0869
  H  H67  1  0.045300  0.376600  0.667500  1.0  0.0709
  H  H68  1  0.198400  0.133600  0.765900  1.0  0.1045
  H  H69  1  0.123500  0.349100  0.862800  1.0  0.1171
  H  H70  1  0.250700  0.334500  0.521400  1.0  0.1078
  H  H71  1  0.240700  0.516200  0.813600  1.0  0.1041
  H  H72  1  0.346600  0.413800  0.860400  1.0  0.1271
  H  H73  1  0.252100  0.166500  0.973300  1.0  0.0857
  H  H74  1  0.177900  0.208800  0.006600  1.0  0.1138
  H  H75  1  0.414100  0.978600  0.076000  1.0  0.2841
  H  H76  1  0.360000  0.924800  0.118000  1.0  0.3105
  H  H77  1  0.381900  0.666300  0.928700  1.0  0.0874
  H  H78  1  0.454700  0.876600  0.832500  1.0  0.0694
  H  H79  1  0.301600  0.633600  0.734100  1.0  0.1055
  H  H80  1  0.376500  0.849100  0.637200  1.0  0.1173
  H  H81  1  0.249300  0.834500  0.978600  1.0  0.1083
  H  H82  1  0.259300  0.016200  0.686400  1.0  0.1047
  H  H83  1  0.153400  0.913800  0.639600  1.0  0.1277
  H  H84  1  0.247900  0.666500  0.526700  1.0  0.0867
  H  H85  1  0.322100  0.708800  0.493400  1.0  0.1118
  H  H86  1  0.914100  0.478600  0.076000  1.0  0.2841
  H  H87  1  0.860000  0.424800  0.118000  1.0  0.3105
  H  H88  1  0.881900  0.166300  0.928700  1.0  0.0874
  H  H89  1  0.954700  0.376600  0.832500  1.0  0.0694
  H  H90  1  0.801600  0.133600  0.734100  1.0  0.1055
  H  H91  1  0.876500  0.349100  0.637200  1.0  0.1173
  H  H92  1  0.749300  0.334500  0.978600  1.0  0.1083
  H  H93  1  0.759300  0.516200  0.686400  1.0  0.1047
  H  H94  1  0.653400  0.413800  0.639600  1.0  0.1277
  H  H95  1  0.747900  0.166500  0.526700  1.0  0.0867
  H  H96  1  0.822100  0.208800  0.493400  1.0  0.1118
  C  C97  1  0.387600  0.943870  0.386200  1.0  0.6998
  C  C98  1  0.381000  0.296300  0.369400  1.0  0.1867
  C  C99  1  0.423500  0.173200  0.312700  1.0  0.1761
  C  C100  1  0.317200  0.068200  0.448300  1.0  0.2191
  C  C101  1  0.319600  0.011270  0.360900  1.0  -0.1655
  C  C102  1  0.332700  0.316400  0.252100  1.0  -0.1657
  C  C103  1  0.376800  0.189500  0.194800  1.0  -0.2105
  C  C104  1  0.251900  0.129200  0.420000  1.0  -0.1331
  C  C105  1  0.257500  0.020200  0.245300  1.0  -0.0921
  C  C106  1  0.330600  0.262600  0.162000  1.0  0.1391
  C  C107  1  0.190400  0.136500  0.304700  1.0  -0.1415
  C  C108  1  0.193800  0.081500  0.216800  1.0  -0.0527
  C  C109  1  0.280200  0.281900  0.032000  1.0  -0.164
  C  C110  1  0.121600  0.204900  0.273600  1.0  0.687
  C  C111  1  0.887600  0.443870  0.386200  1.0  0.6998
  C  C112  1  0.881000  0.796300  0.369400  1.0  0.1867
  C  C113  1  0.923500  0.673200  0.312700  1.0  0.1761
  C  C114  1  0.817200  0.568200  0.448300  1.0  0.2191
  C  C115  1  0.819600  0.511270  0.360900  1.0  -0.1655
  C  C116  1  0.832700  0.816400  0.252100  1.0  -0.1657
  C  C117  1  0.876800  0.689500  0.194800  1.0  -0.2105
  C  C118  1  0.751900  0.629200  0.420000  1.0  -0.1331
  C  C119  1  0.757500  0.520200  0.245300  1.0  -0.0921
  C  C120  1  0.830600  0.762600  0.162000  1.0  0.1391
  C  C121  1  0.690400  0.636500  0.304700  1.0  -0.1415
  C  C122  1  0.693800  0.581500  0.216800  1.0  -0.0527
  C  C123  1  0.780200  0.781900  0.032000  1.0  -0.164
  C  C124  1  0.621600  0.704900  0.273600  1.0  0.687
  C  C125  1  0.612400  0.943870  0.113800  1.0  0.6974
  C  C126  1  0.619000  0.296300  0.130600  1.0  0.1886
  C  C127  1  0.576500  0.173200  0.187300  1.0  0.1762
  C  C128  1  0.682800  0.068200  0.051700  1.0  0.2194
  C  C129  1  0.680400  0.011270  0.139100  1.0  -0.1659
  C  C130  1  0.667300  0.316400  0.247900  1.0  -0.1668
  C  C131  1  0.623200  0.189500  0.305200  1.0  -0.2102
  C  C132  1  0.748100  0.129200  0.080000  1.0  -0.1353
  C  C133  1  0.742500  0.020200  0.254700  1.0  -0.0941
  C  C134  1  0.669400  0.262600  0.338000  1.0  0.1385
  C  C135  1  0.809600  0.136500  0.195300  1.0  -0.1403
  C  C136  1  0.806200  0.081500  0.283200  1.0  -0.0514
  C  C137  1  0.719800  0.281900  0.468000  1.0  -0.1624
  C  C138  1  0.878400  0.204900  0.226400  1.0  0.685
  C  C139  1  0.112400  0.443870  0.113800  1.0  0.6974
  C  C140  1  0.119000  0.796300  0.130600  1.0  0.1886
  C  C141  1  0.076500  0.673200  0.187300  1.0  0.1762
  C  C142  1  0.182800  0.568200  0.051700  1.0  0.2194
  C  C143  1  0.180400  0.511270  0.139100  1.0  -0.1659
  C  C144  1  0.167300  0.816400  0.247900  1.0  -0.1668
  C  C145  1  0.123200  0.689500  0.305200  1.0  -0.2102
  C  C146  1  0.248100  0.629200  0.080000  1.0  -0.1353
  C  C147  1  0.242500  0.520200  0.254700  1.0  -0.0941
  C  C148  1  0.169400  0.762600  0.338000  1.0  0.1385
  C  C149  1  0.309600  0.636500  0.195300  1.0  -0.1403
  C  C150  1  0.306200  0.581500  0.283200  1.0  -0.0514
  C  C151  1  0.219800  0.781900  0.468000  1.0  -0.1624
  C  C152  1  0.378400  0.704900  0.226400  1.0  0.685
  C  C153  1  0.612400  0.056130  0.613800  1.0  0.6961
  C  C154  1  0.619000  0.703700  0.630600  1.0  0.1884
  C  C155  1  0.576500  0.826800  0.687300  1.0  0.1769
  C  C156  1  0.682800  0.931800  0.551700  1.0  0.2197
  C  C157  1  0.680400  0.988730  0.639100  1.0  -0.1661
  C  C158  1  0.667300  0.683600  0.747900  1.0  -0.1691
  C  C159  1  0.623200  0.810500  0.805200  1.0  -0.2103
  C  C160  1  0.748100  0.870800  0.580000  1.0  -0.1356
  C  C161  1  0.742500  0.979800  0.754700  1.0  -0.0947
  C  C162  1  0.669400  0.737400  0.838000  1.0  0.1385
  C  C163  1  0.809600  0.863500  0.695300  1.0  -0.14
  C  C164  1  0.806200  0.918500  0.783200  1.0  -0.051
  C  C165  1  0.719800  0.718100  0.968000  1.0  -0.1639
  C  C166  1  0.878400  0.795100  0.726400  1.0  0.6856
  C  C167  1  0.112400  0.556130  0.613800  1.0  0.6961
  C  C168  1  0.119000  0.203700  0.630600  1.0  0.1884
  C  C169  1  0.076500  0.326800  0.687300  1.0  0.1769
  C  C170  1  0.182800  0.431800  0.551700  1.0  0.2197
  C  C171  1  0.180400  0.488730  0.639100  1.0  -0.1661
  C  C172  1  0.167300  0.183600  0.747900  1.0  -0.1691
  C  C173  1  0.123200  0.310500  0.805200  1.0  -0.2103
  C  C174  1  0.248100  0.370800  0.580000  1.0  -0.1356
  C  C175  1  0.242500  0.479800  0.754700  1.0  -0.0947
  C  C176  1  0.169400  0.237400  0.838000  1.0  0.1385
  C  C177  1  0.309600  0.363500  0.695300  1.0  -0.14
  C  C178  1  0.306200  0.418500  0.783200  1.0  -0.051
  C  C179  1  0.219800  0.218100  0.968000  1.0  -0.1639
  C  C180  1  0.378400  0.295100  0.726400  1.0  0.6856
  C  C181  1  0.387600  0.056130  0.886200  1.0  0.6994
  C  C182  1  0.381000  0.703700  0.869400  1.0  0.1872
  C  C183  1  0.423500  0.826800  0.812700  1.0  0.1768
  C  C184  1  0.317200  0.931800  0.948300  1.0  0.2194
  C  C185  1  0.319600  0.988730  0.860900  1.0  -0.1656
  C  C186  1  0.332700  0.683600  0.752100  1.0  -0.1666
  C  C187  1  0.376800  0.810500  0.694800  1.0  -0.2104
  C  C188  1  0.251900  0.870800  0.920000  1.0  -0.1331
  C  C189  1  0.257500  0.979800  0.745300  1.0  -0.0932
  C  C190  1  0.330600  0.737400  0.662000  1.0  0.1387
  C  C191  1  0.190400  0.863500  0.804700  1.0  -0.141
  C  C192  1  0.193800  0.918500  0.716800  1.0  -0.0522
  C  C193  1  0.280200  0.718100  0.532000  1.0  -0.165
  C  C194  1  0.121600  0.795100  0.773600  1.0  0.6867
  C  C195  1  0.887600  0.556130  0.886200  1.0  0.6994
  C  C196  1  0.881000  0.203700  0.869400  1.0  0.1872
  C  C197  1  0.923500  0.326800  0.812700  1.0  0.1768
  C  C198  1  0.817200  0.431800  0.948300  1.0  0.2194
  C  C199  1  0.819600  0.488730  0.860900  1.0  -0.1656
  C  C200  1  0.832700  0.183600  0.752100  1.0  -0.1666
  C  C201  1  0.876800  0.310500  0.694800  1.0  -0.2104
  C  C202  1  0.751900  0.370800  0.920000  1.0  -0.1331
  C  C203  1  0.757500  0.479800  0.745300  1.0  -0.0932
  C  C204  1  0.830600  0.237400  0.662000  1.0  0.1387
  C  C205  1  0.690400  0.363500  0.804700  1.0  -0.141
  C  C206  1  0.693800  0.418500  0.716800  1.0  -0.0522
  C  C207  1  0.780200  0.218100  0.532000  1.0  -0.165
  C  C208  1  0.621600  0.295100  0.773600  1.0  0.6867
  N  N209  1  0.426410  0.225200  0.400000  1.0  -0.3402
  N  N210  1  0.385040  0.070380  0.563300  1.0  -0.6828
  N  N211  1  0.926410  0.725200  0.400000  1.0  -0.3402
  N  N212  1  0.885040  0.570380  0.563300  1.0  -0.6828
  N  N213  1  0.573590  0.225200  0.100000  1.0  -0.3419
  N  N214  1  0.614960  0.070380  0.936700  1.0  -0.6813
  N  N215  1  0.073590  0.725200  0.100000  1.0  -0.3419
  N  N216  1  0.114960  0.570380  0.936700  1.0  -0.6813
  N  N217  1  0.573590  0.774800  0.600000  1.0  -0.3419
  N  N218  1  0.614960  0.929620  0.436700  1.0  -0.6821
  N  N219  1  0.073590  0.274800  0.600000  1.0  -0.3419
  N  N220  1  0.114960  0.429620  0.436700  1.0  -0.6821
  N  N221  1  0.426410  0.774800  0.900000  1.0  -0.3399
  N  N222  1  0.385040  0.929620  0.063300  1.0  -0.6838
  N  N223  1  0.926410  0.274800  0.900000  1.0  -0.3399
  N  N224  1  0.885040  0.429620  0.063300  1.0  -0.6838
  O  O225  1  0.428950  0.920900  0.491120  1.0  -0.5829
  O  O226  1  0.402590  0.911750  0.300700  1.0  -0.5887
  O  O227  1  0.116050  0.248590  0.356500  1.0  -0.6791
  O  O228  1  0.076180  0.212910  0.164900  1.0  -0.5876
  O  O229  1  0.928950  0.420900  0.491120  1.0  -0.5829
  O  O230  1  0.902590  0.411750  0.300700  1.0  -0.5887
  O  O231  1  0.616050  0.748590  0.356500  1.0  -0.6791
  O  O232  1  0.576180  0.712910  0.164900  1.0  -0.5876
  O  O233  1  0.571050  0.920900  0.008880  1.0  -0.582
  O  O234  1  0.597410  0.911750  0.199300  1.0  -0.5885
  O  O235  1  0.883950  0.248590  0.143500  1.0  -0.6791
  O  O236  1  0.923820  0.212910  0.335100  1.0  -0.5868
  O  O237  1  0.071050  0.420900  0.008880  1.0  -0.582
  O  O238  1  0.097410  0.411750  0.199300  1.0  -0.5885
  O  O239  1  0.383950  0.748590  0.143500  1.0  -0.6791
  O  O240  1  0.423820  0.712910  0.335100  1.0  -0.5868
  O  O241  1  0.571050  0.079100  0.508880  1.0  -0.5821
  O  O242  1  0.597410  0.088250  0.699300  1.0  -0.5885
  O  O243  1  0.883950  0.751410  0.643500  1.0  -0.6789
  O  O244  1  0.923820  0.787090  0.835100  1.0  -0.589
  O  O245  1  0.071050  0.579100  0.508880  1.0  -0.5821
  O  O246  1  0.097410  0.588250  0.699300  1.0  -0.5885
  O  O247  1  0.383950  0.251410  0.643500  1.0  -0.6789
  O  O248  1  0.423820  0.287090  0.835100  1.0  -0.589
  O  O249  1  0.428950  0.079100  0.991120  1.0  -0.5816
  O  O250  1  0.402590  0.088250  0.800700  1.0  -0.588
  O  O251  1  0.116050  0.751410  0.856500  1.0  -0.6795
  O  O252  1  0.076180  0.787090  0.664900  1.0  -0.5897
  O  O253  1  0.928950  0.579100  0.991120  1.0  -0.5816
  O  O254  1  0.902590  0.588250  0.800700  1.0  -0.588
  O  O255  1  0.616050  0.251410  0.856500  1.0  -0.6795
  O  O256  1  0.576180  0.287090  0.664900  1.0  -0.5897
