# generated using pymatgen
data_CdH10C18(N3O5)2
_symmetry_space_group_name_H-M   'P 1'
_cell_length_a   6.71190000
_cell_length_b   24.87600000
_cell_length_c   14.06470000
_cell_angle_alpha   90.00000000
_cell_angle_beta   90.00000000
_cell_angle_gamma   90.00000000
_symmetry_Int_Tables_number   1
_chemical_formula_structural   CdH10C18(N3O5)2
_chemical_formula_sum   'Cd4 H40 C72 N24 O40'
_cell_volume   2348.31579162
_cell_formula_units_Z   4
loop_
 _symmetry_equiv_pos_site_id
 _symmetry_equiv_pos_as_xyz
  1  'x, y, z'
loop_
 _atom_site_type_symbol
 _atom_site_label
 _atom_site_symmetry_multiplicity
 _atom_site_fract_x
 _atom_site_fract_y
 _atom_site_fract_z
 _atom_site_occupancy
 _atom_site_charge
  Cd  Cd1  1  0.000000  0.250000  0.192280  1.0  1.1085
  Cd  Cd2  1  0.500000  0.750000  0.192280  1.0  1.1085
  Cd  Cd3  1  0.000000  0.750000  0.807720  1.0  1.1083
  Cd  Cd4  1  0.500000  0.250000  0.807720  1.0  1.1083
  H  H5  1  0.000000  0.196300  0.980900  1.0  0.1433
  H  H6  1  0.000000  0.114200  0.906200  1.0  0.1733
  H  H7  1  0.000000  0.041600  0.162200  1.0  0.1919
  H  H8  1  0.000000  0.127700  0.234000  1.0  0.1557
  H  H9  1  0.000000  0.170400  0.506400  1.0  0.163
  H  H10  1  0.500000  0.696300  0.980900  1.0  0.1433
  H  H11  1  0.500000  0.614200  0.906200  1.0  0.1733
  H  H12  1  0.500000  0.541600  0.162200  1.0  0.1919
  H  H13  1  0.500000  0.627700  0.234000  1.0  0.1557
  H  H14  1  0.500000  0.670400  0.506400  1.0  0.163
  H  H15  1  0.000000  0.303700  0.980900  1.0  0.1426
  H  H16  1  0.000000  0.385800  0.906200  1.0  0.1732
  H  H17  1  0.000000  0.458400  0.162200  1.0  0.1914
  H  H18  1  0.000000  0.372300  0.234000  1.0  0.1551
  H  H19  1  0.000000  0.329600  0.506400  1.0  0.1642
  H  H20  1  0.500000  0.803700  0.980900  1.0  0.1426
  H  H21  1  0.500000  0.885800  0.906200  1.0  0.1732
  H  H22  1  0.500000  0.958400  0.162200  1.0  0.1914
  H  H23  1  0.500000  0.872300  0.234000  1.0  0.1551
  H  H24  1  0.500000  0.829600  0.506400  1.0  0.1642
  H  H25  1  0.000000  0.696300  0.019100  1.0  0.1433
  H  H26  1  0.000000  0.614200  0.093800  1.0  0.1735
  H  H27  1  0.000000  0.541600  0.837800  1.0  0.1902
  H  H28  1  0.000000  0.627700  0.766000  1.0  0.1567
  H  H29  1  0.000000  0.670400  0.493600  1.0  0.1638
  H  H30  1  0.500000  0.196300  0.019100  1.0  0.1433
  H  H31  1  0.500000  0.114200  0.093800  1.0  0.1735
  H  H32  1  0.500000  0.041600  0.837800  1.0  0.1902
  H  H33  1  0.500000  0.127700  0.766000  1.0  0.1567
  H  H34  1  0.500000  0.170400  0.493600  1.0  0.1638
  H  H35  1  0.000000  0.803700  0.019100  1.0  0.1431
  H  H36  1  0.000000  0.885800  0.093800  1.0  0.1729
  H  H37  1  0.000000  0.958400  0.837800  1.0  0.1902
  H  H38  1  0.000000  0.872300  0.766000  1.0  0.1563
  H  H39  1  0.000000  0.829600  0.493600  1.0  0.1639
  H  H40  1  0.500000  0.303700  0.019100  1.0  0.1431
  H  H41  1  0.500000  0.385800  0.093800  1.0  0.1729
  H  H42  1  0.500000  0.458400  0.837800  1.0  0.1902
  H  H43  1  0.500000  0.372300  0.766000  1.0  0.1563
  H  H44  1  0.500000  0.329600  0.493600  1.0  0.1639
  C  C45  1  0.000000  0.164600  0.018700  1.0  0.2372
  C  C46  1  0.000000  0.115900  0.973700  1.0  -0.1132
  C  C47  1  0.000000  0.070300  0.025500  1.0  0.2342
  C  C48  1  0.000000  0.073200  0.124400  1.0  -0.0343
  C  C49  1  0.000000  0.124700  0.166700  1.0  0.2317
  C  C50  1  0.000000  0.203500  0.540100  1.0  -0.0972
  C  C51  1  0.000000  0.202500  0.639100  1.0  0.2583
  C  C52  1  0.500000  0.664600  0.018700  1.0  0.2372
  C  C53  1  0.500000  0.615900  0.973700  1.0  -0.1132
  C  C54  1  0.500000  0.570300  0.025500  1.0  0.2342
  C  C55  1  0.500000  0.573200  0.124400  1.0  -0.0343
  C  C56  1  0.500000  0.624700  0.166700  1.0  0.2317
  C  C57  1  0.500000  0.703500  0.540100  1.0  -0.0972
  C  C58  1  0.500000  0.702500  0.639100  1.0  0.2583
  C  C59  1  0.000000  0.335400  0.018700  1.0  0.2365
  C  C60  1  0.000000  0.384100  0.973700  1.0  -0.1132
  C  C61  1  0.000000  0.429700  0.025500  1.0  0.2344
  C  C62  1  0.000000  0.426800  0.124400  1.0  -0.033
  C  C63  1  0.000000  0.375300  0.166700  1.0  0.2317
  C  C64  1  0.000000  0.296500  0.540100  1.0  -0.0988
  C  C65  1  0.000000  0.297500  0.639100  1.0  0.2587
  C  C66  1  0.500000  0.835400  0.018700  1.0  0.2365
  C  C67  1  0.500000  0.884100  0.973700  1.0  -0.1132
  C  C68  1  0.500000  0.929700  0.025500  1.0  0.2344
  C  C69  1  0.500000  0.926800  0.124400  1.0  -0.033
  C  C70  1  0.500000  0.875300  0.166700  1.0  0.2317
  C  C71  1  0.500000  0.796500  0.540100  1.0  -0.0988
  C  C72  1  0.500000  0.797500  0.639100  1.0  0.2587
  C  C73  1  0.000000  0.664600  0.981300  1.0  0.2366
  C  C74  1  0.000000  0.615900  0.026300  1.0  -0.1154
  C  C75  1  0.000000  0.570300  0.974500  1.0  0.2394
  C  C76  1  0.000000  0.573200  0.875600  1.0  -0.0349
  C  C77  1  0.000000  0.624700  0.833300  1.0  0.2326
  C  C78  1  0.000000  0.703500  0.459900  1.0  -0.0985
  C  C79  1  0.000000  0.702500  0.360900  1.0  0.2583
  C  C80  1  0.500000  0.164600  0.981300  1.0  0.2366
  C  C81  1  0.500000  0.115900  0.026300  1.0  -0.1154
  C  C82  1  0.500000  0.070300  0.974500  1.0  0.2394
  C  C83  1  0.500000  0.073200  0.875600  1.0  -0.0349
  C  C84  1  0.500000  0.124700  0.833300  1.0  0.2326
  C  C85  1  0.500000  0.203500  0.459900  1.0  -0.0985
  C  C86  1  0.500000  0.202500  0.360900  1.0  0.2583
  C  C87  1  0.000000  0.835400  0.981300  1.0  0.2363
  C  C88  1  0.000000  0.884100  0.026300  1.0  -0.1157
  C  C89  1  0.000000  0.929700  0.974500  1.0  0.2399
  C  C90  1  0.000000  0.926800  0.875600  1.0  -0.0313
  C  C91  1  0.000000  0.875300  0.833300  1.0  0.2321
  C  C92  1  0.000000  0.796500  0.459900  1.0  -0.1
  C  C93  1  0.000000  0.797500  0.360900  1.0  0.2588
  C  C94  1  0.500000  0.335400  0.981300  1.0  0.2363
  C  C95  1  0.500000  0.384100  0.026300  1.0  -0.1157
  C  C96  1  0.500000  0.429700  0.974500  1.0  0.2399
  C  C97  1  0.500000  0.426800  0.875600  1.0  -0.0313
  C  C98  1  0.500000  0.375300  0.833300  1.0  0.2321
  C  C99  1  0.500000  0.296500  0.459900  1.0  -0.1
  C  C100  1  0.500000  0.297500  0.360900  1.0  0.2588
  C  C101  1  0.000000  0.250000  0.383600  1.0  0.7298
  C  C102  1  0.000000  0.250000  0.490400  1.0  -0.0483
  C  C103  1  0.000000  0.250000  0.690400  1.0  -0.0371
  C  C104  1  0.000000  0.250000  0.798800  1.0  0.7644
  C  C105  1  0.500000  0.750000  0.383600  1.0  0.7298
  C  C106  1  0.500000  0.750000  0.490400  1.0  -0.0483
  C  C107  1  0.500000  0.750000  0.690400  1.0  -0.0371
  C  C108  1  0.500000  0.750000  0.798800  1.0  0.7644
  C  C109  1  0.000000  0.750000  0.616400  1.0  0.7301
  C  C110  1  0.000000  0.750000  0.509600  1.0  -0.0495
  C  C111  1  0.000000  0.750000  0.309600  1.0  -0.0375
  C  C112  1  0.000000  0.750000  0.201200  1.0  0.763
  C  C113  1  0.500000  0.250000  0.616400  1.0  0.7301
  C  C114  1  0.500000  0.250000  0.509600  1.0  -0.0495
  C  C115  1  0.500000  0.250000  0.309600  1.0  -0.0375
  C  C116  1  0.500000  0.250000  0.201200  1.0  0.763
  N  N117  1  0.000000  0.169800  0.113100  1.0  -0.2677
  N  N118  1  0.000000  0.019400  0.974500  1.0  -0.0982
  N  N119  1  0.000000  0.151100  0.678000  1.0  0.2451
  N  N120  1  0.500000  0.669800  0.113100  1.0  -0.2677
  N  N121  1  0.500000  0.519400  0.974500  1.0  -0.0982
  N  N122  1  0.500000  0.651100  0.678000  1.0  0.2451
  N  N123  1  0.000000  0.330200  0.113100  1.0  -0.2661
  N  N124  1  0.000000  0.480600  0.974500  1.0  -0.0982
  N  N125  1  0.000000  0.348900  0.678000  1.0  0.2473
  N  N126  1  0.500000  0.830200  0.113100  1.0  -0.2661
  N  N127  1  0.500000  0.980600  0.974500  1.0  -0.0982
  N  N128  1  0.500000  0.848900  0.678000  1.0  0.2473
  N  N129  1  0.000000  0.669800  0.886900  1.0  -0.2673
  N  N130  1  0.000000  0.519400  0.025500  1.0  -0.0997
  N  N131  1  0.000000  0.651100  0.322000  1.0  0.2441
  N  N132  1  0.500000  0.169800  0.886900  1.0  -0.2673
  N  N133  1  0.500000  0.019400  0.025500  1.0  -0.0997
  N  N134  1  0.500000  0.151100  0.322000  1.0  0.2441
  N  N135  1  0.000000  0.830200  0.886900  1.0  -0.2662
  N  N136  1  0.000000  0.980600  0.025500  1.0  -0.0994
  N  N137  1  0.000000  0.848900  0.322000  1.0  0.2467
  N  N138  1  0.500000  0.330200  0.886900  1.0  -0.2662
  N  N139  1  0.500000  0.480600  0.025500  1.0  -0.0994
  N  N140  1  0.500000  0.348900  0.322000  1.0  0.2467
  O  O141  1  0.113000  0.116000  0.636000  1.0  -0.5522
  O  O142  1  0.613000  0.616000  0.636000  1.0  -0.5522
  O  O143  1  0.887000  0.384000  0.636000  1.0  -0.5537
  O  O144  1  0.387000  0.884000  0.636000  1.0  -0.5537
  O  O145  1  0.887000  0.616000  0.364000  1.0  -0.5522
  O  O146  1  0.387000  0.116000  0.364000  1.0  -0.5522
  O  O147  1  0.113000  0.884000  0.364000  1.0  -0.5533
  O  O148  1  0.613000  0.384000  0.364000  1.0  -0.5533
  O  O149  1  0.887000  0.884000  0.364000  1.0  -0.5537
  O  O150  1  0.387000  0.384000  0.364000  1.0  -0.5537
  O  O151  1  0.113000  0.616000  0.364000  1.0  -0.5525
  O  O152  1  0.613000  0.116000  0.364000  1.0  -0.5525
  O  O153  1  0.113000  0.384000  0.636000  1.0  -0.5529
  O  O154  1  0.613000  0.884000  0.636000  1.0  -0.5529
  O  O155  1  0.887000  0.116000  0.636000  1.0  -0.5519
  O  O156  1  0.387000  0.616000  0.636000  1.0  -0.5519
  O  O157  1  0.000000  0.294300  0.341100  1.0  -0.5339
  O  O158  1  0.000000  0.144900  0.760700  1.0  -0.483
  O  O159  1  0.500000  0.794300  0.341100  1.0  -0.5339
  O  O160  1  0.500000  0.644900  0.760700  1.0  -0.483
  O  O161  1  0.000000  0.205700  0.341100  1.0  -0.5336
  O  O162  1  0.000000  0.355100  0.760700  1.0  -0.4812
  O  O163  1  0.500000  0.705700  0.341100  1.0  -0.5336
  O  O164  1  0.500000  0.855100  0.760700  1.0  -0.4812
  O  O165  1  0.000000  0.794300  0.658900  1.0  -0.5345
  O  O166  1  0.000000  0.644900  0.239300  1.0  -0.4841
  O  O167  1  0.500000  0.294300  0.658900  1.0  -0.5345
  O  O168  1  0.500000  0.144900  0.239300  1.0  -0.4841
  O  O169  1  0.000000  0.705700  0.658900  1.0  -0.5339
  O  O170  1  0.000000  0.855100  0.239300  1.0  -0.482
  O  O171  1  0.500000  0.205700  0.658900  1.0  -0.5339
  O  O172  1  0.500000  0.355100  0.239300  1.0  -0.482
  O  O173  1  0.160600  0.250000  0.839600  1.0  -0.5597
  O  O174  1  0.660600  0.750000  0.839600  1.0  -0.5597
  O  O175  1  0.839400  0.250000  0.839600  1.0  -0.561
  O  O176  1  0.339400  0.750000  0.839600  1.0  -0.561
  O  O177  1  0.839400  0.750000  0.160400  1.0  -0.5616
  O  O178  1  0.339400  0.250000  0.160400  1.0  -0.5616
  O  O179  1  0.160600  0.750000  0.160400  1.0  -0.5605
  O  O180  1  0.660600  0.250000  0.160400  1.0  -0.5605
