# generated using pymatgen
data_Cd2H18C31(N3O4)2
_symmetry_space_group_name_H-M   'P 1'
_cell_length_a   13.32940000
_cell_length_b   16.20200000
_cell_length_c   20.28300000
_cell_angle_alpha   90.00000000
_cell_angle_beta   99.49600000
_cell_angle_gamma   90.00000000
_symmetry_Int_Tables_number   1
_chemical_formula_structural   Cd2H18C31(N3O4)2
_chemical_formula_sum   'Cd8 H72 C124 N24 O32'
_cell_volume   4320.35252420
_cell_formula_units_Z   4
loop_
 _symmetry_equiv_pos_site_id
 _symmetry_equiv_pos_as_xyz
  1  'x, y, z'
loop_
 _atom_site_type_symbol
 _atom_site_label
 _atom_site_symmetry_multiplicity
 _atom_site_fract_x
 _atom_site_fract_y
 _atom_site_fract_z
 _atom_site_occupancy
 _atom_site_charge
  Cd  Cd1  1  0.324320  0.498060  0.357870  1.0  0.9715
  Cd  Cd2  1  0.675680  0.998060  0.142130  1.0  0.9711
  Cd  Cd3  1  0.324320  0.001940  0.857870  1.0  0.9714
  Cd  Cd4  1  0.030220  0.198440  0.235160  1.0  0.9595
  Cd  Cd5  1  0.675680  0.501940  0.642130  1.0  0.9711
  Cd  Cd6  1  0.030220  0.301560  0.735160  1.0  0.9595
  Cd  Cd7  1  0.969780  0.801560  0.764840  1.0  0.9583
  Cd  Cd8  1  0.969780  0.698440  0.264840  1.0  0.9583
  H  H9  1  0.039900  0.916600  0.148500  1.0  0.1117
  H  H10  1  0.850600  0.348300  0.513800  1.0  0.0951
  H  H11  1  0.555900  0.876500  0.680100  1.0  0.1261
  H  H12  1  0.445800  0.615800  0.480000  1.0  0.1072
  H  H13  1  0.855900  0.588300  0.472100  1.0  0.1026
  H  H14  1  0.773500  0.305700  0.657800  1.0  0.1039
  H  H15  1  0.298100  0.567700  0.568000  1.0  0.1147
  H  H16  1  0.554200  0.384200  0.520000  1.0  0.1082
  H  H17  1  0.299300  0.822000  0.552900  1.0  0.1322
  H  H18  1  0.688500  0.244400  0.751300  1.0  0.0994
  H  H19  1  0.542100  0.314900  0.274800  1.0  0.111
  H  H20  1  0.272500  0.808900  0.418900  1.0  0.1356
  H  H21  1  0.688500  0.255600  0.251300  1.0  0.0996
  H  H22  1  0.432000  0.232400  0.981200  1.0  0.1339
  H  H23  1  0.554200  0.115800  0.020000  1.0  0.1076
  H  H24  1  0.284000  0.329600  0.783900  1.0  0.0891
  H  H25  1  0.444100  0.376500  0.819900  1.0  0.1265
  H  H26  1  0.457900  0.685100  0.725200  1.0  0.1105
  H  H27  1  0.960100  0.416600  0.351500  1.0  0.1134
  H  H28  1  0.263300  0.266000  0.966300  1.0  0.1296
  H  H29  1  0.228700  0.931300  0.600500  1.0  0.1252
  H  H30  1  0.555900  0.623500  0.180100  1.0  0.127
  H  H31  1  0.445800  0.884200  0.980000  1.0  0.1076
  H  H32  1  0.700700  0.178000  0.447100  1.0  0.1294
  H  H33  1  0.727500  0.191100  0.581100  1.0  0.135
  H  H34  1  0.736700  0.766000  0.533700  1.0  0.1297
  H  H35  1  0.093600  0.266700  0.898400  1.0  0.0968
  H  H36  1  0.149400  0.651700  0.486200  1.0  0.0956
  H  H37  1  0.149400  0.848300  0.986200  1.0  0.0953
  H  H38  1  0.226500  0.805700  0.842200  1.0  0.1036
  H  H39  1  0.824100  0.492200  0.802500  1.0  0.1018
  H  H40  1  0.432000  0.267600  0.481200  1.0  0.1335
  H  H41  1  0.039900  0.583400  0.648500  1.0  0.1115
  H  H42  1  0.906400  0.733300  0.101600  1.0  0.0967
  H  H43  1  0.299300  0.678000  0.052900  1.0  0.1314
  H  H44  1  0.311500  0.744400  0.748700  1.0  0.0992
  H  H45  1  0.542100  0.185100  0.774800  1.0  0.1109
  H  H46  1  0.226500  0.694300  0.342200  1.0  0.1038
  H  H47  1  0.716000  0.670400  0.216100  1.0  0.0899
  H  H48  1  0.553900  0.399900  0.746500  1.0  0.0973
  H  H49  1  0.568000  0.767600  0.018800  1.0  0.1338
  H  H50  1  0.298100  0.932300  0.068000  1.0  0.1149
  H  H51  1  0.855900  0.911700  0.972100  1.0  0.1023
  H  H52  1  0.736700  0.734000  0.033700  1.0  0.13
  H  H53  1  0.824100  0.007800  0.302500  1.0  0.1013
  H  H54  1  0.444100  0.123500  0.319900  1.0  0.1269
  H  H55  1  0.446100  0.899900  0.753500  1.0  0.097
  H  H56  1  0.960100  0.083400  0.851500  1.0  0.1132
  H  H57  1  0.727500  0.308900  0.081100  1.0  0.1351
  H  H58  1  0.701900  0.067700  0.932000  1.0  0.1148
  H  H59  1  0.773500  0.194300  0.157800  1.0  0.1036
  H  H60  1  0.284000  0.170400  0.283900  1.0  0.0889
  H  H61  1  0.568000  0.732400  0.518800  1.0  0.1341
  H  H62  1  0.228700  0.568700  0.100500  1.0  0.1247
  H  H63  1  0.553900  0.100100  0.246500  1.0  0.0971
  H  H64  1  0.144100  0.088300  0.027900  1.0  0.103
  H  H65  1  0.144100  0.411700  0.527900  1.0  0.1033
  H  H66  1  0.701900  0.432300  0.432000  1.0  0.1148
  H  H67  1  0.175900  0.992200  0.697500  1.0  0.1016
  H  H68  1  0.263300  0.234000  0.466300  1.0  0.1297
  H  H69  1  0.716000  0.829600  0.716100  1.0  0.0902
  H  H70  1  0.093600  0.233300  0.398400  1.0  0.0969
  H  H71  1  0.700700  0.322000  0.947100  1.0  0.13
  H  H72  1  0.771300  0.068700  0.399500  1.0  0.1252
  H  H73  1  0.446100  0.600100  0.253500  1.0  0.097
  H  H74  1  0.272500  0.691100  0.918900  1.0  0.135
  H  H75  1  0.311500  0.755600  0.248700  1.0  0.0988
  H  H76  1  0.771300  0.431300  0.899500  1.0  0.1254
  H  H77  1  0.906400  0.766700  0.601600  1.0  0.0963
  H  H78  1  0.457900  0.814900  0.225200  1.0  0.1104
  H  H79  1  0.850600  0.151700  0.013800  1.0  0.0954
  H  H80  1  0.175900  0.507800  0.197500  1.0  0.1017
  C  C81  1  0.301100  0.743600  0.921800  1.0  -0.0863
  C  C82  1  0.846100  0.779100  0.616900  1.0  -0.0027
  C  C83  1  0.606500  0.379000  0.355600  1.0  -0.1504
  C  C84  1  0.393500  0.879000  0.144400  1.0  -0.1509
  C  C85  1  0.001400  0.124600  0.033400  1.0  -0.1385
  C  C86  1  0.266400  0.933000  0.643300  1.0  -0.1593
  C  C87  1  0.029700  0.594200  0.602900  1.0  -0.0639
  C  C88  1  0.875000  0.259300  0.312100  1.0  0.7124
  C  C89  1  0.508300  0.081300  0.866600  1.0  0.6559
  C  C90  1  0.257100  0.312400  0.821100  1.0  0.1524
  C  C91  1  0.215700  0.805800  0.171200  1.0  -0.0818
  C  C92  1  0.998600  0.624600  0.466600  1.0  -0.1373
  C  C93  1  0.603100  0.149200  0.044800  1.0  0.1264
  C  C94  1  0.603900  0.173700  0.801900  1.0  0.0028
  C  C95  1  0.421800  0.195900  0.397600  1.0  0.1537
  C  C96  1  0.581300  0.356200  0.878000  1.0  0.1683
  C  C97  1  0.369400  0.682500  0.065700  1.0  -0.205
  C  C98  1  0.065500  0.082200  0.934300  1.0  -0.1536
  C  C99  1  0.019700  0.351700  0.605500  1.0  0.7211
  C  C100  1  0.476500  0.350200  0.858300  1.0  -0.2373
  C  C101  1  0.308700  0.790400  0.211900  1.0  -0.1204
  C  C102  1  0.476500  0.149800  0.358300  1.0  -0.2367
  C  C103  1  0.418700  0.643800  0.122000  1.0  0.1684
  C  C104  1  0.970300  0.405800  0.397100  1.0  -0.0671
  C  C105  1  0.581300  0.143800  0.378000  1.0  0.1692
  C  C106  1  0.784300  0.305800  0.328800  1.0  -0.0807
  C  C107  1  0.427600  0.728600  0.028400  1.0  0.1797
  C  C108  1  0.603900  0.326300  0.301900  1.0  0.0032
  C  C109  1  0.846900  0.554900  0.598400  1.0  0.6743
  C  C110  1  0.385200  0.583500  0.227700  1.0  0.1487
  C  C111  1  0.606500  0.121000  0.855600  1.0  -0.1508
  C  C112  1  0.491700  0.581300  0.633400  1.0  0.6576
  C  C113  1  0.889500  0.378300  0.426000  1.0  -0.0039
  C  C114  1  0.691300  0.209600  0.788100  1.0  -0.1123
  C  C115  1  0.153100  0.054900  0.901600  1.0  0.6747
  C  C116  1  0.970300  0.094200  0.897100  1.0  -0.0658
  C  C117  1  0.019700  0.148300  0.105500  1.0  0.7213
  C  C118  1  0.572400  0.271400  0.971600  1.0  0.1821
  C  C119  1  0.699600  0.103800  0.896100  1.0  -0.0791
  C  C120  1  0.211500  0.859900  0.117000  1.0  0.0133
  C  C121  1  0.905000  0.135200  0.993600  1.0  -0.0544
  C  C122  1  0.919800  0.903000  0.997500  1.0  0.0214
  C  C123  1  0.396900  0.649200  0.455200  1.0  0.1261
  C  C124  1  0.889500  0.121700  0.926000  1.0  -0.004
  C  C125  1  0.723000  0.193100  0.120200  1.0  0.0249
  C  C126  1  0.614800  0.083500  0.272300  1.0  0.149
  C  C127  1  0.630600  0.182500  0.434300  1.0  -0.2034
  C  C128  1  0.300400  0.896200  0.103900  1.0  -0.0808
  C  C129  1  0.784300  0.194200  0.828800  1.0  -0.0807
  C  C130  1  0.998600  0.875400  0.966600  1.0  -0.137
  C  C131  1  0.530900  0.736500  0.044800  1.0  -0.2545
  C  C132  1  0.742900  0.812400  0.678900  1.0  0.1507
  C  C133  1  0.752200  0.722100  0.079100  1.0  -0.157
  C  C134  1  0.723000  0.306900  0.620200  1.0  0.0253
  C  C135  1  0.393500  0.621000  0.644400  1.0  -0.1524
  C  C136  1  0.095000  0.864800  0.006400  1.0  -0.0552
  C  C137  1  0.698900  0.256400  0.078200  1.0  -0.0883
  C  C138  1  0.125000  0.740700  0.687900  1.0  0.7108
  C  C139  1  0.211500  0.640100  0.617000  1.0  0.0128
  C  C140  1  0.257100  0.187600  0.321100  1.0  0.1526
  C  C141  1  0.691300  0.290400  0.288100  1.0  -0.1104
  C  C142  1  0.788500  0.140100  0.883000  1.0  0.0096
  C  C143  1  0.491700  0.918700  0.133400  1.0  0.6586
  C  C144  1  0.846100  0.720900  0.116900  1.0  -0.002
  C  C145  1  0.980300  0.648300  0.394500  1.0  0.721
  C  C146  1  0.934500  0.582200  0.565700  1.0  -0.1528
  C  C147  1  0.029700  0.905800  0.102900  1.0  -0.0623
  C  C148  1  0.788500  0.359900  0.383000  1.0  0.0098
  C  C149  1  0.980300  0.851700  0.894500  1.0  0.7204
  C  C150  1  0.762100  0.033800  0.303200  1.0  -0.0094
  C  C151  1  0.237900  0.533800  0.196800  1.0  -0.01
  C  C152  1  0.153900  0.220900  0.383100  1.0  -0.0027
  C  C153  1  0.427600  0.771400  0.528400  1.0  0.1811
  C  C154  1  0.578200  0.804100  0.602400  1.0  0.1562
  C  C155  1  0.469100  0.236500  0.455200  1.0  -0.2568
  C  C156  1  0.001400  0.375400  0.533400  1.0  -0.1384
  C  C157  1  0.630600  0.317500  0.934300  1.0  -0.2018
  C  C158  1  0.369400  0.817500  0.565700  1.0  -0.2029
  C  C159  1  0.733600  0.433000  0.856700  1.0  -0.149
  C  C160  1  0.752200  0.777900  0.579100  1.0  -0.1517
  C  C161  1  0.080200  0.403000  0.502500  1.0  0.02
  C  C162  1  0.578200  0.695900  0.102400  1.0  0.1557
  C  C163  1  0.742900  0.687600  0.178900  1.0  0.1502
  C  C164  1  0.396100  0.826300  0.198100  1.0  0.0013
  C  C165  1  0.762100  0.466200  0.803200  1.0  -0.0093
  C  C166  1  0.523500  0.649800  0.141700  1.0  -0.234
  C  C167  1  0.065500  0.417800  0.434300  1.0  -0.1535
  C  C168  1  0.572400  0.228600  0.471600  1.0  0.1826
  C  C169  1  0.699600  0.396200  0.396100  1.0  -0.0829
  C  C170  1  0.247800  0.277900  0.920900  1.0  -0.1516
  C  C171  1  0.237900  0.966200  0.696800  1.0  -0.0096
  C  C172  1  0.110500  0.878300  0.074000  1.0  -0.0033
  C  C173  1  0.125000  0.759300  0.187900  1.0  0.7113
  C  C174  1  0.919800  0.597000  0.497500  1.0  0.0214
  C  C175  1  0.846900  0.945100  0.098400  1.0  0.6741
  C  C176  1  0.523500  0.850200  0.641700  1.0  -0.2353
  C  C177  1  0.875000  0.240700  0.812100  1.0  0.7125
  C  C178  1  0.153900  0.279100  0.883100  1.0  -0.0033
  C  C179  1  0.733600  0.067000  0.356700  1.0  -0.1516
  C  C180  1  0.396100  0.673700  0.698100  1.0  0.0002
  C  C181  1  0.266400  0.567000  0.143300  1.0  -0.1558
  C  C182  1  0.698900  0.243600  0.578200  1.0  -0.0866
  C  C183  1  0.247800  0.222100  0.420900  1.0  -0.1518
  C  C184  1  0.508300  0.418700  0.366600  1.0  0.6565
  C  C185  1  0.603100  0.350800  0.544800  1.0  0.1266
  C  C186  1  0.396900  0.850800  0.955200  1.0  0.1269
  C  C187  1  0.300400  0.603800  0.603900  1.0  -0.0796
  C  C188  1  0.530900  0.763500  0.544800  1.0  -0.2553
  C  C189  1  0.153100  0.445100  0.401600  1.0  0.6737
  C  C190  1  0.095000  0.635200  0.506400  1.0  -0.0543
  C  C191  1  0.277000  0.806900  0.879800  1.0  0.0234
  C  C192  1  0.421800  0.304100  0.897600  1.0  0.1538
  C  C193  1  0.614800  0.416500  0.772300  1.0  0.1494
  C  C194  1  0.080200  0.097000  0.002500  1.0  0.02
  C  C195  1  0.905000  0.364800  0.493600  1.0  -0.0541
  C  C196  1  0.469100  0.263500  0.955200  1.0  -0.2571
  C  C197  1  0.277000  0.693100  0.379800  1.0  0.0234
  C  C198  1  0.934500  0.917800  0.065700  1.0  -0.1533
  C  C199  1  0.418700  0.856200  0.622000  1.0  0.1683
  C  C200  1  0.301100  0.756400  0.421800  1.0  -0.0875
  C  C201  1  0.110500  0.621700  0.574000  1.0  -0.0035
  C  C202  1  0.308700  0.709600  0.711900  1.0  -0.1134
  C  C203  1  0.385200  0.916500  0.727700  1.0  0.1484
  C  C204  1  0.215700  0.694200  0.671200  1.0  -0.0828
  N  N205  1  0.313800  0.543100  0.251700  1.0  -0.3979
  N  N206  1  0.685200  0.702500  0.120400  1.0  0.0346
  N  N207  1  0.839000  0.801100  0.680300  1.0  -0.3962
  N  N208  1  0.839000  0.698900  0.180300  1.0  -0.3949
  N  N209  1  0.639100  0.401800  0.837200  1.0  0.044
  N  N210  1  0.336800  0.626600  0.399900  1.0  -0.3586
  N  N211  1  0.313800  0.956900  0.751700  1.0  -0.4001
  N  N212  1  0.360900  0.901800  0.662800  1.0  0.0453
  N  N213  1  0.663200  0.373400  0.600100  1.0  -0.3594
  N  N214  1  0.639100  0.098200  0.337200  1.0  0.0451
  N  N215  1  0.360900  0.598200  0.162800  1.0  0.0463
  N  N216  1  0.686200  0.456900  0.748300  1.0  -0.4016
  N  N217  1  0.314800  0.202500  0.379600  1.0  0.034
  N  N218  1  0.377400  0.726900  0.470300  1.0  0.0537
  N  N219  1  0.336800  0.873400  0.899900  1.0  -0.3589
  N  N220  1  0.161000  0.198900  0.319700  1.0  -0.3936
  N  N221  1  0.685200  0.797500  0.620400  1.0  0.033
  N  N222  1  0.663200  0.126600  0.100100  1.0  -0.3581
  N  N223  1  0.686200  0.043100  0.248300  1.0  -0.4022
  N  N224  1  0.377400  0.773100  0.970300  1.0  0.0532
  N  N225  1  0.314800  0.297500  0.879600  1.0  0.0326
  N  N226  1  0.622600  0.226900  0.029700  1.0  0.0542
  N  N227  1  0.161000  0.301100  0.819700  1.0  -0.3934
  N  N228  1  0.622600  0.273100  0.529700  1.0  0.054
  O  O229  1  0.895700  0.268600  0.255500  1.0  -0.5778
  O  O230  1  0.104300  0.731400  0.744500  1.0  -0.5792
  O  O231  1  0.899000  0.864100  0.859000  1.0  -0.5822
  O  O232  1  0.049100  0.813000  0.872600  1.0  -0.6062
  O  O233  1  0.758900  0.947900  0.061800  1.0  -0.6253
  O  O234  1  0.950900  0.313000  0.627400  1.0  -0.6062
  O  O235  1  0.491000  0.975200  0.091700  1.0  -0.6202
  O  O236  1  0.899000  0.635900  0.359000  1.0  -0.5813
  O  O237  1  0.758900  0.552100  0.561800  1.0  -0.6255
  O  O238  1  0.895700  0.231400  0.755500  1.0  -0.5784
  O  O239  1  0.101000  0.364100  0.641000  1.0  -0.5821
  O  O240  1  0.509000  0.475200  0.408300  1.0  -0.6191
  O  O241  1  0.491000  0.524800  0.591700  1.0  -0.6188
  O  O242  1  0.923400  0.214600  0.356400  1.0  -0.5496
  O  O243  1  0.573200  0.893700  0.166800  1.0  -0.5854
  O  O244  1  0.509000  0.024800  0.908300  1.0  -0.617
  O  O245  1  0.857400  0.536200  0.658100  1.0  -0.5854
  O  O246  1  0.241100  0.052100  0.938200  1.0  -0.626
  O  O247  1  0.101000  0.135900  0.141000  1.0  -0.58
  O  O248  1  0.426800  0.393700  0.333200  1.0  -0.5859
  O  O249  1  0.142600  0.036200  0.841900  1.0  -0.5849
  O  O250  1  0.950900  0.187000  0.127400  1.0  -0.6064
  O  O251  1  0.923400  0.285400  0.856400  1.0  -0.5514
  O  O252  1  0.573200  0.606300  0.666800  1.0  -0.5852
  O  O253  1  0.076600  0.785400  0.643600  1.0  -0.5509
  O  O254  1  0.426800  0.106300  0.833200  1.0  -0.5856
  O  O255  1  0.241100  0.447900  0.438200  1.0  -0.626
  O  O256  1  0.076600  0.714600  0.143600  1.0  -0.5521
  O  O257  1  0.857400  0.963800  0.158100  1.0  -0.5857
  O  O258  1  0.142600  0.463800  0.341900  1.0  -0.5848
  O  O259  1  0.049100  0.687000  0.372600  1.0  -0.6068
  O  O260  1  0.104300  0.768600  0.244500  1.0  -0.5794
