# generated using pymatgen
data_CdH10C15(NO2)2
_symmetry_space_group_name_H-M   'P 1'
_cell_length_a   11.12800000
_cell_length_b   14.05500000
_cell_length_c   22.97900000
_cell_angle_alpha   90.00000000
_cell_angle_beta   103.99200000
_cell_angle_gamma   90.00000000
_symmetry_Int_Tables_number   1
_chemical_formula_structural   CdH10C15(NO2)2
_chemical_formula_sum   'Cd8 H80 C120 N16 O32'
_cell_volume   3487.37239166
_cell_formula_units_Z   8
loop_
 _symmetry_equiv_pos_site_id
 _symmetry_equiv_pos_as_xyz
  1  'x, y, z'
loop_
 _atom_site_type_symbol
 _atom_site_label
 _atom_site_symmetry_multiplicity
 _atom_site_fract_x
 _atom_site_fract_y
 _atom_site_fract_z
 _atom_site_occupancy
 _atom_site_charge
  Cd  Cd1  1  0.066860  0.671200  0.192860  1.0  0.967
  Cd  Cd2  1  0.698610  0.526060  0.197750  1.0  0.9912
  Cd  Cd3  1  0.301390  0.473940  0.802250  1.0  0.9917
  Cd  Cd4  1  0.801390  0.026060  0.302250  1.0  0.9913
  Cd  Cd5  1  0.433140  0.171200  0.307140  1.0  0.9671
  Cd  Cd6  1  0.198610  0.973940  0.697750  1.0  0.991
  Cd  Cd7  1  0.933140  0.328800  0.807140  1.0  0.9672
  Cd  Cd8  1  0.566860  0.828800  0.692860  1.0  0.967
  H  H9  1  0.774100  0.270900  0.578100  1.0  0.1226
  H  H10  1  0.266100  0.132800  0.970000  1.0  0.1017
  H  H11  1  0.492300  0.937900  0.813800  1.0  0.0981
  H  H12  1  0.888200  0.592700  0.568100  1.0  0.0892
  H  H13  1  0.262900  0.316400  0.492100  1.0  0.1067
  H  H14  1  0.274100  0.229100  0.078100  1.0  0.1228
  H  H15  1  0.938100  0.840700  0.491600  1.0  0.1092
  H  H16  1  0.030400  0.941400  0.794900  1.0  0.1059
  H  H17  1  0.438100  0.659300  0.991600  1.0  0.1092
  H  H18  1  0.886300  0.956800  0.091500  1.0  0.1266
  H  H19  1  0.197100  0.966500  0.424100  1.0  0.1068
  H  H20  1  0.302900  0.466500  0.075900  1.0  0.1062
  H  H21  1  0.766100  0.367200  0.470000  1.0  0.1018
  H  H22  1  0.969600  0.058600  0.205100  1.0  0.1054
  H  H23  1  0.507700  0.062100  0.186200  1.0  0.0968
  H  H24  1  0.195000  0.275800  0.718600  1.0  0.1093
  H  H25  1  0.753800  0.761000  0.376300  1.0  0.1252
  H  H26  1  0.560100  0.703500  0.424800  1.0  0.1229
  H  H27  1  0.598300  0.354700  0.915400  1.0  0.1045
  H  H28  1  0.237100  0.816400  0.007900  1.0  0.1071
  H  H29  1  0.212200  0.699400  0.627300  1.0  0.1088
  H  H30  1  0.990900  0.888600  0.895300  1.0  0.1247
  H  H31  1  0.018600  0.450500  0.579100  1.0  0.1175
  H  H32  1  0.113700  0.043200  0.908500  1.0  0.1259
  H  H33  1  0.805000  0.724200  0.281400  1.0  0.1093
  H  H34  1  0.401700  0.645300  0.084600  1.0  0.1059
  H  H35  1  0.550800  0.164600  0.782300  1.0  0.1128
  H  H36  1  0.737900  0.737800  0.819400  1.0  0.1056
  H  H37  1  0.007700  0.437900  0.686200  1.0  0.0969
  H  H38  1  0.237900  0.762200  0.319400  1.0  0.1053
  H  H39  1  0.992300  0.562100  0.313800  1.0  0.0969
  H  H40  1  0.981400  0.549500  0.420900  1.0  0.1163
  H  H41  1  0.939900  0.203500  0.075200  1.0  0.1228
  H  H42  1  0.060100  0.796500  0.924800  1.0  0.123
  H  H43  1  0.225900  0.729100  0.421900  1.0  0.122
  H  H44  1  0.386300  0.543200  0.591500  1.0  0.1265
  H  H45  1  0.490900  0.611400  0.395300  1.0  0.1246
  H  H46  1  0.712200  0.800600  0.127300  1.0  0.1085
  H  H47  1  0.762100  0.237800  0.680600  1.0  0.1055
  H  H48  1  0.737100  0.683600  0.507900  1.0  0.1068
  H  H49  1  0.155500  0.426900  0.990800  1.0  0.1069
  H  H50  1  0.287800  0.199400  0.872700  1.0  0.1085
  H  H51  1  0.844500  0.573100  0.009200  1.0  0.1063
  H  H52  1  0.655500  0.073100  0.490800  1.0  0.1074
  H  H53  1  0.344500  0.926900  0.509200  1.0  0.1072
  H  H54  1  0.733900  0.867200  0.030000  1.0  0.1025
  H  H55  1  0.613700  0.456800  0.408500  1.0  0.1258
  H  H56  1  0.787800  0.300600  0.372700  1.0  0.1081
  H  H57  1  0.098300  0.145300  0.415400  1.0  0.1057
  H  H58  1  0.246200  0.239000  0.623700  1.0  0.1252
  H  H59  1  0.481400  0.950500  0.920900  1.0  0.1166
  H  H60  1  0.746200  0.261000  0.123700  1.0  0.1254
  H  H61  1  0.725900  0.770900  0.921900  1.0  0.1221
  H  H62  1  0.901700  0.854700  0.584600  1.0  0.106
  H  H63  1  0.233900  0.632800  0.530000  1.0  0.1016
  H  H64  1  0.262100  0.262200  0.180600  1.0  0.1057
  H  H65  1  0.611800  0.092700  0.931900  1.0  0.0893
  H  H66  1  0.388200  0.907300  0.068100  1.0  0.0896
  H  H67  1  0.561900  0.340700  0.008400  1.0  0.109
  H  H68  1  0.802900  0.033500  0.575900  1.0  0.1067
  H  H69  1  0.531200  0.860900  0.960000  1.0  0.1255
  H  H70  1  0.061900  0.159300  0.508400  1.0  0.1086
  H  H71  1  0.009100  0.111400  0.104700  1.0  0.1229
  H  H72  1  0.305000  0.775800  0.781400  1.0  0.1091
  H  H73  1  0.469600  0.441400  0.705100  1.0  0.1053
  H  H74  1  0.439900  0.296500  0.575200  1.0  0.1222
  H  H75  1  0.449200  0.835400  0.217700  1.0  0.113
  H  H76  1  0.253800  0.739000  0.876300  1.0  0.1258
  H  H77  1  0.509100  0.388600  0.604700  1.0  0.1232
  H  H78  1  0.050800  0.335400  0.282300  1.0  0.1127
  H  H79  1  0.697100  0.533500  0.924100  1.0  0.1069
  H  H80  1  0.111800  0.407300  0.431900  1.0  0.0893
  H  H81  1  0.468800  0.139100  0.040000  1.0  0.1251
  H  H82  1  0.518600  0.049500  0.079100  1.0  0.1173
  H  H83  1  0.530400  0.558600  0.294900  1.0  0.1055
  H  H84  1  0.031200  0.639100  0.460000  1.0  0.1255
  H  H85  1  0.762900  0.183600  0.992100  1.0  0.1065
  H  H86  1  0.968800  0.360900  0.540000  1.0  0.1253
  H  H87  1  0.695000  0.224200  0.218600  1.0  0.1088
  H  H88  1  0.949200  0.664600  0.717700  1.0  0.1133
  C  C89  1  0.051800  0.608500  0.327700  1.0  0.1751
  C  C90  1  0.333200  0.852200  0.609170  1.0  0.7004
  C  C91  1  0.761500  0.431900  0.477500  1.0  -0.1084
  C  C92  1  0.907300  0.764300  0.652830  1.0  -0.1593
  C  C93  1  0.434900  0.285400  0.902520  1.0  0.0319
  C  C94  1  0.065100  0.785400  0.597480  1.0  0.0323
  C  C95  1  0.051200  0.909400  0.449540  1.0  -0.1704
  C  C96  1  0.864400  0.283800  0.366250  1.0  -0.0386
  C  C97  1  0.330100  0.514400  0.559800  1.0  -0.1624
  C  C98  1  0.094700  0.671900  0.679160  1.0  -0.1635
  C  C99  1  0.980200  0.140300  0.504070  1.0  -0.0877
  C  C100  1  0.762100  0.588900  0.006330  1.0  -0.1065
  C  C101  1  0.666100  0.064400  0.964400  1.0  -0.1149
  C  C102  1  0.545100  0.439500  0.104280  1.0  0.6444
  C  C103  1  0.654300  0.971000  0.974700  1.0  0.0562
  C  C104  1  0.934900  0.214600  0.402520  1.0  0.0319
  C  C105  1  0.325900  0.434200  0.044900  1.0  -0.0334
  C  C106  1  0.551800  0.891500  0.827700  1.0  0.1749
  C  C107  1  0.070700  0.857000  0.906400  1.0  -0.0526
  C  C108  1  0.262100  0.911100  0.506330  1.0  -0.1079
  C  C109  1  0.261500  0.068100  0.977500  1.0  -0.1102
  C  C110  1  0.813600  0.282400  0.669100  1.0  -0.0138
  C  C111  1  0.049700  0.191500  0.391880  1.0  -0.0719
  C  C112  1  0.825900  0.065800  0.544900  1.0  -0.033
  C  C113  1  0.978600  0.695400  0.688050  1.0  0.0047
  C  C114  1  0.213700  0.208200  0.334670  1.0  0.7096
  C  C115  1  0.166100  0.435600  0.464400  1.0  -0.1073
  C  C116  1  0.045100  0.060500  0.604280  1.0  0.6445
  C  C117  1  0.738500  0.931900  0.022500  1.0  -0.1109
  C  C118  1  0.929300  0.143000  0.093600  1.0  -0.054
  C  C119  1  0.674900  0.897600  0.220340  1.0  0.6798
  C  C120  1  0.092700  0.235700  0.347170  1.0  -0.1619
  C  C121  1  0.345700  0.029000  0.025300  1.0  0.0561
  C  C122  1  0.551200  0.590600  0.949540  1.0  -0.1704
  C  C123  1  0.592700  0.264300  0.847170  1.0  -0.1614
  C  C124  1  0.174100  0.934200  0.455100  1.0  -0.0352
  C  C125  1  0.325100  0.102400  0.779660  1.0  0.6803
  C  C126  1  0.837700  0.081800  0.049700  1.0  0.0491
  C  C127  1  0.674100  0.565800  0.955100  1.0  -0.0352
  C  C128  1  0.162300  0.918200  0.950300  1.0  0.0493
  C  C129  1  0.238500  0.568100  0.522500  1.0  -0.1111
  C  C130  1  0.592100  0.604700  0.302990  1.0  0.1456
  C  C131  1  0.313600  0.217600  0.169100  1.0  -0.0147
  C  C132  1  0.554000  0.911300  0.936000  1.0  -0.055
  C  C133  1  0.662300  0.581800  0.450300  1.0  0.0496
  C  C134  1  0.549700  0.308500  0.891880  1.0  -0.0733
  C  C135  1  0.243100  0.880500  0.999000  1.0  -0.1296
  C  C136  1  0.054000  0.588700  0.436000  1.0  -0.0554
  C  C137  1  0.019800  0.859700  0.495930  1.0  -0.0885
  C  C138  1  0.946000  0.411300  0.564000  1.0  -0.0557
  C  C139  1  0.679700  0.800300  0.887400  1.0  -0.1375
  C  C140  1  0.845700  0.471000  0.525300  1.0  0.0563
  C  C141  1  0.405300  0.171900  0.820840  1.0  -0.1637
  C  C142  1  0.269600  0.364600  0.946010  1.0  -0.0992
  C  C143  1  0.333900  0.935600  0.035600  1.0  -0.1175
  C  C144  1  0.478600  0.804600  0.188050  1.0  0.005
  C  C145  1  0.742900  0.695500  0.295970  1.0  0.0326
  C  C146  1  0.169900  0.014400  0.940200  1.0  -0.1548
  C  C147  1  0.186400  0.717600  0.330900  1.0  -0.0137
  C  C148  1  0.905300  0.328100  0.320840  1.0  -0.162
  C  C149  1  0.154300  0.529000  0.474700  1.0  0.0559
  C  C150  1  0.407300  0.735700  0.152830  1.0  -0.1592
  C  C151  1  0.446000  0.088700  0.064000  1.0  -0.0549
  C  C152  1  0.833900  0.564400  0.535600  1.0  -0.1183
  C  C153  1  0.364400  0.216200  0.866250  1.0  -0.0391
  C  C154  1  0.714700  0.716200  0.348300  1.0  -0.1484
  C  C155  1  0.948200  0.391500  0.672300  1.0  0.1745
  C  C156  1  0.286300  0.708200  0.165330  1.0  0.7084
  C  C157  1  0.954900  0.939500  0.395720  1.0  0.6439
  C  C158  1  0.256900  0.380500  0.501000  1.0  -0.1288
  C  C159  1  0.521400  0.195400  0.811950  1.0  0.0032
  C  C160  1  0.454900  0.560500  0.895720  1.0  0.6441
  C  C161  1  0.480200  0.359700  0.004070  1.0  -0.0876
  C  C162  1  0.666800  0.147800  0.390830  1.0  0.6989
  C  C163  1  0.448800  0.409400  0.050460  1.0  -0.1698
  C  C164  1  0.230400  0.864600  0.553990  1.0  -0.0988
  C  C165  1  0.635600  0.783800  0.133750  1.0  -0.0398
  C  C166  1  0.257100  0.304500  0.704030  1.0  0.0329
  C  C167  1  0.179700  0.699700  0.387400  1.0  -0.1377
  C  C168  1  0.785300  0.216200  0.151700  1.0  -0.1493
  C  C169  1  0.519800  0.640300  0.995930  1.0  -0.0886
  C  C170  1  0.607200  0.662800  0.049020  1.0  0.0162
  C  C171  1  0.135600  0.716200  0.633750  1.0  -0.0393
  C  C172  1  0.686400  0.782400  0.830900  1.0  -0.0144
  C  C173  1  0.892800  0.162800  0.450980  1.0  0.0148
  C  C174  1  0.285300  0.283800  0.651700  1.0  -0.1507
  C  C175  1  0.429300  0.357000  0.593600  1.0  -0.0534
  C  C176  1  0.570700  0.643000  0.406400  1.0  -0.0538
  C  C177  1  0.950300  0.808500  0.608120  1.0  -0.0731
  C  C178  1  0.237900  0.411100  0.993670  1.0  -0.1033
  C  C179  1  0.820300  0.300300  0.612600  1.0  -0.1385
  C  C180  1  0.730400  0.635400  0.053990  1.0  -0.0993
  C  C181  1  0.450300  0.691500  0.108120  1.0  -0.0744
  C  C182  1  0.107200  0.837200  0.549020  1.0  0.016
  C  C183  1  0.407900  0.395300  0.697010  1.0  0.1457
  C  C184  1  0.786300  0.791800  0.665330  1.0  0.7097
  C  C185  1  0.242900  0.804500  0.795970  1.0  0.0326
  C  C186  1  0.021400  0.304600  0.311950  1.0  0.0029
  C  C187  1  0.737900  0.088900  0.493670  1.0  -0.1047
  C  C188  1  0.669900  0.485600  0.440200  1.0  -0.1549
  C  C189  1  0.174900  0.602400  0.720340  1.0  0.681
  C  C190  1  0.769600  0.135400  0.446010  1.0  -0.0995
  C  C191  1  0.825100  0.397600  0.279660  1.0  0.6791
  C  C192  1  0.320300  0.199700  0.112600  1.0  -0.1387
  C  C193  1  0.743100  0.619500  0.499000  1.0  -0.1294
  C  C194  1  0.337700  0.418200  0.549700  1.0  0.0489
  C  C195  1  0.092100  0.895300  0.802990  1.0  0.1456
  C  C196  1  0.392800  0.337200  0.950980  1.0  0.0145
  C  C197  1  0.448200  0.108500  0.172300  1.0  0.1747
  C  C198  1  0.830100  0.985600  0.059800  1.0  -0.1624
  C  C199  1  0.713700  0.291800  0.834670  1.0  0.711
  C  C200  1  0.833200  0.647800  0.109170  1.0  0.7006
  C  C201  1  0.594700  0.828100  0.179160  1.0  -0.1625
  C  C202  1  0.907900  0.104700  0.197010  1.0  0.1458
  C  C203  1  0.565100  0.714600  0.097480  1.0  0.0323
  C  C204  1  0.166800  0.352200  0.890830  1.0  0.6986
  C  C205  1  0.757100  0.195500  0.204030  1.0  0.0327
  C  C206  1  0.948800  0.090600  0.550460  1.0  -0.1697
  C  C207  1  0.214700  0.783800  0.848300  1.0  -0.1492
  C  C208  1  0.756900  0.119500  0.001000  1.0  -0.1222
  N  N209  1  0.618000  0.658900  0.352440  1.0  0.0457
  N  N210  1  0.835300  0.124800  0.232570  1.0  -0.3679
  N  N211  1  0.093400  0.630900  0.385030  1.0  0.0446
  N  N212  1  0.335300  0.375200  0.732570  1.0  -0.3701
  N  N213  1  0.395800  0.159100  0.206960  1.0  -0.3782
  N  N214  1  0.593400  0.869100  0.885030  1.0  0.0446
  N  N215  1  0.118000  0.841100  0.852440  1.0  0.0454
  N  N216  1  0.604200  0.840900  0.793040  1.0  -0.3756
  N  N217  1  0.164700  0.875200  0.767430  1.0  -0.368
  N  N218  1  0.664700  0.624800  0.267430  1.0  -0.3695
  N  N219  1  0.104200  0.659100  0.293040  1.0  -0.376
  N  N220  1  0.895800  0.340900  0.706960  1.0  -0.378
  N  N221  1  0.406600  0.130900  0.114970  1.0  0.0426
  N  N222  1  0.906600  0.369100  0.614970  1.0  0.0426
  N  N223  1  0.882000  0.158900  0.147560  1.0  0.0457
  N  N224  1  0.382000  0.341100  0.647560  1.0  0.0462
  O  O225  1  0.179600  0.374530  0.839300  1.0  -0.7069
  O  O226  1  0.276000  0.143000  0.364500  1.0  -0.6241
  O  O227  1  0.212200  0.098550  0.777000  1.0  -0.6009
  O  O228  1  0.712200  0.401450  0.277000  1.0  -0.6009
  O  O229  1  0.374100  0.049410  0.747440  1.0  -0.6192
  O  O230  1  0.287800  0.598550  0.723000  1.0  -0.5994
  O  O231  1  0.224000  0.643000  0.135500  1.0  -0.6238
  O  O232  1  0.433700  0.821300  0.601650  1.0  -0.566
  O  O233  1  0.509700  0.483260  0.145390  1.0  -0.5785
  O  O234  1  0.990300  0.983260  0.354610  1.0  -0.5726
  O  O235  1  0.157000  0.074400  0.606790  1.0  -0.6303
  O  O236  1  0.625900  0.950590  0.252560  1.0  -0.6175
  O  O237  1  0.490300  0.516740  0.854610  1.0  -0.5731
  O  O238  1  0.874100  0.450590  0.247440  1.0  -0.6182
  O  O239  1  0.320400  0.874530  0.660700  1.0  -0.7048
  O  O240  1  0.125900  0.549410  0.752560  1.0  -0.6177
  O  O241  1  0.251200  0.751200  0.205430  1.0  -0.5979
  O  O242  1  0.843000  0.925600  0.393210  1.0  -0.6302
  O  O243  1  0.343000  0.574400  0.893210  1.0  -0.63
  O  O244  1  0.820400  0.625470  0.160700  1.0  -0.7056
  O  O245  1  0.248800  0.251200  0.294570  1.0  -0.5983
  O  O246  1  0.933700  0.678700  0.101650  1.0  -0.5665
  O  O247  1  0.776000  0.357000  0.864500  1.0  -0.6232
  O  O248  1  0.657000  0.425600  0.106790  1.0  -0.6303
  O  O249  1  0.748800  0.248800  0.794570  1.0  -0.5985
  O  O250  1  0.009700  0.016740  0.645390  1.0  -0.5784
  O  O251  1  0.751200  0.748800  0.705430  1.0  -0.598
  O  O252  1  0.566300  0.178700  0.398350  1.0  -0.5672
  O  O253  1  0.679600  0.125470  0.339300  1.0  -0.7072
  O  O254  1  0.066300  0.321300  0.898350  1.0  -0.567
  O  O255  1  0.724000  0.857000  0.635500  1.0  -0.6246
  O  O256  1  0.787800  0.901450  0.223000  1.0  -0.5994
