# generated using pymatgen
data_ZnCoH13C24N2O9
_symmetry_space_group_name_H-M   'P 1'
_cell_length_a   13.86370000
_cell_length_b   18.94110000
_cell_length_c   19.00790000
_cell_angle_alpha   90.00000000
_cell_angle_beta   90.00000000
_cell_angle_gamma   90.00000000
_symmetry_Int_Tables_number   1
_chemical_formula_structural   ZnCoH13C24N2O9
_chemical_formula_sum   'Zn8 Co8 H104 C192 N16 O72'
_cell_volume   4991.35532378
_cell_formula_units_Z   8
loop_
 _symmetry_equiv_pos_site_id
 _symmetry_equiv_pos_as_xyz
  1  'x, y, z'
loop_
 _atom_site_type_symbol
 _atom_site_label
 _atom_site_symmetry_multiplicity
 _atom_site_fract_x
 _atom_site_fract_y
 _atom_site_fract_z
 _atom_site_occupancy
 _atom_site_charge
  Zn  Zn1  1  0.364850  0.896880  0.568500  1.0  1.0262
  Zn  Zn2  1  0.635160  0.396880  0.931500  1.0  1.0267
  Zn  Zn3  1  0.635160  0.103120  0.431500  1.0  1.0266
  Zn  Zn4  1  0.364850  0.603120  0.068500  1.0  1.0264
  Zn  Zn5  1  0.135160  0.103120  0.068500  1.0  1.0274
  Zn  Zn6  1  0.864850  0.603120  0.431500  1.0  1.0256
  Zn  Zn7  1  0.864850  0.896880  0.931500  1.0  1.0255
  Zn  Zn8  1  0.135160  0.396880  0.568500  1.0  1.0274
  Co  Co9  1  0.403550  0.483110  0.956560  1.0  1.0052
  Co  Co10  1  0.596450  0.983110  0.543440  1.0  1.003
  Co  Co11  1  0.596450  0.516890  0.043440  1.0  1.003
  Co  Co12  1  0.403550  0.016890  0.456560  1.0  1.0059
  Co  Co13  1  0.096450  0.516890  0.456560  1.0  1.0029
  Co  Co14  1  0.903550  0.016890  0.043440  1.0  1.0056
  Co  Co15  1  0.903550  0.483110  0.543440  1.0  1.0052
  Co  Co16  1  0.096450  0.983110  0.956560  1.0  1.0033
  H  H17  1  0.413100  0.718200  0.701400  1.0  0.1091
  H  H18  1  0.420200  0.635000  0.789500  1.0  0.0984
  H  H19  1  0.377700  0.785900  0.932900  1.0  0.1044
  H  H20  1  0.374900  0.869200  0.844200  1.0  0.1037
  H  H21  1  0.112100  0.066700  0.441800  1.0  0.0988
  H  H22  1  0.048900  0.910800  0.573800  1.0  0.0929
  H  H23  1  0.383500  0.366600  0.079100  1.0  0.0886
  H  H24  1  0.357000  0.247600  0.090200  1.0  0.1229
  H  H25  1  0.348700  0.178000  0.990900  1.0  0.1006
  H  H26  1  0.346700  0.349900  0.682600  1.0  0.1049
  H  H27  1  0.354800  0.470800  0.688600  1.0  0.1264
  H  H28  1  0.376100  0.524100  0.796600  1.0  0.0809
  H  H29  1  0.436200  0.002400  0.585600  1.0  0.4722
  H  H30  1  0.586900  0.218200  0.798600  1.0  0.1091
  H  H31  1  0.579800  0.135000  0.710500  1.0  0.0987
  H  H32  1  0.622300  0.285900  0.567100  1.0  0.1047
  H  H33  1  0.625100  0.369200  0.655800  1.0  0.104
  H  H34  1  0.887900  0.566700  0.058200  1.0  0.0984
  H  H35  1  0.951100  0.410800  0.926200  1.0  0.0928
  H  H36  1  0.616500  0.866600  0.420900  1.0  0.0898
  H  H37  1  0.643000  0.747600  0.409800  1.0  0.1228
  H  H38  1  0.651300  0.678000  0.509100  1.0  0.1007
  H  H39  1  0.653300  0.849900  0.817400  1.0  0.1042
  H  H40  1  0.645200  0.970800  0.811400  1.0  0.1266
  H  H41  1  0.623900  0.024100  0.703400  1.0  0.0808
  H  H42  1  0.563800  0.502400  0.914400  1.0  0.4731
  H  H43  1  0.586900  0.281800  0.298600  1.0  0.1091
  H  H44  1  0.579800  0.365000  0.210500  1.0  0.0987
  H  H45  1  0.622300  0.214100  0.067100  1.0  0.1048
  H  H46  1  0.625100  0.130800  0.155800  1.0  0.1037
  H  H47  1  0.887900  0.933300  0.558200  1.0  0.0987
  H  H48  1  0.951100  0.089200  0.426200  1.0  0.0929
  H  H49  1  0.616500  0.633400  0.920900  1.0  0.0896
  H  H50  1  0.643000  0.752400  0.909800  1.0  0.1222
  H  H51  1  0.651300  0.822000  0.009100  1.0  0.101
  H  H52  1  0.653300  0.650100  0.317400  1.0  0.1044
  H  H53  1  0.645200  0.529200  0.311400  1.0  0.1273
  H  H54  1  0.623900  0.475900  0.203400  1.0  0.0803
  H  H55  1  0.563800  0.997600  0.414400  1.0  0.4724
  H  H56  1  0.413100  0.781800  0.201400  1.0  0.1089
  H  H57  1  0.420200  0.865000  0.289500  1.0  0.0983
  H  H58  1  0.377700  0.714100  0.432900  1.0  0.1046
  H  H59  1  0.374900  0.630800  0.344200  1.0  0.1036
  H  H60  1  0.112100  0.433300  0.941800  1.0  0.099
  H  H61  1  0.048900  0.589200  0.073800  1.0  0.0926
  H  H62  1  0.383500  0.133400  0.579100  1.0  0.0886
  H  H63  1  0.357000  0.252400  0.590200  1.0  0.123
  H  H64  1  0.348700  0.322000  0.490900  1.0  0.1012
  H  H65  1  0.346700  0.150100  0.182600  1.0  0.1046
  H  H66  1  0.354800  0.029200  0.188600  1.0  0.1269
  H  H67  1  0.376100  0.975900  0.296600  1.0  0.0802
  H  H68  1  0.436200  0.497600  0.085600  1.0  0.4722
  H  H69  1  0.086900  0.281800  0.201400  1.0  0.1093
  H  H70  1  0.079800  0.365000  0.289500  1.0  0.0986
  H  H71  1  0.122300  0.214100  0.432900  1.0  0.1044
  H  H72  1  0.125100  0.130800  0.344200  1.0  0.1038
  H  H73  1  0.387900  0.933300  0.941800  1.0  0.0988
  H  H74  1  0.451100  0.089200  0.073800  1.0  0.0928
  H  H75  1  0.116500  0.633400  0.579100  1.0  0.0886
  H  H76  1  0.143000  0.752400  0.590200  1.0  0.1228
  H  H77  1  0.151300  0.822000  0.490900  1.0  0.1011
  H  H78  1  0.153300  0.650100  0.182600  1.0  0.1048
  H  H79  1  0.145200  0.529200  0.188600  1.0  0.1271
  H  H80  1  0.123900  0.475900  0.296600  1.0  0.0803
  H  H81  1  0.063800  0.997600  0.085600  1.0  0.4718
  H  H82  1  0.913100  0.781800  0.298600  1.0  0.1089
  H  H83  1  0.920200  0.865000  0.210500  1.0  0.0982
  H  H84  1  0.877700  0.714100  0.067100  1.0  0.105
  H  H85  1  0.874900  0.630800  0.155800  1.0  0.1035
  H  H86  1  0.612100  0.433300  0.558200  1.0  0.099
  H  H87  1  0.548900  0.589200  0.426200  1.0  0.0926
  H  H88  1  0.883500  0.133400  0.920900  1.0  0.0892
  H  H89  1  0.857000  0.252400  0.909800  1.0  0.1224
  H  H90  1  0.848700  0.322000  0.009100  1.0  0.1011
  H  H91  1  0.846700  0.150100  0.317400  1.0  0.104
  H  H92  1  0.854800  0.029200  0.311400  1.0  0.1273
  H  H93  1  0.876100  0.975900  0.203400  1.0  0.0803
  H  H94  1  0.936200  0.497600  0.414400  1.0  0.4724
  H  H95  1  0.913100  0.718200  0.798600  1.0  0.1091
  H  H96  1  0.920200  0.635000  0.710500  1.0  0.0983
  H  H97  1  0.877700  0.785900  0.567100  1.0  0.105
  H  H98  1  0.874900  0.869200  0.655800  1.0  0.1038
  H  H99  1  0.612100  0.066700  0.058200  1.0  0.0987
  H  H100  1  0.548900  0.910800  0.926200  1.0  0.0926
  H  H101  1  0.883500  0.366600  0.420900  1.0  0.0898
  H  H102  1  0.857000  0.247600  0.409800  1.0  0.1231
  H  H103  1  0.848700  0.178000  0.509100  1.0  0.1008
  H  H104  1  0.846700  0.349900  0.817400  1.0  0.104
  H  H105  1  0.854800  0.470800  0.811400  1.0  0.1265
  H  H106  1  0.876100  0.524100  0.703400  1.0  0.0808
  H  H107  1  0.936200  0.002400  0.914400  1.0  0.4734
  H  H108  1  0.086900  0.218200  0.701400  1.0  0.1093
  H  H109  1  0.079800  0.135000  0.789500  1.0  0.0986
  H  H110  1  0.122300  0.285900  0.932900  1.0  0.1044
  H  H111  1  0.125100  0.369200  0.844200  1.0  0.1039
  H  H112  1  0.387900  0.566700  0.441800  1.0  0.0986
  H  H113  1  0.451100  0.410800  0.573800  1.0  0.0931
  H  H114  1  0.116500  0.866600  0.079100  1.0  0.0889
  H  H115  1  0.143000  0.747600  0.090200  1.0  0.1225
  H  H116  1  0.151300  0.678000  0.990900  1.0  0.1006
  H  H117  1  0.153300  0.849900  0.682600  1.0  0.1049
  H  H118  1  0.145200  0.970800  0.688600  1.0  0.1264
  H  H119  1  0.123900  0.024100  0.796600  1.0  0.0809
  H  H120  1  0.063800  0.502400  0.585600  1.0  0.4717
  C  C121  1  0.386530  0.856370  0.706510  1.0  0.6501
  C  C122  1  0.392370  0.801740  0.763670  1.0  -0.1153
  C  C123  1  0.406100  0.732100  0.748030  1.0  -0.0507
  C  C124  1  0.409500  0.682130  0.800800  1.0  -0.0304
  C  C125  1  0.397160  0.701430  0.870280  1.0  -0.145
  C  C126  1  0.384700  0.771860  0.886250  1.0  -0.0654
  C  C127  1  0.382800  0.821780  0.833070  1.0  -0.0706
  C  C128  1  0.395610  0.646190  0.927260  1.0  0.6716
  C  C129  1  0.203470  0.972370  0.516750  1.0  0.6893
  C  C130  1  0.097980  0.986300  0.509090  1.0  -0.1322
  C  C131  1  0.066900  0.039340  0.465550  1.0  -0.033
  C  C132  1  0.029680  0.946990  0.543760  1.0  -0.0656
  C  C133  1  0.378100  0.339250  0.038700  1.0  0.192
  C  C134  1  0.363100  0.267670  0.045800  1.0  -0.1461
  C  C135  1  0.357200  0.226550  0.986900  1.0  0.063
  C  C136  1  0.364000  0.257580  0.921270  1.0  -0.1542
  C  C137  1  0.356400  0.216070  0.856000  1.0  0.3302
  C  C138  1  0.354600  0.255020  0.785300  1.0  0.3358
  C  C139  1  0.362150  0.332920  0.786810  1.0  -0.1744
  C  C140  1  0.354900  0.372300  0.725740  1.0  0.0634
  C  C141  1  0.359800  0.443500  0.729130  1.0  -0.1401
  C  C142  1  0.372500  0.475140  0.794450  1.0  0.2208
  C  C143  1  0.374050  0.368250  0.850360  1.0  0.1937
  C  C144  1  0.376200  0.330960  0.918230  1.0  0.2003
  C  C145  1  0.613470  0.356370  0.793490  1.0  0.6496
  C  C146  1  0.607630  0.301740  0.736330  1.0  -0.1146
  C  C147  1  0.593900  0.232100  0.751970  1.0  -0.0518
  C  C148  1  0.590500  0.182130  0.699200  1.0  -0.0299
  C  C149  1  0.602840  0.201430  0.629720  1.0  -0.145
  C  C150  1  0.615300  0.271860  0.613750  1.0  -0.0626
  C  C151  1  0.617200  0.321780  0.666930  1.0  -0.0699
  C  C152  1  0.604390  0.146190  0.572740  1.0  0.6715
  C  C153  1  0.796530  0.472370  0.983250  1.0  0.6896
  C  C154  1  0.902020  0.486300  0.990910  1.0  -0.1338
  C  C155  1  0.933100  0.539340  0.034450  1.0  -0.0331
  C  C156  1  0.970320  0.446990  0.956240  1.0  -0.0653
  C  C157  1  0.621900  0.839250  0.461300  1.0  0.1926
  C  C158  1  0.636900  0.767670  0.454200  1.0  -0.146
  C  C159  1  0.642800  0.726550  0.513100  1.0  0.0634
  C  C160  1  0.636000  0.757580  0.578730  1.0  -0.1528
  C  C161  1  0.643600  0.716070  0.644000  1.0  0.3311
  C  C162  1  0.645400  0.755020  0.714700  1.0  0.3364
  C  C163  1  0.637850  0.832920  0.713190  1.0  -0.1741
  C  C164  1  0.645100  0.872300  0.774260  1.0  0.0642
  C  C165  1  0.640200  0.943500  0.770870  1.0  -0.1397
  C  C166  1  0.627500  0.975140  0.705550  1.0  0.2209
  C  C167  1  0.625950  0.868250  0.649640  1.0  0.1937
  C  C168  1  0.623800  0.830960  0.581770  1.0  0.2002
  C  C169  1  0.613470  0.143630  0.293490  1.0  0.6502
  C  C170  1  0.607630  0.198260  0.236330  1.0  -0.1145
  C  C171  1  0.593900  0.267900  0.251970  1.0  -0.0526
  C  C172  1  0.590500  0.317870  0.199200  1.0  -0.0302
  C  C173  1  0.602840  0.298570  0.129720  1.0  -0.1444
  C  C174  1  0.615300  0.228140  0.113750  1.0  -0.0624
  C  C175  1  0.617200  0.178220  0.166930  1.0  -0.0678
  C  C176  1  0.604390  0.353810  0.072740  1.0  0.6717
  C  C177  1  0.796530  0.027630  0.483250  1.0  0.6901
  C  C178  1  0.902020  0.013700  0.490910  1.0  -0.1335
  C  C179  1  0.933100  0.960660  0.534450  1.0  -0.034
  C  C180  1  0.970320  0.053010  0.456240  1.0  -0.0651
  C  C181  1  0.621900  0.660750  0.961300  1.0  0.1925
  C  C182  1  0.636900  0.732330  0.954200  1.0  -0.1464
  C  C183  1  0.642800  0.773450  0.013100  1.0  0.0631
  C  C184  1  0.636000  0.742420  0.078730  1.0  -0.1529
  C  C185  1  0.643600  0.783930  0.144000  1.0  0.3315
  C  C186  1  0.645400  0.744980  0.214700  1.0  0.3359
  C  C187  1  0.637850  0.667080  0.213190  1.0  -0.1749
  C  C188  1  0.645100  0.627700  0.274260  1.0  0.0646
  C  C189  1  0.640200  0.556500  0.270870  1.0  -0.1403
  C  C190  1  0.627500  0.524860  0.205550  1.0  0.2209
  C  C191  1  0.625950  0.631750  0.149640  1.0  0.1932
  C  C192  1  0.623800  0.669040  0.081770  1.0  0.2002
  C  C193  1  0.386530  0.643630  0.206510  1.0  0.65
  C  C194  1  0.392370  0.698260  0.263670  1.0  -0.1162
  C  C195  1  0.406100  0.767900  0.248030  1.0  -0.0522
  C  C196  1  0.409500  0.817870  0.300800  1.0  -0.0296
  C  C197  1  0.397160  0.798570  0.370280  1.0  -0.1448
  C  C198  1  0.384700  0.728140  0.386250  1.0  -0.0657
  C  C199  1  0.382800  0.678220  0.333070  1.0  -0.0683
  C  C200  1  0.395610  0.853810  0.427260  1.0  0.6715
  C  C201  1  0.203470  0.527630  0.016750  1.0  0.6896
  C  C202  1  0.097980  0.513700  0.009090  1.0  -0.1318
  C  C203  1  0.066900  0.460660  0.965550  1.0  -0.0343
  C  C204  1  0.029680  0.553010  0.043760  1.0  -0.0656
  C  C205  1  0.378100  0.160750  0.538700  1.0  0.192
  C  C206  1  0.363100  0.232330  0.545800  1.0  -0.1462
  C  C207  1  0.357200  0.273450  0.486900  1.0  0.0627
  C  C208  1  0.364000  0.242420  0.421270  1.0  -0.1537
  C  C209  1  0.356400  0.283930  0.356000  1.0  0.3306
  C  C210  1  0.354600  0.244980  0.285300  1.0  0.3357
  C  C211  1  0.362150  0.167080  0.286810  1.0  -0.1752
  C  C212  1  0.354900  0.127700  0.225740  1.0  0.0642
  C  C213  1  0.359800  0.056500  0.229130  1.0  -0.141
  C  C214  1  0.372500  0.024860  0.294450  1.0  0.2199
  C  C215  1  0.374050  0.131750  0.350360  1.0  0.1934
  C  C216  1  0.376200  0.169040  0.418230  1.0  0.2004
  C  C217  1  0.113470  0.143630  0.206510  1.0  0.6501
  C  C218  1  0.107630  0.198260  0.263670  1.0  -0.116
  C  C219  1  0.093900  0.267900  0.248030  1.0  -0.052
  C  C220  1  0.090500  0.317870  0.300800  1.0  -0.0298
  C  C221  1  0.102840  0.298570  0.370280  1.0  -0.1448
  C  C222  1  0.115300  0.228140  0.386250  1.0  -0.0651
  C  C223  1  0.117200  0.178220  0.333070  1.0  -0.0682
  C  C224  1  0.104390  0.353810  0.427260  1.0  0.6715
  C  C225  1  0.296530  0.027630  0.016750  1.0  0.6899
  C  C226  1  0.402020  0.013700  0.009090  1.0  -0.1335
  C  C227  1  0.433100  0.960660  0.965550  1.0  -0.0335
  C  C228  1  0.470320  0.053010  0.043760  1.0  -0.0654
  C  C229  1  0.121900  0.660750  0.538700  1.0  0.1925
  C  C230  1  0.136900  0.732330  0.545800  1.0  -0.1454
  C  C231  1  0.142800  0.773450  0.486900  1.0  0.0632
  C  C232  1  0.136000  0.742420  0.421270  1.0  -0.1526
  C  C233  1  0.143600  0.783930  0.356000  1.0  0.3313
  C  C234  1  0.145400  0.744980  0.285300  1.0  0.3358
  C  C235  1  0.137850  0.667080  0.286810  1.0  -0.1751
  C  C236  1  0.145100  0.627700  0.225740  1.0  0.0628
  C  C237  1  0.140200  0.556500  0.229130  1.0  -0.1411
  C  C238  1  0.127500  0.524860  0.294450  1.0  0.2206
  C  C239  1  0.125950  0.631750  0.350360  1.0  0.1931
  C  C240  1  0.123800  0.669040  0.418230  1.0  0.2004
  C  C241  1  0.886530  0.643630  0.293490  1.0  0.65
  C  C242  1  0.892370  0.698260  0.236330  1.0  -0.1146
  C  C243  1  0.906100  0.767900  0.251970  1.0  -0.0529
  C  C244  1  0.909500  0.817870  0.199200  1.0  -0.0299
  C  C245  1  0.897160  0.798570  0.129720  1.0  -0.1442
  C  C246  1  0.884700  0.728140  0.113750  1.0  -0.0629
  C  C247  1  0.882800  0.678220  0.166930  1.0  -0.068
  C  C248  1  0.895610  0.853810  0.072740  1.0  0.6717
  C  C249  1  0.703470  0.527630  0.483250  1.0  0.6898
  C  C250  1  0.597980  0.513700  0.490910  1.0  -0.1317
  C  C251  1  0.566900  0.460660  0.534450  1.0  -0.0335
  C  C252  1  0.529680  0.553010  0.456240  1.0  -0.0653
  C  C253  1  0.878100  0.160750  0.961300  1.0  0.1918
  C  C254  1  0.863100  0.232330  0.954200  1.0  -0.1468
  C  C255  1  0.857200  0.273450  0.013100  1.0  0.0627
  C  C256  1  0.864000  0.242420  0.078730  1.0  -0.1538
  C  C257  1  0.856400  0.283930  0.144000  1.0  0.3308
  C  C258  1  0.854600  0.244980  0.214700  1.0  0.336
  C  C259  1  0.862150  0.167080  0.213190  1.0  -0.175
  C  C260  1  0.854900  0.127700  0.274260  1.0  0.0656
  C  C261  1  0.859800  0.056500  0.270870  1.0  -0.1402
  C  C262  1  0.872500  0.024860  0.205550  1.0  0.2203
  C  C263  1  0.874050  0.131750  0.149640  1.0  0.1936
  C  C264  1  0.876200  0.169040  0.081770  1.0  0.2003
  C  C265  1  0.886530  0.856370  0.793490  1.0  0.6494
  C  C266  1  0.892370  0.801740  0.736330  1.0  -0.1148
  C  C267  1  0.906100  0.732100  0.751970  1.0  -0.0518
  C  C268  1  0.909500  0.682130  0.699200  1.0  -0.0298
  C  C269  1  0.897160  0.701430  0.629720  1.0  -0.1449
  C  C270  1  0.884700  0.771860  0.613750  1.0  -0.0632
  C  C271  1  0.882800  0.821780  0.666930  1.0  -0.0702
  C  C272  1  0.895610  0.646190  0.572740  1.0  0.6714
  C  C273  1  0.703470  0.972370  0.983250  1.0  0.6895
  C  C274  1  0.597980  0.986300  0.990910  1.0  -0.1322
  C  C275  1  0.566900  0.039340  0.034450  1.0  -0.0339
  C  C276  1  0.529680  0.946990  0.956240  1.0  -0.0654
  C  C277  1  0.878100  0.339250  0.461300  1.0  0.1922
  C  C278  1  0.863100  0.267670  0.454200  1.0  -0.1465
  C  C279  1  0.857200  0.226550  0.513100  1.0  0.0629
  C  C280  1  0.864000  0.257580  0.578730  1.0  -0.1538
  C  C281  1  0.856400  0.216070  0.644000  1.0  0.3305
  C  C282  1  0.854600  0.255020  0.714700  1.0  0.3364
  C  C283  1  0.862150  0.332920  0.713190  1.0  -0.1741
  C  C284  1  0.854900  0.372300  0.774260  1.0  0.0651
  C  C285  1  0.859800  0.443500  0.770870  1.0  -0.1399
  C  C286  1  0.872500  0.475140  0.705550  1.0  0.2205
  C  C287  1  0.874050  0.368250  0.649640  1.0  0.1941
  C  C288  1  0.876200  0.330960  0.581770  1.0  0.2003
  C  C289  1  0.113470  0.356370  0.706510  1.0  0.6501
  C  C290  1  0.107630  0.301740  0.763670  1.0  -0.115
  C  C291  1  0.093900  0.232100  0.748030  1.0  -0.0507
  C  C292  1  0.090500  0.182130  0.800800  1.0  -0.0304
  C  C293  1  0.102840  0.201430  0.870280  1.0  -0.1451
  C  C294  1  0.115300  0.271860  0.886250  1.0  -0.0647
  C  C295  1  0.117200  0.321780  0.833070  1.0  -0.0704
  C  C296  1  0.104390  0.146190  0.927260  1.0  0.6717
  C  C297  1  0.296530  0.472370  0.516750  1.0  0.6895
  C  C298  1  0.402020  0.486300  0.509090  1.0  -0.1337
  C  C299  1  0.433100  0.539340  0.465550  1.0  -0.0339
  C  C300  1  0.470320  0.446990  0.543760  1.0  -0.0655
  C  C301  1  0.121900  0.839250  0.038700  1.0  0.1924
  C  C302  1  0.136900  0.767670  0.045800  1.0  -0.1453
  C  C303  1  0.142800  0.726550  0.986900  1.0  0.0635
  C  C304  1  0.136000  0.757580  0.921270  1.0  -0.1531
  C  C305  1  0.143600  0.716070  0.856000  1.0  0.3309
  C  C306  1  0.145400  0.755020  0.785300  1.0  0.3359
  C  C307  1  0.137850  0.832920  0.786810  1.0  -0.1744
  C  C308  1  0.145100  0.872300  0.725740  1.0  0.0617
  C  C309  1  0.140200  0.943500  0.729130  1.0  -0.1399
  C  C310  1  0.127500  0.975140  0.794450  1.0  0.2212
  C  C311  1  0.125950  0.868250  0.850360  1.0  0.1934
  C  C312  1  0.123800  0.830960  0.918230  1.0  0.2002
  N  N313  1  0.385390  0.370970  0.976050  1.0  -0.3641
  N  N314  1  0.379780  0.438820  0.853980  1.0  -0.338
  N  N315  1  0.614610  0.870970  0.523950  1.0  -0.3634
  N  N316  1  0.620220  0.938820  0.646020  1.0  -0.3384
  N  N317  1  0.614610  0.629030  0.023950  1.0  -0.3627
  N  N318  1  0.620220  0.561180  0.146020  1.0  -0.338
  N  N319  1  0.385390  0.129030  0.476050  1.0  -0.3635
  N  N320  1  0.379780  0.061180  0.353980  1.0  -0.3376
  N  N321  1  0.114610  0.629030  0.476050  1.0  -0.3627
  N  N322  1  0.120220  0.561180  0.353980  1.0  -0.3376
  N  N323  1  0.885390  0.129030  0.023950  1.0  -0.3637
  N  N324  1  0.879780  0.061180  0.146020  1.0  -0.3381
  N  N325  1  0.885390  0.370970  0.523950  1.0  -0.364
  N  N326  1  0.879780  0.438820  0.646020  1.0  -0.3385
  N  N327  1  0.114610  0.870970  0.976050  1.0  -0.3635
  N  N328  1  0.120220  0.938820  0.853980  1.0  -0.3379
  O  O329  1  0.387300  0.832150  0.644200  1.0  -0.6287
  O  O330  1  0.380910  0.918850  0.721320  1.0  -0.5943
  O  O331  1  0.408770  0.583520  0.910030  1.0  -0.5907
  O  O332  1  0.381260  0.667940  0.989080  1.0  -0.595
  O  O333  1  0.259290  0.007450  0.479290  1.0  -0.5997
  O  O334  1  0.228510  0.925910  0.561150  1.0  -0.6035
  O  O335  1  0.351600  0.151990  0.856400  1.0  -0.3533
  O  O336  1  0.346600  0.221560  0.731670  1.0  -0.3713
  O  O337  1  0.445450  0.980640  0.556660  1.0  -0.9916
  O  O338  1  0.612700  0.332150  0.855800  1.0  -0.6299
  O  O339  1  0.619090  0.418850  0.778680  1.0  -0.5954
  O  O340  1  0.591230  0.083520  0.589970  1.0  -0.5906
  O  O341  1  0.618740  0.167940  0.510920  1.0  -0.5955
  O  O342  1  0.740710  0.507450  0.020710  1.0  -0.5995
  O  O343  1  0.771490  0.425910  0.938850  1.0  -0.6033
  O  O344  1  0.648400  0.651990  0.643600  1.0  -0.3515
  O  O345  1  0.653400  0.721560  0.768330  1.0  -0.3685
  O  O346  1  0.554550  0.480640  0.943340  1.0  -0.9909
  O  O347  1  0.612700  0.167850  0.355800  1.0  -0.6302
  O  O348  1  0.619090  0.081150  0.278680  1.0  -0.5937
  O  O349  1  0.591230  0.416480  0.089970  1.0  -0.5908
  O  O350  1  0.618740  0.332060  0.010920  1.0  -0.5945
  O  O351  1  0.740710  0.992550  0.520710  1.0  -0.5993
  O  O352  1  0.771490  0.074090  0.438850  1.0  -0.6028
  O  O353  1  0.648400  0.848010  0.143600  1.0  -0.3515
  O  O354  1  0.653400  0.778440  0.268330  1.0  -0.3688
  O  O355  1  0.554550  0.019360  0.443340  1.0  -0.9905
  O  O356  1  0.387300  0.667850  0.144200  1.0  -0.6289
  O  O357  1  0.380910  0.581150  0.221320  1.0  -0.5924
  O  O358  1  0.408770  0.916480  0.410030  1.0  -0.5905
  O  O359  1  0.381260  0.832060  0.489080  1.0  -0.5944
  O  O360  1  0.259290  0.492550  0.979290  1.0  -0.5993
  O  O361  1  0.228510  0.574090  0.061150  1.0  -0.6029
  O  O362  1  0.351600  0.348010  0.356400  1.0  -0.3518
  O  O363  1  0.346600  0.278440  0.231670  1.0  -0.3711
  O  O364  1  0.445450  0.519360  0.056660  1.0  -0.9918
  O  O365  1  0.112700  0.167850  0.144200  1.0  -0.6289
  O  O366  1  0.119090  0.081150  0.221320  1.0  -0.5935
  O  O367  1  0.091230  0.416480  0.410030  1.0  -0.5909
  O  O368  1  0.118740  0.332060  0.489080  1.0  -0.595
  O  O369  1  0.240710  0.992550  0.979290  1.0  -0.5991
  O  O370  1  0.271490  0.074090  0.061150  1.0  -0.6027
  O  O371  1  0.148400  0.848010  0.356400  1.0  -0.3519
  O  O372  1  0.153400  0.778440  0.231670  1.0  -0.3704
  O  O373  1  0.054550  0.019360  0.056660  1.0  -0.9911
  O  O374  1  0.887300  0.667850  0.355800  1.0  -0.6302
  O  O375  1  0.880910  0.581150  0.278680  1.0  -0.5927
  O  O376  1  0.908770  0.916480  0.089970  1.0  -0.5906
  O  O377  1  0.881260  0.832060  0.010920  1.0  -0.5941
  O  O378  1  0.759290  0.492550  0.520710  1.0  -0.5991
  O  O379  1  0.728510  0.574090  0.438850  1.0  -0.6029
  O  O380  1  0.851600  0.348010  0.143600  1.0  -0.3515
  O  O381  1  0.846600  0.278440  0.268330  1.0  -0.3695
  O  O382  1  0.945450  0.519360  0.443340  1.0  -0.9909
  O  O383  1  0.887300  0.832150  0.855800  1.0  -0.63
  O  O384  1  0.880910  0.918850  0.778680  1.0  -0.5944
  O  O385  1  0.908770  0.583520  0.589970  1.0  -0.5911
  O  O386  1  0.881260  0.667940  0.510920  1.0  -0.595
  O  O387  1  0.759290  0.007450  0.020710  1.0  -0.5994
  O  O388  1  0.728510  0.925910  0.938850  1.0  -0.6035
  O  O389  1  0.851600  0.151990  0.643600  1.0  -0.3515
  O  O390  1  0.846600  0.221560  0.768330  1.0  -0.3687
  O  O391  1  0.945450  0.980640  0.943340  1.0  -0.9906
  O  O392  1  0.112700  0.332150  0.644200  1.0  -0.6286
  O  O393  1  0.119090  0.418850  0.721320  1.0  -0.5952
  O  O394  1  0.091230  0.083520  0.910030  1.0  -0.5904
  O  O395  1  0.118740  0.167940  0.989080  1.0  -0.5959
  O  O396  1  0.240710  0.507450  0.479290  1.0  -0.5994
  O  O397  1  0.271490  0.425910  0.561150  1.0  -0.6031
  O  O398  1  0.148400  0.651990  0.856400  1.0  -0.3534
  O  O399  1  0.153400  0.721560  0.731670  1.0  -0.3708
  O  O400  1  0.054550  0.480640  0.556660  1.0  -0.9915
