# generated using pymatgen
data_Mn3Zn6H66C104(NO10)4
_symmetry_space_group_name_H-M   'P 1'
_cell_length_a   10.42600000
_cell_length_b   14.96200000
_cell_length_c   21.10200000
_cell_angle_alpha   100.01000000
_cell_angle_beta   93.54000000
_cell_angle_gamma   106.90000000
_symmetry_Int_Tables_number   1
_chemical_formula_structural   Mn3Zn6H66C104(NO10)4
_chemical_formula_sum   'Mn3 Zn6 H66 C104 N4 O40'
_cell_volume   3079.57783638
_cell_formula_units_Z   1
loop_
 _symmetry_equiv_pos_site_id
 _symmetry_equiv_pos_as_xyz
  1  'x, y, z'
loop_
 _atom_site_type_symbol
 _atom_site_label
 _atom_site_symmetry_multiplicity
 _atom_site_fract_x
 _atom_site_fract_y
 _atom_site_fract_z
 _atom_site_occupancy
 _atom_site_charge
  Mn  Mn1  1  0.236510  0.987790  0.197750  1.0  1.2384
  Mn  Mn2  1  0.763490  0.012210  0.802250  1.0  1.2391
  Mn  Mn3  1  0.000000  0.500000  0.500000  1.0  1.2028
  Zn  Zn4  1  0.415660  0.984870  0.737940  1.0  0.9585
  Zn  Zn5  1  0.173100  0.323340  0.502990  1.0  0.9434
  Zn  Zn6  1  0.991040  0.948800  0.063980  1.0  1.0283
  Zn  Zn7  1  0.584340  0.015130  0.262060  1.0  0.9587
  Zn  Zn8  1  0.826900  0.676660  0.497010  1.0  0.9423
  Zn  Zn9  1  0.008960  0.051200  0.936020  1.0  1.0285
  H  H10  1  0.863200  0.163000  0.625700  1.0  0.0971
  H  H11  1  0.088000  0.199000  0.304400  1.0  0.1031
  H  H12  1  0.310700  0.040800  0.928400  1.0  0.1034
  H  H13  1  0.488800  0.147600  0.110900  1.0  0.1119
  H  H14  1  0.368900  0.642800  0.145000  1.0  0.4315
  H  H15  1  0.882000  0.387000  0.303000  1.0  0.1038
  H  H16  1  0.691900  0.209300  0.071600  1.0  0.109
  H  H17  1  0.679500  0.758700  0.153800  1.0  0.1022
  H  H18  1  0.291100  0.208000  0.403600  1.0  0.0766
  H  H19  1  0.709000  0.175400  0.961900  1.0  0.1049
  H  H20  1  0.853100  0.189100  0.144300  1.0  0.1092
  H  H21  1  0.020500  0.741200  0.239900  1.0  0.1003
  H  H22  1  0.225300  0.857000  0.628100  1.0  0.0856
  H  H23  1  0.820700  0.415400  0.607000  1.0  0.1043
  H  H24  1  0.895400  0.629900  0.293500  1.0  0.1086
  H  H25  1  0.579000  0.253800  0.712100  1.0  0.1098
  H  H26  1  0.954700  0.064000  0.541300  1.0  0.091
  H  H27  1  0.886300  0.953400  0.525900  1.0  0.0859
  H  H28  1  0.617300  0.076800  0.519700  1.0  0.0999
  H  H29  1  0.558500  0.032100  0.447200  1.0  0.0941
  H  H30  1  0.076600  0.865900  0.547100  1.0  0.1194
  H  H31  1  0.420500  0.108200  0.397600  1.0  0.128
  H  H32  1  0.788800  0.315100  0.197700  1.0  0.1149
  H  H33  1  0.440700  0.133400  0.589000  1.0  0.1239
  H  H34  1  0.221200  0.098300  0.727100  1.0  0.0632
  H  H35  1  0.076800  0.116200  0.648600  1.0  0.1256
  H  H36  1  0.653200  0.395300  0.674400  1.0  0.1095
  H  H37  1  0.320000  0.240900  0.590500  1.0  0.0808
  H  H38  1  0.665500  0.577100  0.273000  1.0  0.1002
  H  H39  1  0.341700  0.698100  0.632500  1.0  0.1024
  H  H40  1  0.524400  0.494100  0.615400  1.0  0.1099
  H  H41  1  0.688400  0.587200  0.697500  1.0  0.1101
  H  H42  1  0.684700  0.737400  0.744500  1.0  0.1048
  H  H43  1  0.136800  0.837000  0.374300  1.0  0.0968
  H  H44  1  0.912000  0.801000  0.695600  1.0  0.1031
  H  H45  1  0.689300  0.959200  0.071600  1.0  0.1019
  H  H46  1  0.511200  0.852400  0.889100  1.0  0.1125
  H  H47  1  0.631100  0.357200  0.855000  1.0  0.4295
  H  H48  1  0.118000  0.613000  0.697000  1.0  0.1041
  H  H49  1  0.308100  0.790700  0.928400  1.0  0.1083
  H  H50  1  0.320500  0.241300  0.846200  1.0  0.1029
  H  H51  1  0.708900  0.792000  0.596400  1.0  0.0762
  H  H52  1  0.291000  0.824600  0.038100  1.0  0.105
  H  H53  1  0.146900  0.810900  0.855700  1.0  0.1071
  H  H54  1  0.979500  0.258800  0.760100  1.0  0.1001
  H  H55  1  0.774700  0.143000  0.371900  1.0  0.086
  H  H56  1  0.179300  0.584600  0.393000  1.0  0.1044
  H  H57  1  0.104600  0.370100  0.706500  1.0  0.1083
  H  H58  1  0.421000  0.746200  0.287900  1.0  0.11
  H  H59  1  0.045300  0.936000  0.458700  1.0  0.0912
  H  H60  1  0.113700  0.046600  0.474100  1.0  0.0864
  H  H61  1  0.382700  0.923200  0.480300  1.0  0.099
  H  H62  1  0.441500  0.967900  0.552800  1.0  0.0942
  H  H63  1  0.923400  0.134100  0.452900  1.0  0.1199
  H  H64  1  0.579500  0.891800  0.602400  1.0  0.1266
  H  H65  1  0.211200  0.684900  0.802300  1.0  0.1153
  H  H66  1  0.559300  0.866600  0.411000  1.0  0.1236
  H  H67  1  0.778800  0.901700  0.272900  1.0  0.0639
  H  H68  1  0.923200  0.883800  0.351400  1.0  0.1253
  H  H69  1  0.346800  0.604700  0.325600  1.0  0.1094
  H  H70  1  0.680000  0.759100  0.409500  1.0  0.0809
  H  H71  1  0.334500  0.422900  0.727000  1.0  0.1004
  H  H72  1  0.658300  0.301900  0.367500  1.0  0.1013
  H  H73  1  0.475600  0.505900  0.384600  1.0  0.1097
  H  H74  1  0.311600  0.412800  0.302500  1.0  0.1096
  H  H75  1  0.315300  0.262600  0.255500  1.0  0.1047
  C  C76  1  0.378600  0.088000  0.022300  1.0  -0.1601
  C  C77  1  0.020800  0.100200  0.183500  1.0  0.7124
  C  C78  1  0.818300  0.208500  0.634000  1.0  -0.0241
  C  C79  1  0.029900  0.223200  0.282400  1.0  -0.0028
  C  C80  1  0.248000  0.044800  0.046100  1.0  0.7151
  C  C81  1  0.387900  0.072800  0.957400  1.0  -0.014
  C  C82  1  0.521800  0.074600  0.862300  1.0  0.6884
  C  C83  1  0.050600  0.345900  0.383500  1.0  0.6928
  C  C84  1  0.995100  0.301700  0.313900  1.0  -0.1597
  C  C85  1  0.713400  0.193700  0.671400  1.0  -0.1239
  C  C86  1  0.494100  0.138100  0.066500  1.0  -0.0217
  C  C87  1  0.512900  0.104900  0.933700  1.0  -0.1599
  C  C88  1  0.978700  0.181800  0.219000  1.0  -0.1494
  C  C89  1  0.862300  0.760800  0.190400  1.0  -0.1631
  C  C90  1  0.662400  0.103700  0.695400  1.0  0.7028
  C  C91  1  0.510800  0.829700  0.724400  1.0  0.7073
  C  C92  1  0.300400  0.522200  0.565300  1.0  0.7078
  C  C93  1  0.941600  0.832200  0.153400  1.0  0.7072
  C  C94  1  0.905700  0.335200  0.281900  1.0  -0.0063
  C  C95  1  0.615900  0.173000  0.043000  1.0  -0.1182
  C  C96  1  0.723600  0.731700  0.181100  1.0  -0.0093
  C  C97  1  0.323500  0.194500  0.441700  1.0  0.189
  C  C98  1  0.625700  0.154300  0.976900  1.0  -0.0167
  C  C99  1  0.888300  0.216900  0.187200  1.0  -0.0152
  C  C100  1  0.061600  0.994200  0.586800  1.0  0.1558
  C  C101  1  0.926700  0.721900  0.232800  1.0  -0.02
  C  C102  1  0.496200  0.627300  0.196400  1.0  0.6489
  C  C103  1  0.858000  0.291000  0.608600  1.0  -0.1734
  C  C104  1  0.196400  0.910800  0.631900  1.0  0.1853
  C  C105  1  0.411500  0.584800  0.616000  1.0  -0.1764
  C  C106  1  0.794700  0.360100  0.623600  1.0  0.0041
  C  C107  1  0.648300  0.662700  0.211800  1.0  -0.1812
  C  C108  1  0.851900  0.654600  0.264300  1.0  -0.1223
  C  C109  1  0.649600  0.263400  0.686600  1.0  -0.0676
  C  C110  1  0.972100  0.003200  0.530800  1.0  -0.152
  C  C111  1  0.449500  0.112900  0.492900  1.0  0.1505
  C  C112  1  0.534400  0.045400  0.490800  1.0  -0.1603
  C  C113  1  0.106800  0.915700  0.582900  1.0  -0.2151
  C  C114  1  0.400900  0.134400  0.437700  1.0  -0.2096
  C  C115  1  0.850600  0.292900  0.218800  1.0  -0.1236
  C  C116  1  0.414700  0.149800  0.550700  1.0  -0.2304
  C  C117  1  0.194300  0.051600  0.689400  1.0  0.1977
  C  C118  1  0.106300  0.062700  0.642600  1.0  -0.2148
  C  C119  1  0.693000  0.347400  0.663300  1.0  -0.1032
  C  C120  1  0.339000  0.212600  0.550800  1.0  0.1815
  C  C121  1  0.714800  0.624300  0.252900  1.0  -0.0204
  C  C122  1  0.411000  0.675300  0.645500  1.0  -0.0024
  C  C123  1  0.520000  0.553400  0.635500  1.0  -0.0318
  C  C124  1  0.619000  0.609500  0.683900  1.0  -0.0959
  C  C125  1  0.512000  0.732200  0.693900  1.0  -0.1744
  C  C126  1  0.616000  0.699100  0.712400  1.0  -0.0234
  C  C127  1  0.968600  0.307600  0.567100  1.0  0.6827
  C  C128  1  0.621400  0.912000  0.977700  1.0  -0.1602
  C  C129  1  0.979200  0.899800  0.816500  1.0  0.7126
  C  C130  1  0.181700  0.791500  0.366000  1.0  -0.0252
  C  C131  1  0.970100  0.776800  0.717600  1.0  -0.0028
  C  C132  1  0.752000  0.955200  0.953900  1.0  0.7171
  C  C133  1  0.612100  0.927200  0.042600  1.0  -0.0124
  C  C134  1  0.478200  0.925400  0.137700  1.0  0.689
  C  C135  1  0.949400  0.654100  0.616500  1.0  0.6919
  C  C136  1  0.004900  0.698300  0.686100  1.0  -0.1606
  C  C137  1  0.286600  0.806300  0.328600  1.0  -0.1258
  C  C138  1  0.505900  0.861900  0.933500  1.0  -0.0221
  C  C139  1  0.487100  0.895100  0.066300  1.0  -0.1603
  C  C140  1  0.021300  0.818200  0.781000  1.0  -0.1505
  C  C141  1  0.137700  0.239200  0.809600  1.0  -0.1612
  C  C142  1  0.337600  0.896300  0.304600  1.0  0.7033
  C  C143  1  0.489200  0.170300  0.275600  1.0  0.7053
  C  C144  1  0.699600  0.477800  0.434700  1.0  0.7077
  C  C145  1  0.058400  0.167800  0.846600  1.0  0.7125
  C  C146  1  0.094300  0.664800  0.718100  1.0  -0.008
  C  C147  1  0.384100  0.827000  0.957000  1.0  -0.1166
  C  C148  1  0.276400  0.268300  0.818900  1.0  -0.0068
  C  C149  1  0.676500  0.805500  0.558300  1.0  0.1894
  C  C150  1  0.374300  0.845700  0.023100  1.0  -0.015
  C  C151  1  0.111700  0.783100  0.812800  1.0  -0.0144
  C  C152  1  0.938400  0.005800  0.413200  1.0  0.157
  C  C153  1  0.073300  0.278100  0.767200  1.0  -0.031
  C  C154  1  0.503800  0.372700  0.803600  1.0  0.6495
  C  C155  1  0.142000  0.709000  0.391400  1.0  -0.1738
  C  C156  1  0.803600  0.089200  0.368100  1.0  0.1865
  C  C157  1  0.588500  0.415200  0.384000  1.0  -0.1759
  C  C158  1  0.205300  0.639900  0.376400  1.0  0.0035
  C  C159  1  0.351700  0.337300  0.788200  1.0  -0.181
  C  C160  1  0.148100  0.345400  0.735700  1.0  -0.1216
  C  C161  1  0.350400  0.736600  0.313400  1.0  -0.0687
  C  C162  1  0.027900  0.996800  0.469200  1.0  -0.1489
  C  C163  1  0.550500  0.887100  0.507100  1.0  0.1496
  C  C164  1  0.465600  0.954600  0.509200  1.0  -0.1622
  C  C165  1  0.893200  0.084300  0.417100  1.0  -0.2155
  C  C166  1  0.599100  0.865600  0.562300  1.0  -0.2093
  C  C167  1  0.149400  0.707100  0.781200  1.0  -0.1236
  C  C168  1  0.585300  0.850200  0.449300  1.0  -0.2301
  C  C169  1  0.805700  0.948400  0.310600  1.0  0.1982
  C  C170  1  0.893700  0.937300  0.357400  1.0  -0.215
  C  C171  1  0.307000  0.652600  0.336700  1.0  -0.1034
  C  C172  1  0.661000  0.787400  0.449200  1.0  0.182
  C  C173  1  0.285200  0.375700  0.747100  1.0  -0.0136
  C  C174  1  0.589000  0.324700  0.354500  1.0  -0.0024
  C  C175  1  0.480000  0.446600  0.364500  1.0  -0.0318
  C  C176  1  0.381000  0.390500  0.316100  1.0  -0.097
  C  C177  1  0.488000  0.267800  0.306100  1.0  -0.1756
  C  C178  1  0.384000  0.300900  0.287600  1.0  -0.0221
  C  C179  1  0.031400  0.692400  0.432900  1.0  0.6821
  N  N180  1  0.292200  0.234500  0.497500  1.0  -0.3304
  N  N181  1  0.243400  0.979300  0.684300  1.0  -0.3473
  N  N182  1  0.707800  0.765500  0.502500  1.0  -0.3316
  N  N183  1  0.756600  0.020700  0.315700  1.0  -0.3483
  O  O184  1  0.139800  0.023300  0.007500  1.0  -0.65
  O  O185  1  0.092400  0.065100  0.215400  1.0  -0.6279
  O  O186  1  0.981800  0.073600  0.123100  1.0  -0.5965
  O  O187  1  0.242400  0.027200  0.101200  1.0  -0.6645
  O  O188  1  0.108200  0.297400  0.412400  1.0  -0.6018
  O  O189  1  0.415700  0.856000  0.704200  1.0  -0.5901
  O  O190  1  0.535200  0.076000  0.695900  1.0  -0.6165
  O  O191  1  0.036100  0.423500  0.408200  1.0  -0.6193
  O  O192  1  0.741700  0.061200  0.711700  1.0  -0.6231
  O  O193  1  0.410600  0.030500  0.827400  1.0  -0.5861
  O  O194  1  0.603600  0.880200  0.767900  1.0  -0.653
  O  O195  1  0.989100  0.374900  0.537000  1.0  -0.6482
  O  O196  1  0.213400  0.553400  0.543300  1.0  -0.6279
  O  O197  1  0.303300  0.436700  0.550600  1.0  -0.6264
  O  O198  1  0.874200  0.856600  0.112500  1.0  -0.5841
  O  O199  1  0.067300  0.860400  0.164300  1.0  -0.6392
  O  O200  1  0.447900  0.672900  0.158600  1.0  -0.5224
  O  O201  1  0.429700  0.560400  0.218400  1.0  -0.5186
  O  O202  1  0.634900  0.093700  0.842600  1.0  -0.6266
  O  O203  1  0.040700  0.252900  0.560500  1.0  -0.5841
  O  O204  1  0.860200  0.976700  0.992500  1.0  -0.6505
  O  O205  1  0.907600  0.934900  0.784600  1.0  -0.6279
  O  O206  1  0.018200  0.926400  0.876900  1.0  -0.5964
  O  O207  1  0.757600  0.972800  0.898800  1.0  -0.6582
  O  O208  1  0.891800  0.702600  0.587600  1.0  -0.6015
  O  O209  1  0.584300  0.144000  0.295800  1.0  -0.5903
  O  O210  1  0.464800  0.924000  0.304100  1.0  -0.6168
  O  O211  1  0.963900  0.576500  0.591800  1.0  -0.6176
  O  O212  1  0.258300  0.938800  0.288300  1.0  -0.6246
  O  O213  1  0.589400  0.969500  0.172600  1.0  -0.5866
  O  O214  1  0.396400  0.119800  0.232100  1.0  -0.6526
  O  O215  1  0.010900  0.625100  0.463000  1.0  -0.647
  O  O216  1  0.786600  0.446600  0.456700  1.0  -0.6286
  O  O217  1  0.696700  0.563300  0.449400  1.0  -0.6273
  O  O218  1  0.125800  0.143400  0.887500  1.0  -0.5837
  O  O219  1  0.932700  0.139600  0.835700  1.0  -0.6402
  O  O220  1  0.552100  0.327100  0.841400  1.0  -0.5237
  O  O221  1  0.570300  0.439600  0.781600  1.0  -0.5127
  O  O222  1  0.365100  0.906300  0.157400  1.0  -0.6271
  O  O223  1  0.959300  0.747100  0.439500  1.0  -0.5848
