# generated using pymatgen
data_Ni2H10C21N2O9
_symmetry_space_group_name_H-M   'P 1'
_cell_length_a   7.30960000
_cell_length_b   12.26700000
_cell_length_c   13.89100000
_cell_angle_alpha   82.96000000
_cell_angle_beta   80.95100000
_cell_angle_gamma   72.89700000
_symmetry_Int_Tables_number   1
_chemical_formula_structural   Ni2H10C21N2O9
_chemical_formula_sum   'Ni4 H20 C42 N4 O18'
_cell_volume   1171.81586966
_cell_formula_units_Z   2
loop_
 _symmetry_equiv_pos_site_id
 _symmetry_equiv_pos_as_xyz
  1  'x, y, z'
loop_
 _atom_site_type_symbol
 _atom_site_label
 _atom_site_symmetry_multiplicity
 _atom_site_fract_x
 _atom_site_fract_y
 _atom_site_fract_z
 _atom_site_occupancy
 _atom_site_charge
  Ni  Ni1  1  0.584020  0.563110  0.251000  1.0  0.8794
  Ni  Ni2  1  0.047930  0.712440  0.039460  1.0  0.9963
  Ni  Ni3  1  0.415980  0.436890  0.749000  1.0  0.8694
  Ni  Ni4  1  0.952070  0.287560  0.960540  1.0  0.9992
  H  H5  1  0.208800  0.899300  0.326000  1.0  0.1042
  H  H6  1  0.966900  0.047400  0.391700  1.0  0.1218
  H  H7  1  0.573600  0.923200  0.302500  1.0  0.1159
  H  H8  1  0.247000  0.191800  0.488900  1.0  0.1145
  H  H9  1  0.961300  0.281900  0.423000  1.0  0.0931
  H  H10  1  0.513400  0.131500  0.216200  1.0  0.1052
  H  H11  1  0.572300  0.360100  0.397200  1.0  0.0872
  H  H12  1  0.500600  0.319800  0.560400  1.0  0.1147
  H  H13  1  0.291400  0.879100  0.019700  1.0  0.0992
  H  H14  1  0.257700  0.071600  0.981700  1.0  0.1114
  H  H15  1  0.791200  0.100700  0.674000  1.0  0.1044
  H  H16  1  0.033100  0.952600  0.608300  1.0  0.1222
  H  H17  1  0.426400  0.076800  0.697500  1.0  0.1158
  H  H18  1  0.753000  0.808200  0.511100  1.0  0.1145
  H  H19  1  0.038700  0.718100  0.577000  1.0  0.0926
  H  H20  1  0.486600  0.868500  0.783800  1.0  0.1054
  H  H21  1  0.427700  0.639900  0.602800  1.0  0.0859
  H  H22  1  0.499400  0.680200  0.439600  1.0  0.115
  H  H23  1  0.708600  0.120900  0.980300  1.0  0.0977
  H  H24  1  0.742300  0.928400  0.018300  1.0  0.1108
  C  C25  1  0.042700  0.824800  0.269800  1.0  -0.1336
  C  C26  1  0.081300  0.905300  0.319600  1.0  -0.0296
  C  C27  1  0.937400  0.993500  0.359900  1.0  -0.0604
  C  C28  1  0.745300  0.001000  0.352200  1.0  -0.0483
  C  C29  1  0.701500  0.919200  0.305900  1.0  -0.0607
  C  C30  1  0.852600  0.830100  0.264200  1.0  -0.0691
  C  C31  1  0.593200  0.094000  0.401000  1.0  0.3754
  C  C32  1  0.408000  0.149800  0.358500  1.0  -0.1294
  C  C33  1  0.243900  0.197200  0.421800  1.0  -0.0458
  C  C34  1  0.073600  0.253400  0.381100  1.0  -0.1101
  C  C35  1  0.065700  0.267600  0.285100  1.0  0.0033
  C  C36  1  0.232600  0.223100  0.218000  1.0  -0.1591
  C  C37  1  0.402300  0.163100  0.257800  1.0  -0.0065
  C  C38  1  0.208000  0.733400  0.227300  1.0  0.7274
  C  C39  1  0.792300  0.741500  0.221100  1.0  0.7032
  C  C40  1  0.235800  0.240500  0.111200  1.0  0.709
  C  C41  1  0.874700  0.331400  0.250500  1.0  0.6716
  C  C42  1  0.541800  0.418500  0.438900  1.0  0.1234
  C  C43  1  0.500800  0.393900  0.536400  1.0  0.1183
  C  C44  1  0.170000  0.928100  0.011000  1.0  0.1358
  C  C45  1  0.150000  0.044100  0.989600  1.0  0.124
  C  C46  1  0.957300  0.175200  0.730200  1.0  -0.133
  C  C47  1  0.918700  0.094700  0.680400  1.0  -0.0308
  C  C48  1  0.062600  0.006500  0.640100  1.0  -0.0584
  C  C49  1  0.254700  0.999000  0.647800  1.0  -0.0493
  C  C50  1  0.298500  0.080800  0.694100  1.0  -0.0617
  C  C51  1  0.147400  0.169900  0.735800  1.0  -0.069
  C  C52  1  0.406800  0.906000  0.599000  1.0  0.361
  C  C53  1  0.592000  0.850200  0.641500  1.0  -0.1296
  C  C54  1  0.756100  0.802800  0.578200  1.0  -0.0474
  C  C55  1  0.926400  0.746600  0.618900  1.0  -0.1096
  C  C56  1  0.934300  0.732400  0.714900  1.0  0.0038
  C  C57  1  0.767400  0.776900  0.782000  1.0  -0.1594
  C  C58  1  0.597700  0.836900  0.742200  1.0  -0.0071
  C  C59  1  0.792000  0.266600  0.772700  1.0  0.7318
  C  C60  1  0.207700  0.258500  0.778900  1.0  0.7058
  C  C61  1  0.764200  0.759500  0.888800  1.0  0.709
  C  C62  1  0.125300  0.668600  0.749500  1.0  0.6727
  C  C63  1  0.458200  0.581500  0.561100  1.0  0.1229
  C  C64  1  0.499200  0.606100  0.463600  1.0  0.1191
  C  C65  1  0.830000  0.071900  0.989000  1.0  0.138
  C  C66  1  0.850000  0.955900  0.010400  1.0  0.1246
  N  N67  1  0.539600  0.523800  0.401400  1.0  -0.3011
  N  N68  1  0.021300  0.884800  0.019600  1.0  -0.2919
  N  N69  1  0.460400  0.476200  0.598600  1.0  -0.2891
  N  N70  1  0.978700  0.115200  0.980400  1.0  -0.2919
  O  O71  1  0.352100  0.701200  0.272700  1.0  -0.5862
  O  O72  1  0.203900  0.693700  0.150600  1.0  -0.6608
  O  O73  1  0.800500  0.741700  0.131400  1.0  -0.5943
  O  O74  1  0.730500  0.671800  0.282400  1.0  -0.5241
  O  O75  1  0.616700  0.122500  0.477400  1.0  -0.4303
  O  O76  1  0.390100  0.210500  0.057300  1.0  -0.5717
  O  O77  1  0.069700  0.285700  0.082400  1.0  -0.6285
  O  O78  1  0.754400  0.281200  0.246300  1.0  -0.5716
  O  O79  1  0.843900  0.440600  0.240100  1.0  -0.6183
  O  O80  1  0.647900  0.298800  0.727300  1.0  -0.5851
  O  O81  1  0.796100  0.306300  0.849400  1.0  -0.6647
  O  O82  1  0.199500  0.258300  0.868600  1.0  -0.5928
  O  O83  1  0.269500  0.328200  0.717600  1.0  -0.5235
  O  O84  1  0.383300  0.877500  0.522600  1.0  -0.4311
  O  O85  1  0.609900  0.789500  0.942700  1.0  -0.5725
  O  O86  1  0.930300  0.714300  0.917600  1.0  -0.6302
  O  O87  1  0.245600  0.718800  0.753700  1.0  -0.5712
  O  O88  1  0.156100  0.559400  0.759900  1.0  -0.6169
