# generated using pymatgen
data_ErH6(C2O)6
_symmetry_space_group_name_H-M   'P 1'
_cell_length_a   10.73800000
_cell_length_b   10.76190000
_cell_length_c   18.54700000
_cell_angle_alpha   105.92800000
_cell_angle_beta   90.00000000
_cell_angle_gamma   119.92700000
_symmetry_Int_Tables_number   1
_chemical_formula_structural   ErH6(C2O)6
_chemical_formula_sum   'Er4 H24 C48 O24'
_cell_volume   1761.94477421
_cell_formula_units_Z   4
loop_
 _symmetry_equiv_pos_site_id
 _symmetry_equiv_pos_as_xyz
  1  'x, y, z'
loop_
 _atom_site_type_symbol
 _atom_site_label
 _atom_site_symmetry_multiplicity
 _atom_site_fract_x
 _atom_site_fract_y
 _atom_site_fract_z
 _atom_site_occupancy
 _atom_site_charge
  Er  Er1  1  0.076960  0.002780  0.897200  1.0  1.5379
  Er  Er2  1  0.074180  0.997220  0.602810  1.0  1.5378
  Er  Er3  1  0.923040  0.997220  0.102810  1.0  1.5377
  Er  Er4  1  0.925820  0.002780  0.397200  1.0  1.5376
  H  H5  1  0.357500  0.385600  0.218900  1.0  0.1249
  H  H6  1  0.576600  0.610800  0.273600  1.0  0.1202
  H  H7  1  0.486800  0.361200  0.016600  1.0  0.1201
  H  H8  1  0.699500  0.589400  0.068600  1.0  0.1202
  H  H9  1  0.965800  0.663000  0.097000  1.0  0.1203
  H  H10  1  0.065700  0.558000  0.889600  1.0  0.1215
  H  H11  1  0.971900  0.614400  0.281100  1.0  0.1244
  H  H12  1  0.965800  0.389200  0.226400  1.0  0.1212
  H  H13  1  0.125600  0.638800  0.483400  1.0  0.1203
  H  H14  1  0.110100  0.410600  0.431400  1.0  0.1209
  H  H15  1  0.302800  0.337000  0.403000  1.0  0.1202
  H  H16  1  0.507700  0.442000  0.610400  1.0  0.122
  H  H17  1  0.642500  0.614400  0.781100  1.0  0.1242
  H  H18  1  0.423400  0.389200  0.726400  1.0  0.1213
  H  H19  1  0.513200  0.638800  0.983400  1.0  0.1199
  H  H20  1  0.300500  0.410600  0.931400  1.0  0.1206
  H  H21  1  0.034200  0.337000  0.903000  1.0  0.1204
  H  H22  1  0.934300  0.442000  0.110400  1.0  0.1218
  H  H23  1  0.028100  0.385600  0.718900  1.0  0.1249
  H  H24  1  0.034200  0.610800  0.773600  1.0  0.1203
  H  H25  1  0.874400  0.361200  0.516600  1.0  0.1201
  H  H26  1  0.889900  0.589400  0.568600  1.0  0.1202
  H  H27  1  0.697200  0.663000  0.597000  1.0  0.1204
  H  H28  1  0.492300  0.558000  0.389600  1.0  0.1214
  C  C29  1  0.427100  0.426600  0.189000  1.0  -0.023
  C  C30  1  0.557200  0.562400  0.221400  1.0  -0.0209
  C  C31  1  0.039000  0.776200  0.982500  1.0  0.7573
  C  C32  1  0.503700  0.412800  0.068200  1.0  -0.0188
  C  C33  1  0.657800  0.625600  0.176200  1.0  -0.1254
  C  C34  1  0.631200  0.548800  0.099100  1.0  -0.0289
  C  C35  1  0.979900  0.597800  0.058000  1.0  -0.0126
  C  C36  1  0.401800  0.352000  0.111500  1.0  -0.1341
  C  C37  1  0.039600  0.535000  0.934200  1.0  -0.0193
  C  C38  1  0.795400  0.777400  0.210500  1.0  0.7691
  C  C39  1  0.258300  0.207200  0.075800  1.0  0.8083
  C  C40  1  0.020800  0.633800  0.992100  1.0  -0.1072
  C  C41  1  0.000500  0.573400  0.311000  1.0  -0.0252
  C  C42  1  0.994800  0.437600  0.278600  1.0  -0.0205
  C  C43  1  0.262800  0.223800  0.517500  1.0  0.7573
  C  C44  1  0.090900  0.587200  0.431800  1.0  -0.0202
  C  C45  1  0.032200  0.374400  0.323800  1.0  -0.1244
  C  C46  1  0.082400  0.451200  0.400900  1.0  -0.0272
  C  C47  1  0.382100  0.402200  0.442000  1.0  -0.0118
  C  C48  1  0.049800  0.648000  0.388500  1.0  -0.1348
  C  C49  1  0.504600  0.465000  0.565800  1.0  -0.0186
  C  C50  1  0.018000  0.222600  0.289500  1.0  0.7689
  C  C51  1  0.051100  0.792800  0.424200  1.0  0.809
  C  C52  1  0.387000  0.366200  0.507900  1.0  -0.1081
  C  C53  1  0.572900  0.573400  0.811000  1.0  -0.0257
  C  C54  1  0.442800  0.437600  0.778600  1.0  -0.0213
  C  C55  1  0.961000  0.223800  0.017500  1.0  0.7574
  C  C56  1  0.496300  0.587200  0.931800  1.0  -0.0205
  C  C57  1  0.342200  0.374400  0.823800  1.0  -0.1247
  C  C58  1  0.368800  0.451200  0.900900  1.0  -0.026
  C  C59  1  0.020100  0.402200  0.942000  1.0  -0.0115
  C  C60  1  0.598200  0.648000  0.888500  1.0  -0.1358
  C  C61  1  0.960400  0.465000  0.065800  1.0  -0.0193
  C  C62  1  0.204600  0.222600  0.789500  1.0  0.7683
  C  C63  1  0.741700  0.792800  0.924200  1.0  0.8101
  C  C64  1  0.979200  0.366200  0.007900  1.0  -0.1081
  C  C65  1  0.999500  0.426600  0.689000  1.0  -0.0233
  C  C66  1  0.005200  0.562400  0.721400  1.0  -0.0208
  C  C67  1  0.737200  0.776200  0.482500  1.0  0.7577
  C  C68  1  0.909100  0.412800  0.568200  1.0  -0.0188
  C  C69  1  0.967800  0.625600  0.676200  1.0  -0.1255
  C  C70  1  0.917600  0.548800  0.599100  1.0  -0.028
  C  C71  1  0.617900  0.597800  0.558000  1.0  -0.0119
  C  C72  1  0.950200  0.352000  0.611500  1.0  -0.1345
  C  C73  1  0.495400  0.535000  0.434200  1.0  -0.0195
  C  C74  1  0.982000  0.777400  0.710500  1.0  0.7689
  C  C75  1  0.948900  0.207200  0.575800  1.0  0.8083
  C  C76  1  0.613000  0.633800  0.492100  1.0  -0.1072
  O  O77  1  0.244600  0.146000  0.006000  1.0  -0.6954
  O  O78  1  0.088500  0.810600  0.925000  1.0  -0.64
  O  O79  1  0.001900  0.850600  0.030500  1.0  -0.7582
  O  O80  1  0.816100  0.837000  0.280700  1.0  -0.725
  O  O81  1  0.167000  0.159400  0.117400  1.0  -0.6423
  O  O82  1  0.877200  0.832600  0.166100  1.0  -0.6482
  O  O83  1  0.098600  0.854000  0.494000  1.0  -0.6975
  O  O84  1  0.277900  0.189400  0.575000  1.0  -0.641
  O  O85  1  0.151300  0.149400  0.469500  1.0  -0.7576
  O  O86  1  0.979100  0.163000  0.219300  1.0  -0.7241
  O  O87  1  0.007600  0.840600  0.382600  1.0  -0.6425
  O  O88  1  0.044600  0.167400  0.333900  1.0  -0.649
  O  O89  1  0.755400  0.854000  0.994000  1.0  -0.697
  O  O90  1  0.911500  0.189400  0.075000  1.0  -0.6408
  O  O91  1  0.998100  0.149400  0.969500  1.0  -0.7567
  O  O92  1  0.183900  0.163000  0.719300  1.0  -0.7235
  O  O93  1  0.833000  0.840600  0.882600  1.0  -0.6432
  O  O94  1  0.122800  0.167400  0.833900  1.0  -0.6476
  O  O95  1  0.901400  0.146000  0.506000  1.0  -0.6965
  O  O96  1  0.722100  0.810600  0.425000  1.0  -0.6415
  O  O97  1  0.848700  0.850600  0.530500  1.0  -0.7574
  O  O98  1  0.020900  0.837000  0.780700  1.0  -0.7246
  O  O99  1  0.992400  0.159400  0.617400  1.0  -0.6429
  O  O100  1  0.955400  0.832600  0.666100  1.0  -0.6476
