# generated using pymatgen
data_GdCuP4H23C12N4ClO12
_symmetry_space_group_name_H-M   'P 1'
_cell_length_a   13.30200000
_cell_length_b   13.35200000
_cell_length_c   19.89400000
_cell_angle_alpha   95.63000000
_cell_angle_beta   104.80000000
_cell_angle_gamma   117.75000000
_symmetry_Int_Tables_number   1
_chemical_formula_structural   GdCuP4H23C12N4ClO12
_chemical_formula_sum   'Gd4 Cu4 P16 H92 C48 N16 Cl4 O48'
_cell_volume   2924.33615691
_cell_formula_units_Z   4
loop_
 _symmetry_equiv_pos_site_id
 _symmetry_equiv_pos_as_xyz
  1  'x, y, z'
loop_
 _atom_site_type_symbol
 _atom_site_label
 _atom_site_symmetry_multiplicity
 _atom_site_fract_x
 _atom_site_fract_y
 _atom_site_fract_z
 _atom_site_occupancy
 _atom_site_charge
  Gd  Gd1  1  0.661860  0.946050  0.595400  1.0  2.3663
  Gd  Gd2  1  0.819870  0.037740  0.904700  1.0  2.3685
  Gd  Gd3  1  0.338140  0.053950  0.404600  1.0  2.3652
  Gd  Gd4  1  0.180130  0.962260  0.095300  1.0  2.3664
  Cu  Cu5  1  0.772600  0.002260  0.247410  1.0  0.6071
  Cu  Cu6  1  0.743590  0.483460  0.750720  1.0  0.5466
  Cu  Cu7  1  0.227400  0.997740  0.752590  1.0  0.6071
  Cu  Cu8  1  0.256410  0.516540  0.249280  1.0  0.5487
  P  P9  1  0.869400  0.073300  0.498790  1.0  1.5809
  P  P10  1  0.638150  0.197290  0.542830  1.0  1.5636
  P  P11  1  0.878730  0.803110  0.946090  1.0  1.5656
  P  P12  1  0.463180  0.089220  0.256320  1.0  1.5633
  P  P13  1  0.057870  0.883140  0.241930  1.0  1.5614
  P  P14  1  0.617700  0.870500  0.995080  1.0  1.5816
  P  P15  1  0.610400  0.653150  0.579580  1.0  1.5548
  P  P16  1  0.894200  0.341760  0.933900  1.0  1.5677
  P  P17  1  0.130600  0.926700  0.501210  1.0  1.5804
  P  P18  1  0.361850  0.802710  0.457170  1.0  1.5611
  P  P19  1  0.121270  0.196890  0.053910  1.0  1.5659
  P  P20  1  0.536820  0.910780  0.743680  1.0  1.5611
  P  P21  1  0.942130  0.116860  0.758070  1.0  1.5663
  P  P22  1  0.382300  0.129500  0.004920  1.0  1.5829
  P  P23  1  0.389600  0.346850  0.420420  1.0  1.5578
  P  P24  1  0.105800  0.658240  0.066100  1.0  1.5686
  H  H25  1  0.593500  0.339300  0.817700  1.0  0.1038
  H  H26  1  0.672000  0.322900  0.884600  1.0  0.1072
  H  H27  1  0.920200  0.492900  0.878200  1.0  0.1676
  H  H28  1  0.919300  0.394000  0.828800  1.0  0.178
  H  H29  1  0.512900  0.964900  0.201300  1.0  0.1512
  H  H30  1  0.559600  0.983300  0.284200  1.0  0.1526
  H  H31  1  0.462800  0.447600  0.635800  1.0  0.0955
  H  H32  1  0.498500  0.404900  0.704100  1.0  0.0983
  H  H33  1  0.913200  0.870200  0.289700  1.0  0.163
  H  H34  1  0.857400  0.831000  0.206000  1.0  0.1853
  H  H35  1  0.809300  0.943400  0.391100  1.0  0.1591
  H  H36  1  0.723700  0.993900  0.385500  1.0  0.1852
  H  H37  1  0.922100  0.667600  0.900400  1.0  0.1683
  H  H38  1  0.886100  0.723200  0.840200  1.0  0.1486
  H  H39  1  0.545300  0.365200  0.575600  1.0  0.1042
  H  H40  1  0.460200  0.267300  0.605600  1.0  0.1051
  H  H41  1  0.735500  0.395900  0.597000  1.0  0.1602
  H  H42  1  0.784200  0.335100  0.648400  1.0  0.168
  H  H43  1  0.532700  0.228200  0.710600  1.0  0.0974
  H  H44  1  0.571100  0.163700  0.661400  1.0  0.0961
  H  H45  1  0.763400  0.251800  0.744800  1.0  0.1096
  H  H46  1  0.671500  0.193900  0.784800  1.0  0.096
  H  H47  1  0.646500  0.654500  0.851100  1.0  0.1009
  H  H48  1  0.566400  0.522400  0.808000  1.0  0.1036
  H  H49  1  0.661200  0.496300  0.912200  1.0  0.0881
  H  H50  1  0.794800  0.522800  0.932600  1.0  0.1003
  H  H51  1  0.567700  0.635200  0.725300  1.0  0.0937
  H  H52  1  0.709800  0.708200  0.754400  1.0  0.0874
  H  H53  1  0.692600  0.537800  0.607700  1.0  0.1417
  H  H54  1  0.772100  0.660500  0.662300  1.0  0.1537
  H  H55  1  0.589300  0.852000  0.103700  1.0  0.1653
  H  H56  1  0.700800  0.841600  0.102900  1.0  0.1702
  H  H57  1  0.029000  0.170100  0.283500  1.0  0.0969
  H  H58  1  0.096700  0.102200  0.306300  1.0  0.1061
  H  H59  1  0.766800  0.219000  0.203700  1.0  0.1083
  H  H60  1  0.626500  0.162000  0.172900  1.0  0.1264
  H  H61  1  0.057800  0.170400  0.398200  1.0  0.1041
  H  H62  1  0.995600  0.033900  0.379200  1.0  0.0928
  H  H63  1  0.895900  0.947000  0.131900  1.0  0.1079
  H  H64  1  0.010900  0.071800  0.167000  1.0  0.1038
  H  H65  1  0.856500  0.071700  0.088600  1.0  0.0986
  H  H66  1  0.901100  0.151400  0.165900  1.0  0.0866
  H  H67  1  0.725900  0.132000  0.101100  1.0  0.1085
  H  H68  1  0.602600  0.028100  0.098500  1.0  0.1107
  H  H69  1  0.889900  0.233100  0.407800  1.0  0.1161
  H  H70  1  0.921500  0.243100  0.337500  1.0  0.1078
  H  H71  1  0.406500  0.660700  0.182300  1.0  0.1064
  H  H72  1  0.328000  0.677100  0.115400  1.0  0.1057
  H  H73  1  0.079800  0.507100  0.121800  1.0  0.1702
  H  H74  1  0.080700  0.606000  0.171200  1.0  0.1839
  H  H75  1  0.487100  0.035100  0.798700  1.0  0.1503
  H  H76  1  0.440400  0.016700  0.715800  1.0  0.1522
  H  H77  1  0.537200  0.552400  0.364200  1.0  0.0953
  H  H78  1  0.501500  0.595100  0.295900  1.0  0.1007
  H  H79  1  0.086800  0.129800  0.710300  1.0  0.1619
  H  H80  1  0.142600  0.169000  0.794000  1.0  0.1865
  H  H81  1  0.190700  0.056600  0.608900  1.0  0.1585
  H  H82  1  0.276300  0.006100  0.614500  1.0  0.185
  H  H83  1  0.077900  0.332400  0.099600  1.0  0.1659
  H  H84  1  0.113900  0.276800  0.159800  1.0  0.15
  H  H85  1  0.454700  0.634800  0.424400  1.0  0.1043
  H  H86  1  0.539800  0.732700  0.394400  1.0  0.1038
  H  H87  1  0.264500  0.604100  0.403000  1.0  0.1621
  H  H88  1  0.215800  0.664900  0.351600  1.0  0.1691
  H  H89  1  0.467300  0.771800  0.289400  1.0  0.0986
  H  H90  1  0.428900  0.836300  0.338600  1.0  0.0926
  H  H91  1  0.236600  0.748200  0.255200  1.0  0.1087
  H  H92  1  0.328500  0.806100  0.215200  1.0  0.0979
  H  H93  1  0.353500  0.345500  0.148900  1.0  0.0987
  H  H94  1  0.433600  0.477600  0.192000  1.0  0.1016
  H  H95  1  0.338800  0.503700  0.087800  1.0  0.0869
  H  H96  1  0.205200  0.477200  0.067400  1.0  0.0999
  H  H97  1  0.432300  0.364800  0.274700  1.0  0.0902
  H  H98  1  0.290200  0.291800  0.245600  1.0  0.0881
  H  H99  1  0.307400  0.462200  0.392300  1.0  0.142
  H  H100  1  0.227900  0.339500  0.337700  1.0  0.1557
  H  H101  1  0.410700  0.148000  0.896300  1.0  0.1649
  H  H102  1  0.299200  0.158400  0.897100  1.0  0.1706
  H  H103  1  0.971000  0.829900  0.716500  1.0  0.0975
  H  H104  1  0.903300  0.897800  0.693700  1.0  0.105
  H  H105  1  0.233200  0.781000  0.796300  1.0  0.1075
  H  H106  1  0.373500  0.838000  0.827100  1.0  0.1247
  H  H107  1  0.942200  0.829600  0.601800  1.0  0.1033
  H  H108  1  0.004400  0.966100  0.620800  1.0  0.0934
  H  H109  1  0.104100  0.053000  0.868100  1.0  0.1083
  H  H110  1  0.989100  0.928200  0.833000  1.0  0.1023
  H  H111  1  0.143500  0.928300  0.911400  1.0  0.0998
  H  H112  1  0.098900  0.848600  0.834100  1.0  0.0894
  H  H113  1  0.274100  0.868000  0.898900  1.0  0.1092
  H  H114  1  0.397400  0.971900  0.901500  1.0  0.1114
  H  H115  1  0.110100  0.766900  0.592200  1.0  0.1156
  H  H116  1  0.078500  0.756900  0.662500  1.0  0.1088
  C  C117  1  0.674800  0.371800  0.851300  1.0  -0.0069
  C  C118  1  0.877800  0.408900  0.858600  1.0  -0.4572
  C  C119  1  0.556900  0.024100  0.246700  1.0  -0.332
  C  C120  1  0.523500  0.433700  0.664800  1.0  -0.0134
  C  C121  1  0.926900  0.890900  0.246200  1.0  -0.4231
  C  C122  1  0.808000  0.015300  0.401200  1.0  -0.4728
  C  C123  1  0.863100  0.688600  0.878400  1.0  -0.468
  C  C124  1  0.533900  0.342800  0.619100  1.0  -0.011
  C  C125  1  0.711100  0.328300  0.616900  1.0  -0.4655
  C  C126  1  0.599400  0.235900  0.695800  1.0  -0.0006
  C  C127  1  0.701500  0.255400  0.760400  1.0  0.0076
  C  C128  1  0.641100  0.594700  0.816100  1.0  0.0005
  C  C129  1  0.720800  0.496000  0.892700  1.0  -0.0292
  C  C130  1  0.639900  0.631200  0.745500  1.0  -0.0076
  C  C131  1  0.689400  0.596900  0.638100  1.0  -0.4766
  C  C132  1  0.662800  0.887600  0.092000  1.0  -0.445
  C  C133  1  0.020800  0.100500  0.298400  1.0  0.0219
  C  C134  1  0.691000  0.145000  0.187700  1.0  0.0194
  C  C135  1  0.994500  0.099100  0.362100  1.0  -0.0551
  C  C136  1  0.928200  0.022000  0.164800  1.0  -0.0539
  C  C137  1  0.862100  0.071200  0.138100  1.0  0.016
  C  C138  1  0.758900  0.186500  0.324600  1.0  0.0345
  C  C139  1  0.687000  0.079400  0.128500  1.0  -0.0087
  C  C140  1  0.862700  0.193500  0.357600  1.0  -0.0052
  C  C141  1  0.325200  0.628200  0.148700  1.0  -0.0038
  C  C142  1  0.122200  0.591100  0.141400  1.0  -0.4567
  C  C143  1  0.443100  0.975900  0.753300  1.0  -0.3305
  C  C144  1  0.476500  0.566300  0.335200  1.0  -0.0119
  C  C145  1  0.073100  0.109100  0.753800  1.0  -0.4211
  C  C146  1  0.192000  0.984700  0.598800  1.0  -0.4696
  C  C147  1  0.136900  0.311400  0.121600  1.0  -0.4686
  C  C148  1  0.466100  0.657200  0.380900  1.0  -0.0115
  C  C149  1  0.288900  0.671700  0.383100  1.0  -0.4683
  C  C150  1  0.400600  0.764100  0.304200  1.0  -0.0003
  C  C151  1  0.298500  0.744600  0.239600  1.0  0.0065
  C  C152  1  0.358900  0.405300  0.183900  1.0  0.0011
  C  C153  1  0.279200  0.504000  0.107300  1.0  -0.0265
  C  C154  1  0.360100  0.368800  0.254500  1.0  -0.0072
  C  C155  1  0.310600  0.403100  0.361900  1.0  -0.4817
  C  C156  1  0.337200  0.112400  0.908000  1.0  -0.446
  C  C157  1  0.979200  0.899500  0.701600  1.0  0.0198
  C  C158  1  0.309000  0.855000  0.812300  1.0  0.0216
  C  C159  1  0.005500  0.900900  0.637900  1.0  -0.0535
  C  C160  1  0.071800  0.978000  0.835200  1.0  -0.0583
  C  C161  1  0.137900  0.928800  0.861900  1.0  0.0162
  C  C162  1  0.241100  0.813500  0.675400  1.0  0.0368
  C  C163  1  0.313000  0.920600  0.871500  1.0  -0.0087
  C  C164  1  0.137300  0.806500  0.642400  1.0  -0.0045
  N  N165  1  0.642400  0.545000  0.694100  1.0  -0.0876
  N  N166  1  0.639200  0.334400  0.661400  1.0  -0.1518
  N  N167  1  0.744700  0.578100  0.844100  1.0  -0.1289
  N  N168  1  0.755400  0.372300  0.811600  1.0  -0.1042
  N  N169  1  0.680800  0.095100  0.248600  1.0  -0.1247
  N  N170  1  0.929000  0.002100  0.245400  1.0  -0.2113
  N  N171  1  0.744100  0.005000  0.142000  1.0  -0.1779
  N  N172  1  0.864800  0.088100  0.354700  1.0  -0.0816
  N  N173  1  0.357600  0.455000  0.305900  1.0  -0.0865
  N  N174  1  0.360800  0.665600  0.338600  1.0  -0.1502
  N  N175  1  0.255300  0.421900  0.155900  1.0  -0.1288
  N  N176  1  0.244600  0.627700  0.188400  1.0  -0.1042
  N  N177  1  0.319200  0.904900  0.751400  1.0  -0.1232
  N  N178  1  0.071000  0.997900  0.754600  1.0  -0.2103
  N  N179  1  0.255900  0.995000  0.858000  1.0  -0.1767
  N  N180  1  0.135200  0.911900  0.645300  1.0  -0.0834
  Cl  Cl181  1  0.939260  0.597070  0.742920  1.0  -0.574
  Cl  Cl182  1  0.645100  0.804160  0.245650  1.0  -0.535
  Cl  Cl183  1  0.060740  0.402930  0.257080  1.0  -0.5727
  Cl  Cl184  1  0.354900  0.195840  0.754350  1.0  -0.5378
  O  O185  1  0.008300  0.866900  0.995800  1.0  -0.8949
  O  O186  1  0.514200  0.170700  0.500500  1.0  -0.8998
  O  O187  1  0.159000  0.951400  0.312800  1.0  -0.9156
  O  O188  1  0.661300  0.779100  0.613300  1.0  -0.8638
  O  O189  1  0.431600  0.060700  0.321560  1.0  -0.8889
  O  O190  1  0.838300  0.875100  0.905700  1.0  -0.888
  O  O191  1  0.083600  0.919600  0.176400  1.0  -0.8929
  O  O192  1  0.823400  0.210300  0.908400  1.0  -0.8956
  O  O193  1  0.710800  0.974800  0.978900  1.0  -0.8046
  O  O194  1  0.543260  0.224200  0.269400  1.0  -0.549
  O  O195  1  0.601300  0.753900  0.963700  1.0  -0.64
  O  O196  1  0.644800  0.101000  0.574200  1.0  -0.8652
  O  O197  1  0.778500  0.981400  0.524000  1.0  -0.9172
  O  O198  1  0.012700  0.749000  0.230100  1.0  -0.5877
  O  O199  1  0.361500  0.043490  0.186600  1.0  -0.9281
  O  O200  1  0.719400  0.234300  0.494900  1.0  -0.6008
  O  O201  1  0.649800  0.644300  0.512500  1.0  -0.6668
  O  O202  1  0.993700  0.084100  0.525000  1.0  -0.6522
  O  O203  1  0.792200  0.740600  0.988000  1.0  -0.592
  O  O204  1  0.475400  0.574600  0.558800  1.0  -0.7087
  O  O205  1  0.863700  0.391300  0.992600  1.0  -0.7093
  O  O206  1  0.497800  0.867800  0.972000  1.0  -0.6464
  O  O207  1  0.886800  0.194000  0.518500  1.0  -0.6046
  O  O208  1  0.032100  0.385800  0.958600  1.0  -0.6964
  O  O209  1  0.991700  0.133100  0.004200  1.0  -0.896
  O  O210  1  0.485800  0.829300  0.499500  1.0  -0.8958
  O  O211  1  0.841000  0.048600  0.687200  1.0  -0.9178
  O  O212  1  0.338700  0.220900  0.386700  1.0  -0.8628
  O  O213  1  0.568400  0.939300  0.678440  1.0  -0.8891
  O  O214  1  0.161700  0.124900  0.094300  1.0  -0.8881
  O  O215  1  0.916400  0.080400  0.823600  1.0  -0.8937
  O  O216  1  0.176600  0.789700  0.091600  1.0  -0.8977
  O  O217  1  0.289200  0.025200  0.021100  1.0  -0.8045
  O  O218  1  0.456740  0.775800  0.730600  1.0  -0.5496
  O  O219  1  0.398700  0.246100  0.036300  1.0  -0.6405
  O  O220  1  0.355200  0.899000  0.425800  1.0  -0.866
  O  O221  1  0.221500  0.018600  0.476000  1.0  -0.9177
  O  O222  1  0.987300  0.251000  0.769900  1.0  -0.5867
  O  O223  1  0.638500  0.956510  0.813400  1.0  -0.9278
  O  O224  1  0.280600  0.765700  0.505100  1.0  -0.6006
  O  O225  1  0.350200  0.355700  0.487500  1.0  -0.6685
  O  O226  1  0.006300  0.915900  0.475000  1.0  -0.6522
  O  O227  1  0.207800  0.259400  0.012000  1.0  -0.5905
  O  O228  1  0.524600  0.425400  0.441200  1.0  -0.7083
  O  O229  1  0.136300  0.608700  0.007400  1.0  -0.7075
  O  O230  1  0.502200  0.132200  0.028000  1.0  -0.6485
  O  O231  1  0.113200  0.806000  0.481500  1.0  -0.6018
  O  O232  1  0.967900  0.614200  0.041400  1.0  -0.6933
