# generated using pymatgen
data_ZnH15C17(NO2)2
_symmetry_space_group_name_H-M   'P 1'
_cell_length_a   8.47300000
_cell_length_b   10.15400000
_cell_length_c   13.39700000
_cell_angle_alpha   68.21000000
_cell_angle_beta   78.64000000
_cell_angle_gamma   77.46000000
_symmetry_Int_Tables_number   1
_chemical_formula_structural   ZnH15C17(NO2)2
_chemical_formula_sum   'Zn2 H30 C34 N4 O8'
_cell_volume   1036.07736290
_cell_formula_units_Z   2
loop_
 _symmetry_equiv_pos_site_id
 _symmetry_equiv_pos_as_xyz
  1  'x, y, z'
loop_
 _atom_site_type_symbol
 _atom_site_label
 _atom_site_symmetry_multiplicity
 _atom_site_fract_x
 _atom_site_fract_y
 _atom_site_fract_z
 _atom_site_occupancy
 _atom_site_charge
  Zn  Zn1  1  0.943370  0.435150  0.158220  1.0  0.9754
  Zn  Zn2  1  0.056630  0.564850  0.841780  1.0  0.9723
  H  H3  1  0.255200  0.252300  0.082500  1.0  0.0759
  H  H4  1  0.461500  0.229100  0.323700  1.0  0.1368
  H  H5  1  0.193000  0.373900  0.330600  1.0  0.1037
  H  H6  1  0.638800  0.186400  0.114500  1.0  0.1012
  H  H7  1  0.598000  0.050000  0.210900  1.0  0.0996
  H  H8  1  0.433100  0.918700  0.269600  1.0  0.1045
  H  H9  1  0.344500  0.811800  0.249800  1.0  0.1202
  H  H10  1  0.532500  0.775500  0.256200  1.0  0.1182
  H  H11  1  0.586300  0.321400  0.973000  1.0  0.1103
  H  H12  1  0.692300  0.288800  0.872400  1.0  0.1159
  H  H13  1  0.506500  0.351500  0.869000  1.0  0.1156
  H  H14  1  0.923600  0.040000  0.163300  1.0  0.1082
  H  H15  1  0.070400  0.185900  0.842800  1.0  0.1126
  H  H16  1  0.752300  0.532600  0.518900  1.0  0.1066
  H  H17  1  0.465800  0.457700  0.348900  1.0  0.0922
  H  H18  1  0.744800  0.747700  0.917500  1.0  0.076
  H  H19  1  0.538500  0.770900  0.676300  1.0  0.137
  H  H20  1  0.807000  0.626100  0.669400  1.0  0.104
  H  H21  1  0.361200  0.813600  0.885500  1.0  0.1007
  H  H22  1  0.402000  0.950000  0.789100  1.0  0.1011
  H  H23  1  0.566900  0.081300  0.730400  1.0  0.1043
  H  H24  1  0.655500  0.188200  0.750200  1.0  0.1185
  H  H25  1  0.467500  0.224500  0.743800  1.0  0.1181
  H  H26  1  0.413700  0.678600  0.027000  1.0  0.1106
  H  H27  1  0.307700  0.711200  0.127600  1.0  0.1155
  H  H28  1  0.493500  0.648500  0.131000  1.0  0.117
  H  H29  1  0.076400  0.960000  0.836700  1.0  0.1087
  H  H30  1  0.929600  0.814100  0.157200  1.0  0.1127
  H  H31  1  0.247700  0.467400  0.481100  1.0  0.1072
  H  H32  1  0.534200  0.542300  0.651100  1.0  0.0934
  C  C33  1  0.273500  0.266200  0.143800  1.0  0.1634
  C  C34  1  0.387200  0.252200  0.274800  1.0  -0.1681
  C  C35  1  0.238500  0.332100  0.278200  1.0  0.0073
  C  C36  1  0.556600  0.126200  0.149600  1.0  -0.043
  C  C37  1  0.523000  0.062600  0.071050  1.0  -0.1258
  C  C38  1  0.475900  0.927100  0.112220  1.0  0.0466
  C  C39  1  0.545600  0.137300  0.959600  1.0  0.0634
  C  C40  1  0.443500  0.851400  0.232900  1.0  -0.3424
  C  C41  1  0.586500  0.288700  0.914300  1.0  -0.3484
  C  C42  1  0.986500  0.281960  0.007540  1.0  0.6814
  C  C43  1  0.993900  0.134840  0.004040  1.0  -0.1292
  C  C44  1  0.953700  0.023680  0.097730  1.0  -0.0572
  C  C45  1  0.041800  0.111400  0.905550  1.0  -0.028
  C  C46  1  0.772200  0.488400  0.333440  1.0  0.6708
  C  C47  1  0.631500  0.493500  0.420350  1.0  -0.1284
  C  C48  1  0.650900  0.519300  0.511000  1.0  -0.0538
  C  C49  1  0.480100  0.474700  0.409890  1.0  -0.0484
  C  C50  1  0.726500  0.733800  0.856200  1.0  0.1616
  C  C51  1  0.612800  0.747800  0.725200  1.0  -0.1686
  C  C52  1  0.761500  0.667900  0.721800  1.0  0.015
  C  C53  1  0.443400  0.873800  0.850400  1.0  -0.044
  C  C54  1  0.477000  0.937400  0.928950  1.0  -0.1276
  C  C55  1  0.524100  0.072900  0.887780  1.0  0.0478
  C  C56  1  0.454400  0.862700  0.040400  1.0  0.0651
  C  C57  1  0.556500  0.148600  0.767100  1.0  -0.3429
  C  C58  1  0.413500  0.711300  0.085700  1.0  -0.3491
  C  C59  1  0.013500  0.718040  0.992460  1.0  0.6804
  C  C60  1  0.006100  0.865160  0.995960  1.0  -0.1295
  C  C61  1  0.046300  0.976320  0.902270  1.0  -0.0573
  C  C62  1  0.958200  0.888600  0.094450  1.0  -0.026
  C  C63  1  0.227800  0.511600  0.666560  1.0  0.6718
  C  C64  1  0.368500  0.506500  0.579650  1.0  -0.1277
  C  C65  1  0.349100  0.480700  0.489000  1.0  -0.05
  C  C66  1  0.519900  0.525300  0.590110  1.0  -0.0498
  N  N67  1  0.165700  0.342470  0.194890  1.0  -0.4138
  N  N68  1  0.408300  0.212000  0.187630  1.0  0.0665
  N  N69  1  0.834300  0.657530  0.805110  1.0  -0.4145
  N  N70  1  0.591700  0.788000  0.812370  1.0  0.0658
  O  O71  1  0.897130  0.312290  0.085650  1.0  -0.599
  O  O72  1  0.073410  0.363520  0.933830  1.0  -0.6076
  O  O73  1  0.755450  0.428940  0.267840  1.0  -0.6226
  O  O74  1  0.896000  0.538390  0.326940  1.0  -0.5849
  O  O75  1  0.102870  0.687710  0.914350  1.0  -0.5992
  O  O76  1  0.926590  0.636480  0.066170  1.0  -0.6077
  O  O77  1  0.244550  0.571060  0.732160  1.0  -0.6221
  O  O78  1  0.104000  0.461610  0.673060  1.0  -0.584
