# generated using pymatgen
data_Zn3H24C42(N5O6)2
_symmetry_space_group_name_H-M   'P 1'
_cell_length_a   10.58600000
_cell_length_b   28.04300000
_cell_length_c   17.44800000
_cell_angle_alpha   90.00000000
_cell_angle_beta   92.08000000
_cell_angle_gamma   90.00000000
_symmetry_Int_Tables_number   1
_chemical_formula_structural   Zn3H24C42(N5O6)2
_chemical_formula_sum   'Zn12 H96 C168 N40 O48'
_cell_volume   5176.25631887
_cell_formula_units_Z   4
loop_
 _symmetry_equiv_pos_site_id
 _symmetry_equiv_pos_as_xyz
  1  'x, y, z'
loop_
 _atom_site_type_symbol
 _atom_site_label
 _atom_site_symmetry_multiplicity
 _atom_site_fract_x
 _atom_site_fract_y
 _atom_site_fract_z
 _atom_site_occupancy
 _atom_site_charge
  Zn  Zn1  1  0.861470  0.287100  0.370770  1.0  0.9511
  Zn  Zn2  1  0.361470  0.787100  0.370770  1.0  0.9511
  Zn  Zn3  1  0.138530  0.287100  0.129230  1.0  0.9507
  Zn  Zn4  1  0.638530  0.787100  0.129230  1.0  0.9507
  Zn  Zn5  1  0.138530  0.712900  0.629230  1.0  0.9501
  Zn  Zn6  1  0.638530  0.212900  0.629230  1.0  0.9501
  Zn  Zn7  1  0.861470  0.712900  0.870770  1.0  0.9501
  Zn  Zn8  1  0.361470  0.212900  0.870770  1.0  0.9501
  Zn  Zn9  1  0.000000  0.414120  0.250000  1.0  0.8148
  Zn  Zn10  1  0.500000  0.914120  0.250000  1.0  0.8148
  Zn  Zn11  1  0.000000  0.585880  0.750000  1.0  0.8149
  Zn  Zn12  1  0.500000  0.085880  0.750000  1.0  0.8149
  H  H13  1  0.000600  0.424100  0.081800  1.0  0.0699
  H  H14  1  0.172100  0.500700  0.237700  1.0  0.082
  H  H15  1  0.118400  0.456900  0.987200  1.0  0.127
  H  H16  1  0.291700  0.537500  0.148000  1.0  0.1286
  H  H17  1  0.185900  0.365000  0.484300  1.0  0.1095
  H  H18  1  0.336400  0.327900  0.563500  1.0  0.1086
  H  H19  1  0.421100  0.240200  0.392100  1.0  0.1115
  H  H20  1  0.726000  0.671200  0.010200  1.0  0.0829
  H  H21  1  0.708700  0.636600  0.794300  1.0  0.078
  H  H22  1  0.261400  0.481600  0.907900  1.0  0.3333
  H  H23  1  0.573400  0.617600  0.037300  1.0  0.1256
  H  H24  1  0.554800  0.582000  0.816000  1.0  0.1238
  H  H25  1  0.500600  0.924100  0.081800  1.0  0.0699
  H  H26  1  0.672100  0.000700  0.237700  1.0  0.082
  H  H27  1  0.618400  0.956900  0.987200  1.0  0.127
  H  H28  1  0.791700  0.037500  0.148000  1.0  0.1286
  H  H29  1  0.685900  0.865000  0.484300  1.0  0.1095
  H  H30  1  0.836400  0.827900  0.563500  1.0  0.1086
  H  H31  1  0.921100  0.740200  0.392100  1.0  0.1115
  H  H32  1  0.226000  0.171200  0.010200  1.0  0.0829
  H  H33  1  0.208700  0.136600  0.794300  1.0  0.078
  H  H34  1  0.761400  0.981600  0.907900  1.0  0.3333
  H  H35  1  0.073400  0.117600  0.037300  1.0  0.1256
  H  H36  1  0.054800  0.082000  0.816000  1.0  0.1238
  H  H37  1  0.999400  0.424100  0.418200  1.0  0.069
  H  H38  1  0.827900  0.500700  0.262300  1.0  0.0823
  H  H39  1  0.881600  0.456900  0.512800  1.0  0.1263
  H  H40  1  0.708300  0.537500  0.352000  1.0  0.1287
  H  H41  1  0.814100  0.365000  0.015700  1.0  0.1098
  H  H42  1  0.663600  0.327900  0.936500  1.0  0.1088
  H  H43  1  0.578900  0.240200  0.107900  1.0  0.1115
  H  H44  1  0.274000  0.671200  0.489800  1.0  0.0824
  H  H45  1  0.291300  0.636600  0.705700  1.0  0.0777
  H  H46  1  0.738600  0.481600  0.592100  1.0  0.333
  H  H47  1  0.426600  0.617600  0.462700  1.0  0.1258
  H  H48  1  0.445200  0.582000  0.684000  1.0  0.1241
  H  H49  1  0.499400  0.924100  0.418200  1.0  0.069
  H  H50  1  0.327900  0.000700  0.262300  1.0  0.0823
  H  H51  1  0.381600  0.956900  0.512800  1.0  0.1263
  H  H52  1  0.208300  0.037500  0.352000  1.0  0.1287
  H  H53  1  0.314100  0.865000  0.015700  1.0  0.1098
  H  H54  1  0.163600  0.827900  0.936500  1.0  0.1088
  H  H55  1  0.078900  0.740200  0.107900  1.0  0.1115
  H  H56  1  0.774000  0.171200  0.489800  1.0  0.0824
  H  H57  1  0.791300  0.136600  0.705700  1.0  0.0777
  H  H58  1  0.238600  0.981600  0.592100  1.0  0.333
  H  H59  1  0.926600  0.117600  0.462700  1.0  0.1258
  H  H60  1  0.945200  0.082000  0.684000  1.0  0.1241
  H  H61  1  0.999400  0.575900  0.918200  1.0  0.0693
  H  H62  1  0.827900  0.499300  0.762300  1.0  0.0824
  H  H63  1  0.881600  0.543100  0.012800  1.0  0.1263
  H  H64  1  0.708300  0.462500  0.852000  1.0  0.1287
  H  H65  1  0.814100  0.635000  0.515700  1.0  0.1101
  H  H66  1  0.663600  0.672100  0.436500  1.0  0.1087
  H  H67  1  0.578900  0.759800  0.607900  1.0  0.112
  H  H68  1  0.274000  0.328800  0.989800  1.0  0.0823
  H  H69  1  0.291300  0.363400  0.205700  1.0  0.0776
  H  H70  1  0.738600  0.518400  0.092100  1.0  0.332
  H  H71  1  0.426600  0.382400  0.962700  1.0  0.1258
  H  H72  1  0.445200  0.418000  0.184000  1.0  0.124
  H  H73  1  0.499400  0.075900  0.918200  1.0  0.0693
  H  H74  1  0.327900  0.999300  0.762300  1.0  0.0824
  H  H75  1  0.381600  0.043100  0.012800  1.0  0.1263
  H  H76  1  0.208300  0.962500  0.852000  1.0  0.1287
  H  H77  1  0.314100  0.135000  0.515700  1.0  0.1101
  H  H78  1  0.163600  0.172100  0.436500  1.0  0.1087
  H  H79  1  0.078900  0.259800  0.607900  1.0  0.112
  H  H80  1  0.774000  0.828800  0.989800  1.0  0.0823
  H  H81  1  0.791300  0.863400  0.205700  1.0  0.0776
  H  H82  1  0.238600  0.018400  0.092100  1.0  0.332
  H  H83  1  0.926600  0.882400  0.962700  1.0  0.1258
  H  H84  1  0.945200  0.918000  0.184000  1.0  0.124
  H  H85  1  0.000600  0.575900  0.581800  1.0  0.0698
  H  H86  1  0.172100  0.499300  0.737700  1.0  0.0819
  H  H87  1  0.118400  0.543100  0.487200  1.0  0.1268
  H  H88  1  0.291700  0.462500  0.648000  1.0  0.129
  H  H89  1  0.185900  0.635000  0.984300  1.0  0.1097
  H  H90  1  0.336400  0.672100  0.063500  1.0  0.1089
  H  H91  1  0.421100  0.759800  0.892100  1.0  0.1117
  H  H92  1  0.726000  0.328800  0.510200  1.0  0.0829
  H  H93  1  0.708700  0.363400  0.294300  1.0  0.078
  H  H94  1  0.261400  0.518400  0.407900  1.0  0.3334
  H  H95  1  0.573400  0.382400  0.537300  1.0  0.1255
  H  H96  1  0.554800  0.418000  0.316000  1.0  0.1239
  H  H97  1  0.500600  0.075900  0.581800  1.0  0.0698
  H  H98  1  0.672100  0.999300  0.737700  1.0  0.0819
  H  H99  1  0.618400  0.043100  0.487200  1.0  0.1268
  H  H100  1  0.791700  0.962500  0.648000  1.0  0.129
  H  H101  1  0.685900  0.135000  0.984300  1.0  0.1097
  H  H102  1  0.836400  0.172100  0.063500  1.0  0.1089
  H  H103  1  0.921100  0.259800  0.892100  1.0  0.1117
  H  H104  1  0.226000  0.828800  0.510200  1.0  0.0829
  H  H105  1  0.208700  0.863400  0.294300  1.0  0.078
  H  H106  1  0.761400  0.018400  0.407900  1.0  0.3334
  H  H107  1  0.073400  0.882400  0.537300  1.0  0.1255
  H  H108  1  0.054800  0.918000  0.316000  1.0  0.1239
  C  C109  1  0.111200  0.350870  0.343900  1.0  0.6666
  C  C110  1  0.062500  0.446400  0.095500  1.0  0.1815
  C  C111  1  0.162200  0.491400  0.186700  1.0  0.1582
  C  C112  1  0.210600  0.324290  0.391000  1.0  -0.0652
  C  C113  1  0.132100  0.466200  0.037900  1.0  -0.2115
  C  C114  1  0.234900  0.513700  0.133000  1.0  -0.16
  C  C115  1  0.232400  0.339600  0.465700  1.0  -0.1165
  C  C116  1  0.281000  0.286100  0.362700  1.0  -0.1478
  C  C117  1  0.222300  0.500300  0.057200  1.0  0.0335
  C  C118  1  0.488900  0.255500  0.537200  1.0  0.641
  C  C119  1  0.323100  0.317500  0.513200  1.0  -0.0241
  C  C120  1  0.372600  0.265100  0.410700  1.0  -0.0202
  C  C121  1  0.259300  0.267000  0.283000  1.0  0.7023
  C  C122  1  0.305600  0.519700  0.000100  1.0  0.3479
  C  C123  1  0.690400  0.653100  0.970400  1.0  0.1724
  C  C124  1  0.680500  0.632900  0.843900  1.0  0.1803
  C  C125  1  0.393400  0.280300  0.485800  1.0  -0.1444
  C  C126  1  0.599000  0.620900  0.987200  1.0  -0.1622
  C  C127  1  0.588300  0.600000  0.856600  1.0  -0.1256
  C  C128  1  0.444700  0.558800  0.944900  1.0  0.3577
  C  C129  1  0.544900  0.593300  0.929500  1.0  0.0424
  C  C130  1  0.611200  0.850870  0.343900  1.0  0.6666
  C  C131  1  0.562500  0.946400  0.095500  1.0  0.1815
  C  C132  1  0.662200  0.991400  0.186700  1.0  0.1582
  C  C133  1  0.710600  0.824290  0.391000  1.0  -0.0652
  C  C134  1  0.632100  0.966200  0.037900  1.0  -0.2115
  C  C135  1  0.734900  0.013700  0.133000  1.0  -0.16
  C  C136  1  0.732400  0.839600  0.465700  1.0  -0.1165
  C  C137  1  0.781000  0.786100  0.362700  1.0  -0.1478
  C  C138  1  0.722300  0.000300  0.057200  1.0  0.0335
  C  C139  1  0.988900  0.755500  0.537200  1.0  0.641
  C  C140  1  0.823100  0.817500  0.513200  1.0  -0.0241
  C  C141  1  0.872600  0.765100  0.410700  1.0  -0.0202
  C  C142  1  0.759300  0.767000  0.283000  1.0  0.7023
  C  C143  1  0.805600  0.019700  0.000100  1.0  0.3479
  C  C144  1  0.190400  0.153100  0.970400  1.0  0.1724
  C  C145  1  0.180500  0.132900  0.843900  1.0  0.1803
  C  C146  1  0.893400  0.780300  0.485800  1.0  -0.1444
  C  C147  1  0.099000  0.120900  0.987200  1.0  -0.1622
  C  C148  1  0.088300  0.100000  0.856600  1.0  -0.1256
  C  C149  1  0.944700  0.058800  0.944900  1.0  0.3577
  C  C150  1  0.044900  0.093300  0.929500  1.0  0.0424
  C  C151  1  0.888800  0.350870  0.156100  1.0  0.6674
  C  C152  1  0.937500  0.446400  0.404500  1.0  0.1817
  C  C153  1  0.837800  0.491400  0.313300  1.0  0.1601
  C  C154  1  0.789400  0.324290  0.109000  1.0  -0.0648
  C  C155  1  0.867900  0.466200  0.462100  1.0  -0.2108
  C  C156  1  0.765100  0.513700  0.367000  1.0  -0.1595
  C  C157  1  0.767600  0.339600  0.034300  1.0  -0.116
  C  C158  1  0.719000  0.286100  0.137300  1.0  -0.1476
  C  C159  1  0.777700  0.500300  0.442800  1.0  0.0316
  C  C160  1  0.511100  0.255500  0.962800  1.0  0.6406
  C  C161  1  0.676900  0.317500  0.986800  1.0  -0.0251
  C  C162  1  0.627400  0.265100  0.089300  1.0  -0.0211
  C  C163  1  0.740700  0.267000  0.217000  1.0  0.7044
  C  C164  1  0.694400  0.519700  0.499900  1.0  0.348
  C  C165  1  0.309600  0.653100  0.529600  1.0  0.1738
  C  C166  1  0.319500  0.632900  0.656100  1.0  0.1792
  C  C167  1  0.606600  0.280300  0.014200  1.0  -0.1458
  C  C168  1  0.401000  0.620900  0.512800  1.0  -0.1603
  C  C169  1  0.411700  0.600000  0.643400  1.0  -0.1254
  C  C170  1  0.555300  0.558800  0.555100  1.0  0.3578
  C  C171  1  0.455100  0.593300  0.570500  1.0  0.0419
  C  C172  1  0.388800  0.850870  0.156100  1.0  0.6674
  C  C173  1  0.437500  0.946400  0.404500  1.0  0.1817
  C  C174  1  0.337800  0.991400  0.313300  1.0  0.1601
  C  C175  1  0.289400  0.824290  0.109000  1.0  -0.0648
  C  C176  1  0.367900  0.966200  0.462100  1.0  -0.2108
  C  C177  1  0.265100  0.013700  0.367000  1.0  -0.1595
  C  C178  1  0.267600  0.839600  0.034300  1.0  -0.116
  C  C179  1  0.219000  0.786100  0.137300  1.0  -0.1476
  C  C180  1  0.277700  0.000300  0.442800  1.0  0.0316
  C  C181  1  0.011100  0.755500  0.962800  1.0  0.6406
  C  C182  1  0.176900  0.817500  0.986800  1.0  -0.0251
  C  C183  1  0.127400  0.765100  0.089300  1.0  -0.0211
  C  C184  1  0.240700  0.767000  0.217000  1.0  0.7044
  C  C185  1  0.194400  0.019700  0.499900  1.0  0.348
  C  C186  1  0.809600  0.153100  0.529600  1.0  0.1738
  C  C187  1  0.819500  0.132900  0.656100  1.0  0.1792
  C  C188  1  0.106600  0.780300  0.014200  1.0  -0.1458
  C  C189  1  0.901000  0.120900  0.512800  1.0  -0.1603
  C  C190  1  0.911700  0.100000  0.643400  1.0  -0.1254
  C  C191  1  0.055300  0.058800  0.555100  1.0  0.3578
  C  C192  1  0.955100  0.093300  0.570500  1.0  0.0419
  C  C193  1  0.888800  0.649130  0.656100  1.0  0.6669
  C  C194  1  0.937500  0.553600  0.904500  1.0  0.1819
  C  C195  1  0.837800  0.508600  0.813300  1.0  0.1605
  C  C196  1  0.789400  0.675710  0.609000  1.0  -0.0645
  C  C197  1  0.867900  0.533800  0.962100  1.0  -0.211
  C  C198  1  0.765100  0.486300  0.867000  1.0  -0.1584
  C  C199  1  0.767600  0.660400  0.534300  1.0  -0.1161
  C  C200  1  0.719000  0.713900  0.637300  1.0  -0.147
  C  C201  1  0.777700  0.499700  0.942800  1.0  0.0319
  C  C202  1  0.511100  0.744500  0.462800  1.0  0.6406
  C  C203  1  0.676900  0.682500  0.486800  1.0  -0.0245
  C  C204  1  0.627400  0.734900  0.589300  1.0  -0.0195
  C  C205  1  0.740700  0.733000  0.717000  1.0  0.7023
  C  C206  1  0.694400  0.480300  0.999900  1.0  0.3487
  C  C207  1  0.309600  0.346900  0.029600  1.0  0.1743
  C  C208  1  0.319500  0.367100  0.156100  1.0  0.1798
  C  C209  1  0.606600  0.719700  0.514200  1.0  -0.1455
  C  C210  1  0.401000  0.379100  0.012800  1.0  -0.1599
  C  C211  1  0.411700  0.400000  0.143400  1.0  -0.1255
  C  C212  1  0.555300  0.441200  0.055100  1.0  0.3577
  C  C213  1  0.455100  0.406700  0.070500  1.0  0.042
  C  C214  1  0.388800  0.149130  0.656100  1.0  0.6669
  C  C215  1  0.437500  0.053600  0.904500  1.0  0.1819
  C  C216  1  0.337800  0.008600  0.813300  1.0  0.1605
  C  C217  1  0.289400  0.175710  0.609000  1.0  -0.0645
  C  C218  1  0.367900  0.033800  0.962100  1.0  -0.211
  C  C219  1  0.265100  0.986300  0.867000  1.0  -0.1584
  C  C220  1  0.267600  0.160400  0.534300  1.0  -0.1161
  C  C221  1  0.219000  0.213900  0.637300  1.0  -0.147
  C  C222  1  0.277700  0.999700  0.942800  1.0  0.0319
  C  C223  1  0.011100  0.244500  0.462800  1.0  0.6406
  C  C224  1  0.176900  0.182500  0.486800  1.0  -0.0245
  C  C225  1  0.127400  0.234900  0.589300  1.0  -0.0195
  C  C226  1  0.240700  0.233000  0.717000  1.0  0.7023
  C  C227  1  0.194400  0.980300  0.999900  1.0  0.3487
  C  C228  1  0.809600  0.846900  0.029600  1.0  0.1743
  C  C229  1  0.819500  0.867100  0.156100  1.0  0.1798
  C  C230  1  0.106600  0.219700  0.514200  1.0  -0.1455
  C  C231  1  0.901000  0.879100  0.012800  1.0  -0.1599
  C  C232  1  0.911700  0.900000  0.143400  1.0  -0.1255
  C  C233  1  0.055300  0.941200  0.055100  1.0  0.3577
  C  C234  1  0.955100  0.906700  0.070500  1.0  0.042
  C  C235  1  0.111200  0.649130  0.843900  1.0  0.6665
  C  C236  1  0.062500  0.553600  0.595500  1.0  0.1816
  C  C237  1  0.162200  0.508600  0.686700  1.0  0.1584
  C  C238  1  0.210600  0.675710  0.891000  1.0  -0.0649
  C  C239  1  0.132100  0.533800  0.537900  1.0  -0.2119
  C  C240  1  0.234900  0.486300  0.633000  1.0  -0.1608
  C  C241  1  0.232400  0.660400  0.965700  1.0  -0.116
  C  C242  1  0.281000  0.713900  0.862700  1.0  -0.1469
  C  C243  1  0.222300  0.499700  0.557200  1.0  0.034
  C  C244  1  0.488900  0.744500  0.037200  1.0  0.6412
  C  C245  1  0.323100  0.682500  0.013200  1.0  -0.0248
  C  C246  1  0.372600  0.734900  0.910700  1.0  -0.0201
  C  C247  1  0.259300  0.733000  0.783000  1.0  0.7026
  C  C248  1  0.305600  0.480300  0.500100  1.0  0.3483
  C  C249  1  0.690400  0.346900  0.470400  1.0  0.1731
  C  C250  1  0.680500  0.367100  0.343900  1.0  0.1798
  C  C251  1  0.393400  0.719700  0.985800  1.0  -0.1442
  C  C252  1  0.599000  0.379100  0.487200  1.0  -0.1619
  C  C253  1  0.588300  0.400000  0.356600  1.0  -0.1259
  C  C254  1  0.444700  0.441200  0.444900  1.0  0.3574
  C  C255  1  0.544900  0.406700  0.429500  1.0  0.042
  C  C256  1  0.611200  0.149130  0.843900  1.0  0.6665
  C  C257  1  0.562500  0.053600  0.595500  1.0  0.1816
  C  C258  1  0.662200  0.008600  0.686700  1.0  0.1584
  C  C259  1  0.710600  0.175710  0.891000  1.0  -0.0649
  C  C260  1  0.632100  0.033800  0.537900  1.0  -0.2119
  C  C261  1  0.734900  0.986300  0.633000  1.0  -0.1608
  C  C262  1  0.732400  0.160400  0.965700  1.0  -0.116
  C  C263  1  0.781000  0.213900  0.862700  1.0  -0.1469
  C  C264  1  0.722300  0.999700  0.557200  1.0  0.034
  C  C265  1  0.988900  0.244500  0.037200  1.0  0.6412
  C  C266  1  0.823100  0.182500  0.013200  1.0  -0.0248
  C  C267  1  0.872600  0.234900  0.910700  1.0  -0.0201
  C  C268  1  0.759300  0.233000  0.783000  1.0  0.7026
  C  C269  1  0.805600  0.980300  0.500100  1.0  0.3483
  C  C270  1  0.190400  0.846900  0.470400  1.0  0.1731
  C  C271  1  0.180500  0.867100  0.343900  1.0  0.1798
  C  C272  1  0.893400  0.219700  0.985800  1.0  -0.1442
  C  C273  1  0.099000  0.879100  0.487200  1.0  -0.1619
  C  C274  1  0.088300  0.900000  0.356600  1.0  -0.1259
  C  C275  1  0.944700  0.941200  0.444900  1.0  0.3574
  C  C276  1  0.044900  0.906700  0.429500  1.0  0.042
  N  N277  1  0.078900  0.457250  0.168900  1.0  -0.3399
  N  N278  1  0.731600  0.660100  0.899900  1.0  -0.3317
  N  N279  1  0.308300  0.503700  0.927800  1.0  -0.1091
  N  N280  1  0.389900  0.554270  0.013100  1.0  -0.4596
  N  N281  1  0.399300  0.529000  0.891100  1.0  -0.3711
  N  N282  1  0.578900  0.957250  0.168900  1.0  -0.3399
  N  N283  1  0.231600  0.160100  0.899900  1.0  -0.3317
  N  N284  1  0.808300  0.003700  0.927800  1.0  -0.1091
  N  N285  1  0.889900  0.054270  0.013100  1.0  -0.4596
  N  N286  1  0.899300  0.029000  0.891100  1.0  -0.3711
  N  N287  1  0.921100  0.457250  0.331100  1.0  -0.3423
  N  N288  1  0.268400  0.660100  0.600100  1.0  -0.3296
  N  N289  1  0.691700  0.503700  0.572200  1.0  -0.1111
  N  N290  1  0.610100  0.554270  0.486900  1.0  -0.4559
  N  N291  1  0.600700  0.529000  0.608900  1.0  -0.3725
  N  N292  1  0.421100  0.957250  0.331100  1.0  -0.3423
  N  N293  1  0.768400  0.160100  0.600100  1.0  -0.3296
  N  N294  1  0.191700  0.003700  0.572200  1.0  -0.1111
  N  N295  1  0.110100  0.054270  0.486900  1.0  -0.4559
  N  N296  1  0.100700  0.029000  0.608900  1.0  -0.3725
  N  N297  1  0.921100  0.542750  0.831100  1.0  -0.3406
  N  N298  1  0.268400  0.339900  0.100100  1.0  -0.3314
  N  N299  1  0.691700  0.496300  0.072200  1.0  -0.1098
  N  N300  1  0.610100  0.445730  0.986900  1.0  -0.4572
  N  N301  1  0.600700  0.471000  0.108900  1.0  -0.3739
  N  N302  1  0.421100  0.042750  0.831100  1.0  -0.3406
  N  N303  1  0.768400  0.839900  0.100100  1.0  -0.3314
  N  N304  1  0.191700  0.996300  0.072200  1.0  -0.1098
  N  N305  1  0.110100  0.945730  0.986900  1.0  -0.4572
  N  N306  1  0.100700  0.971000  0.108900  1.0  -0.3739
  N  N307  1  0.078900  0.542750  0.668900  1.0  -0.34
  N  N308  1  0.731600  0.339900  0.399900  1.0  -0.332
  N  N309  1  0.308300  0.496300  0.427800  1.0  -0.1092
  N  N310  1  0.389900  0.445730  0.513100  1.0  -0.4588
  N  N311  1  0.399300  0.471000  0.391100  1.0  -0.3716
  N  N312  1  0.578900  0.042750  0.668900  1.0  -0.34
  N  N313  1  0.231600  0.839900  0.399900  1.0  -0.332
  N  N314  1  0.808300  0.996300  0.427800  1.0  -0.1092
  N  N315  1  0.889900  0.945730  0.513100  1.0  -0.4588
  N  N316  1  0.899300  0.971000  0.391100  1.0  -0.3716
  O  O317  1  0.149000  0.386540  0.305600  1.0  -0.6031
  O  O318  1  0.997000  0.341740  0.348500  1.0  -0.6423
  O  O319  1  0.173100  0.287070  0.242500  1.0  -0.6177
  O  O320  1  0.495900  0.264350  0.607100  1.0  -0.5584
  O  O321  1  0.561800  0.224390  0.508200  1.0  -0.5782
  O  O322  1  0.319900  0.232400  0.262900  1.0  -0.5381
  O  O323  1  0.649000  0.886540  0.305600  1.0  -0.6031
  O  O324  1  0.497000  0.841740  0.348500  1.0  -0.6423
  O  O325  1  0.673100  0.787070  0.242500  1.0  -0.6177
  O  O326  1  0.995900  0.764350  0.607100  1.0  -0.5584
  O  O327  1  0.061800  0.724390  0.508200  1.0  -0.5782
  O  O328  1  0.819900  0.732400  0.262900  1.0  -0.5381
  O  O329  1  0.851000  0.386540  0.194400  1.0  -0.6035
  O  O330  1  0.003000  0.341740  0.151500  1.0  -0.6425
  O  O331  1  0.826900  0.287070  0.257500  1.0  -0.6162
  O  O332  1  0.504100  0.264350  0.892900  1.0  -0.5575
  O  O333  1  0.438200  0.224390  0.991800  1.0  -0.5771
  O  O334  1  0.680100  0.232400  0.237100  1.0  -0.5389
  O  O335  1  0.351000  0.886540  0.194400  1.0  -0.6035
  O  O336  1  0.503000  0.841740  0.151500  1.0  -0.6425
  O  O337  1  0.326900  0.787070  0.257500  1.0  -0.6162
  O  O338  1  0.004100  0.764350  0.892900  1.0  -0.5575
  O  O339  1  0.938200  0.724390  0.991800  1.0  -0.5771
  O  O340  1  0.180100  0.732400  0.237100  1.0  -0.5389
  O  O341  1  0.851000  0.613460  0.694400  1.0  -0.603
  O  O342  1  0.003000  0.658260  0.651500  1.0  -0.6433
  O  O343  1  0.826900  0.712930  0.757500  1.0  -0.6157
  O  O344  1  0.504100  0.735650  0.392900  1.0  -0.5568
  O  O345  1  0.438200  0.775610  0.491800  1.0  -0.5755
  O  O346  1  0.680100  0.767600  0.737100  1.0  -0.5394
  O  O347  1  0.351000  0.113460  0.694400  1.0  -0.603
  O  O348  1  0.503000  0.158260  0.651500  1.0  -0.6433
  O  O349  1  0.326900  0.212930  0.757500  1.0  -0.6157
  O  O350  1  0.004100  0.235650  0.392900  1.0  -0.5568
  O  O351  1  0.938200  0.275610  0.491800  1.0  -0.5755
  O  O352  1  0.180100  0.267600  0.737100  1.0  -0.5394
  O  O353  1  0.149000  0.613460  0.805600  1.0  -0.6024
  O  O354  1  0.997000  0.658260  0.848500  1.0  -0.6431
  O  O355  1  0.173100  0.712930  0.742500  1.0  -0.6164
  O  O356  1  0.495900  0.735650  0.107100  1.0  -0.5592
  O  O357  1  0.561800  0.775610  0.008200  1.0  -0.5764
  O  O358  1  0.319900  0.767600  0.762900  1.0  -0.5392
  O  O359  1  0.649000  0.113460  0.805600  1.0  -0.6024
  O  O360  1  0.497000  0.158260  0.848500  1.0  -0.6431
  O  O361  1  0.673100  0.212930  0.742500  1.0  -0.6164
  O  O362  1  0.995900  0.235650  0.107100  1.0  -0.5592
  O  O363  1  0.061800  0.275610  0.008200  1.0  -0.5764
  O  O364  1  0.819900  0.267600  0.762900  1.0  -0.5392
