# generated using pymatgen
data_Ag3H24C36N12Cl
_symmetry_space_group_name_H-M   'P 1'
_cell_length_a   22.66550000
_cell_length_b   18.86560000
_cell_length_c   24.60360000
_cell_angle_alpha   90.00000000
_cell_angle_beta   107.22800000
_cell_angle_gamma   90.00000000
_symmetry_Int_Tables_number   1
_chemical_formula_structural   Ag3H24C36N12Cl
_chemical_formula_sum   'Ag24 H192 C288 N96 Cl8'
_cell_volume   10048.44291297
_cell_formula_units_Z   8
loop_
 _symmetry_equiv_pos_site_id
 _symmetry_equiv_pos_as_xyz
  1  'x, y, z'
loop_
 _atom_site_type_symbol
 _atom_site_label
 _atom_site_symmetry_multiplicity
 _atom_site_fract_x
 _atom_site_fract_y
 _atom_site_fract_z
 _atom_site_occupancy
 _atom_site_charge
  Ag  Ag1  1  0.236630  0.595380  0.947110  1.0  0.3099
  Ag  Ag2  1  0.067880  0.072250  0.522350  1.0  0.1863
  Ag  Ag3  1  0.834100  0.727470  0.483530  1.0  0.2352
  Ag  Ag4  1  0.736630  0.095380  0.947110  1.0  0.3099
  Ag  Ag5  1  0.567880  0.572250  0.522350  1.0  0.1863
  Ag  Ag6  1  0.334100  0.227470  0.483530  1.0  0.2352
  Ag  Ag7  1  0.236630  0.404620  0.447110  1.0  0.3101
  Ag  Ag8  1  0.067880  0.927750  0.022350  1.0  0.1865
  Ag  Ag9  1  0.834100  0.272530  0.983530  1.0  0.2378
  Ag  Ag10  1  0.736630  0.904620  0.447110  1.0  0.3101
  Ag  Ag11  1  0.567880  0.427750  0.022350  1.0  0.1865
  Ag  Ag12  1  0.334100  0.772530  0.983530  1.0  0.2378
  Ag  Ag13  1  0.763370  0.595380  0.552890  1.0  0.3077
  Ag  Ag14  1  0.932120  0.072250  0.977650  1.0  0.1866
  Ag  Ag15  1  0.165900  0.727470  0.016470  1.0  0.2358
  Ag  Ag16  1  0.263370  0.095380  0.552890  1.0  0.3077
  Ag  Ag17  1  0.432120  0.572250  0.977650  1.0  0.1866
  Ag  Ag18  1  0.665900  0.227470  0.016470  1.0  0.2358
  Ag  Ag19  1  0.763370  0.404620  0.052890  1.0  0.3081
  Ag  Ag20  1  0.932120  0.927750  0.477650  1.0  0.1871
  Ag  Ag21  1  0.165900  0.272530  0.516470  1.0  0.2387
  Ag  Ag22  1  0.263370  0.904620  0.052890  1.0  0.3081
  Ag  Ag23  1  0.432120  0.427750  0.477650  1.0  0.1871
  Ag  Ag24  1  0.665900  0.772530  0.516470  1.0  0.2387
  H  H25  1  0.234600  0.542200  0.833600  1.0  0.0947
  H  H26  1  0.223800  0.573300  0.741300  1.0  0.1262
  H  H27  1  0.216000  0.777500  0.785500  1.0  0.1294
  H  H28  1  0.223200  0.739200  0.876200  1.0  0.0805
  H  H29  1  0.180500  0.562800  0.433000  1.0  0.0811
  H  H30  1  0.162000  0.653200  0.489200  1.0  0.1284
  H  H31  1  0.252000  0.540400  0.626400  1.0  0.1309
  H  H32  1  0.266400  0.452600  0.567300  1.0  0.0905
  H  H33  1  0.133600  0.005100  0.638400  1.0  0.0838
  H  H34  1  0.172500  0.898700  0.676100  1.0  0.1306
  H  H35  1  0.160000  0.833100  0.517100  1.0  0.1289
  H  H36  1  0.124000  0.944400  0.485200  1.0  0.084
  H  H37  1  0.010600  0.115700  0.400300  1.0  0.1024
  H  H38  1  0.975100  0.214400  0.347800  1.0  0.1222
  H  H39  1  0.961000  0.311500  0.487900  1.0  0.1279
  H  H40  1  0.999600  0.209900  0.538300  1.0  0.0829
  H  H41  1  0.922400  0.490900  0.124800  1.0  0.0875
  H  H42  1  0.925300  0.499800  0.218700  1.0  0.1341
  H  H43  1  0.921500  0.288300  0.225300  1.0  0.1235
  H  H44  1  0.911400  0.285500  0.129400  1.0  0.0785
  H  H45  1  0.910900  0.592800  0.517900  1.0  0.0829
  H  H46  1  0.941000  0.492700  0.479400  1.0  0.1054
  H  H47  1  0.847800  0.564600  0.323900  1.0  0.1234
  H  H48  1  0.820700  0.662700  0.367000  1.0  0.078
  H  H49  1  0.734600  0.042200  0.833600  1.0  0.0947
  H  H50  1  0.723800  0.073300  0.741300  1.0  0.1262
  H  H51  1  0.716000  0.277500  0.785500  1.0  0.1294
  H  H52  1  0.723200  0.239200  0.876200  1.0  0.0805
  H  H53  1  0.680500  0.062800  0.433000  1.0  0.0811
  H  H54  1  0.662000  0.153200  0.489200  1.0  0.1284
  H  H55  1  0.752000  0.040400  0.626400  1.0  0.1309
  H  H56  1  0.766400  0.952600  0.567300  1.0  0.0905
  H  H57  1  0.633600  0.505100  0.638400  1.0  0.0838
  H  H58  1  0.672500  0.398700  0.676100  1.0  0.1306
  H  H59  1  0.660000  0.333100  0.517100  1.0  0.1289
  H  H60  1  0.624000  0.444400  0.485200  1.0  0.084
  H  H61  1  0.510600  0.615700  0.400300  1.0  0.1024
  H  H62  1  0.475100  0.714400  0.347800  1.0  0.1222
  H  H63  1  0.461000  0.811500  0.487900  1.0  0.1279
  H  H64  1  0.499600  0.709900  0.538300  1.0  0.0829
  H  H65  1  0.422400  0.990900  0.124800  1.0  0.0875
  H  H66  1  0.425300  0.999800  0.218700  1.0  0.1341
  H  H67  1  0.421500  0.788300  0.225300  1.0  0.1235
  H  H68  1  0.411400  0.785500  0.129400  1.0  0.0785
  H  H69  1  0.410900  0.092800  0.517900  1.0  0.0829
  H  H70  1  0.441000  0.992700  0.479400  1.0  0.1054
  H  H71  1  0.347800  0.064600  0.323900  1.0  0.1234
  H  H72  1  0.320700  0.162700  0.367000  1.0  0.078
  H  H73  1  0.234600  0.457800  0.333600  1.0  0.094
  H  H74  1  0.223800  0.426700  0.241300  1.0  0.1268
  H  H75  1  0.216000  0.222500  0.285500  1.0  0.1299
  H  H76  1  0.223200  0.260800  0.376200  1.0  0.0809
  H  H77  1  0.180500  0.437200  0.933000  1.0  0.0812
  H  H78  1  0.162000  0.346800  0.989200  1.0  0.1282
  H  H79  1  0.252000  0.459600  0.126400  1.0  0.1305
  H  H80  1  0.266400  0.547400  0.067300  1.0  0.0906
  H  H81  1  0.133600  0.994900  0.138400  1.0  0.085
  H  H82  1  0.172500  0.101300  0.176100  1.0  0.1309
  H  H83  1  0.160000  0.166900  0.017100  1.0  0.1287
  H  H84  1  0.124000  0.055600  0.985200  1.0  0.0838
  H  H85  1  0.010600  0.884300  0.900300  1.0  0.1025
  H  H86  1  0.975100  0.785600  0.847800  1.0  0.1223
  H  H87  1  0.961000  0.688500  0.987900  1.0  0.1284
  H  H88  1  0.999600  0.790100  0.038300  1.0  0.0829
  H  H89  1  0.922400  0.509100  0.624800  1.0  0.0875
  H  H90  1  0.925300  0.500200  0.718700  1.0  0.1345
  H  H91  1  0.921500  0.711700  0.725300  1.0  0.1232
  H  H92  1  0.911400  0.714500  0.629400  1.0  0.0782
  H  H93  1  0.910900  0.407200  0.017900  1.0  0.083
  H  H94  1  0.941000  0.507300  0.979400  1.0  0.1052
  H  H95  1  0.847800  0.435400  0.823900  1.0  0.1234
  H  H96  1  0.820700  0.337300  0.867000  1.0  0.0781
  H  H97  1  0.734600  0.957800  0.333600  1.0  0.094
  H  H98  1  0.723800  0.926700  0.241300  1.0  0.1268
  H  H99  1  0.716000  0.722500  0.285500  1.0  0.1299
  H  H100  1  0.723200  0.760800  0.376200  1.0  0.0809
  H  H101  1  0.680500  0.937200  0.933000  1.0  0.0812
  H  H102  1  0.662000  0.846800  0.989200  1.0  0.1282
  H  H103  1  0.752000  0.959600  0.126400  1.0  0.1305
  H  H104  1  0.766400  0.047400  0.067300  1.0  0.0906
  H  H105  1  0.633600  0.494900  0.138400  1.0  0.085
  H  H106  1  0.672500  0.601300  0.176100  1.0  0.1309
  H  H107  1  0.660000  0.666900  0.017100  1.0  0.1287
  H  H108  1  0.624000  0.555600  0.985200  1.0  0.0838
  H  H109  1  0.510600  0.384300  0.900300  1.0  0.1025
  H  H110  1  0.475100  0.285600  0.847800  1.0  0.1223
  H  H111  1  0.461000  0.188500  0.987900  1.0  0.1284
  H  H112  1  0.499600  0.290100  0.038300  1.0  0.0829
  H  H113  1  0.422400  0.009100  0.624800  1.0  0.0875
  H  H114  1  0.425300  0.000200  0.718700  1.0  0.1345
  H  H115  1  0.421500  0.211700  0.725300  1.0  0.1232
  H  H116  1  0.411400  0.214500  0.629400  1.0  0.0782
  H  H117  1  0.410900  0.907200  0.017900  1.0  0.083
  H  H118  1  0.441000  0.007300  0.979400  1.0  0.1052
  H  H119  1  0.347800  0.935400  0.823900  1.0  0.1234
  H  H120  1  0.320700  0.837300  0.867000  1.0  0.0781
  H  H121  1  0.765400  0.542200  0.666400  1.0  0.0943
  H  H122  1  0.776200  0.573300  0.758700  1.0  0.1256
  H  H123  1  0.784000  0.777500  0.714500  1.0  0.1293
  H  H124  1  0.776800  0.739200  0.623800  1.0  0.081
  H  H125  1  0.819500  0.562800  0.067000  1.0  0.0813
  H  H126  1  0.838000  0.653200  0.010800  1.0  0.1282
  H  H127  1  0.748000  0.540400  0.873600  1.0  0.1312
  H  H128  1  0.733600  0.452600  0.932700  1.0  0.0891
  H  H129  1  0.866400  0.005100  0.861600  1.0  0.0851
  H  H130  1  0.827500  0.898700  0.823900  1.0  0.1306
  H  H131  1  0.840000  0.833100  0.982900  1.0  0.13
  H  H132  1  0.876000  0.944400  0.014800  1.0  0.0841
  H  H133  1  0.989400  0.115700  0.099700  1.0  0.1033
  H  H134  1  0.024900  0.214400  0.152200  1.0  0.1216
  H  H135  1  0.039000  0.311500  0.012100  1.0  0.1277
  H  H136  1  0.000400  0.209900  0.961700  1.0  0.0826
  H  H137  1  0.077600  0.490900  0.375200  1.0  0.0874
  H  H138  1  0.074700  0.499800  0.281300  1.0  0.1349
  H  H139  1  0.078500  0.288300  0.274700  1.0  0.1234
  H  H140  1  0.088600  0.285500  0.370600  1.0  0.0784
  H  H141  1  0.089100  0.592800  0.982100  1.0  0.0835
  H  H142  1  0.059000  0.492700  0.020600  1.0  0.1047
  H  H143  1  0.152200  0.564600  0.176100  1.0  0.1242
  H  H144  1  0.179300  0.662700  0.133000  1.0  0.0781
  H  H145  1  0.265400  0.042200  0.666400  1.0  0.0943
  H  H146  1  0.276200  0.073300  0.758700  1.0  0.1256
  H  H147  1  0.284000  0.277500  0.714500  1.0  0.1293
  H  H148  1  0.276800  0.239200  0.623800  1.0  0.081
  H  H149  1  0.319500  0.062800  0.067000  1.0  0.0813
  H  H150  1  0.338000  0.153200  0.010800  1.0  0.1282
  H  H151  1  0.248000  0.040400  0.873600  1.0  0.1312
  H  H152  1  0.233600  0.952600  0.932700  1.0  0.0891
  H  H153  1  0.366400  0.505100  0.861600  1.0  0.0851
  H  H154  1  0.327500  0.398700  0.823900  1.0  0.1306
  H  H155  1  0.340000  0.333100  0.982900  1.0  0.13
  H  H156  1  0.376000  0.444400  0.014800  1.0  0.0841
  H  H157  1  0.489400  0.615700  0.099700  1.0  0.1033
  H  H158  1  0.524900  0.714400  0.152200  1.0  0.1216
  H  H159  1  0.539000  0.811500  0.012100  1.0  0.1277
  H  H160  1  0.500400  0.709900  0.961700  1.0  0.0826
  H  H161  1  0.577600  0.990900  0.375200  1.0  0.0874
  H  H162  1  0.574700  0.999800  0.281300  1.0  0.1349
  H  H163  1  0.578500  0.788300  0.274700  1.0  0.1234
  H  H164  1  0.588600  0.785500  0.370600  1.0  0.0784
  H  H165  1  0.589100  0.092800  0.982100  1.0  0.0835
  H  H166  1  0.559000  0.992700  0.020600  1.0  0.1047
  H  H167  1  0.652200  0.064600  0.176100  1.0  0.1242
  H  H168  1  0.679300  0.162700  0.133000  1.0  0.0781
  H  H169  1  0.765400  0.457800  0.166400  1.0  0.094
  H  H170  1  0.776200  0.426700  0.258700  1.0  0.1257
  H  H171  1  0.784000  0.222500  0.214500  1.0  0.1296
  H  H172  1  0.776800  0.260800  0.123800  1.0  0.0815
  H  H173  1  0.819500  0.437200  0.567000  1.0  0.0815
  H  H174  1  0.838000  0.346800  0.510800  1.0  0.1284
  H  H175  1  0.748000  0.459600  0.373600  1.0  0.1313
  H  H176  1  0.733600  0.547400  0.432700  1.0  0.0907
  H  H177  1  0.866400  0.994900  0.361600  1.0  0.0854
  H  H178  1  0.827500  0.101300  0.323900  1.0  0.1306
  H  H179  1  0.840000  0.166900  0.482900  1.0  0.13
  H  H180  1  0.876000  0.055600  0.514800  1.0  0.0841
  H  H181  1  0.989400  0.884300  0.599700  1.0  0.1028
  H  H182  1  0.024900  0.785600  0.652200  1.0  0.1221
  H  H183  1  0.039000  0.688500  0.512100  1.0  0.1277
  H  H184  1  0.000400  0.790100  0.461700  1.0  0.0828
  H  H185  1  0.077600  0.509100  0.875200  1.0  0.0878
  H  H186  1  0.074700  0.500200  0.781300  1.0  0.1348
  H  H187  1  0.078500  0.711700  0.774700  1.0  0.1237
  H  H188  1  0.088600  0.714500  0.870600  1.0  0.0777
  H  H189  1  0.089100  0.407200  0.482100  1.0  0.0833
  H  H190  1  0.059000  0.507300  0.520600  1.0  0.1049
  H  H191  1  0.152200  0.435400  0.676100  1.0  0.1238
  H  H192  1  0.179300  0.337300  0.633000  1.0  0.0783
  H  H193  1  0.265400  0.957800  0.166400  1.0  0.094
  H  H194  1  0.276200  0.926700  0.258700  1.0  0.1257
  H  H195  1  0.284000  0.722500  0.214500  1.0  0.1296
  H  H196  1  0.276800  0.760800  0.123800  1.0  0.0815
  H  H197  1  0.319500  0.937200  0.567000  1.0  0.0815
  H  H198  1  0.338000  0.846800  0.510800  1.0  0.1284
  H  H199  1  0.248000  0.959600  0.373600  1.0  0.1313
  H  H200  1  0.233600  0.047400  0.432700  1.0  0.0907
  H  H201  1  0.366400  0.494900  0.361600  1.0  0.0854
  H  H202  1  0.327500  0.601300  0.323900  1.0  0.1306
  H  H203  1  0.340000  0.666900  0.482900  1.0  0.13
  H  H204  1  0.376000  0.555600  0.514800  1.0  0.0841
  H  H205  1  0.489400  0.384300  0.599700  1.0  0.1028
  H  H206  1  0.524900  0.285600  0.652200  1.0  0.1221
  H  H207  1  0.539000  0.188500  0.512100  1.0  0.1277
  H  H208  1  0.500400  0.290100  0.461700  1.0  0.0828
  H  H209  1  0.577600  0.009100  0.875200  1.0  0.0878
  H  H210  1  0.574700  0.000200  0.781300  1.0  0.1348
  H  H211  1  0.578500  0.211700  0.774700  1.0  0.1237
  H  H212  1  0.588600  0.214500  0.870600  1.0  0.0777
  H  H213  1  0.589100  0.907200  0.482100  1.0  0.0833
  H  H214  1  0.559000  0.007300  0.520600  1.0  0.1049
  H  H215  1  0.652200  0.935400  0.676100  1.0  0.1238
  H  H216  1  0.679300  0.837300  0.633000  1.0  0.0783
  C  C217  1  0.230100  0.589800  0.823400  1.0  0.1601
  C  C218  1  0.223900  0.607900  0.768200  1.0  -0.1383
  C  C219  1  0.217600  0.679300  0.752800  1.0  -0.0965
  C  C220  1  0.218700  0.729300  0.794100  1.0  -0.1892
  C  C221  1  0.224000  0.705700  0.848700  1.0  0.1736
  C  C222  1  0.194100  0.557600  0.472400  1.0  0.1598
  C  C223  1  0.183900  0.613200  0.505900  1.0  -0.1786
  C  C224  1  0.206900  0.607500  0.563900  1.0  -0.1083
  C  C225  1  0.237100  0.546000  0.587100  1.0  -0.1828
  C  C226  1  0.244800  0.493100  0.551300  1.0  0.1599
  C  C227  1  0.138600  0.969600  0.613900  1.0  0.1611
  C  C228  1  0.161700  0.905900  0.636900  1.0  -0.1762
  C  C229  1  0.168500  0.852400  0.601000  1.0  -0.0536
  C  C230  1  0.154500  0.867300  0.542500  1.0  -0.1274
  C  C231  1  0.132500  0.933900  0.523700  1.0  0.1381
  C  C232  1  0.209400  0.698800  0.693000  1.0  0.3435
  C  C233  1  0.202100  0.664700  0.603600  1.0  0.3447
  C  C234  1  0.186200  0.777800  0.621400  1.0  0.3488
  C  C235  1  0.002300  0.156200  0.418300  1.0  0.1365
  C  C236  1  0.980600  0.214800  0.386800  1.0  -0.0612
  C  C237  1  0.966700  0.274300  0.411800  1.0  -0.0849
  C  C238  1  0.972400  0.272800  0.469900  1.0  -0.1307
  C  C239  1  0.995500  0.211700  0.499600  1.0  0.1349
  C  C240  1  0.920300  0.449700  0.144800  1.0  0.1794
  C  C241  1  0.923200  0.455800  0.201300  1.0  -0.1546
  C  C242  1  0.922700  0.393200  0.231500  1.0  -0.0879
  C  C243  1  0.920000  0.330300  0.205200  1.0  -0.1573
  C  C244  1  0.914800  0.329200  0.147500  1.0  0.18
  C  C245  1  0.898000  0.586600  0.478600  1.0  0.1592
  C  C246  1  0.916600  0.526600  0.455600  1.0  -0.1074
  C  C247  1  0.898800  0.517000  0.397100  1.0  -0.055
  C  C248  1  0.861300  0.569200  0.363300  1.0  -0.1471
  C  C249  1  0.844800  0.627700  0.389600  1.0  0.146
  C  C250  1  0.945600  0.340100  0.377900  1.0  0.3789
  C  C251  1  0.925200  0.396000  0.294400  1.0  0.3715
  C  C252  1  0.916600  0.453900  0.370700  1.0  0.3791
  C  C253  1  0.730100  0.089800  0.823400  1.0  0.1601
  C  C254  1  0.723900  0.107900  0.768200  1.0  -0.1383
  C  C255  1  0.717600  0.179300  0.752800  1.0  -0.0965
  C  C256  1  0.718700  0.229300  0.794100  1.0  -0.1892
  C  C257  1  0.724000  0.205700  0.848700  1.0  0.1736
  C  C258  1  0.694100  0.057600  0.472400  1.0  0.1598
  C  C259  1  0.683900  0.113200  0.505900  1.0  -0.1786
  C  C260  1  0.706900  0.107500  0.563900  1.0  -0.1083
  C  C261  1  0.737100  0.046000  0.587100  1.0  -0.1828
  C  C262  1  0.744800  0.993100  0.551300  1.0  0.1599
  C  C263  1  0.638600  0.469600  0.613900  1.0  0.1611
  C  C264  1  0.661700  0.405900  0.636900  1.0  -0.1762
  C  C265  1  0.668500  0.352400  0.601000  1.0  -0.0536
  C  C266  1  0.654500  0.367300  0.542500  1.0  -0.1274
  C  C267  1  0.632500  0.433900  0.523700  1.0  0.1381
  C  C268  1  0.709400  0.198800  0.693000  1.0  0.3435
  C  C269  1  0.702100  0.164700  0.603600  1.0  0.3447
  C  C270  1  0.686200  0.277800  0.621400  1.0  0.3488
  C  C271  1  0.502300  0.656200  0.418300  1.0  0.1365
  C  C272  1  0.480600  0.714800  0.386800  1.0  -0.0612
  C  C273  1  0.466700  0.774300  0.411800  1.0  -0.0849
  C  C274  1  0.472400  0.772800  0.469900  1.0  -0.1307
  C  C275  1  0.495500  0.711700  0.499600  1.0  0.1349
  C  C276  1  0.420300  0.949700  0.144800  1.0  0.1794
  C  C277  1  0.423200  0.955800  0.201300  1.0  -0.1546
  C  C278  1  0.422700  0.893200  0.231500  1.0  -0.0879
  C  C279  1  0.420000  0.830300  0.205200  1.0  -0.1573
  C  C280  1  0.414800  0.829200  0.147500  1.0  0.18
  C  C281  1  0.398000  0.086600  0.478600  1.0  0.1592
  C  C282  1  0.416600  0.026600  0.455600  1.0  -0.1074
  C  C283  1  0.398800  0.017000  0.397100  1.0  -0.055
  C  C284  1  0.361300  0.069200  0.363300  1.0  -0.1471
  C  C285  1  0.344800  0.127700  0.389600  1.0  0.146
  C  C286  1  0.445600  0.840100  0.377900  1.0  0.3789
  C  C287  1  0.425200  0.896000  0.294400  1.0  0.3715
  C  C288  1  0.416600  0.953900  0.370700  1.0  0.3791
  C  C289  1  0.230100  0.410200  0.323400  1.0  0.1601
  C  C290  1  0.223900  0.392100  0.268200  1.0  -0.1377
  C  C291  1  0.217600  0.320700  0.252800  1.0  -0.0974
  C  C292  1  0.218700  0.270700  0.294100  1.0  -0.1896
  C  C293  1  0.224000  0.294300  0.348700  1.0  0.1744
  C  C294  1  0.194100  0.442400  0.972400  1.0  0.1609
  C  C295  1  0.183900  0.386800  0.005900  1.0  -0.1787
  C  C296  1  0.206900  0.392500  0.063900  1.0  -0.1092
  C  C297  1  0.237100  0.454000  0.087100  1.0  -0.1826
  C  C298  1  0.244800  0.506900  0.051300  1.0  0.1607
  C  C299  1  0.138600  0.030400  0.113900  1.0  0.1615
  C  C300  1  0.161700  0.094100  0.136900  1.0  -0.1753
  C  C301  1  0.168500  0.147600  0.101000  1.0  -0.0539
  C  C302  1  0.154500  0.132700  0.042500  1.0  -0.1278
  C  C303  1  0.132500  0.066100  0.023700  1.0  0.1387
  C  C304  1  0.209400  0.301200  0.193000  1.0  0.3442
  C  C305  1  0.202100  0.335300  0.103600  1.0  0.3445
  C  C306  1  0.186200  0.222200  0.121400  1.0  0.3489
  C  C307  1  0.002300  0.843800  0.918300  1.0  0.1363
  C  C308  1  0.980600  0.785200  0.886800  1.0  -0.061
  C  C309  1  0.966700  0.725700  0.911800  1.0  -0.0854
  C  C310  1  0.972400  0.727200  0.969900  1.0  -0.1305
  C  C311  1  0.995500  0.788300  0.999600  1.0  0.1341
  C  C312  1  0.920300  0.550300  0.644800  1.0  0.1793
  C  C313  1  0.923200  0.544200  0.701300  1.0  -0.1551
  C  C314  1  0.922700  0.606800  0.731500  1.0  -0.0894
  C  C315  1  0.920000  0.669700  0.705200  1.0  -0.1595
  C  C316  1  0.914800  0.670800  0.647500  1.0  0.1801
  C  C317  1  0.898000  0.413400  0.978600  1.0  0.1599
  C  C318  1  0.916600  0.473400  0.955600  1.0  -0.1076
  C  C319  1  0.898800  0.483000  0.897100  1.0  -0.0549
  C  C320  1  0.861300  0.430800  0.863300  1.0  -0.1484
  C  C321  1  0.844800  0.372300  0.889600  1.0  0.1443
  C  C322  1  0.945600  0.659900  0.877900  1.0  0.3784
  C  C323  1  0.925200  0.604000  0.794400  1.0  0.3711
  C  C324  1  0.916600  0.546100  0.870700  1.0  0.3799
  C  C325  1  0.730100  0.910200  0.323400  1.0  0.1601
  C  C326  1  0.723900  0.892100  0.268200  1.0  -0.1377
  C  C327  1  0.717600  0.820700  0.252800  1.0  -0.0974
  C  C328  1  0.718700  0.770700  0.294100  1.0  -0.1896
  C  C329  1  0.724000  0.794300  0.348700  1.0  0.1744
  C  C330  1  0.694100  0.942400  0.972400  1.0  0.1609
  C  C331  1  0.683900  0.886800  0.005900  1.0  -0.1787
  C  C332  1  0.706900  0.892500  0.063900  1.0  -0.1092
  C  C333  1  0.737100  0.954000  0.087100  1.0  -0.1826
  C  C334  1  0.744800  0.006900  0.051300  1.0  0.1607
  C  C335  1  0.638600  0.530400  0.113900  1.0  0.1615
  C  C336  1  0.661700  0.594100  0.136900  1.0  -0.1753
  C  C337  1  0.668500  0.647600  0.101000  1.0  -0.0539
  C  C338  1  0.654500  0.632700  0.042500  1.0  -0.1278
  C  C339  1  0.632500  0.566100  0.023700  1.0  0.1387
  C  C340  1  0.709400  0.801200  0.193000  1.0  0.3442
  C  C341  1  0.702100  0.835300  0.103600  1.0  0.3445
  C  C342  1  0.686200  0.722200  0.121400  1.0  0.3489
  C  C343  1  0.502300  0.343800  0.918300  1.0  0.1363
  C  C344  1  0.480600  0.285200  0.886800  1.0  -0.061
  C  C345  1  0.466700  0.225700  0.911800  1.0  -0.0854
  C  C346  1  0.472400  0.227200  0.969900  1.0  -0.1305
  C  C347  1  0.495500  0.288300  0.999600  1.0  0.1341
  C  C348  1  0.420300  0.050300  0.644800  1.0  0.1793
  C  C349  1  0.423200  0.044200  0.701300  1.0  -0.1551
  C  C350  1  0.422700  0.106800  0.731500  1.0  -0.0894
  C  C351  1  0.420000  0.169700  0.705200  1.0  -0.1595
  C  C352  1  0.414800  0.170800  0.647500  1.0  0.1801
  C  C353  1  0.398000  0.913400  0.978600  1.0  0.1599
  C  C354  1  0.416600  0.973400  0.955600  1.0  -0.1076
  C  C355  1  0.398800  0.983000  0.897100  1.0  -0.0549
  C  C356  1  0.361300  0.930800  0.863300  1.0  -0.1484
  C  C357  1  0.344800  0.872300  0.889600  1.0  0.1443
  C  C358  1  0.445600  0.159900  0.877900  1.0  0.3784
  C  C359  1  0.425200  0.104000  0.794400  1.0  0.3711
  C  C360  1  0.416600  0.046100  0.870700  1.0  0.3799
  C  C361  1  0.769900  0.589800  0.676600  1.0  0.1579
  C  C362  1  0.776100  0.607900  0.731800  1.0  -0.1378
  C  C363  1  0.782400  0.679300  0.747200  1.0  -0.0972
  C  C364  1  0.781300  0.729300  0.705900  1.0  -0.1884
  C  C365  1  0.776000  0.705700  0.651300  1.0  0.1741
  C  C366  1  0.805900  0.557600  0.027600  1.0  0.1596
  C  C367  1  0.816100  0.613200  0.994100  1.0  -0.1776
  C  C368  1  0.793100  0.607500  0.936100  1.0  -0.1078
  C  C369  1  0.762900  0.546000  0.912900  1.0  -0.1841
  C  C370  1  0.755200  0.493100  0.948700  1.0  0.1599
  C  C371  1  0.861400  0.969600  0.886100  1.0  0.1618
  C  C372  1  0.838300  0.905900  0.863100  1.0  -0.1758
  C  C373  1  0.831500  0.852400  0.899000  1.0  -0.0548
  C  C374  1  0.845500  0.867300  0.957500  1.0  -0.126
  C  C375  1  0.867500  0.933900  0.976300  1.0  0.1366
  C  C376  1  0.790600  0.698800  0.807000  1.0  0.3436
  C  C377  1  0.797900  0.664700  0.896400  1.0  0.3448
  C  C378  1  0.813800  0.777800  0.878600  1.0  0.3496
  C  C379  1  0.997700  0.156200  0.081700  1.0  0.1377
  C  C380  1  0.019400  0.214800  0.113200  1.0  -0.0625
  C  C381  1  0.033300  0.274300  0.088200  1.0  -0.0851
  C  C382  1  0.027600  0.272800  0.030100  1.0  -0.1288
  C  C383  1  0.004500  0.211700  0.000400  1.0  0.1371
  C  C384  1  0.079700  0.449700  0.355200  1.0  0.1791
  C  C385  1  0.076800  0.455800  0.298700  1.0  -0.155
  C  C386  1  0.077300  0.393200  0.268500  1.0  -0.0884
  C  C387  1  0.080000  0.330300  0.294800  1.0  -0.1567
  C  C388  1  0.085200  0.329200  0.352500  1.0  0.1789
  C  C389  1  0.102000  0.586600  0.021400  1.0  0.158
  C  C390  1  0.083400  0.526600  0.044400  1.0  -0.1067
  C  C391  1  0.101200  0.517000  0.102900  1.0  -0.0551
  C  C392  1  0.138700  0.569200  0.136700  1.0  -0.1463
  C  C393  1  0.155200  0.627700  0.110400  1.0  0.1453
  C  C394  1  0.054400  0.340100  0.122100  1.0  0.3793
  C  C395  1  0.074800  0.396000  0.205600  1.0  0.3707
  C  C396  1  0.083400  0.453900  0.129300  1.0  0.379
  C  C397  1  0.269900  0.089800  0.676600  1.0  0.1579
  C  C398  1  0.276100  0.107900  0.731800  1.0  -0.1378
  C  C399  1  0.282400  0.179300  0.747200  1.0  -0.0972
  C  C400  1  0.281300  0.229300  0.705900  1.0  -0.1884
  C  C401  1  0.276000  0.205700  0.651300  1.0  0.1741
  C  C402  1  0.305900  0.057600  0.027600  1.0  0.1596
  C  C403  1  0.316100  0.113200  0.994100  1.0  -0.1776
  C  C404  1  0.293100  0.107500  0.936100  1.0  -0.1078
  C  C405  1  0.262900  0.046000  0.912900  1.0  -0.1841
  C  C406  1  0.255200  0.993100  0.948700  1.0  0.1599
  C  C407  1  0.361400  0.469600  0.886100  1.0  0.1618
  C  C408  1  0.338300  0.405900  0.863100  1.0  -0.1758
  C  C409  1  0.331500  0.352400  0.899000  1.0  -0.0548
  C  C410  1  0.345500  0.367300  0.957500  1.0  -0.126
  C  C411  1  0.367500  0.433900  0.976300  1.0  0.1366
  C  C412  1  0.290600  0.198800  0.807000  1.0  0.3436
  C  C413  1  0.297900  0.164700  0.896400  1.0  0.3448
  C  C414  1  0.313800  0.277800  0.878600  1.0  0.3496
  C  C415  1  0.497700  0.656200  0.081700  1.0  0.1377
  C  C416  1  0.519400  0.714800  0.113200  1.0  -0.0625
  C  C417  1  0.533300  0.774300  0.088200  1.0  -0.0851
  C  C418  1  0.527600  0.772800  0.030100  1.0  -0.1288
  C  C419  1  0.504500  0.711700  0.000400  1.0  0.1371
  C  C420  1  0.579700  0.949700  0.355200  1.0  0.1791
  C  C421  1  0.576800  0.955800  0.298700  1.0  -0.155
  C  C422  1  0.577300  0.893200  0.268500  1.0  -0.0884
  C  C423  1  0.580000  0.830300  0.294800  1.0  -0.1567
  C  C424  1  0.585200  0.829200  0.352500  1.0  0.1789
  C  C425  1  0.602000  0.086600  0.021400  1.0  0.158
  C  C426  1  0.583400  0.026600  0.044400  1.0  -0.1067
  C  C427  1  0.601200  0.017000  0.102900  1.0  -0.0551
  C  C428  1  0.638700  0.069200  0.136700  1.0  -0.1463
  C  C429  1  0.655200  0.127700  0.110400  1.0  0.1453
  C  C430  1  0.554400  0.840100  0.122100  1.0  0.3793
  C  C431  1  0.574800  0.896000  0.205600  1.0  0.3707
  C  C432  1  0.583400  0.953900  0.129300  1.0  0.379
  C  C433  1  0.769900  0.410200  0.176600  1.0  0.1592
  C  C434  1  0.776100  0.392100  0.231800  1.0  -0.1379
  C  C435  1  0.782400  0.320700  0.247200  1.0  -0.0974
  C  C436  1  0.781300  0.270700  0.205900  1.0  -0.1904
  C  C437  1  0.776000  0.294300  0.151300  1.0  0.1738
  C  C438  1  0.805900  0.442400  0.527600  1.0  0.1598
  C  C439  1  0.816100  0.386800  0.494100  1.0  -0.1793
  C  C440  1  0.793100  0.392500  0.436100  1.0  -0.1091
  C  C441  1  0.762900  0.454000  0.412900  1.0  -0.1843
  C  C442  1  0.755200  0.506900  0.448700  1.0  0.1605
  C  C443  1  0.861400  0.030400  0.386100  1.0  0.1601
  C  C444  1  0.838300  0.094100  0.363100  1.0  -0.175
  C  C445  1  0.831500  0.147600  0.399000  1.0  -0.0545
  C  C446  1  0.845500  0.132700  0.457500  1.0  -0.1261
  C  C447  1  0.867500  0.066100  0.476300  1.0  0.1377
  C  C448  1  0.790600  0.301200  0.307000  1.0  0.3434
  C  C449  1  0.797900  0.335300  0.396400  1.0  0.3445
  C  C450  1  0.813800  0.222200  0.378600  1.0  0.3492
  C  C451  1  0.997700  0.843800  0.581700  1.0  0.1374
  C  C452  1  0.019400  0.785200  0.613200  1.0  -0.0607
  C  C453  1  0.033300  0.725700  0.588200  1.0  -0.0856
  C  C454  1  0.027600  0.727200  0.530100  1.0  -0.1296
  C  C455  1  0.004500  0.788300  0.500400  1.0  0.1369
  C  C456  1  0.079700  0.550300  0.855200  1.0  0.1789
  C  C457  1  0.076800  0.544200  0.798700  1.0  -0.1558
  C  C458  1  0.077300  0.606800  0.768500  1.0  -0.0897
  C  C459  1  0.080000  0.669700  0.794800  1.0  -0.1593
  C  C460  1  0.085200  0.670800  0.852500  1.0  0.1795
  C  C461  1  0.102000  0.413400  0.521400  1.0  0.1573
  C  C462  1  0.083400  0.473400  0.544400  1.0  -0.1065
  C  C463  1  0.101200  0.483000  0.602900  1.0  -0.0549
  C  C464  1  0.138700  0.430800  0.636700  1.0  -0.1501
  C  C465  1  0.155200  0.372300  0.610400  1.0  0.1439
  C  C466  1  0.054400  0.659900  0.622100  1.0  0.379
  C  C467  1  0.074800  0.604000  0.705600  1.0  0.3703
  C  C468  1  0.083400  0.546100  0.629300  1.0  0.3798
  C  C469  1  0.269900  0.910200  0.176600  1.0  0.1592
  C  C470  1  0.276100  0.892100  0.231800  1.0  -0.1379
  C  C471  1  0.282400  0.820700  0.247200  1.0  -0.0974
  C  C472  1  0.281300  0.770700  0.205900  1.0  -0.1904
  C  C473  1  0.276000  0.794300  0.151300  1.0  0.1738
  C  C474  1  0.305900  0.942400  0.527600  1.0  0.1598
  C  C475  1  0.316100  0.886800  0.494100  1.0  -0.1793
  C  C476  1  0.293100  0.892500  0.436100  1.0  -0.1091
  C  C477  1  0.262900  0.954000  0.412900  1.0  -0.1843
  C  C478  1  0.255200  0.006900  0.448700  1.0  0.1605
  C  C479  1  0.361400  0.530400  0.386100  1.0  0.1601
  C  C480  1  0.338300  0.594100  0.363100  1.0  -0.175
  C  C481  1  0.331500  0.647600  0.399000  1.0  -0.0545
  C  C482  1  0.345500  0.632700  0.457500  1.0  -0.1261
  C  C483  1  0.367500  0.566100  0.476300  1.0  0.1377
  C  C484  1  0.290600  0.801200  0.307000  1.0  0.3434
  C  C485  1  0.297900  0.835300  0.396400  1.0  0.3445
  C  C486  1  0.313800  0.722200  0.378600  1.0  0.3492
  C  C487  1  0.497700  0.343800  0.581700  1.0  0.1374
  C  C488  1  0.519400  0.285200  0.613200  1.0  -0.0607
  C  C489  1  0.533300  0.225700  0.588200  1.0  -0.0856
  C  C490  1  0.527600  0.227200  0.530100  1.0  -0.1296
  C  C491  1  0.504500  0.288300  0.500400  1.0  0.1369
  C  C492  1  0.579700  0.050300  0.855200  1.0  0.1789
  C  C493  1  0.576800  0.044200  0.798700  1.0  -0.1558
  C  C494  1  0.577300  0.106800  0.768500  1.0  -0.0897
  C  C495  1  0.580000  0.169700  0.794800  1.0  -0.1593
  C  C496  1  0.585200  0.170800  0.852500  1.0  0.1795
  C  C497  1  0.602000  0.913400  0.521400  1.0  0.1573
  C  C498  1  0.583400  0.973400  0.544400  1.0  -0.1065
  C  C499  1  0.601200  0.983000  0.602900  1.0  -0.0549
  C  C500  1  0.638700  0.930800  0.636700  1.0  -0.1501
  C  C501  1  0.655200  0.872300  0.610400  1.0  0.1439
  C  C502  1  0.554400  0.159900  0.622100  1.0  0.379
  C  C503  1  0.574800  0.104000  0.705600  1.0  0.3703
  C  C504  1  0.583400  0.046100  0.629300  1.0  0.3798
  N  N505  1  0.230100  0.638600  0.863800  1.0  -0.3172
  N  N506  1  0.222500  0.497200  0.494000  1.0  -0.3148
  N  N507  1  0.123100  0.984000  0.559000  1.0  -0.2716
  N  N508  1  0.198100  0.766800  0.677500  1.0  -0.4877
  N  N509  1  0.211200  0.646200  0.657200  1.0  -0.3233
  N  N510  1  0.187300  0.730000  0.582400  1.0  -0.4632
  N  N511  1  0.012100  0.155200  0.475200  1.0  -0.2837
  N  N512  1  0.914600  0.387300  0.117000  1.0  -0.4119
  N  N513  1  0.862000  0.635900  0.445900  1.0  -0.2606
  N  N514  1  0.935100  0.398200  0.404500  1.0  -0.529
  N  N515  1  0.939600  0.335000  0.322200  1.0  -0.5084
  N  N516  1  0.912300  0.456500  0.315400  1.0  -0.3992
  N  N517  1  0.730100  0.138600  0.863800  1.0  -0.3172
  N  N518  1  0.722500  0.997200  0.494000  1.0  -0.3148
  N  N519  1  0.623100  0.484000  0.559000  1.0  -0.2716
  N  N520  1  0.698100  0.266800  0.677500  1.0  -0.4877
  N  N521  1  0.711200  0.146200  0.657200  1.0  -0.3233
  N  N522  1  0.687300  0.230000  0.582400  1.0  -0.4632
  N  N523  1  0.512100  0.655200  0.475200  1.0  -0.2837
  N  N524  1  0.414600  0.887300  0.117000  1.0  -0.4119
  N  N525  1  0.362000  0.135900  0.445900  1.0  -0.2606
  N  N526  1  0.435100  0.898200  0.404500  1.0  -0.529
  N  N527  1  0.439600  0.835000  0.322200  1.0  -0.5084
  N  N528  1  0.412300  0.956500  0.315400  1.0  -0.3992
  N  N529  1  0.230100  0.361400  0.363800  1.0  -0.3188
  N  N530  1  0.222500  0.502800  0.994000  1.0  -0.3136
  N  N531  1  0.123100  0.016000  0.059000  1.0  -0.2733
  N  N532  1  0.198100  0.233200  0.177500  1.0  -0.4882
  N  N533  1  0.211200  0.353800  0.157200  1.0  -0.323
  N  N534  1  0.187300  0.270000  0.082400  1.0  -0.4649
  N  N535  1  0.012100  0.844800  0.975200  1.0  -0.2857
  N  N536  1  0.914600  0.612700  0.617000  1.0  -0.4121
  N  N537  1  0.862000  0.364100  0.945900  1.0  -0.262
  N  N538  1  0.935100  0.601800  0.904500  1.0  -0.5287
  N  N539  1  0.939600  0.665000  0.822200  1.0  -0.5099
  N  N540  1  0.912300  0.543500  0.815400  1.0  -0.3999
  N  N541  1  0.730100  0.861400  0.363800  1.0  -0.3188
  N  N542  1  0.722500  0.002800  0.994000  1.0  -0.3136
  N  N543  1  0.623100  0.516000  0.059000  1.0  -0.2733
  N  N544  1  0.698100  0.733200  0.177500  1.0  -0.4882
  N  N545  1  0.711200  0.853800  0.157200  1.0  -0.323
  N  N546  1  0.687300  0.770000  0.082400  1.0  -0.4649
  N  N547  1  0.512100  0.344800  0.975200  1.0  -0.2857
  N  N548  1  0.414600  0.112700  0.617000  1.0  -0.4121
  N  N549  1  0.362000  0.864100  0.945900  1.0  -0.262
  N  N550  1  0.435100  0.101800  0.904500  1.0  -0.5287
  N  N551  1  0.439600  0.165000  0.822200  1.0  -0.5099
  N  N552  1  0.412300  0.043500  0.815400  1.0  -0.3999
  N  N553  1  0.769900  0.638600  0.636200  1.0  -0.3205
  N  N554  1  0.777500  0.497200  0.006000  1.0  -0.3128
  N  N555  1  0.876900  0.984000  0.941000  1.0  -0.274
  N  N556  1  0.801900  0.766800  0.822500  1.0  -0.4861
  N  N557  1  0.788800  0.646200  0.842800  1.0  -0.3221
  N  N558  1  0.812700  0.730000  0.917600  1.0  -0.4635
  N  N559  1  0.987900  0.155200  0.024800  1.0  -0.2861
  N  N560  1  0.085400  0.387300  0.383000  1.0  -0.4121
  N  N561  1  0.138000  0.635900  0.054100  1.0  -0.2605
  N  N562  1  0.064900  0.398200  0.095500  1.0  -0.5259
  N  N563  1  0.060400  0.335000  0.177800  1.0  -0.5085
  N  N564  1  0.087700  0.456500  0.184600  1.0  -0.3997
  N  N565  1  0.269900  0.138600  0.636200  1.0  -0.3205
  N  N566  1  0.277500  0.997200  0.006000  1.0  -0.3128
  N  N567  1  0.376900  0.484000  0.941000  1.0  -0.274
  N  N568  1  0.301900  0.266800  0.822500  1.0  -0.4861
  N  N569  1  0.288800  0.146200  0.842800  1.0  -0.3221
  N  N570  1  0.312700  0.230000  0.917600  1.0  -0.4635
  N  N571  1  0.487900  0.655200  0.024800  1.0  -0.2861
  N  N572  1  0.585400  0.887300  0.383000  1.0  -0.4121
  N  N573  1  0.638000  0.135900  0.054100  1.0  -0.2605
  N  N574  1  0.564900  0.898200  0.095500  1.0  -0.5259
  N  N575  1  0.560400  0.835000  0.177800  1.0  -0.5085
  N  N576  1  0.587700  0.956500  0.184600  1.0  -0.3997
  N  N577  1  0.769900  0.361400  0.136200  1.0  -0.3187
  N  N578  1  0.777500  0.502800  0.506000  1.0  -0.3123
  N  N579  1  0.876900  0.016000  0.441000  1.0  -0.2716
  N  N580  1  0.801900  0.233200  0.322500  1.0  -0.4888
  N  N581  1  0.788800  0.353800  0.342800  1.0  -0.3207
  N  N582  1  0.812700  0.270000  0.417600  1.0  -0.4629
  N  N583  1  0.987900  0.844800  0.524800  1.0  -0.2835
  N  N584  1  0.085400  0.612700  0.883000  1.0  -0.4123
  N  N585  1  0.138000  0.364100  0.554100  1.0  -0.259
  N  N586  1  0.064900  0.601800  0.595500  1.0  -0.5261
  N  N587  1  0.060400  0.665000  0.677800  1.0  -0.5111
  N  N588  1  0.087700  0.543500  0.684600  1.0  -0.3994
  N  N589  1  0.269900  0.861400  0.136200  1.0  -0.3187
  N  N590  1  0.277500  0.002800  0.506000  1.0  -0.3123
  N  N591  1  0.376900  0.516000  0.441000  1.0  -0.2716
  N  N592  1  0.301900  0.733200  0.322500  1.0  -0.4888
  N  N593  1  0.288800  0.853800  0.342800  1.0  -0.3207
  N  N594  1  0.312700  0.770000  0.417600  1.0  -0.4629
  N  N595  1  0.487900  0.344800  0.524800  1.0  -0.2835
  N  N596  1  0.585400  0.112700  0.883000  1.0  -0.4123
  N  N597  1  0.638000  0.864100  0.554100  1.0  -0.259
  N  N598  1  0.564900  0.101800  0.595500  1.0  -0.5261
  N  N599  1  0.560400  0.165000  0.677800  1.0  -0.5111
  N  N600  1  0.587700  0.043500  0.684600  1.0  -0.3994
  Cl  Cl601  1  0.310200  0.673960  0.031400  1.0  -0.5136
  Cl  Cl602  1  0.810200  0.173960  0.031400  1.0  -0.5136
  Cl  Cl603  1  0.310200  0.326040  0.531400  1.0  -0.514
  Cl  Cl604  1  0.810200  0.826040  0.531400  1.0  -0.514
  Cl  Cl605  1  0.689800  0.673960  0.468600  1.0  -0.514
  Cl  Cl606  1  0.189800  0.173960  0.468600  1.0  -0.514
  Cl  Cl607  1  0.689800  0.326040  0.968600  1.0  -0.5145
  Cl  Cl608  1  0.189800  0.826040  0.968600  1.0  -0.5145
