# generated using pymatgen
data_EuCuH8C14(NO4)2
_symmetry_space_group_name_H-M   'P 1'
_cell_length_a   9.22600000
_cell_length_b   9.55870000
_cell_length_c   21.60600000
_cell_angle_alpha   90.00000000
_cell_angle_beta   90.00000000
_cell_angle_gamma   116.14200000
_symmetry_Int_Tables_number   1
_chemical_formula_structural   EuCuH8C14(NO4)2
_chemical_formula_sum   'Eu4 Cu4 H32 C56 N8 O32'
_cell_volume   1710.48874667
_cell_formula_units_Z   4
loop_
 _symmetry_equiv_pos_site_id
 _symmetry_equiv_pos_as_xyz
  1  'x, y, z'
loop_
 _atom_site_type_symbol
 _atom_site_label
 _atom_site_symmetry_multiplicity
 _atom_site_fract_x
 _atom_site_fract_y
 _atom_site_fract_z
 _atom_site_occupancy
 _atom_site_charge
  Eu  Eu1  1  0.358830  0.123320  0.008590  1.0  2.1268
  Eu  Eu2  1  0.641170  0.376680  0.508590  1.0  2.126
  Eu  Eu3  1  0.641170  0.876680  0.991410  1.0  2.1273
  Eu  Eu4  1  0.358830  0.623320  0.491410  1.0  2.1282
  Cu  Cu5  1  0.690340  0.041220  0.645790  1.0  0.4645
  Cu  Cu6  1  0.309660  0.458780  0.145790  1.0  0.4639
  Cu  Cu7  1  0.309660  0.958780  0.354210  1.0  0.4646
  Cu  Cu8  1  0.690340  0.541220  0.854210  1.0  0.4652
  H  H9  1  0.422900  0.122400  0.655200  1.0  0.0885
  H  H10  1  0.264500  0.142900  0.731500  1.0  0.1163
  H  H11  1  0.315600  0.109000  0.834200  1.0  0.1067
  H  H12  1  0.655400  0.995400  0.775900  1.0  0.0817
  H  H13  1  0.796800  0.300200  0.840500  1.0  0.075
  H  H14  1  0.002400  0.248700  0.872700  1.0  0.123
  H  H15  1  0.206100  0.439300  0.929500  1.0  0.09
  H  H16  1  0.968900  0.702900  0.929400  1.0  0.0994
  H  H17  1  0.577100  0.377600  0.155200  1.0  0.0886
  H  H18  1  0.735500  0.357100  0.231500  1.0  0.1171
  H  H19  1  0.684400  0.391000  0.334200  1.0  0.1077
  H  H20  1  0.344600  0.504600  0.275900  1.0  0.0806
  H  H21  1  0.203200  0.199800  0.340500  1.0  0.0745
  H  H22  1  0.997600  0.251300  0.372700  1.0  0.1233
  H  H23  1  0.793900  0.060700  0.429500  1.0  0.09
  H  H24  1  0.031100  0.797100  0.429400  1.0  0.0993
  H  H25  1  0.577100  0.877600  0.344800  1.0  0.0883
  H  H26  1  0.735500  0.857100  0.268500  1.0  0.1171
  H  H27  1  0.684400  0.891000  0.165800  1.0  0.1078
  H  H28  1  0.344600  0.004600  0.224100  1.0  0.0805
  H  H29  1  0.203200  0.699800  0.159500  1.0  0.0743
  H  H30  1  0.997600  0.751300  0.127300  1.0  0.1225
  H  H31  1  0.793900  0.560700  0.070500  1.0  0.0904
  H  H32  1  0.031100  0.297100  0.070600  1.0  0.0999
  H  H33  1  0.422900  0.622400  0.844800  1.0  0.0882
  H  H34  1  0.264500  0.642900  0.768500  1.0  0.1169
  H  H35  1  0.315600  0.609000  0.665800  1.0  0.1068
  H  H36  1  0.655400  0.495400  0.724100  1.0  0.0816
  H  H37  1  0.796800  0.800200  0.659500  1.0  0.0752
  H  H38  1  0.002400  0.748700  0.627300  1.0  0.1231
  H  H39  1  0.206100  0.939300  0.570500  1.0  0.0901
  H  H40  1  0.968900  0.202900  0.570600  1.0  0.0998
  C  C41  1  0.440500  0.102100  0.695900  1.0  0.1405
  C  C42  1  0.347500  0.116600  0.741400  1.0  -0.1432
  C  C43  1  0.374800  0.092600  0.802600  1.0  -0.0882
  C  C44  1  0.490000  0.044700  0.815500  1.0  -0.1629
  C  C45  1  0.577100  0.029100  0.767400  1.0  0.1747
  C  C46  1  0.525900  0.011800  0.880100  1.0  0.7347
  C  C47  1  0.877100  0.372500  0.865400  1.0  0.1702
  C  C48  1  0.998800  0.341500  0.883000  1.0  -0.1173
  C  C49  1  0.117500  0.454300  0.917100  1.0  -0.0436
  C  C50  1  0.108900  0.595600  0.934300  1.0  -0.1486
  C  C51  1  0.979300  0.614500  0.917100  1.0  0.1613
  C  C52  1  0.241100  0.729000  0.969600  1.0  0.6984
  C  C53  1  0.477700  0.502700  0.034400  1.0  0.5716
  C  C54  1  0.992700  0.988700  0.035700  1.0  0.6097
  C  C55  1  0.559500  0.397900  0.195900  1.0  0.1402
  C  C56  1  0.652500  0.383400  0.241400  1.0  -0.1424
  C  C57  1  0.625200  0.407400  0.302600  1.0  -0.0895
  C  C58  1  0.510000  0.455300  0.315500  1.0  -0.1632
  C  C59  1  0.422900  0.470900  0.267400  1.0  0.1753
  C  C60  1  0.474100  0.488200  0.380100  1.0  0.7342
  C  C61  1  0.122900  0.127500  0.365400  1.0  0.1699
  C  C62  1  0.001200  0.158500  0.383000  1.0  -0.117
  C  C63  1  0.882500  0.045700  0.417100  1.0  -0.042
  C  C64  1  0.891100  0.904400  0.434300  1.0  -0.1503
  C  C65  1  0.020700  0.885500  0.417100  1.0  0.1607
  C  C66  1  0.758900  0.771000  0.469600  1.0  0.6984
  C  C67  1  0.522300  0.997300  0.534400  1.0  0.5718
  C  C68  1  0.007300  0.511300  0.535700  1.0  0.6095
  C  C69  1  0.559500  0.897900  0.304100  1.0  0.1419
  C  C70  1  0.652500  0.883400  0.258600  1.0  -0.1421
  C  C71  1  0.625200  0.907400  0.197400  1.0  -0.0904
  C  C72  1  0.510000  0.955300  0.184500  1.0  -0.1635
  C  C73  1  0.422900  0.970900  0.232600  1.0  0.1755
  C  C74  1  0.474100  0.988200  0.119900  1.0  0.7313
  C  C75  1  0.122900  0.627500  0.134600  1.0  0.1702
  C  C76  1  0.001200  0.658500  0.117000  1.0  -0.1164
  C  C77  1  0.882500  0.545700  0.082900  1.0  -0.0415
  C  C78  1  0.891100  0.404400  0.065700  1.0  -0.149
  C  C79  1  0.020700  0.385500  0.082900  1.0  0.1609
  C  C80  1  0.758900  0.271000  0.030400  1.0  0.6984
  C  C81  1  0.522300  0.497300  0.965600  1.0  0.571
  C  C82  1  0.007300  0.011300  0.964300  1.0  0.6086
  C  C83  1  0.440500  0.602100  0.804100  1.0  0.1417
  C  C84  1  0.347500  0.616600  0.758600  1.0  -0.1442
  C  C85  1  0.374800  0.592600  0.697400  1.0  -0.0892
  C  C86  1  0.490000  0.544700  0.684500  1.0  -0.1639
  C  C87  1  0.577100  0.529100  0.732600  1.0  0.1747
  C  C88  1  0.525900  0.511800  0.619900  1.0  0.731
  C  C89  1  0.877100  0.872500  0.634600  1.0  0.1701
  C  C90  1  0.998800  0.841500  0.617000  1.0  -0.1154
  C  C91  1  0.117500  0.954300  0.582900  1.0  -0.0437
  C  C92  1  0.108900  0.095600  0.565700  1.0  -0.1476
  C  C93  1  0.979300  0.114500  0.582900  1.0  0.1605
  C  C94  1  0.241100  0.229000  0.530400  1.0  0.6987
  C  C95  1  0.477700  0.002700  0.465600  1.0  0.5708
  C  C96  1  0.992700  0.488700  0.464300  1.0  0.6089
  N  N97  1  0.556200  0.059700  0.708000  1.0  -0.2968
  N  N98  1  0.864200  0.506200  0.882200  1.0  -0.3241
  N  N99  1  0.443800  0.440300  0.208000  1.0  -0.2952
  N  N100  1  0.135800  0.993800  0.382200  1.0  -0.3228
  N  N101  1  0.443800  0.940300  0.292000  1.0  -0.2954
  N  N102  1  0.135800  0.493800  0.117800  1.0  -0.3218
  N  N103  1  0.556200  0.559700  0.792000  1.0  -0.2961
  N  N104  1  0.864200  0.006200  0.617800  1.0  -0.3243
  O  O105  1  0.466800  0.050700  0.924700  1.0  -0.7749
  O  O106  1  0.613300  0.943500  0.886000  1.0  -0.6678
  O  O107  1  0.212400  0.836200  0.995100  1.0  -0.7062
  O  O108  1  0.367200  0.718200  0.969700  1.0  -0.6605
  O  O109  1  0.381600  0.371800  0.057900  1.0  -0.6342
  O  O110  1  0.538900  0.637900  0.060750  1.0  -0.6631
  O  O111  1  0.116000  0.051700  0.066400  1.0  -0.6062
  O  O112  1  0.857300  0.909800  0.056400  1.0  -0.5959
  O  O113  1  0.533200  0.449300  0.424700  1.0  -0.7746
  O  O114  1  0.386700  0.556500  0.386000  1.0  -0.6684
  O  O115  1  0.787600  0.663800  0.495100  1.0  -0.7069
  O  O116  1  0.632800  0.781800  0.469700  1.0  -0.6593
  O  O117  1  0.618400  0.128200  0.557900  1.0  -0.6343
  O  O118  1  0.461100  0.862100  0.560750  1.0  -0.663
  O  O119  1  0.884000  0.448300  0.566400  1.0  -0.6048
  O  O120  1  0.142700  0.590200  0.556400  1.0  -0.5965
  O  O121  1  0.533200  0.949300  0.075300  1.0  -0.7742
  O  O122  1  0.386700  0.056500  0.114000  1.0  -0.6677
  O  O123  1  0.787600  0.163800  0.004900  1.0  -0.7083
  O  O124  1  0.632800  0.281800  0.030300  1.0  -0.6595
  O  O125  1  0.618400  0.628200  0.942100  1.0  -0.634
  O  O126  1  0.461100  0.362100  0.939250  1.0  -0.6643
  O  O127  1  0.884000  0.948300  0.933600  1.0  -0.6043
  O  O128  1  0.142700  0.090200  0.943600  1.0  -0.5972
  O  O129  1  0.466800  0.550700  0.575300  1.0  -0.7742
  O  O130  1  0.613300  0.443500  0.614000  1.0  -0.6676
  O  O131  1  0.212400  0.336200  0.504900  1.0  -0.7068
  O  O132  1  0.367200  0.218200  0.530300  1.0  -0.6607
  O  O133  1  0.381600  0.871800  0.442100  1.0  -0.6347
  O  O134  1  0.538900  0.137900  0.439250  1.0  -0.6628
  O  O135  1  0.116000  0.551700  0.433600  1.0  -0.6057
  O  O136  1  0.857300  0.409800  0.443600  1.0  -0.5962
