# generated using pymatgen
data_EuCuH8C14(NO4)2
_symmetry_space_group_name_H-M   'P 1'
_cell_length_a   9.24100000
_cell_length_b   9.55450000
_cell_length_c   21.60260000
_cell_angle_alpha   90.00000000
_cell_angle_beta   90.00000000
_cell_angle_gamma   116.15100000
_symmetry_Int_Tables_number   1
_chemical_formula_structural   EuCuH8C14(NO4)2
_chemical_formula_sum   'Eu4 Cu4 H32 C56 N8 O32'
_cell_volume   1712.11541820
_cell_formula_units_Z   4
loop_
 _symmetry_equiv_pos_site_id
 _symmetry_equiv_pos_as_xyz
  1  'x, y, z'
loop_
 _atom_site_type_symbol
 _atom_site_label
 _atom_site_symmetry_multiplicity
 _atom_site_fract_x
 _atom_site_fract_y
 _atom_site_fract_z
 _atom_site_occupancy
 _atom_site_charge
  Eu  Eu1  1  0.123810  0.858800  0.491510  1.0  2.1107
  Eu  Eu2  1  0.376190  0.141200  0.991510  1.0  2.1098
  Eu  Eu3  1  0.876190  0.141200  0.508490  1.0  2.1089
  Eu  Eu4  1  0.623810  0.858800  0.008490  1.0  2.1108
  Cu  Cu5  1  0.040490  0.191350  0.854270  1.0  0.4052
  Cu  Cu6  1  0.459510  0.808650  0.354270  1.0  0.4051
  Cu  Cu7  1  0.959510  0.808650  0.145730  1.0  0.4049
  Cu  Cu8  1  0.540490  0.191350  0.645730  1.0  0.4047
  H  H9  1  0.996400  0.154100  0.723600  1.0  0.0815
  H  H10  1  0.105400  0.815400  0.666400  1.0  0.1198
  H  H11  1  0.148700  0.772500  0.768700  1.0  0.1229
  H  H12  1  0.122400  0.925600  0.844900  1.0  0.0831
  H  H13  1  0.793100  0.297600  0.843800  1.0  0.0739
  H  H14  1  0.746000  0.502900  0.874700  1.0  0.1292
  H  H15  1  0.939400  0.703000  0.930400  1.0  0.1055
  H  H16  1  0.207700  0.471600  0.929700  1.0  0.0861
  H  H17  1  0.503600  0.845900  0.223600  1.0  0.0817
  H  H18  1  0.394600  0.184600  0.166400  1.0  0.1198
  H  H19  1  0.351300  0.227500  0.268700  1.0  0.1229
  H  H20  1  0.377600  0.074400  0.344900  1.0  0.0832
  H  H21  1  0.706900  0.702400  0.343800  1.0  0.0729
  H  H22  1  0.754000  0.497100  0.374700  1.0  0.1272
  H  H23  1  0.560600  0.297000  0.430400  1.0  0.1055
  H  H24  1  0.292300  0.528400  0.429700  1.0  0.0865
  H  H25  1  0.003600  0.845900  0.276400  1.0  0.0816
  H  H26  1  0.894600  0.184600  0.333600  1.0  0.1196
  H  H27  1  0.851300  0.227500  0.231300  1.0  0.1233
  H  H28  1  0.877600  0.074400  0.155100  1.0  0.0835
  H  H29  1  0.206900  0.702400  0.156200  1.0  0.0726
  H  H30  1  0.254000  0.497100  0.125300  1.0  0.1264
  H  H31  1  0.060600  0.297000  0.069600  1.0  0.1059
  H  H32  1  0.792300  0.528400  0.070300  1.0  0.086
  H  H33  1  0.496400  0.154100  0.776400  1.0  0.0817
  H  H34  1  0.605400  0.815400  0.833600  1.0  0.12
  H  H35  1  0.648700  0.772500  0.731300  1.0  0.1234
  H  H36  1  0.622400  0.925600  0.655100  1.0  0.0832
  H  H37  1  0.293100  0.297600  0.656200  1.0  0.0736
  H  H38  1  0.246000  0.502900  0.625300  1.0  0.1274
  H  H39  1  0.439400  0.703000  0.569600  1.0  0.1057
  H  H40  1  0.707700  0.471600  0.570300  1.0  0.0861
  C  C41  1  0.029400  0.077500  0.732700  1.0  0.1665
  C  C42  1  0.046400  0.992000  0.684400  1.0  -0.2064
  C  C43  1  0.092700  0.875500  0.697800  1.0  0.0484
  C  C44  1  0.119300  0.851000  0.758500  1.0  -0.1717
  C  C45  1  0.102300  0.942800  0.804200  1.0  0.1833
  C  C46  1  0.011500  0.026200  0.619900  1.0  0.733
  C  C47  1  0.870500  0.376100  0.867600  1.0  0.1697
  C  C48  1  0.842000  0.499800  0.885300  1.0  -0.1148
  C  C49  1  0.955900  0.617400  0.918600  1.0  0.0536
  C  C50  1  0.096500  0.609000  0.934900  1.0  -0.2095
  C  C51  1  0.115200  0.479500  0.917300  1.0  0.189
  C  C52  1  0.228600  0.741300  0.970000  1.0  0.7533
  C  C53  1  0.988200  0.491900  0.464800  1.0  0.5555
  C  C54  1  0.997000  0.023100  0.965800  1.0  0.5503
  C  C55  1  0.470600  0.922500  0.232700  1.0  0.1672
  C  C56  1  0.453600  0.008000  0.184400  1.0  -0.2062
  C  C57  1  0.407300  0.124500  0.197800  1.0  0.0514
  C  C58  1  0.380700  0.149000  0.258500  1.0  -0.172
  C  C59  1  0.397700  0.057200  0.304200  1.0  0.1832
  C  C60  1  0.488500  0.973800  0.119900  1.0  0.7326
  C  C61  1  0.629500  0.623900  0.367600  1.0  0.1703
  C  C62  1  0.658000  0.500200  0.385300  1.0  -0.1134
  C  C63  1  0.544100  0.382600  0.418600  1.0  0.052
  C  C64  1  0.403500  0.391000  0.434900  1.0  -0.2095
  C  C65  1  0.384800  0.520500  0.417300  1.0  0.1889
  C  C66  1  0.271400  0.258700  0.470000  1.0  0.7536
  C  C67  1  0.511800  0.508100  0.964800  1.0  0.5553
  C  C68  1  0.503000  0.976900  0.465800  1.0  0.5499
  C  C69  1  0.970600  0.922500  0.267300  1.0  0.1672
  C  C70  1  0.953600  0.008000  0.315600  1.0  -0.2056
  C  C71  1  0.907300  0.124500  0.302200  1.0  0.0521
  C  C72  1  0.880700  0.149000  0.241500  1.0  -0.1716
  C  C73  1  0.897700  0.057200  0.195800  1.0  0.1821
  C  C74  1  0.988500  0.973800  0.380100  1.0  0.7464
  C  C75  1  0.129500  0.623900  0.132400  1.0  0.1704
  C  C76  1  0.158000  0.500200  0.114700  1.0  -0.1118
  C  C77  1  0.044100  0.382600  0.081400  1.0  0.0523
  C  C78  1  0.903500  0.391000  0.065100  1.0  -0.2097
  C  C79  1  0.884800  0.520500  0.082700  1.0  0.1903
  C  C80  1  0.771400  0.258700  0.030000  1.0  0.7541
  C  C81  1  0.011800  0.508100  0.535200  1.0  0.5554
  C  C82  1  0.003000  0.976900  0.034200  1.0  0.5509
  C  C83  1  0.529400  0.077500  0.767300  1.0  0.1662
  C  C84  1  0.546400  0.992000  0.815600  1.0  -0.2058
  C  C85  1  0.592700  0.875500  0.802200  1.0  0.0504
  C  C86  1  0.619300  0.851000  0.741500  1.0  -0.1712
  C  C87  1  0.602300  0.942800  0.695800  1.0  0.1821
  C  C88  1  0.511500  0.026200  0.880100  1.0  0.7464
  C  C89  1  0.370500  0.376100  0.632400  1.0  0.17
  C  C90  1  0.342000  0.499800  0.614700  1.0  -0.1124
  C  C91  1  0.455900  0.617400  0.581400  1.0  0.0543
  C  C92  1  0.596500  0.609000  0.565100  1.0  -0.2099
  C  C93  1  0.615200  0.479500  0.582700  1.0  0.1911
  C  C94  1  0.728600  0.741300  0.530000  1.0  0.7541
  C  C95  1  0.488200  0.491900  0.035200  1.0  0.5558
  C  C96  1  0.497000  0.023100  0.534200  1.0  0.5511
  N  N97  1  0.057700  0.056800  0.792200  1.0  -0.2986
  N  N98  1  0.004900  0.363400  0.882900  1.0  -0.3085
  N  N99  1  0.442300  0.943200  0.292200  1.0  -0.2986
  N  N100  1  0.495100  0.636600  0.382900  1.0  -0.3076
  N  N101  1  0.942300  0.943200  0.207800  1.0  -0.2994
  N  N102  1  0.995100  0.636600  0.117100  1.0  -0.3082
  N  N103  1  0.557700  0.056800  0.707800  1.0  -0.2979
  N  N104  1  0.504900  0.363400  0.617100  1.0  -0.3071
  O  O105  1  0.051500  0.966400  0.575350  1.0  -0.7904
  O  O106  1  0.944000  0.113300  0.613330  1.0  -0.643
  O  O107  1  0.336200  0.712900  0.994500  1.0  -0.7202
  O  O108  1  0.220900  0.868300  0.970400  1.0  -0.7147
  O  O109  1  0.051100  0.616200  0.433820  1.0  -0.6326
  O  O110  1  0.908800  0.357500  0.443440  1.0  -0.6612
  O  O111  1  0.128600  0.117900  0.942030  1.0  -0.6271
  O  O112  1  0.862800  0.961900  0.939000  1.0  -0.6302
  O  O113  1  0.448500  0.033600  0.075350  1.0  -0.7906
  O  O114  1  0.556000  0.886700  0.113330  1.0  -0.6425
  O  O115  1  0.163800  0.287100  0.494500  1.0  -0.7214
  O  O116  1  0.279100  0.131700  0.470400  1.0  -0.7153
  O  O117  1  0.448900  0.383800  0.933820  1.0  -0.6319
  O  O118  1  0.591200  0.642500  0.943440  1.0  -0.6624
  O  O119  1  0.371400  0.882100  0.442030  1.0  -0.6265
  O  O120  1  0.637200  0.038100  0.439000  1.0  -0.6294
  O  O121  1  0.948500  0.033600  0.424650  1.0  -0.7914
  O  O122  1  0.056000  0.886700  0.386670  1.0  -0.6427
  O  O123  1  0.663800  0.287100  0.005500  1.0  -0.7224
  O  O124  1  0.779100  0.131700  0.029600  1.0  -0.7154
  O  O125  1  0.948900  0.383800  0.566180  1.0  -0.6337
  O  O126  1  0.091200  0.642500  0.556560  1.0  -0.6622
  O  O127  1  0.871400  0.882100  0.057970  1.0  -0.6261
  O  O128  1  0.137200  0.038100  0.061000  1.0  -0.6283
  O  O129  1  0.551500  0.966400  0.924650  1.0  -0.7907
  O  O130  1  0.444000  0.113300  0.886670  1.0  -0.6434
  O  O131  1  0.836200  0.712900  0.505500  1.0  -0.7215
  O  O132  1  0.720900  0.868300  0.529600  1.0  -0.7148
  O  O133  1  0.551100  0.616200  0.066180  1.0  -0.6345
  O  O134  1  0.408800  0.357500  0.056560  1.0  -0.6612
  O  O135  1  0.628600  0.117900  0.557970  1.0  -0.6275
  O  O136  1  0.362800  0.961900  0.561000  1.0  -0.6286
