# generated using pymatgen
data_PrH8(C2O)8
_symmetry_space_group_name_H-M   'P 1'
_cell_length_a   9.50510000
_cell_length_b   14.62430000
_cell_length_c   13.56030000
_cell_angle_alpha   90.00000000
_cell_angle_beta   90.00000000
_cell_angle_gamma   90.00000000
_symmetry_Int_Tables_number   1
_chemical_formula_structural   PrH8(C2O)8
_chemical_formula_sum   'Pr4 H32 C64 O32'
_cell_volume   1884.95538572
_cell_formula_units_Z   4
loop_
 _symmetry_equiv_pos_site_id
 _symmetry_equiv_pos_as_xyz
  1  'x, y, z'
loop_
 _atom_site_type_symbol
 _atom_site_label
 _atom_site_symmetry_multiplicity
 _atom_site_fract_x
 _atom_site_fract_y
 _atom_site_fract_z
 _atom_site_occupancy
 _atom_site_charge
  Pr  Pr1  1  0.250000  0.000000  0.604660  1.0  2.2511
  Pr  Pr2  1  0.250000  0.500000  0.895340  1.0  2.2517
  Pr  Pr3  1  0.750000  0.000000  0.395340  1.0  2.2517
  Pr  Pr4  1  0.750000  0.500000  0.104660  1.0  2.2511
  H  H5  1  0.096000  0.254900  0.649600  1.0  0.1505
  H  H6  1  0.804000  0.274900  0.442000  1.0  0.1387
  H  H7  1  0.881000  0.488000  0.617000  1.0  0.1372
  H  H8  1  0.769000  0.422000  0.478000  1.0  0.1186
  H  H9  1  0.404000  0.745100  0.649600  1.0  0.1502
  H  H10  1  0.696000  0.725100  0.442000  1.0  0.139
  H  H11  1  0.619000  0.512000  0.617000  1.0  0.1374
  H  H12  1  0.731000  0.578000  0.478000  1.0  0.1187
  H  H13  1  0.404000  0.754900  0.850400  1.0  0.1496
  H  H14  1  0.696000  0.774900  0.058000  1.0  0.1382
  H  H15  1  0.619000  0.988000  0.883000  1.0  0.1374
  H  H16  1  0.731000  0.922000  0.022000  1.0  0.1191
  H  H17  1  0.096000  0.245100  0.850400  1.0  0.1501
  H  H18  1  0.804000  0.225100  0.058000  1.0  0.1378
  H  H19  1  0.881000  0.012000  0.883000  1.0  0.1371
  H  H20  1  0.769000  0.078000  0.022000  1.0  0.119
  H  H21  1  0.904000  0.745100  0.350400  1.0  0.15
  H  H22  1  0.196000  0.725100  0.558000  1.0  0.1377
  H  H23  1  0.119000  0.512000  0.383000  1.0  0.1372
  H  H24  1  0.231000  0.578000  0.522000  1.0  0.1194
  H  H25  1  0.596000  0.254900  0.350400  1.0  0.15
  H  H26  1  0.304000  0.274900  0.558000  1.0  0.1381
  H  H27  1  0.381000  0.488000  0.383000  1.0  0.1374
  H  H28  1  0.269000  0.422000  0.522000  1.0  0.1189
  H  H29  1  0.596000  0.245100  0.149600  1.0  0.1504
  H  H30  1  0.304000  0.225100  0.942000  1.0  0.1389
  H  H31  1  0.381000  0.012000  0.117000  1.0  0.1374
  H  H32  1  0.269000  0.078000  0.978000  1.0  0.1185
  H  H33  1  0.904000  0.754900  0.149600  1.0  0.15
  H  H34  1  0.196000  0.774900  0.942000  1.0  0.139
  H  H35  1  0.119000  0.988000  0.117000  1.0  0.1374
  H  H36  1  0.231000  0.922000  0.978000  1.0  0.1187
  C  C37  1  0.031200  0.289490  0.617190  1.0  -0.0027
  C  C38  1  0.006600  0.379830  0.643500  1.0  -0.1286
  C  C39  1  0.087900  0.424150  0.725300  1.0  0.7065
  C  C40  1  0.907600  0.430110  0.591400  1.0  -0.0545
  C  C41  1  0.984000  0.151920  0.509850  1.0  0.7512
  C  C42  1  0.956600  0.249090  0.540510  1.0  -0.1514
  C  C43  1  0.857200  0.300330  0.490190  1.0  -0.0875
  C  C44  1  0.834600  0.390420  0.514600  1.0  -0.0441
  C  C45  1  0.468800  0.710510  0.617190  1.0  -0.0017
  C  C46  1  0.493400  0.620170  0.643500  1.0  -0.129
  C  C47  1  0.412100  0.575850  0.725300  1.0  0.7082
  C  C48  1  0.592400  0.569890  0.591400  1.0  -0.0555
  C  C49  1  0.516000  0.848080  0.509850  1.0  0.7546
  C  C50  1  0.543400  0.750910  0.540510  1.0  -0.1498
  C  C51  1  0.642800  0.699670  0.490190  1.0  -0.0868
  C  C52  1  0.665400  0.609580  0.514600  1.0  -0.0441
  C  C53  1  0.468800  0.789490  0.882810  1.0  -0.0013
  C  C54  1  0.493400  0.879830  0.856500  1.0  -0.1285
  C  C55  1  0.412100  0.924150  0.774700  1.0  0.7079
  C  C56  1  0.592400  0.930110  0.908600  1.0  -0.0553
  C  C57  1  0.516000  0.651920  0.990150  1.0  0.7523
  C  C58  1  0.543400  0.749090  0.959490  1.0  -0.1522
  C  C59  1  0.642800  0.800330  0.009810  1.0  -0.0865
  C  C60  1  0.665400  0.890420  0.985400  1.0  -0.0438
  C  C61  1  0.031200  0.210510  0.882810  1.0  -0.0015
  C  C62  1  0.006600  0.120170  0.856500  1.0  -0.1295
  C  C63  1  0.087900  0.075850  0.774700  1.0  0.7071
  C  C64  1  0.907600  0.069890  0.908600  1.0  -0.0546
  C  C65  1  0.984000  0.348080  0.990150  1.0  0.7528
  C  C66  1  0.956600  0.250910  0.959490  1.0  -0.1492
  C  C67  1  0.857200  0.199670  0.009810  1.0  -0.0869
  C  C68  1  0.834600  0.109580  0.985400  1.0  -0.0447
  C  C69  1  0.968800  0.710510  0.382810  1.0  -0.0008
  C  C70  1  0.993400  0.620170  0.356500  1.0  -0.1298
  C  C71  1  0.912100  0.575850  0.274700  1.0  0.7083
  C  C72  1  0.092400  0.569890  0.408600  1.0  -0.0553
  C  C73  1  0.016000  0.848080  0.490150  1.0  0.7534
  C  C74  1  0.043400  0.750910  0.459490  1.0  -0.1498
  C  C75  1  0.142800  0.699670  0.509810  1.0  -0.0866
  C  C76  1  0.165400  0.609580  0.485400  1.0  -0.0441
  C  C77  1  0.531200  0.289490  0.382810  1.0  -0.0025
  C  C78  1  0.506600  0.379830  0.356500  1.0  -0.1283
  C  C79  1  0.587900  0.424150  0.274700  1.0  0.7069
  C  C80  1  0.407600  0.430110  0.408600  1.0  -0.0542
  C  C81  1  0.484000  0.151920  0.490150  1.0  0.7515
  C  C82  1  0.456600  0.249090  0.459490  1.0  -0.1514
  C  C83  1  0.357200  0.300330  0.509810  1.0  -0.0867
  C  C84  1  0.334600  0.390420  0.485400  1.0  -0.0444
  C  C85  1  0.531200  0.210510  0.117190  1.0  -0.0025
  C  C86  1  0.506600  0.120170  0.143500  1.0  -0.1287
  C  C87  1  0.587900  0.075850  0.225300  1.0  0.7071
  C  C88  1  0.407600  0.069890  0.091400  1.0  -0.055
  C  C89  1  0.484000  0.348080  0.009850  1.0  0.7538
  C  C90  1  0.456600  0.250910  0.040510  1.0  -0.1491
  C  C91  1  0.357200  0.199670  0.990190  1.0  -0.087
  C  C92  1  0.334600  0.109580  0.014600  1.0  -0.0446
  C  C93  1  0.968800  0.789490  0.117190  1.0  -0.0019
  C  C94  1  0.993400  0.879830  0.143500  1.0  -0.129
  C  C95  1  0.912100  0.924150  0.225300  1.0  0.7076
  C  C96  1  0.092400  0.930110  0.091400  1.0  -0.0549
  C  C97  1  0.016000  0.651920  0.009850  1.0  0.7521
  C  C98  1  0.043400  0.749090  0.040510  1.0  -0.1521
  C  C99  1  0.142800  0.800330  0.990190  1.0  -0.0874
  C  C100  1  0.165400  0.890420  0.014600  1.0  -0.0436
  O  O101  1  0.081900  0.110960  0.550620  1.0  -0.7183
  O  O102  1  0.907690  0.118300  0.443810  1.0  -0.6987
  O  O103  1  0.204560  0.391170  0.749820  1.0  -0.6143
  O  O104  1  0.035770  0.493610  0.768410  1.0  -0.6288
  O  O105  1  0.418100  0.889040  0.550620  1.0  -0.7178
  O  O106  1  0.592310  0.881700  0.443810  1.0  -0.6987
  O  O107  1  0.295440  0.608830  0.749820  1.0  -0.6146
  O  O108  1  0.464230  0.506390  0.768410  1.0  -0.6289
  O  O109  1  0.418100  0.610960  0.949380  1.0  -0.7181
  O  O110  1  0.592310  0.618300  0.056190  1.0  -0.699
  O  O111  1  0.295440  0.891170  0.750180  1.0  -0.6181
  O  O112  1  0.464230  0.993610  0.731590  1.0  -0.6315
  O  O113  1  0.081900  0.389040  0.949380  1.0  -0.7176
  O  O114  1  0.907690  0.381700  0.056190  1.0  -0.699
  O  O115  1  0.204560  0.108830  0.750180  1.0  -0.618
  O  O116  1  0.035770  0.006390  0.731590  1.0  -0.6317
  O  O117  1  0.918100  0.889040  0.449380  1.0  -0.7168
  O  O118  1  0.092310  0.881700  0.556190  1.0  -0.6994
  O  O119  1  0.795440  0.608830  0.250180  1.0  -0.6148
  O  O120  1  0.964230  0.506390  0.231590  1.0  -0.6288
  O  O121  1  0.581900  0.110960  0.449380  1.0  -0.7182
  O  O122  1  0.407690  0.118300  0.556190  1.0  -0.6986
  O  O123  1  0.704560  0.391170  0.250180  1.0  -0.6145
  O  O124  1  0.535770  0.493610  0.231590  1.0  -0.6301
  O  O125  1  0.581900  0.389040  0.050620  1.0  -0.7183
  O  O126  1  0.407690  0.381700  0.943810  1.0  -0.6982
  O  O127  1  0.704560  0.108830  0.249820  1.0  -0.6178
  O  O128  1  0.535770  0.006390  0.268410  1.0  -0.6308
  O  O129  1  0.918100  0.610960  0.050620  1.0  -0.7186
  O  O130  1  0.092310  0.618300  0.943810  1.0  -0.6994
  O  O131  1  0.795440  0.891170  0.249820  1.0  -0.6177
  O  O132  1  0.964230  0.993610  0.268410  1.0  -0.6304
