# generated using pymatgen
data_NdH8(C2O)8
_symmetry_space_group_name_H-M   'P 1'
_cell_length_a   9.51070000
_cell_length_b   14.61280000
_cell_length_c   13.53170000
_cell_angle_alpha   90.00000000
_cell_angle_beta   90.00000000
_cell_angle_gamma   90.00000000
_symmetry_Int_Tables_number   1
_chemical_formula_structural   NdH8(C2O)8
_chemical_formula_sum   'Nd4 H32 C64 O32'
_cell_volume   1880.60802020
_cell_formula_units_Z   4
loop_
 _symmetry_equiv_pos_site_id
 _symmetry_equiv_pos_as_xyz
  1  'x, y, z'
loop_
 _atom_site_type_symbol
 _atom_site_label
 _atom_site_symmetry_multiplicity
 _atom_site_fract_x
 _atom_site_fract_y
 _atom_site_fract_z
 _atom_site_occupancy
 _atom_site_charge
  Nd  Nd1  1  0.250000  0.500000  0.104380  1.0  2.3138
  Nd  Nd2  1  0.250000  0.000000  0.395630  1.0  2.3153
  Nd  Nd3  1  0.750000  0.500000  0.895630  1.0  2.3153
  Nd  Nd4  1  0.750000  0.000000  0.604380  1.0  2.3138
  H  H5  1  0.890500  0.490800  0.391300  1.0  0.1281
  H  H6  1  0.768800  0.424200  0.520200  1.0  0.1181
  H  H7  1  0.098400  0.255500  0.348100  1.0  0.1284
  H  H8  1  0.801000  0.276000  0.557000  1.0  0.1348
  H  H9  1  0.609500  0.509200  0.391300  1.0  0.1277
  H  H10  1  0.731200  0.575800  0.520200  1.0  0.119
  H  H11  1  0.401600  0.744500  0.348100  1.0  0.1287
  H  H12  1  0.699000  0.724000  0.557000  1.0  0.1344
  H  H13  1  0.609500  0.990800  0.108700  1.0  0.1276
  H  H14  1  0.731200  0.924200  0.979800  1.0  0.118
  H  H15  1  0.401600  0.755500  0.151900  1.0  0.1287
  H  H16  1  0.699000  0.776000  0.943000  1.0  0.1349
  H  H17  1  0.890500  0.009200  0.108700  1.0  0.1277
  H  H18  1  0.768800  0.075800  0.979800  1.0  0.1185
  H  H19  1  0.098400  0.244500  0.151900  1.0  0.1289
  H  H20  1  0.801000  0.224000  0.943000  1.0  0.1352
  H  H21  1  0.109500  0.509200  0.608700  1.0  0.1276
  H  H22  1  0.231200  0.575800  0.479800  1.0  0.1182
  H  H23  1  0.901600  0.744500  0.651900  1.0  0.1288
  H  H24  1  0.199000  0.724000  0.443000  1.0  0.135
  H  H25  1  0.390500  0.490800  0.608700  1.0  0.1277
  H  H26  1  0.268800  0.424200  0.479800  1.0  0.1184
  H  H27  1  0.598400  0.255500  0.651900  1.0  0.1289
  H  H28  1  0.301000  0.276000  0.443000  1.0  0.135
  H  H29  1  0.390500  0.009200  0.891300  1.0  0.1278
  H  H30  1  0.268800  0.075800  0.020200  1.0  0.1186
  H  H31  1  0.598400  0.244500  0.848100  1.0  0.1286
  H  H32  1  0.301000  0.224000  0.057000  1.0  0.1345
  H  H33  1  0.109500  0.990800  0.891300  1.0  0.1281
  H  H34  1  0.231200  0.924200  0.020200  1.0  0.1185
  H  H35  1  0.901600  0.755500  0.848100  1.0  0.1283
  H  H36  1  0.199000  0.776000  0.057000  1.0  0.1348
  C  C37  1  0.088500  0.423930  0.274210  1.0  0.7154
  C  C38  1  0.007200  0.379950  0.355800  1.0  -0.1571
  C  C39  1  0.907700  0.430100  0.408000  1.0  -0.0514
  C  C40  1  0.834200  0.390000  0.484800  1.0  -0.0801
  C  C41  1  0.857200  0.299800  0.509300  1.0  -0.0239
  C  C42  1  0.956700  0.248990  0.459070  1.0  -0.1008
  C  C43  1  0.031400  0.289450  0.382200  1.0  -0.0292
  C  C44  1  0.984600  0.151700  0.490040  1.0  0.7321
  C  C45  1  0.411500  0.576070  0.274210  1.0  0.7173
  C  C46  1  0.492800  0.620050  0.355800  1.0  -0.158
  C  C47  1  0.592300  0.569900  0.408000  1.0  -0.0524
  C  C48  1  0.665800  0.610000  0.484800  1.0  -0.0808
  C  C49  1  0.642800  0.700200  0.509300  1.0  -0.0241
  C  C50  1  0.543300  0.751010  0.459070  1.0  -0.0992
  C  C51  1  0.468600  0.710550  0.382200  1.0  -0.0289
  C  C52  1  0.515400  0.848300  0.490040  1.0  0.7339
  C  C53  1  0.411500  0.923930  0.225790  1.0  0.717
  C  C54  1  0.492800  0.879950  0.144200  1.0  -0.1576
  C  C55  1  0.592300  0.930100  0.092000  1.0  -0.0508
  C  C56  1  0.665800  0.890000  0.015200  1.0  -0.0812
  C  C57  1  0.642800  0.799800  0.990700  1.0  -0.0246
  C  C58  1  0.543300  0.748990  0.040930  1.0  -0.1011
  C  C59  1  0.468600  0.789450  0.117800  1.0  -0.0299
  C  C60  1  0.515400  0.651700  0.009960  1.0  0.731
  C  C61  1  0.088500  0.076070  0.225790  1.0  0.716
  C  C62  1  0.007200  0.120050  0.144200  1.0  -0.1579
  C  C63  1  0.907700  0.069900  0.092000  1.0  -0.052
  C  C64  1  0.834200  0.110000  0.015200  1.0  -0.0807
  C  C65  1  0.857200  0.200200  0.990700  1.0  -0.0235
  C  C66  1  0.956700  0.251010  0.040930  1.0  -0.0993
  C  C67  1  0.031400  0.210550  0.117800  1.0  -0.0292
  C  C68  1  0.984600  0.348300  0.009960  1.0  0.7329
  C  C69  1  0.911500  0.576070  0.725790  1.0  0.7177
  C  C70  1  0.992800  0.620050  0.644200  1.0  -0.1575
  C  C71  1  0.092300  0.569900  0.592000  1.0  -0.0514
  C  C72  1  0.165800  0.610000  0.515200  1.0  -0.0813
  C  C73  1  0.142800  0.700200  0.490700  1.0  -0.0238
  C  C74  1  0.043300  0.751010  0.540930  1.0  -0.0994
  C  C75  1  0.968600  0.710550  0.617800  1.0  -0.0292
  C  C76  1  0.015400  0.848300  0.509960  1.0  0.7335
  C  C77  1  0.588500  0.423930  0.725790  1.0  0.7153
  C  C78  1  0.507200  0.379950  0.644200  1.0  -0.1577
  C  C79  1  0.407700  0.430100  0.592000  1.0  -0.0513
  C  C80  1  0.334200  0.390000  0.515200  1.0  -0.0803
  C  C81  1  0.357200  0.299800  0.490700  1.0  -0.0237
  C  C82  1  0.456700  0.248990  0.540930  1.0  -0.101
  C  C83  1  0.531400  0.289450  0.617800  1.0  -0.0289
  C  C84  1  0.484600  0.151700  0.509960  1.0  0.7303
  C  C85  1  0.588500  0.076070  0.774210  1.0  0.7157
  C  C86  1  0.507200  0.120050  0.855800  1.0  -0.1587
  C  C87  1  0.407700  0.069900  0.908000  1.0  -0.0528
  C  C88  1  0.334200  0.110000  0.984800  1.0  -0.0802
  C  C89  1  0.357200  0.200200  0.009300  1.0  -0.024
  C  C90  1  0.456700  0.251010  0.959070  1.0  -0.0993
  C  C91  1  0.531400  0.210550  0.882200  1.0  -0.0276
  C  C92  1  0.484600  0.348300  0.990040  1.0  0.7334
  C  C93  1  0.911500  0.923930  0.774210  1.0  0.7169
  C  C94  1  0.992800  0.879950  0.855800  1.0  -0.1568
  C  C95  1  0.092300  0.930100  0.908000  1.0  -0.0511
  C  C96  1  0.165800  0.890000  0.984800  1.0  -0.0809
  C  C97  1  0.142800  0.799800  0.009300  1.0  -0.0245
  C  C98  1  0.043300  0.748990  0.959070  1.0  -0.1008
  C  C99  1  0.968600  0.789450  0.882200  1.0  -0.0283
  C  C100  1  0.015400  0.651700  0.990040  1.0  0.7327
  O  O101  1  0.036300  0.493660  0.231000  1.0  -0.6518
  O  O102  1  0.204700  0.391440  0.249750  1.0  -0.6152
  O  O103  1  0.907700  0.117860  0.555460  1.0  -0.6944
  O  O104  1  0.082800  0.111300  0.449850  1.0  -0.7118
  O  O105  1  0.463700  0.506340  0.231000  1.0  -0.65
  O  O106  1  0.295300  0.608560  0.249750  1.0  -0.6158
  O  O107  1  0.592300  0.882140  0.555460  1.0  -0.6959
  O  O108  1  0.417200  0.888700  0.449850  1.0  -0.7102
  O  O109  1  0.463700  0.993660  0.269000  1.0  -0.6523
  O  O110  1  0.295300  0.891440  0.250250  1.0  -0.6163
  O  O111  1  0.592300  0.617860  0.944540  1.0  -0.6957
  O  O112  1  0.417200  0.611300  0.050150  1.0  -0.7125
  O  O113  1  0.036300  0.006340  0.269000  1.0  -0.6469
  O  O114  1  0.204700  0.108560  0.250250  1.0  -0.6161
  O  O115  1  0.907700  0.382140  0.944540  1.0  -0.694
  O  O116  1  0.082800  0.388700  0.050150  1.0  -0.7121
  O  O117  1  0.963700  0.506340  0.769000  1.0  -0.6487
  O  O118  1  0.795300  0.608560  0.750250  1.0  -0.6155
  O  O119  1  0.092300  0.882140  0.444540  1.0  -0.6952
  O  O120  1  0.917200  0.888700  0.550150  1.0  -0.7117
  O  O121  1  0.536300  0.493660  0.769000  1.0  -0.6519
  O  O122  1  0.704700  0.391440  0.750250  1.0  -0.6151
  O  O123  1  0.407700  0.117860  0.444540  1.0  -0.6943
  O  O124  1  0.582800  0.111300  0.550150  1.0  -0.7123
  O  O125  1  0.536300  0.006340  0.731000  1.0  -0.65
  O  O126  1  0.704700  0.108560  0.749750  1.0  -0.6163
  O  O127  1  0.407700  0.382140  0.055460  1.0  -0.6948
  O  O128  1  0.582800  0.388700  0.949850  1.0  -0.711
  O  O129  1  0.963700  0.993660  0.731000  1.0  -0.6507
  O  O130  1  0.795300  0.891440  0.749750  1.0  -0.6168
  O  O131  1  0.092300  0.617860  0.055460  1.0  -0.6956
  O  O132  1  0.917200  0.611300  0.949850  1.0  -0.7116
