# generated using pymatgen
data_LaH8(C2O)8
_symmetry_space_group_name_H-M   'P 1'
_cell_length_a   9.52770000
_cell_length_b   14.69200000
_cell_length_c   13.67720000
_cell_angle_alpha   90.00000000
_cell_angle_beta   90.00000000
_cell_angle_gamma   90.00000000
_symmetry_Int_Tables_number   1
_chemical_formula_structural   LaH8(C2O)8
_chemical_formula_sum   'La4 H32 C64 O32'
_cell_volume   1914.54770100
_cell_formula_units_Z   4
loop_
 _symmetry_equiv_pos_site_id
 _symmetry_equiv_pos_as_xyz
  1  'x, y, z'
loop_
 _atom_site_type_symbol
 _atom_site_label
 _atom_site_symmetry_multiplicity
 _atom_site_fract_x
 _atom_site_fract_y
 _atom_site_fract_z
 _atom_site_occupancy
 _atom_site_charge
  La  La1  1  0.250000  0.000000  0.105810  1.0  2.2048
  La  La2  1  0.250000  0.500000  0.394190  1.0  2.2053
  La  La3  1  0.750000  0.000000  0.894190  1.0  2.2053
  La  La4  1  0.750000  0.500000  0.605810  1.0  2.2048
  H  H5  1  0.767000  0.423000  0.971000  1.0  0.1287
  H  H6  1  0.887000  0.486100  0.111000  1.0  0.158
  H  H7  1  0.804000  0.276000  0.940700  1.0  0.128
  H  H8  1  0.093500  0.256800  0.153500  1.0  0.1342
  H  H9  1  0.733000  0.577000  0.971000  1.0  0.1292
  H  H10  1  0.613000  0.513900  0.111000  1.0  0.1579
  H  H11  1  0.696000  0.724000  0.940700  1.0  0.1279
  H  H12  1  0.406500  0.743200  0.153500  1.0  0.1343
  H  H13  1  0.733000  0.923000  0.529000  1.0  0.1292
  H  H14  1  0.613000  0.986100  0.389000  1.0  0.1575
  H  H15  1  0.696000  0.776000  0.559300  1.0  0.1281
  H  H16  1  0.406500  0.756800  0.346500  1.0  0.1331
  H  H17  1  0.767000  0.077000  0.529000  1.0  0.1286
  H  H18  1  0.887000  0.013900  0.389000  1.0  0.1576
  H  H19  1  0.804000  0.224000  0.559300  1.0  0.1276
  H  H20  1  0.093500  0.243200  0.346500  1.0  0.1335
  H  H21  1  0.233000  0.577000  0.029000  1.0  0.1294
  H  H22  1  0.113000  0.513900  0.889000  1.0  0.1574
  H  H23  1  0.196000  0.724000  0.059300  1.0  0.1276
  H  H24  1  0.906500  0.743200  0.846500  1.0  0.1338
  H  H25  1  0.267000  0.423000  0.029000  1.0  0.1285
  H  H26  1  0.387000  0.486100  0.889000  1.0  0.158
  H  H27  1  0.304000  0.276000  0.059300  1.0  0.128
  H  H28  1  0.593500  0.256800  0.846500  1.0  0.1334
  H  H29  1  0.267000  0.077000  0.471000  1.0  0.1287
  H  H30  1  0.387000  0.013900  0.611000  1.0  0.1583
  H  H31  1  0.304000  0.224000  0.440700  1.0  0.1282
  H  H32  1  0.593500  0.243200  0.653500  1.0  0.1345
  H  H33  1  0.233000  0.923000  0.471000  1.0  0.129
  H  H34  1  0.113000  0.986100  0.611000  1.0  0.1575
  H  H35  1  0.196000  0.776000  0.440700  1.0  0.128
  H  H36  1  0.906500  0.756800  0.653500  1.0  0.1345
  C  C37  1  0.029200  0.290350  0.116630  1.0  -0.034
  C  C38  1  0.005400  0.380180  0.142480  1.0  -0.1612
  C  C39  1  0.982900  0.153330  0.009990  1.0  0.7542
  C  C40  1  0.834000  0.391000  0.014300  1.0  -0.0635
  C  C41  1  0.955100  0.250150  0.040210  1.0  -0.0945
  C  C42  1  0.906700  0.430430  0.090500  1.0  -0.0946
  C  C43  1  0.857000  0.301000  0.990360  1.0  -0.069
  C  C44  1  0.086500  0.423960  0.223500  1.0  0.7175
  C  C45  1  0.470800  0.709650  0.116630  1.0  -0.0341
  C  C46  1  0.494600  0.619820  0.142480  1.0  -0.161
  C  C47  1  0.517100  0.846670  0.009990  1.0  0.7578
  C  C48  1  0.666000  0.609000  0.014300  1.0  -0.0621
  C  C49  1  0.544900  0.749850  0.040210  1.0  -0.0946
  C  C50  1  0.593300  0.569570  0.090500  1.0  -0.0939
  C  C51  1  0.643000  0.699000  0.990360  1.0  -0.0699
  C  C52  1  0.413500  0.576040  0.223500  1.0  0.7196
  C  C53  1  0.470800  0.790350  0.383370  1.0  -0.0345
  C  C54  1  0.494600  0.880180  0.357520  1.0  -0.1609
  C  C55  1  0.517100  0.653330  0.490010  1.0  0.7551
  C  C56  1  0.666000  0.891000  0.485700  1.0  -0.061
  C  C57  1  0.544900  0.750150  0.459790  1.0  -0.0952
  C  C58  1  0.593300  0.930430  0.409500  1.0  -0.0946
  C  C59  1  0.643000  0.801000  0.509640  1.0  -0.0707
  C  C60  1  0.413500  0.923960  0.276500  1.0  0.7187
  C  C61  1  0.029200  0.209650  0.383370  1.0  -0.0342
  C  C62  1  0.005400  0.119820  0.357520  1.0  -0.1626
  C  C63  1  0.982900  0.346670  0.490010  1.0  0.756
  C  C64  1  0.834000  0.109000  0.485700  1.0  -0.0637
  C  C65  1  0.955100  0.249850  0.459790  1.0  -0.0939
  C  C66  1  0.906700  0.069570  0.409500  1.0  -0.0946
  C  C67  1  0.857000  0.199000  0.509640  1.0  -0.0696
  C  C68  1  0.086500  0.076040  0.276500  1.0  0.7177
  C  C69  1  0.970800  0.709650  0.883370  1.0  -0.0344
  C  C70  1  0.994600  0.619820  0.857520  1.0  -0.1619
  C  C71  1  0.017100  0.846670  0.990010  1.0  0.7563
  C  C72  1  0.166000  0.609000  0.985700  1.0  -0.0613
  C  C73  1  0.044900  0.749850  0.959790  1.0  -0.0946
  C  C74  1  0.093300  0.569570  0.909500  1.0  -0.0945
  C  C75  1  0.143000  0.699000  0.009640  1.0  -0.0707
  C  C76  1  0.913500  0.576040  0.776500  1.0  0.7191
  C  C77  1  0.529200  0.290350  0.883370  1.0  -0.0346
  C  C78  1  0.505400  0.380180  0.857520  1.0  -0.1616
  C  C79  1  0.482900  0.153330  0.990010  1.0  0.7549
  C  C80  1  0.334000  0.391000  0.985700  1.0  -0.0632
  C  C81  1  0.455100  0.250150  0.959790  1.0  -0.0945
  C  C82  1  0.406700  0.430430  0.909500  1.0  -0.0943
  C  C83  1  0.357000  0.301000  0.009640  1.0  -0.0692
  C  C84  1  0.586500  0.423960  0.776500  1.0  0.7174
  C  C85  1  0.529200  0.209650  0.616630  1.0  -0.034
  C  C86  1  0.505400  0.119820  0.642480  1.0  -0.1612
  C  C87  1  0.482900  0.346670  0.509990  1.0  0.7571
  C  C88  1  0.334000  0.109000  0.514300  1.0  -0.0643
  C  C89  1  0.455100  0.249850  0.540210  1.0  -0.0939
  C  C90  1  0.406700  0.069570  0.590500  1.0  -0.0942
  C  C91  1  0.357000  0.199000  0.490360  1.0  -0.0686
  C  C92  1  0.586500  0.076040  0.723500  1.0  0.7184
  C  C93  1  0.970800  0.790350  0.616630  1.0  -0.034
  C  C94  1  0.994600  0.880180  0.642480  1.0  -0.1611
  C  C95  1  0.017100  0.653330  0.509990  1.0  0.7546
  C  C96  1  0.166000  0.891000  0.514300  1.0  -0.0615
  C  C97  1  0.044900  0.750150  0.540210  1.0  -0.0952
  C  C98  1  0.093300  0.930430  0.590500  1.0  -0.0944
  C  C99  1  0.143000  0.801000  0.490360  1.0  -0.0707
  C  C100  1  0.913500  0.923960  0.723500  1.0  0.7186
  O  O101  1  0.077780  0.111860  0.051970  1.0  -0.707
  O  O102  1  0.909470  0.120450  0.942830  1.0  -0.6579
  O  O103  1  0.035290  0.493980  0.265590  1.0  -0.6219
  O  O104  1  0.201950  0.390330  0.247990  1.0  -0.6214
  O  O105  1  0.422220  0.888140  0.051970  1.0  -0.7063
  O  O106  1  0.590530  0.879550  0.942830  1.0  -0.6586
  O  O107  1  0.464710  0.506020  0.265590  1.0  -0.6214
  O  O108  1  0.298050  0.609670  0.247990  1.0  -0.6215
  O  O109  1  0.422220  0.611860  0.448030  1.0  -0.7067
  O  O110  1  0.590530  0.620450  0.557170  1.0  -0.6567
  O  O111  1  0.464710  0.993980  0.234410  1.0  -0.6223
  O  O112  1  0.298050  0.890330  0.252010  1.0  -0.6217
  O  O113  1  0.077780  0.388140  0.448030  1.0  -0.7072
  O  O114  1  0.909470  0.379550  0.557170  1.0  -0.658
  O  O115  1  0.035290  0.006020  0.234410  1.0  -0.6223
  O  O116  1  0.201950  0.109670  0.252010  1.0  -0.6222
  O  O117  1  0.922220  0.888140  0.948030  1.0  -0.7064
  O  O118  1  0.090530  0.879550  0.057170  1.0  -0.6583
  O  O119  1  0.964710  0.506020  0.734410  1.0  -0.6224
  O  O120  1  0.798050  0.609670  0.752010  1.0  -0.6216
  O  O121  1  0.577780  0.111860  0.948030  1.0  -0.7071
  O  O122  1  0.409470  0.120450  0.057170  1.0  -0.6566
  O  O123  1  0.535290  0.493980  0.734410  1.0  -0.6234
  O  O124  1  0.701950  0.390330  0.752010  1.0  -0.6217
  O  O125  1  0.577780  0.388140  0.551970  1.0  -0.707
  O  O126  1  0.409470  0.379550  0.442830  1.0  -0.6577
  O  O127  1  0.535290  0.006020  0.765590  1.0  -0.6208
  O  O128  1  0.701950  0.109670  0.747990  1.0  -0.622
  O  O129  1  0.922220  0.611860  0.551970  1.0  -0.7068
  O  O130  1  0.090530  0.620450  0.442830  1.0  -0.6585
  O  O131  1  0.964710  0.993980  0.765590  1.0  -0.6209
  O  O132  1  0.798050  0.890330  0.747990  1.0  -0.6212
