# generated using pymatgen
data_DyH8(C2O)8
_symmetry_space_group_name_H-M   'P 1'
_cell_length_a   9.43000000
_cell_length_b   14.48000000
_cell_length_c   13.30600000
_cell_angle_alpha   90.00000000
_cell_angle_beta   90.00000000
_cell_angle_gamma   90.00000000
_symmetry_Int_Tables_number   1
_chemical_formula_structural   DyH8(C2O)8
_chemical_formula_sum   'Dy4 H32 C64 O32'
_cell_volume   1816.88639840
_cell_formula_units_Z   4
loop_
 _symmetry_equiv_pos_site_id
 _symmetry_equiv_pos_as_xyz
  1  'x, y, z'
loop_
 _atom_site_type_symbol
 _atom_site_label
 _atom_site_symmetry_multiplicity
 _atom_site_fract_x
 _atom_site_fract_y
 _atom_site_fract_z
 _atom_site_occupancy
 _atom_site_charge
  Dy  Dy1  1  0.250000  0.500000  0.101950  1.0  2.285
  Dy  Dy2  1  0.250000  0.000000  0.398050  1.0  2.2862
  Dy  Dy3  1  0.750000  0.500000  0.898050  1.0  2.2862
  Dy  Dy4  1  0.750000  0.000000  0.601950  1.0  2.285
  H  H5  1  0.093000  0.257200  0.348500  1.0  0.2288
  H  H6  1  0.869000  0.484000  0.377000  1.0  0.1182
  H  H7  1  0.814000  0.272000  0.560000  1.0  0.1404
  H  H8  1  0.768000  0.417000  0.516000  1.0  0.2054
  H  H9  1  0.407000  0.742800  0.348500  1.0  0.23
  H  H10  1  0.631000  0.516000  0.377000  1.0  0.1181
  H  H11  1  0.686000  0.728000  0.560000  1.0  0.1401
  H  H12  1  0.732000  0.583000  0.516000  1.0  0.2056
  H  H13  1  0.407000  0.757200  0.151500  1.0  0.2313
  H  H14  1  0.631000  0.984000  0.123000  1.0  0.1183
  H  H15  1  0.686000  0.772000  0.940000  1.0  0.1405
  H  H16  1  0.732000  0.917000  0.984000  1.0  0.204
  H  H17  1  0.093000  0.242800  0.151500  1.0  0.2303
  H  H18  1  0.869000  0.016000  0.123000  1.0  0.1186
  H  H19  1  0.814000  0.228000  0.940000  1.0  0.1413
  H  H20  1  0.768000  0.083000  0.984000  1.0  0.2044
  H  H21  1  0.907000  0.742800  0.651500  1.0  0.231
  H  H22  1  0.131000  0.516000  0.623000  1.0  0.1186
  H  H23  1  0.186000  0.728000  0.440000  1.0  0.1407
  H  H24  1  0.232000  0.583000  0.484000  1.0  0.2041
  H  H25  1  0.593000  0.257200  0.651500  1.0  0.2308
  H  H26  1  0.369000  0.484000  0.623000  1.0  0.1181
  H  H27  1  0.314000  0.272000  0.440000  1.0  0.1407
  H  H28  1  0.268000  0.417000  0.484000  1.0  0.2047
  H  H29  1  0.593000  0.242800  0.848500  1.0  0.2291
  H  H30  1  0.369000  0.016000  0.877000  1.0  0.1179
  H  H31  1  0.314000  0.228000  0.060000  1.0  0.1406
  H  H32  1  0.268000  0.083000  0.016000  1.0  0.2055
  H  H33  1  0.907000  0.757200  0.848500  1.0  0.2298
  H  H34  1  0.131000  0.984000  0.877000  1.0  0.1184
  H  H35  1  0.186000  0.772000  0.060000  1.0  0.1401
  H  H36  1  0.232000  0.917000  0.016000  1.0  0.2053
  C  C37  1  0.090900  0.424420  0.270580  1.0  0.6876
  C  C38  1  0.010300  0.379310  0.354190  1.0  -0.1001
  C  C39  1  0.910500  0.430600  0.407100  1.0  -0.1403
  C  C40  1  0.834800  0.389100  0.484600  1.0  -0.1057
  C  C41  1  0.858300  0.298500  0.509000  1.0  -0.0829
  C  C42  1  0.958500  0.246520  0.458760  1.0  -0.1895
  C  C43  1  0.034700  0.288590  0.381190  1.0  0.002
  C  C44  1  0.986300  0.148300  0.489710  1.0  0.755
  C  C45  1  0.409100  0.575580  0.270580  1.0  0.6877
  C  C46  1  0.489700  0.620690  0.354190  1.0  -0.1017
  C  C47  1  0.589500  0.569400  0.407100  1.0  -0.1421
  C  C48  1  0.665200  0.610900  0.484600  1.0  -0.1081
  C  C49  1  0.641700  0.701500  0.509000  1.0  -0.0834
  C  C50  1  0.541500  0.753480  0.458760  1.0  -0.1899
  C  C51  1  0.465300  0.711410  0.381190  1.0  0.0047
  C  C52  1  0.513700  0.851700  0.489710  1.0  0.7551
  C  C53  1  0.409100  0.924420  0.229420  1.0  0.6875
  C  C54  1  0.489700  0.879310  0.145810  1.0  -0.1015
  C  C55  1  0.589500  0.930600  0.092900  1.0  -0.1406
  C  C56  1  0.665200  0.889100  0.015400  1.0  -0.1081
  C  C57  1  0.641700  0.798500  0.991000  1.0  -0.084
  C  C58  1  0.541500  0.746520  0.041240  1.0  -0.1909
  C  C59  1  0.465300  0.788590  0.118810  1.0  0.0048
  C  C60  1  0.513700  0.648300  0.010290  1.0  0.7545
  C  C61  1  0.090900  0.075580  0.229420  1.0  0.6878
  C  C62  1  0.010300  0.120690  0.145810  1.0  -0.1005
  C  C63  1  0.910500  0.069400  0.092900  1.0  -0.1406
  C  C64  1  0.834800  0.110900  0.015400  1.0  -0.1059
  C  C65  1  0.858300  0.201500  0.991000  1.0  -0.0821
  C  C66  1  0.958500  0.253480  0.041240  1.0  -0.1892
  C  C67  1  0.034700  0.211410  0.118810  1.0  0.0019
  C  C68  1  0.986300  0.351700  0.010290  1.0  0.7555
  C  C69  1  0.909100  0.575580  0.729420  1.0  0.6882
  C  C70  1  0.989700  0.620690  0.645810  1.0  -0.1007
  C  C71  1  0.089500  0.569400  0.592900  1.0  -0.1411
  C  C72  1  0.165200  0.610900  0.515400  1.0  -0.1084
  C  C73  1  0.141700  0.701500  0.491000  1.0  -0.0831
  C  C74  1  0.041500  0.753480  0.541240  1.0  -0.19
  C  C75  1  0.965300  0.711410  0.618810  1.0  0.0045
  C  C76  1  0.013700  0.851700  0.510290  1.0  0.7558
  C  C77  1  0.590900  0.424420  0.729420  1.0  0.6868
  C  C78  1  0.510300  0.379310  0.645810  1.0  -0.1011
  C  C79  1  0.410500  0.430600  0.592900  1.0  -0.1406
  C  C80  1  0.334800  0.389100  0.515400  1.0  -0.1059
  C  C81  1  0.358300  0.298500  0.491000  1.0  -0.0829
  C  C82  1  0.458500  0.246520  0.541240  1.0  -0.1898
  C  C83  1  0.534700  0.288590  0.618810  1.0  0.0018
  C  C84  1  0.486300  0.148300  0.510290  1.0  0.7541
  C  C85  1  0.590900  0.075580  0.770580  1.0  0.6874
  C  C86  1  0.510300  0.120690  0.854190  1.0  -0.1017
  C  C87  1  0.410500  0.069400  0.907100  1.0  -0.1412
  C  C88  1  0.334800  0.110900  0.984600  1.0  -0.1055
  C  C89  1  0.358300  0.201500  0.009000  1.0  -0.0828
  C  C90  1  0.458500  0.253480  0.958760  1.0  -0.1892
  C  C91  1  0.534700  0.211410  0.881190  1.0  0.0021
  C  C92  1  0.486300  0.351700  0.989710  1.0  0.7548
  C  C93  1  0.909100  0.924420  0.770580  1.0  0.688
  C  C94  1  0.989700  0.879310  0.854190  1.0  -0.1
  C  C95  1  0.089500  0.930600  0.907100  1.0  -0.141
  C  C96  1  0.165200  0.889100  0.984600  1.0  -0.1081
  C  C97  1  0.141700  0.798500  0.009000  1.0  -0.0838
  C  C98  1  0.041500  0.746520  0.958760  1.0  -0.1905
  C  C99  1  0.965300  0.788590  0.881190  1.0  0.0049
  C  C100  1  0.013700  0.648300  0.989710  1.0  0.7553
  O  O101  1  0.209800  0.393210  0.245210  1.0  -0.6172
  O  O102  1  0.036100  0.492900  0.225460  1.0  -0.6473
  O  O103  1  0.089500  0.108970  0.452310  1.0  -0.7015
  O  O104  1  0.904000  0.113480  0.553160  1.0  -0.6943
  O  O105  1  0.290200  0.606790  0.245210  1.0  -0.6176
  O  O106  1  0.463900  0.507100  0.225460  1.0  -0.6473
  O  O107  1  0.410500  0.891030  0.452310  1.0  -0.7015
  O  O108  1  0.596000  0.886520  0.553160  1.0  -0.6962
  O  O109  1  0.290200  0.893210  0.254790  1.0  -0.618
  O  O110  1  0.463900  0.992900  0.274540  1.0  -0.6467
  O  O111  1  0.410500  0.608970  0.047690  1.0  -0.7008
  O  O112  1  0.596000  0.613480  0.946840  1.0  -0.6961
  O  O113  1  0.209800  0.106790  0.254790  1.0  -0.618
  O  O114  1  0.036100  0.007100  0.274540  1.0  -0.6454
  O  O115  1  0.089500  0.391030  0.047690  1.0  -0.7009
  O  O116  1  0.904000  0.386520  0.946840  1.0  -0.6944
  O  O117  1  0.790200  0.606790  0.754790  1.0  -0.618
  O  O118  1  0.963900  0.507100  0.774540  1.0  -0.6459
  O  O119  1  0.910500  0.891030  0.547690  1.0  -0.7002
  O  O120  1  0.096000  0.886520  0.446840  1.0  -0.6959
  O  O121  1  0.709800  0.393210  0.754790  1.0  -0.6178
  O  O122  1  0.536100  0.492900  0.774540  1.0  -0.6472
  O  O123  1  0.589500  0.108970  0.547690  1.0  -0.7012
  O  O124  1  0.404000  0.113480  0.446840  1.0  -0.6948
  O  O125  1  0.709800  0.106790  0.745210  1.0  -0.6174
  O  O126  1  0.536100  0.007100  0.725460  1.0  -0.6472
  O  O127  1  0.589500  0.391030  0.952310  1.0  -0.7023
  O  O128  1  0.404000  0.386520  0.053160  1.0  -0.6952
  O  O129  1  0.790200  0.893210  0.745210  1.0  -0.6176
  O  O130  1  0.963900  0.992900  0.725460  1.0  -0.6459
  O  O131  1  0.910500  0.608970  0.952310  1.0  -0.701
  O  O132  1  0.096000  0.613480  0.053160  1.0  -0.6953
