# generated using pymatgen
data_FeH13C20N2O5
_symmetry_space_group_name_H-M   'P 1'
_cell_length_a   9.02100000
_cell_length_b   13.84100000
_cell_length_c   30.18300000
_cell_angle_alpha   90.00000000
_cell_angle_beta   90.00000000
_cell_angle_gamma   90.00000000
_symmetry_Int_Tables_number   1
_chemical_formula_structural   FeH13C20N2O5
_chemical_formula_sum   'Fe8 H104 C160 N16 O40'
_cell_volume   3768.63914796
_cell_formula_units_Z   8
loop_
 _symmetry_equiv_pos_site_id
 _symmetry_equiv_pos_as_xyz
  1  'x, y, z'
loop_
 _atom_site_type_symbol
 _atom_site_label
 _atom_site_symmetry_multiplicity
 _atom_site_fract_x
 _atom_site_fract_y
 _atom_site_fract_z
 _atom_site_occupancy
 _atom_site_charge
  Fe  Fe1  1  0.193640  0.617140  0.285200  1.0  1.0341
  Fe  Fe2  1  0.306360  0.382860  0.285200  1.0  1.0334
  Fe  Fe3  1  0.806360  0.617140  0.214800  1.0  1.0338
  Fe  Fe4  1  0.693640  0.382860  0.214800  1.0  1.0346
  Fe  Fe5  1  0.806360  0.382860  0.714800  1.0  1.0348
  Fe  Fe6  1  0.693640  0.617140  0.714800  1.0  1.0339
  Fe  Fe7  1  0.193640  0.382860  0.785200  1.0  1.0346
  Fe  Fe8  1  0.306360  0.617140  0.785200  1.0  1.0339
  H  H9  1  0.398500  0.632500  0.155000  1.0  0.0844
  H  H10  1  0.478500  0.629800  0.082000  1.0  0.1212
  H  H11  1  0.081700  0.725800  0.043000  1.0  0.1152
  H  H12  1  0.003300  0.730100  0.115800  1.0  0.1008
  H  H13  1  0.319600  0.638500  0.929000  1.0  0.103
  H  H14  1  0.338500  0.839100  0.251900  1.0  0.1018
  H  H15  1  0.431900  0.959200  0.304200  1.0  0.1319
  H  H16  1  0.311900  0.727200  0.369300  1.0  0.0934
  H  H17  1  0.275700  0.820300  0.429600  1.0  0.1044
  H  H18  1  0.336000  0.880300  0.497800  1.0  0.1116
  H  H19  1  0.615600  0.062200  0.441800  1.0  0.1108
  H  H20  1  0.558800  0.000800  0.373200  1.0  0.1156
  H  H21  1  0.101500  0.367500  0.155000  1.0  0.0842
  H  H22  1  0.021500  0.370200  0.082000  1.0  0.1209
  H  H23  1  0.418300  0.274200  0.043000  1.0  0.1151
  H  H24  1  0.496700  0.269900  0.115800  1.0  0.1017
  H  H25  1  0.180400  0.361500  0.929000  1.0  0.1028
  H  H26  1  0.161500  0.160900  0.251900  1.0  0.1015
  H  H27  1  0.068100  0.040800  0.304200  1.0  0.1306
  H  H28  1  0.188100  0.272800  0.369300  1.0  0.0933
  H  H29  1  0.224300  0.179700  0.429600  1.0  0.1044
  H  H30  1  0.164000  0.119700  0.497800  1.0  0.115
  H  H31  1  0.884400  0.937800  0.441800  1.0  0.1105
  H  H32  1  0.941200  0.999200  0.373200  1.0  0.1149
  H  H33  1  0.601500  0.632500  0.345000  1.0  0.0844
  H  H34  1  0.521500  0.629800  0.418000  1.0  0.1163
  H  H35  1  0.918300  0.725800  0.457000  1.0  0.1152
  H  H36  1  0.996700  0.730100  0.384200  1.0  0.101
  H  H37  1  0.680400  0.638500  0.571000  1.0  0.103
  H  H38  1  0.661500  0.839100  0.248100  1.0  0.1018
  H  H39  1  0.568100  0.959200  0.195800  1.0  0.132
  H  H40  1  0.688100  0.727200  0.130700  1.0  0.0933
  H  H41  1  0.724300  0.820300  0.070400  1.0  0.1047
  H  H42  1  0.664000  0.880300  0.002200  1.0  0.1117
  H  H43  1  0.384400  0.062200  0.058200  1.0  0.1112
  H  H44  1  0.441200  0.000800  0.126800  1.0  0.1152
  H  H45  1  0.898500  0.367500  0.345000  1.0  0.0847
  H  H46  1  0.978500  0.370200  0.418000  1.0  0.1212
  H  H47  1  0.581700  0.274200  0.457000  1.0  0.1154
  H  H48  1  0.503300  0.269900  0.384200  1.0  0.1007
  H  H49  1  0.819600  0.361500  0.571000  1.0  0.103
  H  H50  1  0.838500  0.160900  0.248100  1.0  0.1017
  H  H51  1  0.931900  0.040800  0.195800  1.0  0.1319
  H  H52  1  0.811900  0.272800  0.130700  1.0  0.0934
  H  H53  1  0.775700  0.179700  0.070400  1.0  0.1044
  H  H54  1  0.836000  0.119700  0.002200  1.0  0.1108
  H  H55  1  0.115600  0.937800  0.058200  1.0  0.1104
  H  H56  1  0.058800  0.999200  0.126800  1.0  0.115
  H  H57  1  0.601500  0.367500  0.845000  1.0  0.0845
  H  H58  1  0.521500  0.370200  0.918000  1.0  0.1183
  H  H59  1  0.918300  0.274200  0.957000  1.0  0.1155
  H  H60  1  0.996700  0.269900  0.884200  1.0  0.1011
  H  H61  1  0.680400  0.361500  0.071000  1.0  0.103
  H  H62  1  0.661500  0.160900  0.748100  1.0  0.1015
  H  H63  1  0.568100  0.040800  0.695800  1.0  0.1315
  H  H64  1  0.688100  0.272800  0.630700  1.0  0.0933
  H  H65  1  0.724300  0.179700  0.570400  1.0  0.1045
  H  H66  1  0.664000  0.119700  0.502200  1.0  0.1121
  H  H67  1  0.384400  0.937800  0.558200  1.0  0.1107
  H  H68  1  0.441200  0.999200  0.626800  1.0  0.1149
  H  H69  1  0.898500  0.632500  0.845000  1.0  0.0847
  H  H70  1  0.978500  0.629800  0.918000  1.0  0.1211
  H  H71  1  0.581700  0.725800  0.957000  1.0  0.1151
  H  H72  1  0.503300  0.730100  0.884200  1.0  0.1008
  H  H73  1  0.819600  0.638500  0.071000  1.0  0.103
  H  H74  1  0.838500  0.839100  0.748100  1.0  0.102
  H  H75  1  0.931900  0.959200  0.695800  1.0  0.1318
  H  H76  1  0.811900  0.727200  0.630700  1.0  0.0934
  H  H77  1  0.775700  0.820300  0.570400  1.0  0.1043
  H  H78  1  0.836000  0.880300  0.502200  1.0  0.1095
  H  H79  1  0.115600  0.062200  0.558200  1.0  0.1105
  H  H80  1  0.058800  0.000800  0.626800  1.0  0.1154
  H  H81  1  0.398500  0.367500  0.655000  1.0  0.0843
  H  H82  1  0.478500  0.370200  0.582000  1.0  0.1211
  H  H83  1  0.081700  0.274200  0.543000  1.0  0.1151
  H  H84  1  0.003300  0.269900  0.615800  1.0  0.1012
  H  H85  1  0.319600  0.361500  0.429000  1.0  0.1029
  H  H86  1  0.338500  0.160900  0.751900  1.0  0.1016
  H  H87  1  0.431900  0.040800  0.804200  1.0  0.1313
  H  H88  1  0.311900  0.272800  0.869300  1.0  0.0933
  H  H89  1  0.275700  0.179700  0.929600  1.0  0.1042
  H  H90  1  0.336000  0.119700  0.997800  1.0  0.1121
  H  H91  1  0.615600  0.937800  0.941800  1.0  0.1104
  H  H92  1  0.558800  0.999200  0.873200  1.0  0.1154
  H  H93  1  0.101500  0.632500  0.655000  1.0  0.0842
  H  H94  1  0.021500  0.629800  0.582000  1.0  0.1205
  H  H95  1  0.418300  0.725800  0.543000  1.0  0.1152
  H  H96  1  0.496700  0.730100  0.615800  1.0  0.1011
  H  H97  1  0.180400  0.638500  0.429000  1.0  0.1031
  H  H98  1  0.161500  0.839100  0.751900  1.0  0.1016
  H  H99  1  0.068100  0.959200  0.804200  1.0  0.1318
  H  H100  1  0.188100  0.727200  0.869300  1.0  0.0933
  H  H101  1  0.224300  0.820300  0.929600  1.0  0.1048
  H  H102  1  0.164000  0.880300  0.997800  1.0  0.1143
  H  H103  1  0.884400  0.062200  0.941800  1.0  0.1112
  H  H104  1  0.941200  0.000800  0.873200  1.0  0.1152
  H  H105  1  0.000000  0.368500  0.250000  1.0  0.0395
  H  H106  1  0.500000  0.631500  0.250000  1.0  0.0399
  H  H107  1  0.000000  0.631500  0.750000  1.0  0.0399
  H  H108  1  0.500000  0.368500  0.750000  1.0  0.0395
  H  H109  1  0.250000  0.500000  0.044300  1.0  0.108
  H  H110  1  0.750000  0.500000  0.455700  1.0  0.1084
  H  H111  1  0.750000  0.500000  0.955700  1.0  0.1084
  H  H112  1  0.250000  0.500000  0.544300  1.0  0.108
  C  C113  1  0.133300  0.673900  0.189960  1.0  0.6923
  C  C114  1  0.192000  0.678800  0.143170  1.0  -0.1431
  C  C115  1  0.333700  0.650600  0.132480  1.0  0.0313
  C  C116  1  0.382200  0.648500  0.088850  1.0  -0.1909
  C  C117  1  0.284300  0.674900  0.055670  1.0  0.2279
  C  C118  1  0.145200  0.706100  0.065540  1.0  -0.1717
  C  C119  1  0.098400  0.708500  0.109120  1.0  -0.0217
  C  C120  1  0.288800  0.582600  0.989680  1.0  0.237
  C  C121  1  0.291000  0.583100  0.944190  1.0  -0.1613
  C  C122  1  0.346200  0.830700  0.282360  1.0  0.0317
  C  C123  1  0.395800  0.898200  0.311190  1.0  -0.1506
  C  C124  1  0.330800  0.770000  0.346220  1.0  0.1714
  C  C125  1  0.416600  0.901200  0.394730  1.0  0.1377
  C  C126  1  0.347300  0.868300  0.431910  1.0  -0.159
  C  C127  1  0.382000  0.905500  0.472750  1.0  -0.1132
  C  C128  1  0.484000  0.979400  0.477610  1.0  0.0545
  C  C129  1  0.547000  0.012300  0.439870  1.0  -0.1115
  C  C130  1  0.514200  0.975200  0.398360  1.0  -0.1666
  C  C131  1  0.366700  0.326100  0.189960  1.0  0.6942
  C  C132  1  0.308000  0.321200  0.143170  1.0  -0.1431
  C  C133  1  0.166300  0.349400  0.132480  1.0  0.0327
  C  C134  1  0.117800  0.351500  0.088850  1.0  -0.1908
  C  C135  1  0.215700  0.325100  0.055670  1.0  0.2273
  C  C136  1  0.354800  0.293900  0.065540  1.0  -0.1682
  C  C137  1  0.401600  0.291500  0.109120  1.0  -0.022
  C  C138  1  0.211200  0.417400  0.989680  1.0  0.2284
  C  C139  1  0.209000  0.416900  0.944190  1.0  -0.1612
  C  C140  1  0.153800  0.169300  0.282360  1.0  0.0312
  C  C141  1  0.104200  0.101800  0.311190  1.0  -0.152
  C  C142  1  0.169200  0.230000  0.346220  1.0  0.1721
  C  C143  1  0.083400  0.098800  0.394730  1.0  0.126
  C  C144  1  0.152700  0.131700  0.431910  1.0  -0.159
  C  C145  1  0.118000  0.094500  0.472750  1.0  -0.1097
  C  C146  1  0.016000  0.020600  0.477610  1.0  0.0544
  C  C147  1  0.953000  0.987700  0.439870  1.0  -0.111
  C  C148  1  0.985800  0.024800  0.398360  1.0  -0.1657
  C  C149  1  0.866700  0.673900  0.310040  1.0  0.6941
  C  C150  1  0.808000  0.678800  0.356830  1.0  -0.1441
  C  C151  1  0.666300  0.650600  0.367520  1.0  0.0328
  C  C152  1  0.617800  0.648500  0.411150  1.0  -0.1903
  C  C153  1  0.715700  0.674900  0.444330  1.0  0.2284
  C  C154  1  0.854800  0.706100  0.434460  1.0  -0.1684
  C  C155  1  0.901600  0.708500  0.390880  1.0  -0.0231
  C  C156  1  0.711200  0.582600  0.510320  1.0  0.2286
  C  C157  1  0.709000  0.583100  0.555810  1.0  -0.1616
  C  C158  1  0.653800  0.830700  0.217640  1.0  0.0313
  C  C159  1  0.604200  0.898200  0.188810  1.0  -0.1553
  C  C160  1  0.669200  0.770000  0.153780  1.0  0.1723
  C  C161  1  0.583400  0.901200  0.105270  1.0  0.126
  C  C162  1  0.652700  0.868300  0.068090  1.0  -0.1589
  C  C163  1  0.618000  0.905500  0.027250  1.0  -0.1111
  C  C164  1  0.516000  0.979400  0.022390  1.0  0.0545
  C  C165  1  0.453000  0.012300  0.060130  1.0  -0.0987
  C  C166  1  0.485800  0.975200  0.101640  1.0  -0.1662
  C  C167  1  0.633300  0.326100  0.310040  1.0  0.6938
  C  C168  1  0.692000  0.321200  0.356830  1.0  -0.1441
  C  C169  1  0.833700  0.349400  0.367520  1.0  0.0311
  C  C170  1  0.882200  0.351500  0.411150  1.0  -0.1909
  C  C171  1  0.784300  0.325100  0.444330  1.0  0.229
  C  C172  1  0.645200  0.293900  0.434460  1.0  -0.167
  C  C173  1  0.598400  0.291500  0.390880  1.0  -0.0221
  C  C174  1  0.788800  0.417400  0.510320  1.0  0.2287
  C  C175  1  0.791000  0.416900  0.555810  1.0  -0.1608
  C  C176  1  0.846200  0.169300  0.217640  1.0  0.0316
  C  C177  1  0.895800  0.101800  0.188810  1.0  -0.1536
  C  C178  1  0.830800  0.230000  0.153780  1.0  0.171
  C  C179  1  0.916600  0.098800  0.105270  1.0  0.1383
  C  C180  1  0.847300  0.131700  0.068090  1.0  -0.1583
  C  C181  1  0.882000  0.094500  0.027250  1.0  -0.1089
  C  C182  1  0.984000  0.020600  0.022390  1.0  0.0547
  C  C183  1  0.047000  0.987700  0.060130  1.0  -0.1027
  C  C184  1  0.014200  0.024800  0.101640  1.0  -0.165
  C  C185  1  0.866700  0.326100  0.810040  1.0  0.6941
  C  C186  1  0.808000  0.321200  0.856830  1.0  -0.1441
  C  C187  1  0.666300  0.349400  0.867520  1.0  0.0326
  C  C188  1  0.617800  0.351500  0.911150  1.0  -0.1907
  C  C189  1  0.715700  0.325100  0.944330  1.0  0.2288
  C  C190  1  0.854800  0.293900  0.934460  1.0  -0.1685
  C  C191  1  0.901600  0.291500  0.890880  1.0  -0.023
  C  C192  1  0.711200  0.417400  0.010320  1.0  0.2238
  C  C193  1  0.709000  0.416900  0.055810  1.0  -0.1613
  C  C194  1  0.653800  0.169300  0.717640  1.0  0.0338
  C  C195  1  0.604200  0.101800  0.688810  1.0  -0.1543
  C  C196  1  0.669200  0.230000  0.653780  1.0  0.1723
  C  C197  1  0.583400  0.098800  0.605270  1.0  0.126
  C  C198  1  0.652700  0.131700  0.568090  1.0  -0.1587
  C  C199  1  0.618000  0.094500  0.527250  1.0  -0.1094
  C  C200  1  0.516000  0.020600  0.522390  1.0  0.0546
  C  C201  1  0.453000  0.987700  0.560130  1.0  -0.1012
  C  C202  1  0.485800  0.024800  0.601640  1.0  -0.165
  C  C203  1  0.633300  0.673900  0.810040  1.0  0.694
  C  C204  1  0.692000  0.678800  0.856830  1.0  -0.144
  C  C205  1  0.833700  0.650600  0.867520  1.0  0.0315
  C  C206  1  0.882200  0.648500  0.911150  1.0  -0.1908
  C  C207  1  0.784300  0.674900  0.944330  1.0  0.2283
  C  C208  1  0.645200  0.706100  0.934460  1.0  -0.1677
  C  C209  1  0.598400  0.708500  0.890880  1.0  -0.0223
  C  C210  1  0.788800  0.582600  0.010320  1.0  0.2297
  C  C211  1  0.791000  0.583100  0.055810  1.0  -0.1611
  C  C212  1  0.846200  0.830700  0.717640  1.0  0.0304
  C  C213  1  0.895800  0.898200  0.688810  1.0  -0.1542
  C  C214  1  0.830800  0.770000  0.653780  1.0  0.1713
  C  C215  1  0.916600  0.901200  0.605270  1.0  0.1382
  C  C216  1  0.847300  0.868300  0.568090  1.0  -0.1584
  C  C217  1  0.882000  0.905500  0.527250  1.0  -0.1138
  C  C218  1  0.984000  0.979400  0.522390  1.0  0.0545
  C  C219  1  0.047000  0.012300  0.560130  1.0  -0.1001
  C  C220  1  0.014200  0.975200  0.601640  1.0  -0.1667
  C  C221  1  0.133300  0.326100  0.689960  1.0  0.6939
  C  C222  1  0.192000  0.321200  0.643170  1.0  -0.1429
  C  C223  1  0.333700  0.349400  0.632480  1.0  0.0312
  C  C224  1  0.382200  0.351500  0.588850  1.0  -0.1911
  C  C225  1  0.284300  0.325100  0.555670  1.0  0.2274
  C  C226  1  0.145200  0.293900  0.565540  1.0  -0.1711
  C  C227  1  0.098400  0.291500  0.609120  1.0  -0.0214
  C  C228  1  0.288800  0.417400  0.489680  1.0  0.236
  C  C229  1  0.291000  0.416900  0.444190  1.0  -0.1606
  C  C230  1  0.346200  0.169300  0.782360  1.0  0.0313
  C  C231  1  0.395800  0.101800  0.811190  1.0  -0.1517
  C  C232  1  0.330800  0.230000  0.846220  1.0  0.1712
  C  C233  1  0.416600  0.098800  0.894730  1.0  0.1382
  C  C234  1  0.347300  0.131700  0.931910  1.0  -0.1586
  C  C235  1  0.382000  0.094500  0.972750  1.0  -0.1084
  C  C236  1  0.484000  0.020600  0.977610  1.0  0.0546
  C  C237  1  0.547000  0.987700  0.939870  1.0  -0.1131
  C  C238  1  0.514200  0.024800  0.898360  1.0  -0.1663
  C  C239  1  0.366700  0.673900  0.689960  1.0  0.6935
  C  C240  1  0.308000  0.678800  0.643170  1.0  -0.1433
  C  C241  1  0.166300  0.650600  0.632480  1.0  0.0326
  C  C242  1  0.117800  0.648500  0.588850  1.0  -0.1905
  C  C243  1  0.215700  0.674900  0.555670  1.0  0.2279
  C  C244  1  0.354800  0.706100  0.565540  1.0  -0.1682
  C  C245  1  0.401600  0.708500  0.609120  1.0  -0.0221
  C  C246  1  0.211200  0.582600  0.489680  1.0  0.2297
  C  C247  1  0.209000  0.583100  0.444190  1.0  -0.1617
  C  C248  1  0.153800  0.830700  0.782360  1.0  0.0299
  C  C249  1  0.104200  0.898200  0.811190  1.0  -0.1509
  C  C250  1  0.169200  0.770000  0.846220  1.0  0.1724
  C  C251  1  0.083400  0.901200  0.894730  1.0  0.1257
  C  C252  1  0.152700  0.868300  0.931910  1.0  -0.1593
  C  C253  1  0.118000  0.905500  0.972750  1.0  -0.1099
  C  C254  1  0.016000  0.979400  0.977610  1.0  0.0544
  C  C255  1  0.953000  0.012300  0.939870  1.0  -0.1087
  C  C256  1  0.985800  0.975200  0.898360  1.0  -0.1657
  C  C257  1  0.000000  0.435700  0.250000  1.0  0.5046
  C  C258  1  0.500000  0.564300  0.250000  1.0  0.5045
  C  C259  1  0.000000  0.564300  0.750000  1.0  0.5045
  C  C260  1  0.500000  0.435700  0.750000  1.0  0.5046
  C  C261  1  0.250000  0.500000  0.013460  1.0  -0.1096
  C  C262  1  0.250000  0.500000  0.870910  1.0  0.6846
  C  C263  1  0.250000  0.500000  0.920780  1.0  -0.1398
  C  C264  1  0.750000  0.500000  0.486540  1.0  -0.1088
  C  C265  1  0.750000  0.500000  0.629090  1.0  0.685
  C  C266  1  0.750000  0.500000  0.579220  1.0  -0.1392
  C  C267  1  0.750000  0.500000  0.986540  1.0  -0.1088
  C  C268  1  0.750000  0.500000  0.129090  1.0  0.685
  C  C269  1  0.750000  0.500000  0.079220  1.0  -0.1392
  C  C270  1  0.250000  0.500000  0.513460  1.0  -0.1096
  C  C271  1  0.250000  0.500000  0.370910  1.0  0.6846
  C  C272  1  0.250000  0.500000  0.420780  1.0  -0.1398
  N  N273  1  0.309200  0.748900  0.304490  1.0  -0.3676
  N  N274  1  0.382600  0.859200  0.352360  1.0  0.0374
  N  N275  1  0.190800  0.251100  0.304490  1.0  -0.3667
  N  N276  1  0.117400  0.140800  0.352360  1.0  0.0375
  N  N277  1  0.690800  0.748900  0.195510  1.0  -0.3674
  N  N278  1  0.617400  0.859200  0.147640  1.0  0.0388
  N  N279  1  0.809200  0.251100  0.195510  1.0  -0.3667
  N  N280  1  0.882600  0.140800  0.147640  1.0  0.0383
  N  N281  1  0.690800  0.251100  0.695510  1.0  -0.3666
  N  N282  1  0.617400  0.140800  0.647640  1.0  0.0386
  N  N283  1  0.809200  0.748900  0.695510  1.0  -0.367
  N  N284  1  0.882600  0.859200  0.647640  1.0  0.0383
  N  N285  1  0.309200  0.251100  0.804490  1.0  -0.3664
  N  N286  1  0.382600  0.140800  0.852360  1.0  0.0373
  N  N287  1  0.190800  0.748900  0.804490  1.0  -0.3681
  N  N288  1  0.117400  0.859200  0.852360  1.0  0.0379
  O  O289  1  0.285300  0.577420  0.851940  1.0  -0.5921
  O  O290  1  0.223700  0.651000  0.219600  1.0  -0.5984
  O  O291  1  0.999400  0.692200  0.196190  1.0  -0.6357
  O  O292  1  0.330100  0.667300  0.011380  1.0  -0.2664
  O  O293  1  0.100900  0.475340  0.271820  1.0  -0.6419
  O  O294  1  0.214700  0.422580  0.851940  1.0  -0.5921
  O  O295  1  0.276300  0.349000  0.219600  1.0  -0.5981
  O  O296  1  0.500600  0.307800  0.196190  1.0  -0.6385
  O  O297  1  0.169900  0.332700  0.011380  1.0  -0.2682
  O  O298  1  0.399100  0.524660  0.271820  1.0  -0.6421
  O  O299  1  0.714700  0.577420  0.648060  1.0  -0.5923
  O  O300  1  0.776300  0.651000  0.280400  1.0  -0.5985
  O  O301  1  0.000600  0.692200  0.303810  1.0  -0.6349
  O  O302  1  0.669900  0.667300  0.488620  1.0  -0.268
  O  O303  1  0.899100  0.475340  0.228180  1.0  -0.6422
  O  O304  1  0.785300  0.422580  0.648060  1.0  -0.5914
  O  O305  1  0.723700  0.349000  0.280400  1.0  -0.5975
  O  O306  1  0.499400  0.307800  0.303810  1.0  -0.6354
  O  O307  1  0.830100  0.332700  0.488620  1.0  -0.2674
  O  O308  1  0.600900  0.524660  0.228180  1.0  -0.6417
  O  O309  1  0.714700  0.422580  0.148060  1.0  -0.5915
  O  O310  1  0.776300  0.349000  0.780400  1.0  -0.5979
  O  O311  1  0.000600  0.307800  0.803810  1.0  -0.6376
  O  O312  1  0.669900  0.332700  0.988620  1.0  -0.2688
  O  O313  1  0.899100  0.524660  0.728180  1.0  -0.6423
  O  O314  1  0.785300  0.577420  0.148060  1.0  -0.5922
  O  O315  1  0.723700  0.651000  0.780400  1.0  -0.5981
  O  O316  1  0.499400  0.692200  0.803810  1.0  -0.6341
  O  O317  1  0.830100  0.667300  0.988620  1.0  -0.2674
  O  O318  1  0.600900  0.475340  0.728180  1.0  -0.6419
  O  O319  1  0.285300  0.422580  0.351940  1.0  -0.5919
  O  O320  1  0.223700  0.349000  0.719600  1.0  -0.5976
  O  O321  1  0.999400  0.307800  0.696190  1.0  -0.6349
  O  O322  1  0.330100  0.332700  0.511380  1.0  -0.267
  O  O323  1  0.100900  0.524660  0.771820  1.0  -0.6414
  O  O324  1  0.214700  0.577420  0.351940  1.0  -0.5922
  O  O325  1  0.276300  0.651000  0.719600  1.0  -0.5988
  O  O326  1  0.500600  0.692200  0.696190  1.0  -0.6363
  O  O327  1  0.169900  0.667300  0.511380  1.0  -0.2673
  O  O328  1  0.399100  0.475340  0.771820  1.0  -0.6422
