# generated using pymatgen
data_CuH13C16NO4
_symmetry_space_group_name_H-M   'P 1'
_cell_length_a   9.86420000
_cell_length_b   24.05880000
_cell_length_c   24.05880000
_cell_angle_alpha   61.83690000
_cell_angle_beta   82.14500000
_cell_angle_gamma   97.85500000
_symmetry_Int_Tables_number   1
_chemical_formula_structural   CuH13C16NO4
_chemical_formula_sum   'Cu6 H78 C96 N6 O24'
_cell_volume   4852.35043288
_cell_formula_units_Z   6
loop_
 _symmetry_equiv_pos_site_id
 _symmetry_equiv_pos_as_xyz
  1  'x, y, z'
loop_
 _atom_site_type_symbol
 _atom_site_label
 _atom_site_symmetry_multiplicity
 _atom_site_fract_x
 _atom_site_fract_y
 _atom_site_fract_z
 _atom_site_occupancy
 _atom_site_charge
  Cu  Cu1  1  0.569310  0.040450  0.515270  1.0  0.8822
  Cu  Cu2  1  0.084580  0.515270  0.444280  1.0  0.8818
  Cu  Cu3  1  0.528860  0.444280  0.040450  1.0  0.8818
  Cu  Cu4  1  0.430690  0.959550  0.484730  1.0  0.8815
  Cu  Cu5  1  0.915420  0.484730  0.555720  1.0  0.8824
  Cu  Cu6  1  0.471140  0.555720  0.959550  1.0  0.8816
  H  H7  1  0.782900  0.884800  0.441400  1.0  0.1012
  H  H8  1  0.995100  0.857400  0.423900  1.0  0.1177
  H  H9  1  0.198100  0.025100  0.402600  1.0  0.0947
  H  H10  1  0.983800  0.047100  0.428800  1.0  0.1103
  H  H11  1  0.242600  0.888000  0.387600  1.0  0.0877
  H  H12  1  0.325500  0.956700  0.367800  1.0  0.1042
  H  H13  1  0.227000  0.864000  0.507000  1.0  0.099
  H  H14  1  0.466800  0.868900  0.421900  1.0  0.0809
  H  H15  1  0.447100  0.837100  0.496300  1.0  0.1015
  H  H16  1  0.188600  0.754400  0.553700  1.0  0.1119
  H  H17  1  0.069400  0.654900  0.566700  1.0  0.1184
  H  H18  1  0.301800  0.706500  0.390600  1.0  0.0978
  H  H19  1  0.415600  0.804100  0.378400  1.0  0.125
  H  H20  1  0.224300  0.441400  0.673800  1.0  0.1013
  H  H21  1  0.419000  0.423900  0.718700  1.0  0.1194
  H  H22  1  0.600700  0.402600  0.572300  1.0  0.094
  H  H23  1  0.412600  0.428800  0.524100  1.0  0.1113
  H  H24  1  0.630200  0.387600  0.724400  1.0  0.0881
  H  H25  1  0.693300  0.367800  0.675500  1.0  0.1033
  H  H26  1  0.734000  0.507000  0.629000  1.0  0.1004
  H  H27  1  0.888700  0.421900  0.709200  1.0  0.0819
  H  H28  1  0.943400  0.496300  0.666667  1.0  0.101
  H  H29  1  0.742300  0.553700  0.691900  1.0  0.1118
  H  H30  1  0.636100  0.566700  0.778400  1.0  0.1198
  H  H31  1  0.692400  0.390600  0.902900  1.0  0.097
  H  H32  1  0.794000  0.378400  0.817500  1.0  0.1227
  H  H33  1  0.898100  0.673800  0.884800  1.0  0.1016
  H  H34  1  0.137700  0.718700  0.857400  1.0  0.1178
  H  H35  1  0.173000  0.572300  0.025100  1.0  0.0948
  H  H36  1  0.936700  0.524100  0.047100  1.0  0.1118
  H  H37  1  0.354600  0.724400  0.888000  1.0  0.0876
  H  H38  1  0.368800  0.675500  0.956700  1.0  0.103
  H  H39  1  0.363000  0.629000  0.864000  1.0  0.0995
  H  H40  1  0.597900  0.709200  0.868900  1.0  0.0811
  H  H41  1  0.610000  0.666667  0.837100  1.0  0.1047
  H  H42  1  0.434200  0.691900  0.754400  1.0  0.113
  H  H43  1  0.414500  0.778400  0.654900  1.0  0.1185
  H  H44  1  0.595300  0.902900  0.706500  1.0  0.0985
  H  H45  1  0.611500  0.817500  0.804100  1.0  0.1249
  H  H46  1  0.217100  0.115200  0.558600  1.0  0.1017
  H  H47  1  0.004900  0.142600  0.576100  1.0  0.118
  H  H48  1  0.801900  0.974900  0.597400  1.0  0.0943
  H  H49  1  0.016200  0.952900  0.571200  1.0  0.1103
  H  H50  1  0.757400  0.112000  0.612400  1.0  0.0879
  H  H51  1  0.674500  0.043300  0.632200  1.0  0.1047
  H  H52  1  0.773000  0.136000  0.493000  1.0  0.0986
  H  H53  1  0.533200  0.131100  0.578100  1.0  0.0814
  H  H54  1  0.552900  0.162900  0.503700  1.0  0.1013
  H  H55  1  0.811400  0.245600  0.446300  1.0  0.1115
  H  H56  1  0.930600  0.345100  0.433300  1.0  0.1181
  H  H57  1  0.698200  0.293500  0.609400  1.0  0.0983
  H  H58  1  0.584400  0.195900  0.621600  1.0  0.1256
  H  H59  1  0.775700  0.558600  0.326200  1.0  0.1005
  H  H60  1  0.581000  0.576100  0.281300  1.0  0.1196
  H  H61  1  0.399300  0.597400  0.427700  1.0  0.0943
  H  H62  1  0.587400  0.571200  0.475900  1.0  0.1112
  H  H63  1  0.369800  0.612400  0.275600  1.0  0.0882
  H  H64  1  0.306700  0.632200  0.324500  1.0  0.1024
  H  H65  1  0.266000  0.493000  0.371000  1.0  0.0983
  H  H66  1  0.111300  0.578100  0.290800  1.0  0.0818
  H  H67  1  0.056600  0.503700  0.333400  1.0  0.1019
  H  H68  1  0.257700  0.446300  0.308100  1.0  0.112
  H  H69  1  0.363900  0.433300  0.221600  1.0  0.1191
  H  H70  1  0.307600  0.609400  0.097100  1.0  0.0976
  H  H71  1  0.206000  0.621600  0.182500  1.0  0.123
  H  H72  1  0.101900  0.326200  0.115200  1.0  0.1009
  H  H73  1  0.862300  0.281300  0.142600  1.0  0.1179
  H  H74  1  0.827000  0.427700  0.974900  1.0  0.0944
  H  H75  1  0.063300  0.475900  0.952900  1.0  0.1109
  H  H76  1  0.645400  0.275600  0.112000  1.0  0.0871
  H  H77  1  0.631200  0.324500  0.043300  1.0  0.1038
  H  H78  1  0.637000  0.371000  0.136000  1.0  0.0998
  H  H79  1  0.402100  0.290800  0.131100  1.0  0.0822
  H  H80  1  0.390000  0.333400  0.162900  1.0  0.102
  H  H81  1  0.565800  0.308100  0.245600  1.0  0.113
  H  H82  1  0.585500  0.221600  0.345100  1.0  0.1186
  H  H83  1  0.404700  0.097100  0.293500  1.0  0.0993
  H  H84  1  0.388500  0.182500  0.195900  1.0  0.1245
  C  C85  1  0.726600  0.981600  0.457200  1.0  0.6727
  C  C86  1  0.864000  0.967500  0.438900  1.0  -0.1159
  C  C87  1  0.868800  0.912200  0.436100  1.0  -0.074
  C  C88  1  0.995200  0.897500  0.422600  1.0  -0.1114
  C  C89  1  0.119300  0.938200  0.412000  1.0  0.0853
  C  C90  1  0.113800  0.994600  0.412300  1.0  -0.1476
  C  C91  1  0.985800  0.008800  0.426500  1.0  -0.0711
  C  C92  1  0.257200  0.919600  0.400600  1.0  -0.0895
  C  C93  1  0.399800  0.847000  0.462100  1.0  -0.0564
  C  C94  1  0.318900  0.785300  0.467000  1.0  0.0571
  C  C95  1  0.215500  0.743600  0.521300  1.0  -0.154
  C  C96  1  0.138700  0.684600  0.528300  1.0  -0.1232
  C  C97  1  0.173100  0.672300  0.478500  1.0  -0.1137
  C  C98  1  0.275400  0.716400  0.423900  1.0  -0.0536
  C  C99  1  0.348900  0.773500  0.417400  1.0  -0.1948
  C  C100  1  0.102500  0.609100  0.485500  1.0  0.6917
  C  C101  1  0.183800  0.457200  0.561200  1.0  0.6715
  C  C102  1  0.302900  0.438900  0.593600  1.0  -0.1173
  C  C103  1  0.304900  0.436100  0.651700  1.0  -0.0721
  C  C104  1  0.417800  0.422600  0.679900  1.0  -0.1109
  C  C105  1  0.531300  0.412000  0.649800  1.0  0.0842
  C  C106  1  0.526100  0.412300  0.593100  1.0  -0.1485
  C  C107  1  0.412300  0.426500  0.564700  1.0  -0.0786
  C  C108  1  0.657800  0.400600  0.679800  1.0  -0.0862
  C  C109  1  0.861900  0.462100  0.690900  1.0  -0.0577
  C  C110  1  0.785900  0.467000  0.747700  1.0  0.0596
  C  C111  1  0.736800  0.521300  0.735100  1.0  -0.1502
  C  C112  1  0.667000  0.528300  0.787100  1.0  -0.1201
  C  C113  1  0.651600  0.478500  0.849200  1.0  -0.1137
  C  C114  1  0.699300  0.423900  0.859700  1.0  -0.057
  C  C115  1  0.766300  0.417400  0.809100  1.0  -0.1984
  C  C116  1  0.588000  0.485500  0.905400  1.0  0.6927
  C  C117  1  0.745000  0.561200  0.981600  1.0  0.673
  C  C118  1  0.896500  0.593600  0.967500  1.0  -0.1164
  C  C119  1  0.956600  0.651700  0.912200  1.0  -0.0704
  C  C120  1  0.097700  0.679900  0.897500  1.0  -0.109
  C  C121  1  0.181100  0.649800  0.938200  1.0  0.0855
  C  C122  1  0.119200  0.593100  0.994600  1.0  -0.1465
  C  C123  1  0.977000  0.564700  0.008800  1.0  -0.0755
  C  C124  1  0.337600  0.679800  0.919600  1.0  -0.0922
  C  C125  1  0.552800  0.690900  0.847000  1.0  -0.0515
  C  C126  1  0.533600  0.747700  0.785300  1.0  0.0596
  C  C127  1  0.471900  0.735100  0.743600  1.0  -0.1446
  C  C128  1  0.454100  0.787100  0.684600  1.0  -0.1204
  C  C129  1  0.500800  0.849200  0.672300  1.0  -0.1138
  C  C130  1  0.559000  0.859700  0.716400  1.0  -0.0545
  C  C131  1  0.575400  0.809100  0.773500  1.0  -0.1986
  C  C132  1  0.493400  0.905400  0.609100  1.0  0.6915
  C  C133  1  0.273400  0.018400  0.542800  1.0  0.6719
  C  C134  1  0.136000  0.032500  0.561100  1.0  -0.1146
  C  C135  1  0.131200  0.087800  0.563900  1.0  -0.0702
  C  C136  1  0.004800  0.102500  0.577400  1.0  -0.1114
  C  C137  1  0.880700  0.061800  0.588000  1.0  0.0855
  C  C138  1  0.886200  0.005400  0.587700  1.0  -0.1473
  C  C139  1  0.014200  0.991200  0.573500  1.0  -0.0742
  C  C140  1  0.742800  0.080400  0.599400  1.0  -0.0904
  C  C141  1  0.600200  0.153000  0.537900  1.0  -0.0592
  C  C142  1  0.681100  0.214700  0.533000  1.0  0.0571
  C  C143  1  0.784500  0.256400  0.478700  1.0  -0.1523
  C  C144  1  0.861300  0.315400  0.471700  1.0  -0.1216
  C  C145  1  0.826900  0.327700  0.521500  1.0  -0.115
  C  C146  1  0.724600  0.283600  0.576100  1.0  -0.0527
  C  C147  1  0.651100  0.226500  0.582600  1.0  -0.1971
  C  C148  1  0.897500  0.390900  0.514500  1.0  0.6926
  C  C149  1  0.816200  0.542800  0.438800  1.0  0.6726
  C  C150  1  0.697100  0.561100  0.406400  1.0  -0.1173
  C  C151  1  0.695100  0.563900  0.348300  1.0  -0.0713
  C  C152  1  0.582200  0.577400  0.320100  1.0  -0.1118
  C  C153  1  0.468700  0.588000  0.350200  1.0  0.0827
  C  C154  1  0.473900  0.587700  0.406900  1.0  -0.148
  C  C155  1  0.587700  0.573500  0.435300  1.0  -0.0783
  C  C156  1  0.342200  0.599400  0.320200  1.0  -0.0854
  C  C157  1  0.138100  0.537900  0.309100  1.0  -0.0598
  C  C158  1  0.214100  0.533000  0.252300  1.0  0.0581
  C  C159  1  0.263200  0.478700  0.264900  1.0  -0.1529
  C  C160  1  0.333000  0.471700  0.212900  1.0  -0.1213
  C  C161  1  0.348400  0.521500  0.150800  1.0  -0.115
  C  C162  1  0.300700  0.576100  0.140300  1.0  -0.056
  C  C163  1  0.233700  0.582600  0.190900  1.0  -0.1989
  C  C164  1  0.412000  0.514500  0.094600  1.0  0.6929
  C  C165  1  0.255000  0.438800  0.018400  1.0  0.6741
  C  C166  1  0.103500  0.406400  0.032500  1.0  -0.1162
  C  C167  1  0.043400  0.348300  0.087800  1.0  -0.07
  C  C168  1  0.902300  0.320100  0.102500  1.0  -0.1116
  C  C169  1  0.818900  0.350200  0.061800  1.0  0.0845
  C  C170  1  0.880800  0.406900  0.005400  1.0  -0.145
  C  C171  1  0.023000  0.435300  0.991200  1.0  -0.0757
  C  C172  1  0.662400  0.320200  0.080400  1.0  -0.0897
  C  C173  1  0.447200  0.309100  0.153000  1.0  -0.0576
  C  C174  1  0.466400  0.252300  0.214700  1.0  0.0578
  C  C175  1  0.528100  0.264900  0.256400  1.0  -0.145
  C  C176  1  0.545900  0.212900  0.315400  1.0  -0.1215
  C  C177  1  0.499200  0.150800  0.327700  1.0  -0.1139
  C  C178  1  0.441000  0.140300  0.283600  1.0  -0.0538
  C  C179  1  0.424600  0.190900  0.226500  1.0  -0.2008
  C  C180  1  0.506600  0.094600  0.390900  1.0  0.6936
  N  N181  1  0.309900  0.891700  0.461500  1.0  -0.1124
  N  N182  1  0.771400  0.461500  0.646800  1.0  -0.1145
  N  N183  1  0.418200  0.646800  0.891700  1.0  -0.1139
  N  N184  1  0.690100  0.108300  0.538500  1.0  -0.1128
  N  N185  1  0.228600  0.538500  0.353200  1.0  -0.1145
  N  N186  1  0.581800  0.353200  0.108300  1.0  -0.1147
  O  O187  1  0.731300  0.022100  0.476400  1.0  -0.5736
  O  O188  1  0.617300  0.951200  0.453500  1.0  -0.5879
  O  O189  1  0.009200  0.571500  0.537000  1.0  -0.5827
  O  O190  1  0.144900  0.597300  0.442200  1.0  -0.5819
  O  O191  1  0.207700  0.476400  0.501500  1.0  -0.5746
  O  O192  1  0.070800  0.453500  0.595300  1.0  -0.5857
  O  O193  1  0.546200  0.537000  0.891500  1.0  -0.5812
  O  O194  1  0.587100  0.442200  0.960500  1.0  -0.5812
  O  O195  1  0.709200  0.501500  0.022100  1.0  -0.5744
  O  O196  1  0.666100  0.595300  0.951200  1.0  -0.5838
  O  O197  1  0.437700  0.891500  0.571500  1.0  -0.5837
  O  O198  1  0.547600  0.960500  0.597300  1.0  -0.5806
  O  O199  1  0.268700  0.977900  0.523600  1.0  -0.5734
  O  O200  1  0.382700  0.048800  0.546500  1.0  -0.5873
  O  O201  1  0.990800  0.428500  0.463000  1.0  -0.581
  O  O202  1  0.855100  0.402700  0.557800  1.0  -0.5836
  O  O203  1  0.792300  0.523600  0.498500  1.0  -0.5743
  O  O204  1  0.929200  0.546500  0.404700  1.0  -0.5854
  O  O205  1  0.453800  0.463000  0.108500  1.0  -0.5814
  O  O206  1  0.412900  0.557800  0.039500  1.0  -0.5804
  O  O207  1  0.290800  0.498500  0.977900  1.0  -0.5739
  O  O208  1  0.333900  0.404700  0.048800  1.0  -0.5853
  O  O209  1  0.562300  0.108500  0.428500  1.0  -0.5817
  O  O210  1  0.452400  0.039500  0.402700  1.0  -0.5799
