# generated using pymatgen
data_Cd2H25C32(N2O3)2
_symmetry_space_group_name_H-M   'P 1'
_cell_length_a   14.50000000
_cell_length_b   18.57700000
_cell_length_c   15.39400000
_cell_angle_alpha   90.00000000
_cell_angle_beta   103.97000000
_cell_angle_gamma   90.00000000
_symmetry_Int_Tables_number   1
_chemical_formula_structural   Cd2H25C32(N2O3)2
_chemical_formula_sum   'Cd8 H100 C128 N16 O24'
_cell_volume   4023.98003264
_cell_formula_units_Z   4
loop_
 _symmetry_equiv_pos_site_id
 _symmetry_equiv_pos_as_xyz
  1  'x, y, z'
loop_
 _atom_site_type_symbol
 _atom_site_label
 _atom_site_symmetry_multiplicity
 _atom_site_fract_x
 _atom_site_fract_y
 _atom_site_fract_z
 _atom_site_occupancy
 _atom_site_charge
  Cd  Cd1  1  0.611460  0.209230  0.116510  1.0  0.5279
  Cd  Cd2  1  0.413010  0.306000  0.327150  1.0  0.8535
  Cd  Cd3  1  0.111460  0.709230  0.116510  1.0  0.5279
  Cd  Cd4  1  0.913010  0.806000  0.327150  1.0  0.8535
  Cd  Cd5  1  0.611460  0.790770  0.616510  1.0  0.5281
  Cd  Cd6  1  0.413010  0.694000  0.827150  1.0  0.8526
  Cd  Cd7  1  0.111460  0.290770  0.616510  1.0  0.5281
  Cd  Cd8  1  0.913010  0.194000  0.827150  1.0  0.8526
  H  H9  1  0.176500  0.194500  0.051600  1.0  0.1136
  H  H10  1  0.260200  0.205400  0.136500  1.0  0.1266
  H  H11  1  0.281700  0.182100  0.045500  1.0  0.103
  H  H12  1  0.084000  0.483500  0.918200  1.0  0.127
  H  H13  1  0.026200  0.433200  0.967500  1.0  0.1374
  H  H14  1  0.043000  0.410400  0.874500  1.0  0.127
  H  H15  1  0.415200  0.492500  0.047300  1.0  0.1231
  H  H16  1  0.472600  0.421900  0.041400  1.0  0.1251
  H  H17  1  0.451000  0.444600  0.132500  1.0  0.1269
  H  H18  1  0.613800  0.383900  0.090700  1.0  0.0776
  H  H19  1  0.710500  0.480700  0.084800  1.0  0.1078
  H  H20  1  0.925200  0.346400  0.104600  1.0  0.1046
  H  H21  1  0.828700  0.253200  0.109700  1.0  0.0831
  H  H22  1  0.814500  0.545900  0.997100  1.0  0.1062
  H  H23  1  0.918500  0.640200  0.004800  1.0  0.0839
  H  H24  1  0.099700  0.550700  0.201900  1.0  0.091
  H  H25  1  0.005700  0.449800  0.193600  1.0  0.1157
  H  H26  1  0.392200  0.135700  0.276500  1.0  0.0729
  H  H27  1  0.306300  0.036200  0.271600  1.0  0.1202
  H  H28  1  0.130000  0.154000  0.384600  1.0  0.1063
  H  H29  1  0.224400  0.250800  0.386200  1.0  0.1059
  H  H30  1  0.231800  0.941100  0.316400  1.0  0.1128
  H  H31  1  0.129400  0.847000  0.314900  1.0  0.0956
  H  H32  1  0.923900  0.977400  0.329100  1.0  0.0799
  H  H33  1  0.021200  0.074700  0.333900  1.0  0.1095
  H  H34  1  0.676500  0.694500  0.051600  1.0  0.1136
  H  H35  1  0.760200  0.705400  0.136500  1.0  0.1266
  H  H36  1  0.781700  0.682100  0.045500  1.0  0.103
  H  H37  1  0.584000  0.983500  0.918200  1.0  0.127
  H  H38  1  0.526200  0.933200  0.967500  1.0  0.1374
  H  H39  1  0.543000  0.910400  0.874500  1.0  0.127
  H  H40  1  0.915200  0.992500  0.047300  1.0  0.1231
  H  H41  1  0.972600  0.921900  0.041400  1.0  0.1251
  H  H42  1  0.951000  0.944600  0.132500  1.0  0.1269
  H  H43  1  0.113800  0.883900  0.090700  1.0  0.0776
  H  H44  1  0.210500  0.980700  0.084800  1.0  0.1078
  H  H45  1  0.425200  0.846400  0.104600  1.0  0.1046
  H  H46  1  0.328700  0.753200  0.109700  1.0  0.0831
  H  H47  1  0.314500  0.045900  0.997100  1.0  0.1062
  H  H48  1  0.418500  0.140200  0.004800  1.0  0.0844
  H  H49  1  0.599700  0.050700  0.201900  1.0  0.091
  H  H50  1  0.505700  0.949800  0.193600  1.0  0.1157
  H  H51  1  0.892200  0.635700  0.276500  1.0  0.0729
  H  H52  1  0.806300  0.536200  0.271600  1.0  0.1202
  H  H53  1  0.630000  0.654000  0.384600  1.0  0.1063
  H  H54  1  0.724400  0.750800  0.386200  1.0  0.1059
  H  H55  1  0.731800  0.441100  0.316400  1.0  0.1128
  H  H56  1  0.629400  0.347000  0.314900  1.0  0.0956
  H  H57  1  0.423900  0.477400  0.329100  1.0  0.0799
  H  H58  1  0.521200  0.574700  0.333900  1.0  0.1095
  H  H59  1  0.176500  0.805500  0.551600  1.0  0.1128
  H  H60  1  0.260200  0.794600  0.636500  1.0  0.1264
  H  H61  1  0.281700  0.817900  0.545500  1.0  0.1038
  H  H62  1  0.084000  0.516500  0.418200  1.0  0.1273
  H  H63  1  0.026200  0.566800  0.467500  1.0  0.1372
  H  H64  1  0.043000  0.589600  0.374500  1.0  0.1273
  H  H65  1  0.415200  0.507500  0.547300  1.0  0.1227
  H  H66  1  0.472600  0.578100  0.541400  1.0  0.125
  H  H67  1  0.451000  0.555400  0.632500  1.0  0.1273
  H  H68  1  0.613800  0.616100  0.590700  1.0  0.0777
  H  H69  1  0.710500  0.519300  0.584800  1.0  0.1074
  H  H70  1  0.925200  0.653600  0.604600  1.0  0.1036
  H  H71  1  0.828700  0.746800  0.609700  1.0  0.0835
  H  H72  1  0.814500  0.454100  0.497100  1.0  0.106
  H  H73  1  0.918500  0.359800  0.504800  1.0  0.0846
  H  H74  1  0.099700  0.449300  0.701900  1.0  0.091
  H  H75  1  0.005700  0.550200  0.693600  1.0  0.1156
  H  H76  1  0.392200  0.864300  0.776500  1.0  0.0726
  H  H77  1  0.306300  0.963800  0.771600  1.0  0.1226
  H  H78  1  0.130000  0.846000  0.884600  1.0  0.1056
  H  H79  1  0.224400  0.749200  0.886200  1.0  0.1055
  H  H80  1  0.231800  0.058900  0.816400  1.0  0.1135
  H  H81  1  0.129400  0.153000  0.814900  1.0  0.0955
  H  H82  1  0.923900  0.022600  0.829100  1.0  0.0799
  H  H83  1  0.021200  0.925300  0.833900  1.0  0.108
  H  H84  1  0.676500  0.305500  0.551600  1.0  0.1128
  H  H85  1  0.760200  0.294600  0.636500  1.0  0.1264
  H  H86  1  0.781700  0.317900  0.545500  1.0  0.1038
  H  H87  1  0.584000  0.016500  0.418200  1.0  0.1273
  H  H88  1  0.526200  0.066800  0.467500  1.0  0.1372
  H  H89  1  0.543000  0.089600  0.374500  1.0  0.1273
  H  H90  1  0.915200  0.007500  0.547300  1.0  0.1227
  H  H91  1  0.972600  0.078100  0.541400  1.0  0.125
  H  H92  1  0.951000  0.055400  0.632500  1.0  0.1273
  H  H93  1  0.113800  0.116100  0.590700  1.0  0.0777
  H  H94  1  0.210500  0.019300  0.584800  1.0  0.1074
  H  H95  1  0.425200  0.153600  0.604600  1.0  0.1036
  H  H96  1  0.328700  0.246800  0.609700  1.0  0.0835
  H  H97  1  0.314500  0.954100  0.497100  1.0  0.106
  H  H98  1  0.418500  0.859800  0.504800  1.0  0.0846
  H  H99  1  0.599700  0.949300  0.701900  1.0  0.091
  H  H100  1  0.505700  0.050200  0.693600  1.0  0.1156
  H  H101  1  0.892200  0.364300  0.776500  1.0  0.0726
  H  H102  1  0.806300  0.463800  0.771600  1.0  0.1226
  H  H103  1  0.630000  0.346000  0.884600  1.0  0.1056
  H  H104  1  0.724400  0.249200  0.886200  1.0  0.1055
  H  H105  1  0.731800  0.558900  0.816400  1.0  0.1135
  H  H106  1  0.629400  0.653000  0.814900  1.0  0.0955
  H  H107  1  0.423900  0.522600  0.829100  1.0  0.0799
  H  H108  1  0.521200  0.425300  0.833900  1.0  0.108
  C  C109  1  0.426100  0.290900  0.112900  1.0  0.688
  C  C110  1  0.331200  0.329000  0.068600  1.0  -0.051
  C  C111  1  0.248200  0.290200  0.047500  1.0  0.0637
  C  C112  1  0.240900  0.210600  0.072600  1.0  -0.373
  C  C113  1  0.161300  0.324700  0.001600  1.0  -0.1492
  C  C114  1  0.067000  0.281700  0.975800  1.0  0.6598
  C  C115  1  0.161000  0.396800  0.976600  1.0  0.0589
  C  C116  1  0.070300  0.434400  0.929900  1.0  -0.3865
  C  C117  1  0.247600  0.434000  0.996800  1.0  -0.1615
  C  C118  1  0.254800  0.508100  0.957800  1.0  0.6778
  C  C119  1  0.333200  0.400900  0.044700  1.0  0.0671
  C  C120  1  0.426800  0.444000  0.068700  1.0  -0.3723
  C  C121  1  0.678100  0.376100  0.095000  1.0  0.1472
  C  C122  1  0.736100  0.434500  0.091100  1.0  -0.1576
  C  C123  1  0.830000  0.424900  0.096400  1.0  0.1059
  C  C124  1  0.861600  0.355300  0.102700  1.0  -0.1943
  C  C125  1  0.803900  0.299600  0.106200  1.0  0.1405
  C  C126  1  0.893800  0.486900  0.097400  1.0  0.1049
  C  C127  1  0.872000  0.545100  0.040000  1.0  -0.2048
  C  C128  1  0.934700  0.602500  0.045400  1.0  0.1591
  C  C129  1  0.041400  0.549200  0.160200  1.0  0.1636
  C  C130  1  0.984200  0.488900  0.156700  1.0  -0.1781
  C  C131  1  0.337900  0.139300  0.298400  1.0  0.1765
  C  C132  1  0.287500  0.078800  0.294100  1.0  -0.1568
  C  C133  1  0.201000  0.083200  0.326900  1.0  0.0236
  C  C134  1  0.183300  0.149400  0.361400  1.0  -0.1031
  C  C135  1  0.239700  0.207500  0.362800  1.0  0.1291
  C  C136  1  0.139700  0.020600  0.324200  1.0  0.0752
  C  C137  1  0.169600  0.950400  0.319400  1.0  -0.1922
  C  C138  1  0.107300  0.893600  0.319000  1.0  0.1473
  C  C139  1  0.986800  0.969200  0.327700  1.0  0.1562
  C  C140  1  0.045200  0.028800  0.329300  1.0  -0.2051
  C  C141  1  0.926100  0.790900  0.112900  1.0  0.688
  C  C142  1  0.831200  0.829000  0.068600  1.0  -0.051
  C  C143  1  0.748200  0.790200  0.047500  1.0  0.0637
  C  C144  1  0.740900  0.710600  0.072600  1.0  -0.373
  C  C145  1  0.661300  0.824700  0.001600  1.0  -0.1492
  C  C146  1  0.567000  0.781700  0.975800  1.0  0.6598
  C  C147  1  0.661000  0.896800  0.976600  1.0  0.0589
  C  C148  1  0.570300  0.934400  0.929900  1.0  -0.3865
  C  C149  1  0.747600  0.934000  0.996800  1.0  -0.1615
  C  C150  1  0.754800  0.008100  0.957800  1.0  0.6778
  C  C151  1  0.833200  0.900900  0.044700  1.0  0.0671
  C  C152  1  0.926800  0.944000  0.068700  1.0  -0.3723
  C  C153  1  0.178100  0.876100  0.095000  1.0  0.1472
  C  C154  1  0.236100  0.934500  0.091100  1.0  -0.1576
  C  C155  1  0.330000  0.924900  0.096400  1.0  0.1059
  C  C156  1  0.361600  0.855300  0.102700  1.0  -0.1943
  C  C157  1  0.303900  0.799600  0.106200  1.0  0.1405
  C  C158  1  0.393800  0.986900  0.097400  1.0  0.1049
  C  C159  1  0.372000  0.045100  0.040000  1.0  -0.2048
  C  C160  1  0.434700  0.102500  0.045400  1.0  0.1591
  C  C161  1  0.541400  0.049200  0.160200  1.0  0.1636
  C  C162  1  0.484200  0.988900  0.156700  1.0  -0.1781
  C  C163  1  0.837900  0.639300  0.298400  1.0  0.1765
  C  C164  1  0.787500  0.578800  0.294100  1.0  -0.1568
  C  C165  1  0.701000  0.583200  0.326900  1.0  0.0236
  C  C166  1  0.683300  0.649400  0.361400  1.0  -0.1031
  C  C167  1  0.739700  0.707500  0.362800  1.0  0.1291
  C  C168  1  0.639700  0.520600  0.324200  1.0  0.0752
  C  C169  1  0.669600  0.450400  0.319400  1.0  -0.1916
  C  C170  1  0.607300  0.393600  0.319000  1.0  0.1473
  C  C171  1  0.486800  0.469200  0.327700  1.0  0.1562
  C  C172  1  0.545200  0.528800  0.329300  1.0  -0.2051
  C  C173  1  0.426100  0.709100  0.612900  1.0  0.6879
  C  C174  1  0.331200  0.671000  0.568600  1.0  -0.0511
  C  C175  1  0.248200  0.709800  0.547500  1.0  0.0633
  C  C176  1  0.240900  0.789400  0.572600  1.0  -0.3717
  C  C177  1  0.161300  0.675300  0.501600  1.0  -0.1492
  C  C178  1  0.067000  0.718300  0.475800  1.0  0.6579
  C  C179  1  0.161000  0.603200  0.476600  1.0  0.0593
  C  C180  1  0.070300  0.565600  0.429900  1.0  -0.3838
  C  C181  1  0.247600  0.566000  0.496800  1.0  -0.162
  C  C182  1  0.254800  0.491900  0.457800  1.0  0.6774
  C  C183  1  0.333200  0.599100  0.544700  1.0  0.0668
  C  C184  1  0.426800  0.556000  0.568700  1.0  -0.3729
  C  C185  1  0.678100  0.623900  0.595000  1.0  0.1476
  C  C186  1  0.736100  0.565500  0.591100  1.0  -0.1614
  C  C187  1  0.830000  0.575100  0.596400  1.0  0.1064
  C  C188  1  0.861600  0.644700  0.602700  1.0  -0.1935
  C  C189  1  0.803900  0.700400  0.606200  1.0  0.1409
  C  C190  1  0.893800  0.513100  0.597400  1.0  0.105
  C  C191  1  0.872000  0.454900  0.540000  1.0  -0.2047
  C  C192  1  0.934700  0.397500  0.545400  1.0  0.1586
  C  C193  1  0.041400  0.450800  0.660200  1.0  0.1631
  C  C194  1  0.984200  0.511100  0.656700  1.0  -0.179
  C  C195  1  0.337900  0.860700  0.798400  1.0  0.1763
  C  C196  1  0.287500  0.921200  0.794100  1.0  -0.1565
  C  C197  1  0.201000  0.916800  0.826900  1.0  0.0244
  C  C198  1  0.183300  0.850600  0.861400  1.0  -0.1032
  C  C199  1  0.239700  0.792500  0.862800  1.0  0.1311
  C  C200  1  0.139700  0.979400  0.824200  1.0  0.075
  C  C201  1  0.169600  0.049600  0.819400  1.0  -0.1924
  C  C202  1  0.107300  0.106400  0.819000  1.0  0.147
  C  C203  1  0.986800  0.030800  0.827700  1.0  0.1541
  C  C204  1  0.045200  0.971200  0.829300  1.0  -0.2038
  C  C205  1  0.926100  0.209100  0.612900  1.0  0.6879
  C  C206  1  0.831200  0.171000  0.568600  1.0  -0.0511
  C  C207  1  0.748200  0.209800  0.547500  1.0  0.0633
  C  C208  1  0.740900  0.289400  0.572600  1.0  -0.3717
  C  C209  1  0.661300  0.175300  0.501600  1.0  -0.1492
  C  C210  1  0.567000  0.218300  0.475800  1.0  0.6579
  C  C211  1  0.661000  0.103200  0.476600  1.0  0.0593
  C  C212  1  0.570300  0.065600  0.429900  1.0  -0.3859
  C  C213  1  0.747600  0.066000  0.496800  1.0  -0.162
  C  C214  1  0.754800  0.991900  0.457800  1.0  0.6774
  C  C215  1  0.833200  0.099100  0.544700  1.0  0.0668
  C  C216  1  0.926800  0.056000  0.568700  1.0  -0.3729
  C  C217  1  0.178100  0.123900  0.595000  1.0  0.1476
  C  C218  1  0.236100  0.065500  0.591100  1.0  -0.1614
  C  C219  1  0.330000  0.075100  0.596400  1.0  0.1064
  C  C220  1  0.361600  0.144700  0.602700  1.0  -0.1935
  C  C221  1  0.303900  0.200400  0.606200  1.0  0.1409
  C  C222  1  0.393800  0.013100  0.597400  1.0  0.105
  C  C223  1  0.372000  0.954900  0.540000  1.0  -0.2047
  C  C224  1  0.434700  0.897500  0.545400  1.0  0.1604
  C  C225  1  0.541400  0.950800  0.660200  1.0  0.1631
  C  C226  1  0.484200  0.011100  0.656700  1.0  -0.179
  C  C227  1  0.837900  0.360700  0.798400  1.0  0.1763
  C  C228  1  0.787500  0.421200  0.794100  1.0  -0.1565
  C  C229  1  0.701000  0.416800  0.826900  1.0  0.0244
  C  C230  1  0.683300  0.350600  0.861400  1.0  -0.1032
  C  C231  1  0.739700  0.292500  0.862800  1.0  0.1311
  C  C232  1  0.639700  0.479400  0.824200  1.0  0.075
  C  C233  1  0.669600  0.549600  0.819400  1.0  -0.1918
  C  C234  1  0.607300  0.606400  0.819000  1.0  0.147
  C  C235  1  0.486800  0.530800  0.827700  1.0  0.1541
  C  C236  1  0.545200  0.471200  0.829300  1.0  -0.2038
  N  N237  1  0.711600  0.308200  0.104800  1.0  -0.3362
  N  N238  1  0.014900  0.605500  0.105200  1.0  -0.3331
  N  N239  1  0.323000  0.202800  0.328500  1.0  -0.3726
  N  N240  1  0.014600  0.902400  0.324400  1.0  -0.3684
  N  N241  1  0.211600  0.808200  0.104800  1.0  -0.3362
  N  N242  1  0.514900  0.105500  0.105200  1.0  -0.3331
  N  N243  1  0.823000  0.702800  0.328500  1.0  -0.3726
  N  N244  1  0.514600  0.402400  0.324400  1.0  -0.3686
  N  N245  1  0.711600  0.691800  0.604800  1.0  -0.3374
  N  N246  1  0.014900  0.394500  0.605200  1.0  -0.3306
  N  N247  1  0.323000  0.797200  0.828500  1.0  -0.3713
  N  N248  1  0.014600  0.097600  0.824400  1.0  -0.3695
  N  N249  1  0.211600  0.191800  0.604800  1.0  -0.3374
  N  N250  1  0.514900  0.894500  0.605200  1.0  -0.3306
  N  N251  1  0.823000  0.297200  0.828500  1.0  -0.3713
  N  N252  1  0.514600  0.597600  0.824400  1.0  -0.3695
  O  O253  1  0.439500  0.270400  0.191700  1.0  -0.6816
  O  O254  1  0.480500  0.278400  0.063500  1.0  -0.6041
  O  O255  1  0.028200  0.264900  0.034200  1.0  -0.5337
  O  O256  1  0.044600  0.261700  0.894400  1.0  -0.6335
  O  O257  1  0.252200  0.563700  0.003400  1.0  -0.5507
  O  O258  1  0.261900  0.510600  0.879400  1.0  -0.5091
  O  O259  1  0.939500  0.770400  0.191700  1.0  -0.6816
  O  O260  1  0.980500  0.778400  0.063500  1.0  -0.6041
  O  O261  1  0.528200  0.764900  0.034200  1.0  -0.5337
  O  O262  1  0.544600  0.761700  0.894400  1.0  -0.6335
  O  O263  1  0.752200  0.063700  0.003400  1.0  -0.5507
  O  O264  1  0.761900  0.010600  0.879400  1.0  -0.5091
  O  O265  1  0.439500  0.729600  0.691700  1.0  -0.6818
  O  O266  1  0.480500  0.721600  0.563500  1.0  -0.604
  O  O267  1  0.028200  0.735100  0.534200  1.0  -0.5344
  O  O268  1  0.044600  0.738300  0.394400  1.0  -0.6326
  O  O269  1  0.252200  0.436300  0.503400  1.0  -0.5493
  O  O270  1  0.261900  0.489400  0.379400  1.0  -0.5101
  O  O271  1  0.939500  0.229600  0.691700  1.0  -0.6818
  O  O272  1  0.980500  0.221600  0.563500  1.0  -0.604
  O  O273  1  0.528200  0.235100  0.534200  1.0  -0.5344
  O  O274  1  0.544600  0.238300  0.394400  1.0  -0.6326
  O  O275  1  0.752200  0.936300  0.503400  1.0  -0.5493
  O  O276  1  0.761900  0.989400  0.379400  1.0  -0.51
