# generated using pymatgen
data_Cu3H34C44(NO3)4
_symmetry_space_group_name_H-M   'P 1'
_cell_length_a   8.55770000
_cell_length_b   18.80200000
_cell_length_c   16.05420000
_cell_angle_alpha   99.46900000
_cell_angle_beta   90.00000000
_cell_angle_gamma   90.00000000
_symmetry_Int_Tables_number   1
_chemical_formula_structural   Cu3H34C44(NO3)4
_chemical_formula_sum   'Cu6 H68 C88 N8 O24'
_cell_volume   2547.95482825
_cell_formula_units_Z   2
loop_
 _symmetry_equiv_pos_site_id
 _symmetry_equiv_pos_as_xyz
  1  'x, y, z'
loop_
 _atom_site_type_symbol
 _atom_site_label
 _atom_site_symmetry_multiplicity
 _atom_site_fract_x
 _atom_site_fract_y
 _atom_site_fract_z
 _atom_site_occupancy
 _atom_site_charge
  Cu  Cu1  1  0.684780  0.791750  0.734220  1.0  0.7746
  Cu  Cu2  1  0.684780  0.208250  0.765780  1.0  0.7735
  Cu  Cu3  1  0.315220  0.208250  0.265780  1.0  0.7738
  Cu  Cu4  1  0.315220  0.791750  0.234220  1.0  0.7746
  Cu  Cu5  1  0.554800  0.500000  0.750000  1.0  0.8355
  Cu  Cu6  1  0.445200  0.500000  0.250000  1.0  0.8352
  H  H7  1  0.998100  0.653900  0.720500  1.0  0.1166
  H  H8  1  0.127600  0.595600  0.725100  1.0  0.1283
  H  H9  1  0.169500  0.667400  0.692300  1.0  0.1399
  H  H10  1  0.472200  0.623800  0.982900  1.0  0.1336
  H  H11  1  0.475400  0.700800  0.038000  1.0  0.1125
  H  H12  1  0.554900  0.687700  0.948800  1.0  0.1358
  H  H13  1  0.952400  0.806600  0.054300  1.0  0.1331
  H  H14  1  0.869100  0.814800  0.969400  1.0  0.1212
  H  H15  1  0.010400  0.864900  0.001900  1.0  0.1386
  H  H16  1  0.794200  0.598600  0.837500  1.0  0.0809
  H  H17  1  0.672300  0.406800  0.861300  1.0  0.0801
  H  H18  1  0.982500  0.597800  0.938200  1.0  0.1072
  H  H19  1  0.856300  0.401900  0.963100  1.0  0.1104
  H  H20  1  0.477100  0.807100  0.878800  1.0  0.0735
  H  H21  1  0.740600  0.946300  0.797000  1.0  0.0838
  H  H22  1  0.397500  0.889400  0.993500  1.0  0.1253
  H  H23  1  0.680500  0.032100  0.907000  1.0  0.1296
  H  H24  1  0.998100  0.346100  0.779500  1.0  0.1167
  H  H25  1  0.127600  0.404400  0.774900  1.0  0.1277
  H  H26  1  0.169500  0.332600  0.807700  1.0  0.1408
  H  H27  1  0.472200  0.376200  0.517100  1.0  0.1333
  H  H28  1  0.475400  0.299200  0.462000  1.0  0.1132
  H  H29  1  0.554900  0.312300  0.551200  1.0  0.1365
  H  H30  1  0.952400  0.193400  0.445700  1.0  0.1324
  H  H31  1  0.869100  0.185200  0.530600  1.0  0.1205
  H  H32  1  0.010400  0.135100  0.498100  1.0  0.1358
  H  H33  1  0.794200  0.401400  0.662500  1.0  0.0807
  H  H34  1  0.672300  0.593200  0.638700  1.0  0.0801
  H  H35  1  0.982500  0.402200  0.561800  1.0  0.107
  H  H36  1  0.856300  0.598100  0.536900  1.0  0.1105
  H  H37  1  0.477100  0.192900  0.621200  1.0  0.0728
  H  H38  1  0.740600  0.053700  0.703000  1.0  0.0842
  H  H39  1  0.397500  0.110600  0.506500  1.0  0.1248
  H  H40  1  0.680500  0.967900  0.593000  1.0  0.1295
  H  H41  1  0.001900  0.346100  0.279500  1.0  0.1172
  H  H42  1  0.872400  0.404400  0.274900  1.0  0.1283
  H  H43  1  0.830500  0.332600  0.307700  1.0  0.1411
  H  H44  1  0.527800  0.376200  0.017100  1.0  0.134
  H  H45  1  0.524600  0.299200  0.962000  1.0  0.1127
  H  H46  1  0.445100  0.312300  0.051200  1.0  0.1356
  H  H47  1  0.047600  0.193400  0.945700  1.0  0.133
  H  H48  1  0.130900  0.185200  0.030600  1.0  0.12
  H  H49  1  0.989600  0.135100  0.998100  1.0  0.1364
  H  H50  1  0.205800  0.401400  0.162500  1.0  0.0807
  H  H51  1  0.327700  0.593200  0.138700  1.0  0.0783
  H  H52  1  0.017500  0.402200  0.061800  1.0  0.1071
  H  H53  1  0.143700  0.598100  0.036900  1.0  0.1099
  H  H54  1  0.522900  0.192900  0.121200  1.0  0.0725
  H  H55  1  0.259400  0.053700  0.203000  1.0  0.0843
  H  H56  1  0.602500  0.110600  0.006500  1.0  0.1252
  H  H57  1  0.319500  0.967900  0.093000  1.0  0.1294
  H  H58  1  0.001900  0.653900  0.220500  1.0  0.1169
  H  H59  1  0.872400  0.595600  0.225100  1.0  0.1277
  H  H60  1  0.830500  0.667400  0.192300  1.0  0.1394
  H  H61  1  0.527800  0.623800  0.482900  1.0  0.1315
  H  H62  1  0.524600  0.700800  0.538000  1.0  0.1119
  H  H63  1  0.445100  0.687700  0.448800  1.0  0.1356
  H  H64  1  0.047600  0.806600  0.554300  1.0  0.1326
  H  H65  1  0.130900  0.814800  0.469400  1.0  0.1196
  H  H66  1  0.989600  0.864900  0.501900  1.0  0.1384
  H  H67  1  0.205800  0.598600  0.337500  1.0  0.0808
  H  H68  1  0.327700  0.406800  0.361300  1.0  0.0787
  H  H69  1  0.017500  0.597800  0.438200  1.0  0.1076
  H  H70  1  0.143700  0.401900  0.463100  1.0  0.1098
  H  H71  1  0.522900  0.807100  0.378800  1.0  0.0731
  H  H72  1  0.259400  0.946300  0.297000  1.0  0.0838
  H  H73  1  0.602500  0.889400  0.493500  1.0  0.126
  H  H74  1  0.319500  0.032100  0.407000  1.0  0.1299
  C  C75  1  0.892000  0.751200  0.826000  1.0  0.6405
  C  C76  1  0.106700  0.646400  0.731500  1.0  -0.3731
  C  C77  1  0.388200  0.608300  0.811300  1.0  0.6685
  C  C78  1  0.468700  0.674700  0.981500  1.0  -0.3781
  C  C79  1  0.247400  0.775200  0.077900  1.0  0.6629
  C  C80  1  0.967600  0.817300  0.998400  1.0  -0.3736
  C  C81  1  0.048600  0.732500  0.867300  1.0  -0.1837
  C  C82  1  0.147300  0.683100  0.824400  1.0  0.1433
  C  C83  1  0.281600  0.663700  0.861400  1.0  -0.1995
  C  C84  1  0.316600  0.693000  0.941700  1.0  0.1666
  C  C85  1  0.213000  0.743400  0.987200  1.0  -0.2277
  C  C86  1  0.080000  0.762600  0.950200  1.0  0.1553
  C  C87  1  0.805200  0.557900  0.863000  1.0  0.1656
  C  C88  1  0.735600  0.446900  0.877500  1.0  0.168
  C  C89  1  0.918700  0.557500  0.924600  1.0  -0.1598
  C  C90  1  0.846800  0.443800  0.939600  1.0  -0.1543
  C  C91  1  0.941300  0.500200  0.966500  1.0  0.0987
  C  C92  1  0.515000  0.853900  0.884200  1.0  0.1832
  C  C93  1  0.669800  0.934900  0.836800  1.0  0.1749
  C  C94  1  0.465900  0.903400  0.954200  1.0  -0.1686
  C  C95  1  0.632800  0.987200  0.902200  1.0  -0.1761
  C  C96  1  0.521300  0.973900  0.963700  1.0  0.083
  C  C97  1  0.892000  0.248800  0.674000  1.0  0.6404
  C  C98  1  0.106700  0.353600  0.768500  1.0  -0.3726
  C  C99  1  0.388200  0.391700  0.688700  1.0  0.67
  C  C100  1  0.468700  0.325300  0.518500  1.0  -0.3784
  C  C101  1  0.247400  0.224800  0.422100  1.0  0.6626
  C  C102  1  0.967600  0.182700  0.501600  1.0  -0.3717
  C  C103  1  0.048600  0.267500  0.632700  1.0  -0.1863
  C  C104  1  0.147300  0.316900  0.675600  1.0  0.1431
  C  C105  1  0.281600  0.336300  0.638600  1.0  -0.1993
  C  C106  1  0.316600  0.307000  0.558300  1.0  0.1667
  C  C107  1  0.213000  0.256600  0.512800  1.0  -0.2294
  C  C108  1  0.080000  0.237400  0.549800  1.0  0.1553
  C  C109  1  0.805200  0.442100  0.637000  1.0  0.1658
  C  C110  1  0.735600  0.553100  0.622500  1.0  0.1681
  C  C111  1  0.918700  0.442500  0.575400  1.0  -0.1603
  C  C112  1  0.846800  0.556200  0.560400  1.0  -0.1538
  C  C113  1  0.941300  0.499800  0.533500  1.0  0.0988
  C  C114  1  0.515000  0.146100  0.615800  1.0  0.1843
  C  C115  1  0.669800  0.065100  0.663200  1.0  0.1756
  C  C116  1  0.465900  0.096600  0.545800  1.0  -0.1682
  C  C117  1  0.632800  0.012800  0.597800  1.0  -0.1783
  C  C118  1  0.521300  0.026100  0.536300  1.0  0.0825
  C  C119  1  0.108000  0.248800  0.174000  1.0  0.6402
  C  C120  1  0.893300  0.353600  0.268500  1.0  -0.3731
  C  C121  1  0.611800  0.391700  0.188700  1.0  0.6691
  C  C122  1  0.531300  0.325300  0.018500  1.0  -0.3773
  C  C123  1  0.752600  0.224800  0.922100  1.0  0.663
  C  C124  1  0.032400  0.182700  0.001600  1.0  -0.3732
  C  C125  1  0.951400  0.267500  0.132700  1.0  -0.1876
  C  C126  1  0.852700  0.316900  0.175600  1.0  0.1427
  C  C127  1  0.718400  0.336300  0.138600  1.0  -0.1983
  C  C128  1  0.683400  0.307000  0.058300  1.0  0.1671
  C  C129  1  0.787000  0.256600  0.012800  1.0  -0.2278
  C  C130  1  0.920000  0.237400  0.049800  1.0  0.1557
  C  C131  1  0.194800  0.442100  0.137000  1.0  0.166
  C  C132  1  0.264400  0.553100  0.122500  1.0  0.1674
  C  C133  1  0.081300  0.442500  0.075400  1.0  -0.1593
  C  C134  1  0.153200  0.556200  0.060400  1.0  -0.1536
  C  C135  1  0.058700  0.499800  0.033500  1.0  0.0993
  C  C136  1  0.485000  0.146100  0.115800  1.0  0.1848
  C  C137  1  0.330200  0.065100  0.163200  1.0  0.1765
  C  C138  1  0.534100  0.096600  0.045800  1.0  -0.1677
  C  C139  1  0.367200  0.012800  0.097800  1.0  -0.1784
  C  C140  1  0.478700  0.026100  0.036300  1.0  0.0832
  C  C141  1  0.108000  0.751200  0.326000  1.0  0.6407
  C  C142  1  0.893300  0.646400  0.231500  1.0  -0.3713
  C  C143  1  0.611800  0.608300  0.311300  1.0  0.6682
  C  C144  1  0.531300  0.674700  0.481500  1.0  -0.3781
  C  C145  1  0.752600  0.775200  0.577900  1.0  0.6624
  C  C146  1  0.032400  0.817300  0.498400  1.0  -0.3745
  C  C147  1  0.951400  0.732500  0.367300  1.0  -0.1854
  C  C148  1  0.852700  0.683100  0.324400  1.0  0.1425
  C  C149  1  0.718400  0.663700  0.361400  1.0  -0.1988
  C  C150  1  0.683400  0.693000  0.441700  1.0  0.1669
  C  C151  1  0.787000  0.743400  0.487200  1.0  -0.2259
  C  C152  1  0.920000  0.762600  0.450200  1.0  0.1556
  C  C153  1  0.194800  0.557900  0.363000  1.0  0.1656
  C  C154  1  0.264400  0.446900  0.377500  1.0  0.1674
  C  C155  1  0.081300  0.557500  0.424600  1.0  -0.1588
  C  C156  1  0.153200  0.443800  0.439600  1.0  -0.1542
  C  C157  1  0.058700  0.500200  0.466500  1.0  0.0994
  C  C158  1  0.485000  0.853900  0.384200  1.0  0.1841
  C  C159  1  0.330200  0.934900  0.336800  1.0  0.1761
  C  C160  1  0.534100  0.903400  0.454200  1.0  -0.1681
  C  C161  1  0.367200  0.987200  0.402200  1.0  -0.1762
  C  C162  1  0.478700  0.973900  0.463700  1.0  0.0838
  N  N163  1  0.714700  0.503700  0.840200  1.0  -0.3066
  N  N164  1  0.612200  0.868700  0.825300  1.0  -0.3449
  N  N165  1  0.714700  0.496300  0.659800  1.0  -0.3063
  N  N166  1  0.612200  0.131300  0.674700  1.0  -0.3434
  N  N167  1  0.285300  0.496300  0.159800  1.0  -0.3055
  N  N168  1  0.387800  0.131300  0.174700  1.0  -0.3431
  N  N169  1  0.285300  0.503700  0.340200  1.0  -0.306
  N  N170  1  0.387800  0.868700  0.325300  1.0  -0.3456
  O  O171  1  0.771700  0.720200  0.835500  1.0  -0.5462
  O  O172  1  0.905700  0.802600  0.780300  1.0  -0.5518
  O  O173  1  0.471900  0.625500  0.753100  1.0  -0.6051
  O  O174  1  0.395700  0.545600  0.832100  1.0  -0.5607
  O  O175  1  0.242800  0.731600  0.131100  1.0  -0.5473
  O  O176  1  0.281700  0.839700  0.100600  1.0  -0.5957
  O  O177  1  0.771700  0.279800  0.664500  1.0  -0.546
  O  O178  1  0.905700  0.197400  0.719700  1.0  -0.5517
  O  O179  1  0.471900  0.374500  0.746900  1.0  -0.6048
  O  O180  1  0.395700  0.454400  0.667900  1.0  -0.5612
  O  O181  1  0.242800  0.268400  0.368900  1.0  -0.5484
  O  O182  1  0.281700  0.160300  0.399400  1.0  -0.5947
  O  O183  1  0.228300  0.279800  0.164500  1.0  -0.5469
  O  O184  1  0.094300  0.197400  0.219700  1.0  -0.5513
  O  O185  1  0.528100  0.374500  0.246900  1.0  -0.6044
  O  O186  1  0.604300  0.454400  0.167900  1.0  -0.5611
  O  O187  1  0.757200  0.268400  0.868900  1.0  -0.5482
  O  O188  1  0.718300  0.160300  0.899400  1.0  -0.5929
  O  O189  1  0.228300  0.720200  0.335500  1.0  -0.5471
  O  O190  1  0.094300  0.802600  0.280300  1.0  -0.5511
  O  O191  1  0.528100  0.625500  0.253100  1.0  -0.604
  O  O192  1  0.604300  0.545600  0.332100  1.0  -0.5605
  O  O193  1  0.757200  0.731600  0.631100  1.0  -0.5474
  O  O194  1  0.718300  0.839700  0.600600  1.0  -0.5945
