# generated using pymatgen
data_Cu2H7C14NO7
_symmetry_space_group_name_H-M   'P 1'
_cell_length_a   6.66760000
_cell_length_b   17.11070000
_cell_length_c   17.80620000
_cell_angle_alpha   74.83600000
_cell_angle_beta   79.20900000
_cell_angle_gamma   78.76480000
_symmetry_Int_Tables_number   1
_chemical_formula_structural   Cu2H7C14NO7
_chemical_formula_sum   'Cu8 H28 C56 N4 O28'
_cell_volume   1903.12635835
_cell_formula_units_Z   4
loop_
 _symmetry_equiv_pos_site_id
 _symmetry_equiv_pos_as_xyz
  1  'x, y, z'
loop_
 _atom_site_type_symbol
 _atom_site_label
 _atom_site_symmetry_multiplicity
 _atom_site_fract_x
 _atom_site_fract_y
 _atom_site_fract_z
 _atom_site_occupancy
 _atom_site_charge
  Cu  Cu1  1  0.557000  0.852170  0.353130  1.0  0.8778
  Cu  Cu2  1  0.514330  0.816930  0.180430  1.0  0.9346
  Cu  Cu3  1  0.762300  0.647830  0.146870  1.0  0.8779
  Cu  Cu4  1  0.511690  0.683070  0.319570  1.0  0.9344
  Cu  Cu5  1  0.443000  0.147830  0.646870  1.0  0.8817
  Cu  Cu6  1  0.485670  0.183070  0.819570  1.0  0.9347
  Cu  Cu7  1  0.237700  0.352170  0.853130  1.0  0.8782
  Cu  Cu8  1  0.488310  0.316930  0.680430  1.0  0.9327
  H  H9  1  0.482100  0.064000  0.057800  1.0  0.1309
  H  H10  1  0.354700  0.292900  0.090500  1.0  0.1109
  H  H11  1  0.432900  0.104000  0.274000  1.0  0.1173
  H  H12  1  0.895800  0.950900  0.313500  1.0  0.1145
  H  H13  1  0.076600  0.014000  0.368800  1.0  0.1237
  H  H14  1  0.767500  0.924500  0.578300  1.0  0.1321
  H  H15  1  0.586400  0.867100  0.517700  1.0  0.0911
  H  H16  1  0.603900  0.436000  0.442200  1.0  0.1318
  H  H17  1  0.738100  0.207100  0.409500  1.0  0.1104
  H  H18  1  0.810900  0.396000  0.226000  1.0  0.1157
  H  H19  1  0.160200  0.549100  0.186500  1.0  0.1147
  H  H20  1  0.459400  0.486000  0.131200  1.0  0.1245
  H  H21  1  0.270300  0.575500  0.921700  1.0  0.1331
  H  H22  1  0.971200  0.632900  0.982300  1.0  0.0915
  H  H23  1  0.517900  0.936000  0.942200  1.0  0.1313
  H  H24  1  0.645300  0.707100  0.909500  1.0  0.1092
  H  H25  1  0.567100  0.896000  0.726000  1.0  0.1159
  H  H26  1  0.104200  0.049100  0.686500  1.0  0.1151
  H  H27  1  0.923400  0.986000  0.631200  1.0  0.1248
  H  H28  1  0.232500  0.075500  0.421700  1.0  0.1329
  H  H29  1  0.413600  0.132900  0.482300  1.0  0.0913
  H  H30  1  0.396100  0.564000  0.557800  1.0  0.1321
  H  H31  1  0.261900  0.792900  0.590500  1.0  0.1106
  H  H32  1  0.189100  0.604000  0.774000  1.0  0.1158
  H  H33  1  0.839800  0.450900  0.813500  1.0  0.1142
  H  H34  1  0.540600  0.514000  0.868800  1.0  0.1248
  H  H35  1  0.729700  0.424500  0.078300  1.0  0.1334
  H  H36  1  0.028800  0.367100  0.017700  1.0  0.0909
  C  C37  1  0.465000  0.069600  0.171800  1.0  -0.1329
  C  C38  1  0.457600  0.099800  0.091000  1.0  0.0502
  C  C39  1  0.413200  0.183700  0.061100  1.0  -0.1476
  C  C40  1  0.380300  0.236800  0.111000  1.0  0.0046
  C  C41  1  0.385100  0.207100  0.189900  1.0  -0.1386
  C  C42  1  0.428200  0.124000  0.220400  1.0  0.0137
  C  C43  1  0.508700  0.978400  0.204200  1.0  0.7409
  C  C44  1  0.402100  0.215600  0.975400  1.0  0.6922
  C  C45  1  0.335400  0.267800  0.241800  1.0  0.6697
  C  C46  1  0.867700  0.945900  0.367500  1.0  0.1815
  C  C47  1  0.977000  0.984000  0.400600  1.0  -0.1397
  C  C48  1  0.942800  0.979200  0.481000  1.0  0.0822
  C  C49  1  0.794600  0.931900  0.523900  1.0  -0.1774
  C  C50  1  0.688200  0.896500  0.486900  1.0  0.1954
  C  C51  1  0.706400  0.430400  0.328200  1.0  -0.1317
  C  C52  1  0.648400  0.400200  0.409000  1.0  0.0495
  C  C53  1  0.658000  0.316300  0.438900  1.0  -0.1468
  C  C54  1  0.728100  0.263200  0.389000  1.0  0.0076
  C  C55  1  0.782100  0.292900  0.310100  1.0  -0.139
  C  C56  1  0.772600  0.376000  0.279600  1.0  0.0136
  C  C57  1  0.691300  0.521600  0.295800  1.0  0.7412
  C  C58  1  0.593100  0.284400  0.524600  1.0  0.6931
  C  C59  1  0.845000  0.232200  0.258200  1.0  0.6705
  C  C60  1  0.181100  0.554100  0.132500  1.0  0.1793
  C  C61  1  0.361600  0.516000  0.099400  1.0  -0.1426
  C  C62  1  0.403000  0.520800  0.019000  1.0  0.0823
  C  C63  1  0.250400  0.568100  0.976100  1.0  -0.1762
  C  C64  1  0.071600  0.603500  0.013100  1.0  0.1969
  C  C65  1  0.535000  0.930400  0.828200  1.0  -0.1333
  C  C66  1  0.542400  0.900200  0.909000  1.0  0.0499
  C  C67  1  0.586800  0.816300  0.938900  1.0  -0.1468
  C  C68  1  0.619700  0.763200  0.889000  1.0  0.0062
  C  C69  1  0.614900  0.792900  0.810100  1.0  -0.1392
  C  C70  1  0.571800  0.876000  0.779600  1.0  0.0132
  C  C71  1  0.491300  0.021600  0.795800  1.0  0.7399
  C  C72  1  0.597900  0.784400  0.024600  1.0  0.6922
  C  C73  1  0.664600  0.732200  0.758200  1.0  0.6705
  C  C74  1  0.132300  0.054100  0.632500  1.0  0.1792
  C  C75  1  0.023000  0.016000  0.599400  1.0  -0.1402
  C  C76  1  0.057200  0.020800  0.519000  1.0  0.0817
  C  C77  1  0.205400  0.068100  0.476100  1.0  -0.1773
  C  C78  1  0.311800  0.103500  0.513100  1.0  0.1967
  C  C79  1  0.293600  0.569600  0.671800  1.0  -0.1313
  C  C80  1  0.351600  0.599800  0.591000  1.0  0.05
  C  C81  1  0.342000  0.683700  0.561100  1.0  -0.1461
  C  C82  1  0.271900  0.736800  0.611000  1.0  0.0049
  C  C83  1  0.217900  0.707100  0.689900  1.0  -0.1389
  C  C84  1  0.227400  0.624000  0.720400  1.0  0.0131
  C  C85  1  0.308700  0.478400  0.704200  1.0  0.741
  C  C86  1  0.406900  0.715600  0.475400  1.0  0.6932
  C  C87  1  0.155000  0.767800  0.741800  1.0  0.6696
  C  C88  1  0.818900  0.445900  0.867500  1.0  0.1803
  C  C89  1  0.638400  0.484000  0.900600  1.0  -0.1404
  C  C90  1  0.597000  0.479200  0.981000  1.0  0.0818
  C  C91  1  0.749600  0.431900  0.023900  1.0  -0.1772
  C  C92  1  0.928400  0.396500  0.986900  1.0  0.1965
  N  N93  1  0.719500  0.901000  0.409400  1.0  -0.32
  N  N94  1  0.029900  0.599000  0.090600  1.0  -0.3192
  N  N95  1  0.280500  0.099000  0.590600  1.0  -0.3198
  N  N96  1  0.970100  0.401000  0.909400  1.0  -0.3171
  O  O97  1  0.537300  0.956200  0.275600  1.0  -0.6003
  O  O98  1  0.507820  0.932960  0.160600  1.0  -0.5952
  O  O99  1  0.468680  0.166640  0.931200  1.0  -0.6067
  O  O100  1  0.316960  0.288680  0.954200  1.0  -0.587
  O  O101  1  0.315100  0.340700  0.214500  1.0  -0.5012
  O  O102  1  0.310600  0.232900  0.317300  1.0  -0.5188
  O  O103  1  0.419500  0.802400  0.294600  1.0  -0.8031
  O  O104  1  0.769100  0.543800  0.224400  1.0  -0.5979
  O  O105  1  0.601380  0.567040  0.339400  1.0  -0.5959
  O  O106  1  0.566520  0.333333  0.568800  1.0  -0.6039
  O  O107  1  0.559840  0.211320  0.545800  1.0  -0.5875
  O  O108  1  0.870300  0.159300  0.285500  1.0  -0.5012
  O  O109  1  0.860800  0.267100  0.182700  1.0  -0.5179
  O  O110  1  0.516500  0.697600  0.205400  1.0  -0.8041
  O  O111  1  0.462700  0.043800  0.724400  1.0  -0.5997
  O  O112  1  0.492180  0.067040  0.839400  1.0  -0.5958
  O  O113  1  0.531320  0.833360  0.068800  1.0  -0.6074
  O  O114  1  0.683040  0.711320  0.045800  1.0  -0.5862
  O  O115  1  0.684900  0.659300  0.785500  1.0  -0.5017
  O  O116  1  0.689400  0.767100  0.682700  1.0  -0.5188
  O  O117  1  0.580500  0.197600  0.705400  1.0  -0.8036
  O  O118  1  0.230900  0.456200  0.775600  1.0  -0.5989
  O  O119  1  0.398620  0.432960  0.660600  1.0  -0.5947
  O  O120  1  0.433480  0.666667  0.431200  1.0  -0.6045
  O  O121  1  0.440160  0.788680  0.454200  1.0  -0.5881
  O  O122  1  0.129700  0.840700  0.714500  1.0  -0.5008
  O  O123  1  0.139200  0.732900  0.817300  1.0  -0.5175
  O  O124  1  0.483500  0.302400  0.794600  1.0  -0.8033
