# generated using pymatgen
data_EuH8(C2O)8
_symmetry_space_group_name_H-M   'P 1'
_cell_length_a   11.04600000
_cell_length_b   11.63300000
_cell_length_c   16.24600000
_cell_angle_alpha   78.69000000
_cell_angle_beta   73.81000000
_cell_angle_gamma   88.58000000
_symmetry_Int_Tables_number   1
_chemical_formula_structural   EuH8(C2O)8
_chemical_formula_sum   'Eu4 H32 C64 O32'
_cell_volume   1964.86850113
_cell_formula_units_Z   4
loop_
 _symmetry_equiv_pos_site_id
 _symmetry_equiv_pos_as_xyz
  1  'x, y, z'
loop_
 _atom_site_type_symbol
 _atom_site_label
 _atom_site_symmetry_multiplicity
 _atom_site_fract_x
 _atom_site_fract_y
 _atom_site_fract_z
 _atom_site_occupancy
 _atom_site_charge
  Eu  Eu1  1  0.934340  0.938080  0.194170  1.0  2.1241
  Eu  Eu2  1  0.549260  0.552980  0.309580  1.0  2.1028
  Eu  Eu3  1  0.065660  0.061920  0.805830  1.0  2.1205
  Eu  Eu4  1  0.450740  0.447020  0.690420  1.0  2.1099
  H  H5  1  0.370500  0.843100  0.225700  1.0  0.1315
  H  H6  1  0.207000  0.738900  0.864500  1.0  0.132
  H  H7  1  0.484200  0.233300  0.203100  1.0  0.1315
  H  H8  1  0.402300  0.507000  0.988600  1.0  0.1293
  H  H9  1  0.179600  0.729000  0.116900  1.0  0.1162
  H  H10  1  0.632700  0.086800  0.209100  1.0  0.1191
  H  H11  1  0.107700  0.646500  0.287700  1.0  0.1417
  H  H12  1  0.696800  0.234100  0.364400  1.0  0.132
  H  H13  1  0.925000  0.025700  0.476800  1.0  0.1471
  H  H14  1  0.327400  0.583400  0.114200  1.0  0.1347
  H  H15  1  0.207100  0.315200  0.280400  1.0  0.1259
  H  H16  1  0.867000  0.114500  0.596400  1.0  0.1237
  H  H17  1  0.723600  0.261800  0.601900  1.0  0.1282
  H  H18  1  0.862300  0.411600  0.268200  1.0  0.1305
  H  H19  1  0.016100  0.270000  0.264300  1.0  0.1373
  H  H20  1  0.279700  0.180400  0.208200  1.0  0.1283
  H  H21  1  0.629500  0.156900  0.774300  1.0  0.131
  H  H22  1  0.793000  0.261100  0.135500  1.0  0.1315
  H  H23  1  0.515800  0.766700  0.796900  1.0  0.1329
  H  H24  1  0.597700  0.493000  0.011400  1.0  0.1274
  H  H25  1  0.820400  0.271000  0.883100  1.0  0.1155
  H  H26  1  0.367300  0.913200  0.790900  1.0  0.1193
  H  H27  1  0.892300  0.353500  0.712300  1.0  0.1423
  H  H28  1  0.303200  0.765900  0.635600  1.0  0.1317
  H  H29  1  0.075000  0.974300  0.523200  1.0  0.1471
  H  H30  1  0.672600  0.416600  0.885800  1.0  0.1344
  H  H31  1  0.792900  0.684800  0.719600  1.0  0.1262
  H  H32  1  0.133000  0.885500  0.403600  1.0  0.1236
  H  H33  1  0.276400  0.738200  0.398100  1.0  0.1253
  H  H34  1  0.137700  0.588400  0.731800  1.0  0.1315
  H  H35  1  0.983900  0.730000  0.735700  1.0  0.1363
  H  H36  1  0.720300  0.819600  0.791800  1.0  0.1285
  C  C37  1  0.868700  0.632600  0.281400  1.0  0.7492
  C  C38  1  0.177900  0.980700  0.205700  1.0  0.7252
  C  C39  1  0.394000  0.921100  0.219800  1.0  0.0117
  C  C40  1  0.304200  0.510400  0.297400  1.0  0.7153
  C  C41  1  0.306300  0.008000  0.213600  1.0  -0.1277
  C  C42  1  0.228400  0.705800  0.915300  1.0  0.014
  C  C43  1  0.846900  0.052200  0.336100  1.0  0.7165
  C  C44  1  0.358700  0.558600  0.836300  1.0  0.7254
  C  C45  1  0.179000  0.749400  0.990900  1.0  -0.1356
  C  C46  1  0.615500  0.858500  0.218100  1.0  0.7428
  C  C47  1  0.087900  0.847500  0.993300  1.0  0.7195
  C  C48  1  0.969400  0.541700  0.278800  1.0  -0.1169
  C  C49  1  0.515800  0.950200  0.217200  1.0  -0.1303
  C  C50  1  0.462200  0.155400  0.207100  1.0  -0.086
  C  C51  1  0.310100  0.612600  0.915100  1.0  -0.1475
  C  C52  1  0.346300  0.568000  0.989200  1.0  0.0049
  C  C53  1  0.214200  0.701400  0.065600  1.0  0.0142
  C  C54  1  0.690800  0.259600  0.485200  1.0  -0.1424
  C  C55  1  0.550700  0.067400  0.210800  1.0  0.0016
  C  C56  1  0.088000  0.570300  0.285000  1.0  -0.0287
  C  C57  1  0.176400  0.483700  0.286900  1.0  -0.139
  C  C58  1  0.728800  0.208300  0.411800  1.0  0.0074
  C  C59  1  0.590700  0.350100  0.491500  1.0  0.7844
  C  C60  1  0.814700  0.118300  0.409300  1.0  -0.1504
  C  C61  1  0.866400  0.084700  0.478600  1.0  -0.0524
  C  C62  1  0.300600  0.612500  0.064800  1.0  -0.0768
  C  C63  1  0.147300  0.372800  0.279500  1.0  -0.0255
  C  C64  1  0.831800  0.137900  0.550300  1.0  -0.08
  C  C65  1  0.745600  0.225400  0.553900  1.0  -0.0352
  C  C66  1  0.941700  0.430300  0.272000  1.0  -0.0149
  C  C67  1  0.033100  0.345100  0.270900  1.0  -0.1202
  C  C68  1  0.339700  0.123100  0.209400  1.0  -0.0166
  C  C69  1  0.131300  0.367400  0.718600  1.0  0.7506
  C  C70  1  0.822100  0.019300  0.794300  1.0  0.7264
  C  C71  1  0.606000  0.078900  0.780200  1.0  0.0098
  C  C72  1  0.695800  0.489600  0.702600  1.0  0.7169
  C  C73  1  0.693700  0.992000  0.786400  1.0  -0.1279
  C  C74  1  0.771600  0.294200  0.084700  1.0  0.0134
  C  C75  1  0.153100  0.947800  0.663900  1.0  0.7164
  C  C76  1  0.641300  0.441400  0.163700  1.0  0.7271
  C  C77  1  0.821000  0.250600  0.009100  1.0  -0.1347
  C  C78  1  0.384500  0.141500  0.781900  1.0  0.741
  C  C79  1  0.912100  0.152500  0.006700  1.0  0.72
  C  C80  1  0.030600  0.458300  0.721200  1.0  -0.1166
  C  C81  1  0.484200  0.049800  0.782800  1.0  -0.128
  C  C82  1  0.537800  0.844600  0.792900  1.0  -0.0876
  C  C83  1  0.689900  0.387400  0.084900  1.0  -0.1484
  C  C84  1  0.653700  0.432000  0.010800  1.0  0.0043
  C  C85  1  0.785800  0.298600  0.934400  1.0  0.0153
  C  C86  1  0.309200  0.740400  0.514800  1.0  -0.1425
  C  C87  1  0.449300  0.932600  0.789200  1.0  0.0026
  C  C88  1  0.912000  0.429700  0.715000  1.0  -0.0211
  C  C89  1  0.823600  0.516300  0.713100  1.0  -0.1377
  C  C90  1  0.271200  0.791700  0.588200  1.0  0.0074
  C  C91  1  0.409300  0.649900  0.508500  1.0  0.7845
  C  C92  1  0.185300  0.881700  0.590700  1.0  -0.1506
  C  C93  1  0.133600  0.915300  0.521400  1.0  -0.0518
  C  C94  1  0.699400  0.387500  0.935200  1.0  -0.0796
  C  C95  1  0.852700  0.627200  0.720500  1.0  -0.0252
  C  C96  1  0.168200  0.862100  0.449700  1.0  -0.0833
  C  C97  1  0.254400  0.774600  0.446100  1.0  -0.0336
  C  C98  1  0.058300  0.569700  0.728000  1.0  -0.015
  C  C99  1  0.966900  0.654900  0.729100  1.0  -0.1183
  C  C100  1  0.660300  0.876900  0.790600  1.0  -0.0166
  O  O101  1  0.142200  0.877100  0.217900  1.0  -0.5826
  O  O102  1  0.903500  0.739300  0.265200  1.0  -0.7185
  O  O103  1  0.726900  0.893300  0.196500  1.0  -0.6937
  O  O104  1  0.579100  0.753700  0.237800  1.0  -0.7309
  O  O105  1  0.024000  0.863600  0.066700  1.0  -0.6959
  O  O106  1  0.077700  0.903800  0.922600  1.0  -0.7186
  O  O107  1  0.342000  0.614200  0.286200  1.0  -0.6293
  O  O108  1  0.903200  0.956200  0.346100  1.0  -0.5833
  O  O109  1  0.821700  0.094400  0.265900  1.0  -0.6156
  O  O110  1  0.340000  0.604900  0.765000  1.0  -0.6075
  O  O111  1  0.111700  0.065500  0.185500  1.0  -0.6322
  O  O112  1  0.758000  0.597000  0.303300  1.0  -0.6888
  O  O113  1  0.564500  0.396800  0.423900  1.0  -0.7233
  O  O114  1  0.370600  0.425500  0.317700  1.0  -0.6609
  O  O115  1  0.415800  0.462400  0.844700  1.0  -0.6661
  O  O116  1  0.535200  0.367700  0.565800  1.0  -0.6819
  O  O117  1  0.857800  0.122900  0.782100  1.0  -0.5838
  O  O118  1  0.096500  0.260700  0.734800  1.0  -0.7175
  O  O119  1  0.273100  0.106700  0.803500  1.0  -0.6943
  O  O120  1  0.420900  0.246300  0.762200  1.0  -0.7309
  O  O121  1  0.976000  0.136400  0.933300  1.0  -0.6943
  O  O122  1  0.922300  0.096200  0.077400  1.0  -0.719
  O  O123  1  0.658000  0.385800  0.713800  1.0  -0.6292
  O  O124  1  0.096800  0.043800  0.653900  1.0  -0.5839
  O  O125  1  0.178300  0.905600  0.734100  1.0  -0.6143
  O  O126  1  0.660000  0.395100  0.235000  1.0  -0.6077
  O  O127  1  0.888300  0.934500  0.814500  1.0  -0.6312
  O  O128  1  0.242000  0.403000  0.696700  1.0  -0.6875
  O  O129  1  0.435500  0.603200  0.576100  1.0  -0.7225
  O  O130  1  0.629400  0.574500  0.682300  1.0  -0.6592
  O  O131  1  0.584200  0.537600  0.155300  1.0  -0.6675
  O  O132  1  0.464800  0.632300  0.434200  1.0  -0.6821
