# generated using pymatgen
data_Mg3H18(C17O7)2
_symmetry_space_group_name_H-M   'P 1'
_cell_length_a   11.35930000
_cell_length_b   22.58230000
_cell_length_c   16.59230000
_cell_angle_alpha   90.00000000
_cell_angle_beta   92.12900000
_cell_angle_gamma   90.00000000
_symmetry_Int_Tables_number   1
_chemical_formula_structural   Mg3H18(C17O7)2
_chemical_formula_sum   'Mg12 H72 C136 O56'
_cell_volume   4253.30419696
_cell_formula_units_Z   4
loop_
 _symmetry_equiv_pos_site_id
 _symmetry_equiv_pos_as_xyz
  1  'x, y, z'
loop_
 _atom_site_type_symbol
 _atom_site_label
 _atom_site_symmetry_multiplicity
 _atom_site_fract_x
 _atom_site_fract_y
 _atom_site_fract_z
 _atom_site_occupancy
 _atom_site_charge
  Mg  Mg1  1  0.464100  0.250560  0.532150  1.0  1.5174
  Mg  Mg2  1  0.585700  0.308440  0.714070  1.0  1.5292
  Mg  Mg3  1  0.360200  0.174290  0.354310  1.0  1.5424
  Mg  Mg4  1  0.535900  0.750560  0.967850  1.0  1.5168
  Mg  Mg5  1  0.414300  0.808440  0.785930  1.0  1.5289
  Mg  Mg6  1  0.639800  0.674290  0.145690  1.0  1.5425
  Mg  Mg7  1  0.535900  0.749440  0.467850  1.0  1.5161
  Mg  Mg8  1  0.414300  0.691560  0.285930  1.0  1.5296
  Mg  Mg9  1  0.639800  0.825710  0.645690  1.0  1.5422
  Mg  Mg10  1  0.464100  0.249440  0.032150  1.0  1.5166
  Mg  Mg11  1  0.585700  0.191560  0.214070  1.0  1.5298
  Mg  Mg12  1  0.360200  0.325710  0.854310  1.0  1.5427
  H  H13  1  0.308700  0.017600  0.489400  1.0  0.0832
  H  H14  1  0.298600  0.929200  0.560800  1.0  0.1014
  H  H15  1  0.573800  0.135100  0.641800  1.0  0.0846
  H  H16  1  0.677300  0.123900  0.759900  1.0  0.1038
  H  H17  1  0.666100  0.034000  0.833700  1.0  0.1056
  H  H18  1  0.550100  0.957400  0.782900  1.0  0.0827
  H  H19  1  0.742200  0.418200  0.562900  1.0  0.0944
  H  H20  1  0.910200  0.475100  0.547600  1.0  0.0973
  H  H21  1  0.073200  0.327600  0.511300  1.0  0.0798
  H  H22  1  0.879000  0.333700  0.551600  1.0  0.1041
  H  H23  1  0.158500  0.127200  0.501200  1.0  0.1021
  H  H24  1  0.058200  0.041900  0.534000  1.0  0.0905
  H  H25  1  0.864600  0.047100  0.580500  1.0  0.1043
  H  H26  1  0.769500  0.136600  0.587800  1.0  0.0871
  H  H27  1  0.598400  0.293700  0.402400  1.0  0.0075
  H  H28  1  0.304900  0.221400  0.668200  1.0  -0.0037
  H  H29  1  0.297500  0.391200  0.537200  1.0  0.104
  H  H30  1  0.096600  0.427600  0.519200  1.0  0.1329
  H  H31  1  0.691300  0.517600  0.010600  1.0  0.0823
  H  H32  1  0.701400  0.429200  0.939200  1.0  0.1016
  H  H33  1  0.426200  0.635100  0.858200  1.0  0.085
  H  H34  1  0.322700  0.623900  0.740100  1.0  0.1041
  H  H35  1  0.333900  0.534000  0.666300  1.0  0.1059
  H  H36  1  0.449900  0.457400  0.717100  1.0  0.0824
  H  H37  1  0.257800  0.918200  0.937100  1.0  0.0935
  H  H38  1  0.089800  0.975100  0.952400  1.0  0.0981
  H  H39  1  0.926800  0.827600  0.988700  1.0  0.0796
  H  H40  1  0.121000  0.833700  0.948400  1.0  0.1048
  H  H41  1  0.841500  0.627200  0.998800  1.0  0.102
  H  H42  1  0.941800  0.541900  0.966000  1.0  0.0903
  H  H43  1  0.135400  0.547100  0.919500  1.0  0.1041
  H  H44  1  0.230500  0.636600  0.912200  1.0  0.087
  H  H45  1  0.401600  0.793700  0.097600  1.0  0.0071
  H  H46  1  0.695100  0.721400  0.831800  1.0  -0.0046
  H  H47  1  0.702500  0.891200  0.962800  1.0  0.1044
  H  H48  1  0.903400  0.927600  0.980800  1.0  0.1321
  H  H49  1  0.691300  0.982400  0.510600  1.0  0.0825
  H  H50  1  0.701400  0.070800  0.439200  1.0  0.1015
  H  H51  1  0.426200  0.864900  0.358200  1.0  0.085
  H  H52  1  0.322700  0.876100  0.240100  1.0  0.1043
  H  H53  1  0.333900  0.966000  0.166300  1.0  0.1055
  H  H54  1  0.449900  0.042600  0.217100  1.0  0.0829
  H  H55  1  0.257800  0.581800  0.437100  1.0  0.0941
  H  H56  1  0.089800  0.524900  0.452400  1.0  0.0989
  H  H57  1  0.926800  0.672400  0.488700  1.0  0.0791
  H  H58  1  0.121000  0.666300  0.448400  1.0  0.1048
  H  H59  1  0.841500  0.872800  0.498800  1.0  0.1019
  H  H60  1  0.941800  0.958100  0.466000  1.0  0.0893
  H  H61  1  0.135400  0.952900  0.419500  1.0  0.1029
  H  H62  1  0.230500  0.863400  0.412200  1.0  0.087
  H  H63  1  0.401600  0.706300  0.597600  1.0  0.0076
  H  H64  1  0.695100  0.778600  0.331800  1.0  -0.0045
  H  H65  1  0.702500  0.608800  0.462800  1.0  0.1048
  H  H66  1  0.903400  0.572400  0.480800  1.0  0.1324
  H  H67  1  0.308700  0.482400  0.989400  1.0  0.0831
  H  H68  1  0.298600  0.570800  0.060800  1.0  0.1011
  H  H69  1  0.573800  0.364900  0.141800  1.0  0.0848
  H  H70  1  0.677300  0.376100  0.259900  1.0  0.1043
  H  H71  1  0.666100  0.466000  0.333700  1.0  0.1052
  H  H72  1  0.550100  0.542600  0.282900  1.0  0.0826
  H  H73  1  0.742200  0.081800  0.062900  1.0  0.0945
  H  H74  1  0.910200  0.024900  0.047600  1.0  0.0979
  H  H75  1  0.073200  0.172400  0.011300  1.0  0.0796
  H  H76  1  0.879000  0.166300  0.051600  1.0  0.1044
  H  H77  1  0.158500  0.372800  0.001200  1.0  0.1021
  H  H78  1  0.058200  0.458100  0.034000  1.0  0.0893
  H  H79  1  0.864600  0.452900  0.080500  1.0  0.103
  H  H80  1  0.769500  0.363400  0.087800  1.0  0.0872
  H  H81  1  0.598400  0.206300  0.902400  1.0  0.0084
  H  H82  1  0.304900  0.278600  0.168200  1.0  -0.0029
  H  H83  1  0.297500  0.108800  0.037200  1.0  0.1043
  H  H84  1  0.096600  0.072400  0.019200  1.0  0.1329
  C  C85  1  0.414000  0.116900  0.515100  1.0  0.696
  C  C86  1  0.420600  0.059700  0.564700  1.0  -0.1165
  C  C87  1  0.353800  0.013500  0.538400  1.0  -0.0325
  C  C88  1  0.348700  0.960100  0.580400  1.0  -0.0813
  C  C89  1  0.414900  0.952100  0.649300  1.0  -0.1014
  C  C90  1  0.489300  0.999200  0.680700  1.0  0.021
  C  C91  1  0.492500  0.053900  0.637500  1.0  0.0502
  C  C92  1  0.567400  0.098900  0.670400  1.0  -0.1075
  C  C93  1  0.629100  0.092400  0.739900  1.0  -0.1191
  C  C94  1  0.623000  0.038600  0.784000  1.0  -0.1371
  C  C95  1  0.554000  0.993500  0.753700  1.0  -0.099
  C  C96  1  0.411800  0.894000  0.692300  1.0  0.6514
  C  C97  1  0.528500  0.379300  0.560600  1.0  0.6991
  C  C98  1  0.402900  0.463100  0.507500  1.0  -0.0989
  C  C99  1  0.513900  0.442100  0.529100  1.0  -0.0888
  C  C100  1  0.610900  0.477700  0.523300  1.0  -0.0627
  C  C101  1  0.732400  0.457100  0.541900  1.0  -0.123
  C  C102  1  0.836000  0.491500  0.530500  1.0  -0.1071
  C  C103  1  0.208600  0.238400  0.477700  1.0  0.7091
  C  C104  1  0.086100  0.240200  0.509500  1.0  -0.0905
  C  C105  1  0.031300  0.292000  0.520700  1.0  -0.0841
  C  C106  1  0.914900  0.296100  0.545400  1.0  -0.1659
  C  C107  1  0.853000  0.245200  0.560800  1.0  -0.1154
  C  C108  1  0.906400  0.189300  0.552300  1.0  0.0169
  C  C109  1  0.025400  0.186100  0.526400  1.0  0.0415
  C  C110  1  0.080400  0.129800  0.519400  1.0  -0.124
  C  C111  1  0.020900  0.079300  0.538800  1.0  -0.1122
  C  C112  1  0.904200  0.082300  0.565900  1.0  -0.1147
  C  C113  1  0.848600  0.135500  0.571200  1.0  -0.0986
  C  C114  1  0.730100  0.250600  0.591100  1.0  0.6952
  C  C115  1  0.562000  0.262200  0.372800  1.0  0.6998
  C  C116  1  0.355600  0.249200  0.695000  1.0  0.6873
  C  C117  1  0.288400  0.430800  0.518700  1.0  -0.0785
  C  C118  1  0.164200  0.449900  0.505900  1.0  -0.0922
  C  C119  1  0.586000  0.616900  0.984900  1.0  0.6962
  C  C120  1  0.579400  0.559700  0.935300  1.0  -0.1158
  C  C121  1  0.646200  0.513500  0.961600  1.0  -0.0323
  C  C122  1  0.651300  0.460100  0.919600  1.0  -0.0821
  C  C123  1  0.585100  0.452100  0.850700  1.0  -0.1011
  C  C124  1  0.510700  0.499200  0.819300  1.0  0.0209
  C  C125  1  0.507500  0.553900  0.862500  1.0  0.049
  C  C126  1  0.432600  0.598900  0.829600  1.0  -0.107
  C  C127  1  0.370900  0.592400  0.760100  1.0  -0.1215
  C  C128  1  0.377000  0.538600  0.716000  1.0  -0.1364
  C  C129  1  0.446000  0.493500  0.746300  1.0  -0.0977
  C  C130  1  0.588200  0.394000  0.807700  1.0  0.6509
  C  C131  1  0.471500  0.879300  0.939400  1.0  0.6981
  C  C132  1  0.597100  0.963100  0.992500  1.0  -0.0973
  C  C133  1  0.486100  0.942100  0.970900  1.0  -0.0889
  C  C134  1  0.389100  0.977700  0.976700  1.0  -0.0632
  C  C135  1  0.267600  0.957100  0.958100  1.0  -0.1204
  C  C136  1  0.164000  0.991500  0.969500  1.0  -0.1092
  C  C137  1  0.791400  0.738400  0.022300  1.0  0.7086
  C  C138  1  0.913900  0.740200  0.990500  1.0  -0.0907
  C  C139  1  0.968700  0.792000  0.979300  1.0  -0.0841
  C  C140  1  0.085100  0.796100  0.954600  1.0  -0.1654
  C  C141  1  0.147000  0.745200  0.939200  1.0  -0.1154
  C  C142  1  0.093600  0.689300  0.947700  1.0  0.0174
  C  C143  1  0.974600  0.686100  0.973600  1.0  0.0414
  C  C144  1  0.919600  0.629800  0.980600  1.0  -0.1241
  C  C145  1  0.979100  0.579300  0.961200  1.0  -0.1131
  C  C146  1  0.095800  0.582300  0.934100  1.0  -0.1141
  C  C147  1  0.151400  0.635500  0.928800  1.0  -0.0975
  C  C148  1  0.269900  0.750600  0.908900  1.0  0.6966
  C  C149  1  0.438000  0.762200  0.127200  1.0  0.7014
  C  C150  1  0.644400  0.749200  0.805000  1.0  0.6882
  C  C151  1  0.711600  0.930800  0.981300  1.0  -0.0781
  C  C152  1  0.835800  0.949900  0.994100  1.0  -0.0911
  C  C153  1  0.586000  0.883100  0.484900  1.0  0.6964
  C  C154  1  0.579400  0.940300  0.435300  1.0  -0.1164
  C  C155  1  0.646200  0.986500  0.461600  1.0  -0.032
  C  C156  1  0.651300  0.039900  0.419600  1.0  -0.0817
  C  C157  1  0.585100  0.047900  0.350700  1.0  -0.1005
  C  C158  1  0.510700  0.000800  0.319300  1.0  0.0209
  C  C159  1  0.507500  0.946100  0.362500  1.0  0.0487
  C  C160  1  0.432600  0.901100  0.329600  1.0  -0.1069
  C  C161  1  0.370900  0.907600  0.260100  1.0  -0.1208
  C  C162  1  0.377000  0.961400  0.216000  1.0  -0.1362
  C  C163  1  0.446000  0.006500  0.246300  1.0  -0.0978
  C  C164  1  0.588200  0.106000  0.307700  1.0  0.6509
  C  C165  1  0.471500  0.620700  0.439400  1.0  0.698
  C  C166  1  0.597100  0.536900  0.492500  1.0  -0.0927
  C  C167  1  0.486100  0.557900  0.470900  1.0  -0.088
  C  C168  1  0.389100  0.522300  0.476700  1.0  -0.0634
  C  C169  1  0.267600  0.542900  0.458100  1.0  -0.1213
  C  C170  1  0.164000  0.508500  0.469500  1.0  -0.1088
  C  C171  1  0.791400  0.761600  0.522300  1.0  0.709
  C  C172  1  0.913900  0.759800  0.490500  1.0  -0.0911
  C  C173  1  0.968700  0.708000  0.479300  1.0  -0.0843
  C  C174  1  0.085100  0.703900  0.454600  1.0  -0.164
  C  C175  1  0.147000  0.754800  0.439200  1.0  -0.1144
  C  C176  1  0.093600  0.810700  0.447700  1.0  0.0172
  C  C177  1  0.974600  0.813900  0.473600  1.0  0.0414
  C  C178  1  0.919600  0.870200  0.480600  1.0  -0.1242
  C  C179  1  0.979100  0.920700  0.461200  1.0  -0.1138
  C  C180  1  0.095800  0.917700  0.434100  1.0  -0.1145
  C  C181  1  0.151400  0.864500  0.428800  1.0  -0.0986
  C  C182  1  0.269900  0.749400  0.408900  1.0  0.6973
  C  C183  1  0.438000  0.737800  0.627200  1.0  0.7015
  C  C184  1  0.644400  0.750800  0.305000  1.0  0.6877
  C  C185  1  0.711600  0.569200  0.481300  1.0  -0.0779
  C  C186  1  0.835800  0.550100  0.494100  1.0  -0.0907
  C  C187  1  0.414000  0.383100  0.015100  1.0  0.696
  C  C188  1  0.420600  0.440300  0.064700  1.0  -0.1167
  C  C189  1  0.353800  0.486500  0.038400  1.0  -0.0326
  C  C190  1  0.348700  0.539900  0.080400  1.0  -0.0808
  C  C191  1  0.414900  0.547900  0.149300  1.0  -0.1012
  C  C192  1  0.489300  0.500800  0.180700  1.0  0.0209
  C  C193  1  0.492500  0.446100  0.137500  1.0  0.0497
  C  C194  1  0.567400  0.401100  0.170400  1.0  -0.1078
  C  C195  1  0.629100  0.407600  0.239900  1.0  -0.1185
  C  C196  1  0.623000  0.461400  0.284000  1.0  -0.137
  C  C197  1  0.554000  0.506500  0.253700  1.0  -0.0987
  C  C198  1  0.411800  0.606000  0.192300  1.0  0.6518
  C  C199  1  0.528500  0.120700  0.060600  1.0  0.6989
  C  C200  1  0.402900  0.036900  0.007500  1.0  -0.0939
  C  C201  1  0.513900  0.057900  0.029100  1.0  -0.0879
  C  C202  1  0.610900  0.022300  0.023300  1.0  -0.0628
  C  C203  1  0.732400  0.042900  0.041900  1.0  -0.1233
  C  C204  1  0.836000  0.008500  0.030500  1.0  -0.1066
  C  C205  1  0.208600  0.261600  0.977700  1.0  0.7094
  C  C206  1  0.086100  0.259800  0.009500  1.0  -0.0909
  C  C207  1  0.031300  0.208000  0.020700  1.0  -0.0846
  C  C208  1  0.914900  0.203900  0.045400  1.0  -0.1645
  C  C209  1  0.853000  0.254800  0.060800  1.0  -0.1148
  C  C210  1  0.906400  0.310700  0.052300  1.0  0.0168
  C  C211  1  0.025400  0.313900  0.026400  1.0  0.0414
  C  C212  1  0.080400  0.370200  0.019400  1.0  -0.1242
  C  C213  1  0.020900  0.420700  0.038800  1.0  -0.1129
  C  C214  1  0.904200  0.417700  0.065900  1.0  -0.1142
  C  C215  1  0.848600  0.364500  0.071200  1.0  -0.0993
  C  C216  1  0.730100  0.249400  0.091100  1.0  0.6958
  C  C217  1  0.562000  0.237800  0.872800  1.0  0.7006
  C  C218  1  0.355600  0.250800  0.195000  1.0  0.6874
  C  C219  1  0.288400  0.069200  0.018700  1.0  -0.0767
  C  C220  1  0.164200  0.050100  0.005900  1.0  -0.0915
  O  O221  1  0.433400  0.164200  0.552200  1.0  -0.6197
  O  O222  1  0.384500  0.112400  0.442900  1.0  -0.6003
  O  O223  1  0.508000  0.866200  0.710100  1.0  -0.696
  O  O224  1  0.314900  0.873300  0.713500  1.0  -0.5571
  O  O225  1  0.578100  0.373200  0.627800  1.0  -0.6043
  O  O226  1  0.486500  0.339200  0.516400  1.0  -0.6007
  O  O227  1  0.285700  0.266500  0.517800  1.0  -0.6206
  O  O228  1  0.222400  0.211100  0.414200  1.0  -0.6225
  O  O229  1  0.724300  0.269300  0.662500  1.0  -0.608
  O  O230  1  0.645300  0.237600  0.545500  1.0  -0.5976
  O  O231  1  0.482700  0.234800  0.407700  1.0  -0.6977
  O  O232  1  0.599200  0.253200  0.303900  1.0  -0.6308
  O  O233  1  0.447100  0.265000  0.658300  1.0  -0.687
  O  O234  1  0.327100  0.266400  0.761100  1.0  -0.6338
  O  O235  1  0.566600  0.664200  0.947800  1.0  -0.6193
  O  O236  1  0.615500  0.612400  0.057100  1.0  -0.5997
  O  O237  1  0.492000  0.366200  0.789900  1.0  -0.697
  O  O238  1  0.685100  0.373300  0.786500  1.0  -0.5549
  O  O239  1  0.421900  0.873200  0.872200  1.0  -0.6044
  O  O240  1  0.513500  0.839200  0.983600  1.0  -0.6
  O  O241  1  0.714300  0.766500  0.982200  1.0  -0.6203
  O  O242  1  0.777600  0.711100  0.085800  1.0  -0.6226
  O  O243  1  0.275700  0.769300  0.837500  1.0  -0.605
  O  O244  1  0.354700  0.737600  0.954500  1.0  -0.5974
  O  O245  1  0.517300  0.734800  0.092300  1.0  -0.6977
  O  O246  1  0.400800  0.753200  0.196100  1.0  -0.6307
  O  O247  1  0.552900  0.765000  0.841700  1.0  -0.6877
  O  O248  1  0.672900  0.766400  0.738900  1.0  -0.6347
  O  O249  1  0.566600  0.835800  0.447800  1.0  -0.6195
  O  O250  1  0.615500  0.887600  0.557100  1.0  -0.5998
  O  O251  1  0.492000  0.133800  0.289900  1.0  -0.6968
  O  O252  1  0.685100  0.126700  0.286500  1.0  -0.5554
  O  O253  1  0.421900  0.626800  0.372200  1.0  -0.6044
  O  O254  1  0.513500  0.660800  0.483600  1.0  -0.5999
  O  O255  1  0.714300  0.733500  0.482200  1.0  -0.6206
  O  O256  1  0.777600  0.788900  0.585800  1.0  -0.6224
  O  O257  1  0.275700  0.730700  0.337500  1.0  -0.6044
  O  O258  1  0.354700  0.762400  0.454500  1.0  -0.5978
  O  O259  1  0.517300  0.765200  0.592300  1.0  -0.6972
  O  O260  1  0.400800  0.746800  0.696100  1.0  -0.6301
  O  O261  1  0.552900  0.735000  0.341700  1.0  -0.6876
  O  O262  1  0.672900  0.733600  0.238900  1.0  -0.6345
  O  O263  1  0.433400  0.335800  0.052200  1.0  -0.6194
  O  O264  1  0.384500  0.387600  0.942900  1.0  -0.6006
  O  O265  1  0.508000  0.633800  0.210100  1.0  -0.696
  O  O266  1  0.314900  0.626700  0.213500  1.0  -0.5573
  O  O267  1  0.578100  0.126800  0.127800  1.0  -0.6044
  O  O268  1  0.486500  0.160800  0.016400  1.0  -0.6009
  O  O269  1  0.285700  0.233500  0.017800  1.0  -0.6208
  O  O270  1  0.222400  0.288900  0.914200  1.0  -0.6209
  O  O271  1  0.724300  0.230700  0.162500  1.0  -0.6074
  O  O272  1  0.645300  0.262400  0.045500  1.0  -0.5974
  O  O273  1  0.482700  0.265200  0.907700  1.0  -0.6973
  O  O274  1  0.599200  0.246800  0.803900  1.0  -0.6306
  O  O275  1  0.447100  0.235000  0.158300  1.0  -0.687
  O  O276  1  0.327100  0.233600  0.261100  1.0  -0.6344
