# generated using pymatgen
data_Cu5(CN)6
_symmetry_space_group_name_H-M   'P 1'
_cell_length_a   9.45050000
_cell_length_b   9.45050000
_cell_length_c   16.43670000
_cell_angle_alpha   88.51070000
_cell_angle_beta   88.51070000
_cell_angle_gamma   83.79630000
_symmetry_Int_Tables_number   1
_chemical_formula_structural   Cu5(CN)6
_chemical_formula_sum   'Cu10 C12 N12'
_cell_volume   1458.50719942
_cell_formula_units_Z   2
loop_
 _symmetry_equiv_pos_site_id
 _symmetry_equiv_pos_as_xyz
  1  'x, y, z'
loop_
 _atom_site_type_symbol
 _atom_site_label
 _atom_site_symmetry_multiplicity
 _atom_site_fract_x
 _atom_site_fract_y
 _atom_site_fract_z
 _atom_site_occupancy
 _atom_site_charge
  Cu  Cu1  1  0.136060  0.492290  0.502660  1.0  0.4787
  Cu  Cu2  1  0.507710  0.863940  0.997340  1.0  0.4807
  Cu  Cu3  1  0.863940  0.507710  0.497340  1.0  0.4785
  Cu  Cu4  1  0.492290  0.136060  0.002660  1.0  0.4791
  Cu  Cu5  1  0.397720  0.602280  0.250000  1.0  0.2875
  Cu  Cu6  1  0.602280  0.397720  0.750000  1.0  0.2879
  Cu  Cu7  1  0.363820  0.636180  0.750000  1.0  0.2812
  Cu  Cu8  1  0.636180  0.363820  0.250000  1.0  0.2819
  Cu  Cu9  1  0.000000  0.000000  0.500000  1.0  0.4722
  Cu  Cu10  1  0.000000  0.000000  0.000000  1.0  0.4722
  C  C11  1  0.040760  0.316600  0.510730  1.0  -0.0437
  C  C12  1  0.305520  0.537740  0.340910  1.0  -0.046
  C  C13  1  0.281710  0.571150  0.660210  1.0  -0.0489
  C  C14  1  0.683400  0.959240  0.989270  1.0  -0.0446
  C  C15  1  0.462260  0.694480  0.159090  1.0  -0.0453
  C  C16  1  0.428850  0.718290  0.839790  1.0  -0.0485
  C  C17  1  0.959240  0.683400  0.489270  1.0  -0.0442
  C  C18  1  0.694480  0.462260  0.659090  1.0  -0.0451
  C  C19  1  0.718290  0.428850  0.339790  1.0  -0.0481
  C  C20  1  0.316600  0.040760  0.010730  1.0  -0.0445
  C  C21  1  0.537740  0.305520  0.840910  1.0  -0.0463
  C  C22  1  0.571150  0.281710  0.160210  1.0  -0.0484
  N  N23  1  0.026040  0.198840  0.513280  1.0  -0.3039
  N  N24  1  0.243260  0.516120  0.399640  1.0  -0.2782
  N  N25  1  0.228390  0.541710  0.602490  1.0  -0.2812
  N  N26  1  0.801160  0.973960  0.986720  1.0  -0.3022
  N  N27  1  0.483880  0.756740  0.100360  1.0  -0.2775
  N  N28  1  0.458290  0.771610  0.897510  1.0  -0.2807
  N  N29  1  0.973960  0.801160  0.486720  1.0  -0.305
  N  N30  1  0.756740  0.483880  0.600360  1.0  -0.2775
  N  N31  1  0.771610  0.458290  0.397510  1.0  -0.2801
  N  N32  1  0.198840  0.026040  0.013280  1.0  -0.3025
  N  N33  1  0.516120  0.243260  0.899640  1.0  -0.2773
  N  N34  1  0.541710  0.228390  0.102490  1.0  -0.2802
