# generated using pymatgen
data_Cu5(CN)6
_symmetry_space_group_name_H-M   'P 1'
_cell_length_a   9.42720000
_cell_length_b   9.42720000
_cell_length_c   16.40300000
_cell_angle_alpha   88.51890000
_cell_angle_beta   88.51890000
_cell_angle_gamma   83.79550000
_symmetry_Int_Tables_number   1
_chemical_formula_structural   Cu5(CN)6
_chemical_formula_sum   'Cu10 C12 N12'
_cell_volume   1448.35611305
_cell_formula_units_Z   2
loop_
 _symmetry_equiv_pos_site_id
 _symmetry_equiv_pos_as_xyz
  1  'x, y, z'
loop_
 _atom_site_type_symbol
 _atom_site_label
 _atom_site_symmetry_multiplicity
 _atom_site_fract_x
 _atom_site_fract_y
 _atom_site_fract_z
 _atom_site_occupancy
 _atom_site_charge
  Cu  Cu1  1  0.863870  0.507590  0.497460  1.0  0.4823
  Cu  Cu2  1  0.492410  0.136130  0.002540  1.0  0.483
  Cu  Cu3  1  0.136130  0.492410  0.502540  1.0  0.4824
  Cu  Cu4  1  0.507590  0.863870  0.997460  1.0  0.4841
  Cu  Cu5  1  0.000000  0.000000  0.500000  1.0  0.4748
  Cu  Cu6  1  0.000000  0.000000  0.000000  1.0  0.4748
  Cu  Cu7  1  0.602330  0.397670  0.750000  1.0  0.283
  Cu  Cu8  1  0.397670  0.602330  0.250000  1.0  0.2827
  Cu  Cu9  1  0.636620  0.363380  0.250000  1.0  0.2849
  Cu  Cu10  1  0.363380  0.636620  0.750000  1.0  0.2845
  C  C11  1  0.693300  0.463300  0.660100  1.0  -0.052
  C  C12  1  0.959700  0.683500  0.489100  1.0  -0.0448
  C  C13  1  0.716500  0.427900  0.339700  1.0  -0.0432
  C  C14  1  0.536700  0.306700  0.839900  1.0  -0.0514
  C  C15  1  0.316500  0.040300  0.010900  1.0  -0.0457
  C  C16  1  0.572100  0.283500  0.160300  1.0  -0.0446
  C  C17  1  0.306700  0.536700  0.339900  1.0  -0.0508
  C  C18  1  0.040300  0.316500  0.510900  1.0  -0.0424
  C  C19  1  0.283500  0.572100  0.660300  1.0  -0.045
  C  C20  1  0.463300  0.693300  0.160100  1.0  -0.0524
  C  C21  1  0.683500  0.959700  0.989100  1.0  -0.044
  C  C22  1  0.427900  0.716500  0.839700  1.0  -0.0434
  N  N23  1  0.756800  0.484200  0.600900  1.0  -0.2827
  N  N24  1  0.975700  0.800900  0.486900  1.0  -0.3039
  N  N25  1  0.771900  0.458500  0.396900  1.0  -0.2797
  N  N26  1  0.515800  0.243200  0.899100  1.0  -0.282
  N  N27  1  0.199100  0.024300  0.013100  1.0  -0.3008
  N  N28  1  0.541500  0.228100  0.103100  1.0  -0.2799
  N  N29  1  0.243200  0.515800  0.399100  1.0  -0.283
  N  N30  1  0.024300  0.199100  0.513100  1.0  -0.3024
  N  N31  1  0.228100  0.541500  0.603100  1.0  -0.2795
  N  N32  1  0.484200  0.756800  0.100900  1.0  -0.2819
  N  N33  1  0.800900  0.975700  0.986900  1.0  -0.3011
  N  N34  1  0.458500  0.771900  0.896900  1.0  -0.2798
