# generated using pymatgen
data_Cu5(CN)6
_symmetry_space_group_name_H-M   'P 1'
_cell_length_a   9.43660000
_cell_length_b   9.43660000
_cell_length_c   16.42400000
_cell_angle_alpha   88.50490000
_cell_angle_beta   88.50490000
_cell_angle_gamma   83.74160000
_symmetry_Int_Tables_number   1
_chemical_formula_structural   Cu5(CN)6
_chemical_formula_sum   'Cu10 C12 N12'
_cell_volume   1452.93871508
_cell_formula_units_Z   2
loop_
 _symmetry_equiv_pos_site_id
 _symmetry_equiv_pos_as_xyz
  1  'x, y, z'
loop_
 _atom_site_type_symbol
 _atom_site_label
 _atom_site_symmetry_multiplicity
 _atom_site_fract_x
 _atom_site_fract_y
 _atom_site_fract_z
 _atom_site_occupancy
 _atom_site_charge
  Cu  Cu1  1  0.492240  0.136180  0.502560  1.0  0.4755
  Cu  Cu2  1  0.863820  0.507760  0.997440  1.0  0.4751
  Cu  Cu3  1  0.507760  0.863820  0.497440  1.0  0.4774
  Cu  Cu4  1  0.136180  0.492240  0.002560  1.0  0.4748
  Cu  Cu5  1  0.000000  0.000000  0.500000  1.0  0.4571
  Cu  Cu6  1  0.000000  0.000000  0.000000  1.0  0.4571
  Cu  Cu7  1  0.636620  0.363380  0.750000  1.0  0.2839
  Cu  Cu8  1  0.363380  0.636620  0.250000  1.0  0.2841
  Cu  Cu9  1  0.602200  0.397800  0.250000  1.0  0.2951
  Cu  Cu10  1  0.397800  0.602200  0.750000  1.0  0.2948
  C  C11  1  0.316600  0.040600  0.510800  1.0  -0.0452
  C  C12  1  0.571500  0.282900  0.661400  1.0  -0.0444
  C  C13  1  0.538000  0.306400  0.339900  1.0  -0.0394
  C  C14  1  0.959400  0.683400  0.989200  1.0  -0.0448
  C  C15  1  0.717100  0.428500  0.838600  1.0  -0.0426
  C  C16  1  0.693600  0.462000  0.160100  1.0  -0.0395
  C  C17  1  0.683400  0.959400  0.489200  1.0  -0.0441
  C  C18  1  0.428500  0.717100  0.338600  1.0  -0.0428
  C  C19  1  0.462000  0.693600  0.660100  1.0  -0.0399
  C  C20  1  0.040600  0.316600  0.010800  1.0  -0.0431
  C  C21  1  0.282900  0.571500  0.161400  1.0  -0.0447
  C  C22  1  0.306400  0.538000  0.839900  1.0  -0.0386
  N  N23  1  0.198900  0.025300  0.513400  1.0  -0.3007
  N  N24  1  0.542200  0.229200  0.603400  1.0  -0.2809
  N  N25  1  0.515800  0.244800  0.398300  1.0  -0.2846
  N  N26  1  0.974700  0.801100  0.986600  1.0  -0.3017
  N  N27  1  0.770800  0.457800  0.896600  1.0  -0.2817
  N  N28  1  0.755200  0.484200  0.101700  1.0  -0.2851
  N  N29  1  0.801100  0.974700  0.486600  1.0  -0.3009
  N  N30  1  0.457800  0.770800  0.396600  1.0  -0.2797
  N  N31  1  0.484200  0.755200  0.601700  1.0  -0.2845
  N  N32  1  0.025300  0.198900  0.013400  1.0  -0.3024
  N  N33  1  0.229200  0.542200  0.103400  1.0  -0.2787
  N  N34  1  0.244800  0.515800  0.898300  1.0  -0.2851
