# generated using pymatgen
data_TbC22(Cl2O)6
_symmetry_space_group_name_H-M   'P 1'
_cell_length_a   27.92000000
_cell_length_b   27.92000000
_cell_length_c   30.66930000
_cell_angle_alpha   62.92350000
_cell_angle_beta   62.92350000
_cell_angle_gamma   89.99990000
_symmetry_Int_Tables_number   1
_chemical_formula_structural   TbC22(Cl2O)6
_chemical_formula_sum   'Tb8 C176 Cl96 O48'
_cell_volume   18295.48586123
_cell_formula_units_Z   8
loop_
 _symmetry_equiv_pos_site_id
 _symmetry_equiv_pos_as_xyz
  1  'x, y, z'
loop_
 _atom_site_type_symbol
 _atom_site_label
 _atom_site_symmetry_multiplicity
 _atom_site_fract_x
 _atom_site_fract_y
 _atom_site_fract_z
 _atom_site_occupancy
 _atom_site_charge
  Tb  Tb1  1  0.094050  0.454600  0.490260  1.0  2.1751
  Tb  Tb2  1  0.915690  0.055140  0.490260  1.0  2.1759
  Tb  Tb3  1  0.454590  0.915680  0.990270  1.0  2.176
  Tb  Tb4  1  0.055150  0.094060  0.990250  1.0  2.1755
  Tb  Tb5  1  0.905950  0.545400  0.509740  1.0  2.1765
  Tb  Tb6  1  0.084310  0.944860  0.509740  1.0  2.1752
  Tb  Tb7  1  0.545410  0.084320  0.009730  1.0  2.1762
  Tb  Tb8  1  0.944850  0.905940  0.009750  1.0  2.176
  C  C9  1  0.205700  0.560000  0.417600  1.0  0.7148
  C  C10  1  0.224800  0.622700  0.389400  1.0  -0.1327
  C  C11  1  0.231660  0.646760  0.417880  1.0  0.0465
  C  C12  1  0.247900  0.702800  0.393200  1.0  0.145
  C  C13  1  0.259460  0.739760  0.336880  1.0  -0.0262
  C  C14  1  0.254850  0.715850  0.307500  1.0  0.0471
  C  C15  1  0.237000  0.658000  0.334400  1.0  0.0845
  C  C16  1  0.275130  0.801230  0.311140  1.0  -0.0584
  C  C17  1  0.150400  0.906200  0.437800  1.0  0.688
  C  C18  1  0.182840  0.880340  0.403320  1.0  -0.1303
  C  C19  1  0.240170  0.891370  0.377060  1.0  0.0819
  C  C20  1  0.269550  0.866450  0.348100  1.0  0.1077
  C  C21  1  0.242790  0.826790  0.343820  1.0  0.0032
  C  C22  1  0.184750  0.815750  0.371100  1.0  0.1576
  C  C23  1  0.156040  0.843140  0.399320  1.0  0.0101
  C  C24  1  0.458200  0.951800  0.083400  1.0  0.7036
  C  C25  1  0.410420  0.911020  0.142560  1.0  -0.1421
  C  C26  1  0.357860  0.919960  0.159880  1.0  0.1137
  C  C27  1  0.313100  0.883700  0.213200  1.0  -0.0138
  C  C28  1  0.320540  0.837440  0.253120  1.0  0.0066
  C  C29  1  0.375330  0.829030  0.234140  1.0  0.0551
  C  C30  1  0.418880  0.865580  0.180240  1.0  0.0103
  C  C31  1  0.876700  0.022400  0.417600  1.0  0.7143
  C  C32  1  0.885800  0.987900  0.389400  1.0  -0.1322
  C  C33  1  0.850460  0.935360  0.417880  1.0  0.0412
  C  C34  1  0.858900  0.904000  0.393200  1.0  0.1447
  C  C35  1  0.903660  0.923360  0.336880  1.0  -0.0254
  C  C36  1  0.937650  0.976650  0.307500  1.0  0.0482
  C  C37  1  0.928600  0.007600  0.334400  1.0  0.0849
  C  C38  1  0.913730  0.887630  0.311140  1.0  -0.0589
  C  C39  1  0.911800  0.656000  0.437800  1.0  0.6878
  C  C40  1  0.913840  0.716340  0.403320  1.0  -0.1296
  C  C41  1  0.882770  0.731570  0.377060  1.0  0.0778
  C  C42  1  0.882350  0.785450  0.348100  1.0  0.1087
  C  C43  1  0.913390  0.829390  0.343820  1.0  0.003
  C  C44  1  0.944150  0.813150  0.371100  1.0  0.1564
  C  C45  1  0.944640  0.757540  0.399320  1.0  0.0202
  C  C46  1  0.958400  0.964800  0.083400  1.0  0.7033
  C  C47  1  0.947020  0.946420  0.142560  1.0  -0.1422
  C  C48  1  0.982260  0.920160  0.159880  1.0  0.1123
  C  C49  1  0.973700  0.903100  0.213200  1.0  -0.013
  C  C50  1  0.926340  0.909440  0.253120  1.0  0.0068
  C  C51  1  0.890530  0.936830  0.234140  1.0  0.0535
  C  C52  1  0.900880  0.954180  0.180240  1.0  0.0071
  C  C53  1  0.560000  0.876700  0.917600  1.0  0.7161
  C  C54  1  0.622700  0.885800  0.889400  1.0  -0.1319
  C  C55  1  0.646760  0.850460  0.917880  1.0  0.0419
  C  C56  1  0.702800  0.858900  0.893200  1.0  0.1449
  C  C57  1  0.739760  0.903660  0.836880  1.0  -0.0247
  C  C58  1  0.715850  0.937650  0.807500  1.0  0.0482
  C  C59  1  0.658000  0.928600  0.834400  1.0  0.0838
  C  C60  1  0.801230  0.913730  0.811140  1.0  -0.0585
  C  C61  1  0.906200  0.911800  0.937800  1.0  0.6908
  C  C62  1  0.880340  0.913840  0.903320  1.0  -0.1303
  C  C63  1  0.891370  0.882770  0.877060  1.0  0.0801
  C  C64  1  0.866450  0.882350  0.848100  1.0  0.1076
  C  C65  1  0.826790  0.913390  0.843820  1.0  0.0038
  C  C66  1  0.815750  0.944150  0.871100  1.0  0.1568
  C  C67  1  0.843140  0.944640  0.899320  1.0  0.0081
  C  C68  1  0.951800  0.958400  0.583400  1.0  0.7024
  C  C69  1  0.911020  0.947020  0.642560  1.0  -0.1429
  C  C70  1  0.919960  0.982260  0.659880  1.0  0.1123
  C  C71  1  0.883700  0.973700  0.713200  1.0  -0.0139
  C  C72  1  0.837440  0.926340  0.753120  1.0  0.0071
  C  C73  1  0.829030  0.890530  0.734140  1.0  0.0514
  C  C74  1  0.865580  0.900880  0.680240  1.0  0.0096
  C  C75  1  0.022400  0.205700  0.917600  1.0  0.7162
  C  C76  1  0.987900  0.224800  0.889400  1.0  -0.1312
  C  C77  1  0.935360  0.231660  0.917880  1.0  0.0493
  C  C78  1  0.904000  0.247900  0.893200  1.0  0.1478
  C  C79  1  0.923360  0.259460  0.836880  1.0  -0.0256
  C  C80  1  0.976650  0.254850  0.807500  1.0  0.0478
  C  C81  1  0.007600  0.237000  0.834400  1.0  0.0838
  C  C82  1  0.887630  0.275130  0.811140  1.0  -0.0592
  C  C83  1  0.656000  0.150400  0.937800  1.0  0.6872
  C  C84  1  0.716340  0.182840  0.903320  1.0  -0.1288
  C  C85  1  0.731570  0.240170  0.877060  1.0  0.0825
  C  C86  1  0.785450  0.269550  0.848100  1.0  0.1086
  C  C87  1  0.829390  0.242790  0.843820  1.0  0.0038
  C  C88  1  0.813150  0.184750  0.871100  1.0  0.157
  C  C89  1  0.757540  0.156040  0.899320  1.0  0.0115
  C  C90  1  0.964800  0.458200  0.583400  1.0  0.7021
  C  C91  1  0.946420  0.410420  0.642560  1.0  -0.1438
  C  C92  1  0.920160  0.357860  0.659880  1.0  0.1123
  C  C93  1  0.903100  0.313100  0.713200  1.0  -0.0101
  C  C94  1  0.909440  0.320540  0.753120  1.0  0.007
  C  C95  1  0.936830  0.375330  0.734140  1.0  0.0542
  C  C96  1  0.954180  0.418880  0.680240  1.0  0.0083
  C  C97  1  0.794300  0.440000  0.582400  1.0  0.7144
  C  C98  1  0.775200  0.377300  0.610600  1.0  -0.1323
  C  C99  1  0.768340  0.353240  0.582120  1.0  0.0406
  C  C100  1  0.752100  0.297200  0.606800  1.0  0.1458
  C  C101  1  0.740540  0.260240  0.663120  1.0  -0.0261
  C  C102  1  0.745150  0.284150  0.692500  1.0  0.0454
  C  C103  1  0.763000  0.342000  0.665600  1.0  0.0863
  C  C104  1  0.724870  0.198770  0.688860  1.0  -0.0594
  C  C105  1  0.849600  0.093800  0.562200  1.0  0.6838
  C  C106  1  0.817160  0.119660  0.596680  1.0  -0.1301
  C  C107  1  0.759830  0.108630  0.622940  1.0  0.0785
  C  C108  1  0.730450  0.133550  0.651900  1.0  0.1065
  C  C109  1  0.757210  0.173210  0.656180  1.0  0.0023
  C  C110  1  0.815250  0.184250  0.628900  1.0  0.1562
  C  C111  1  0.843960  0.156860  0.600680  1.0  0.0115
  C  C112  1  0.541800  0.048200  0.916600  1.0  0.704
  C  C113  1  0.589580  0.088980  0.857440  1.0  -0.1421
  C  C114  1  0.642140  0.080040  0.840120  1.0  0.1148
  C  C115  1  0.686900  0.116300  0.786800  1.0  -0.0126
  C  C116  1  0.679460  0.162560  0.746880  1.0  0.007
  C  C117  1  0.624670  0.170970  0.765860  1.0  0.0536
  C  C118  1  0.581120  0.134420  0.819760  1.0  0.0079
  C  C119  1  0.123300  0.977600  0.582400  1.0  0.7152
  C  C120  1  0.114200  0.012100  0.610600  1.0  -0.1333
  C  C121  1  0.149540  0.064640  0.582120  1.0  0.0405
  C  C122  1  0.141100  0.096000  0.606800  1.0  0.1439
  C  C123  1  0.096340  0.076640  0.663120  1.0  -0.0258
  C  C124  1  0.062350  0.023350  0.692500  1.0  0.048
  C  C125  1  0.071400  0.992400  0.665600  1.0  0.0862
  C  C126  1  0.086270  0.112370  0.688860  1.0  -0.0589
  C  C127  1  0.088200  0.344000  0.562200  1.0  0.6881
  C  C128  1  0.086160  0.283660  0.596680  1.0  -0.1293
  C  C129  1  0.117230  0.268430  0.622940  1.0  0.0829
  C  C130  1  0.117650  0.214550  0.651900  1.0  0.1086
  C  C131  1  0.086610  0.170610  0.656180  1.0  0.0028
  C  C132  1  0.055850  0.186850  0.628900  1.0  0.1577
  C  C133  1  0.055360  0.242460  0.600680  1.0  0.0113
  C  C134  1  0.041600  0.035200  0.916600  1.0  0.7038
  C  C135  1  0.052980  0.053580  0.857440  1.0  -0.1411
  C  C136  1  0.017740  0.079840  0.840120  1.0  0.1127
  C  C137  1  0.026300  0.096900  0.786800  1.0  -0.0139
  C  C138  1  0.073660  0.090560  0.746880  1.0  0.0068
  C  C139  1  0.109470  0.063170  0.765860  1.0  0.0551
  C  C140  1  0.099120  0.045820  0.819760  1.0  0.0105
  C  C141  1  0.440000  0.123300  0.082400  1.0  0.7161
  C  C142  1  0.377300  0.114200  0.110600  1.0  -0.1325
  C  C143  1  0.353240  0.149540  0.082120  1.0  0.0392
  C  C144  1  0.297200  0.141100  0.106800  1.0  0.1454
  C  C145  1  0.260240  0.096340  0.163120  1.0  -0.0248
  C  C146  1  0.284150  0.062350  0.192500  1.0  0.0471
  C  C147  1  0.342000  0.071400  0.165600  1.0  0.083
  C  C148  1  0.198770  0.086270  0.188860  1.0  -0.0588
  C  C149  1  0.093800  0.088200  0.062200  1.0  0.6875
  C  C150  1  0.119660  0.086160  0.096680  1.0  -0.1312
  C  C151  1  0.108630  0.117230  0.122940  1.0  0.0814
  C  C152  1  0.133550  0.117650  0.151900  1.0  0.1063
  C  C153  1  0.173210  0.086610  0.156180  1.0  0.0024
  C  C154  1  0.184250  0.055850  0.128900  1.0  0.1559
  C  C155  1  0.156860  0.055360  0.100680  1.0  0.0082
  C  C156  1  0.048200  0.041600  0.416600  1.0  0.7032
  C  C157  1  0.088980  0.052980  0.357440  1.0  -0.1438
  C  C158  1  0.080040  0.017740  0.340120  1.0  0.1118
  C  C159  1  0.116300  0.026300  0.286800  1.0  -0.0122
  C  C160  1  0.162560  0.073660  0.246880  1.0  0.0068
  C  C161  1  0.170970  0.109470  0.265860  1.0  0.0521
  C  C162  1  0.134420  0.099120  0.319760  1.0  0.0073
  C  C163  1  0.977600  0.794300  0.082400  1.0  0.7175
  C  C164  1  0.012100  0.775200  0.110600  1.0  -0.1316
  C  C165  1  0.064640  0.768340  0.082120  1.0  0.0417
  C  C166  1  0.096000  0.752100  0.106800  1.0  0.1471
  C  C167  1  0.076640  0.740540  0.163120  1.0  -0.0263
  C  C168  1  0.023350  0.745150  0.192500  1.0  0.0476
  C  C169  1  0.992400  0.763000  0.165600  1.0  0.085
  C  C170  1  0.112370  0.724870  0.188860  1.0  -0.0591
  C  C171  1  0.344000  0.849600  0.062200  1.0  0.6856
  C  C172  1  0.283660  0.817160  0.096680  1.0  -0.1303
  C  C173  1  0.268430  0.759830  0.122940  1.0  0.0776
  C  C174  1  0.214550  0.730450  0.151900  1.0  0.1084
  C  C175  1  0.170610  0.757210  0.156180  1.0  0.0035
  C  C176  1  0.186850  0.815250  0.128900  1.0  0.1564
  C  C177  1  0.242460  0.843960  0.100680  1.0  0.0089
  C  C178  1  0.035200  0.541800  0.416600  1.0  0.7026
  C  C179  1  0.053580  0.589580  0.357440  1.0  -0.1442
  C  C180  1  0.079840  0.642140  0.340120  1.0  0.115
  C  C181  1  0.096900  0.686900  0.286800  1.0  -0.0117
  C  C182  1  0.090560  0.679460  0.246880  1.0  0.0073
  C  C183  1  0.063170  0.624670  0.265860  1.0  0.0509
  C  C184  1  0.045820  0.581120  0.319760  1.0  0.0102
  Cl  Cl185  1  0.218870  0.602870  0.486080  1.0  -0.1036
  Cl  Cl186  1  0.258770  0.729540  0.430140  1.0  -0.0916
  Cl  Cl187  1  0.265520  0.756550  0.240400  1.0  -0.0752
  Cl  Cl188  1  0.228610  0.629210  0.297840  1.0  -0.0683
  Cl  Cl189  1  0.274660  0.938820  0.382460  1.0  -0.0961
  Cl  Cl190  1  0.341160  0.879490  0.320380  1.0  -0.0926
  Cl  Cl191  1  0.148380  0.770540  0.365760  1.0  -0.0666
  Cl  Cl192  1  0.083890  0.828810  0.429940  1.0  -0.0748
  Cl  Cl193  1  0.347330  0.977970  0.113780  1.0  -0.052
  Cl  Cl194  1  0.247460  0.892110  0.230680  1.0  -0.095
  Cl  Cl195  1  0.388190  0.774860  0.280720  1.0  -0.1036
  Cl  Cl196  1  0.484940  0.856230  0.157920  1.0  -0.0873
  Cl  Cl197  1  0.795050  0.911050  0.486080  1.0  -0.1022
  Cl  Cl198  1  0.811090  0.840320  0.430140  1.0  -0.0935
  Cl  Cl199  1  0.994080  0.003050  0.240400  1.0  -0.0725
  Cl  Cl200  1  0.973550  0.072950  0.297840  1.0  -0.0674
  Cl  Cl201  1  0.842880  0.678720  0.382460  1.0  -0.0988
  Cl  Cl202  1  0.838460  0.800130  0.320380  1.0  -0.0906
  Cl  Cl203  1  0.985860  0.863700  0.365760  1.0  -0.0672
  Cl  Cl204  1  0.986170  0.741250  0.429940  1.0  -0.0746
  Cl  Cl205  1  0.038890  0.908250  0.113780  1.0  -0.0538
  Cl  Cl206  1  0.021860  0.877210  0.230680  1.0  -0.0932
  Cl  Cl207  1  0.831090  0.944420  0.280720  1.0  -0.1037
  Cl  Cl208  1  0.857140  0.985850  0.157920  1.0  -0.0876
  Cl  Cl209  1  0.602870  0.795050  0.986080  1.0  -0.1011
  Cl  Cl210  1  0.729540  0.811090  0.930140  1.0  -0.0958
  Cl  Cl211  1  0.756550  0.994080  0.740400  1.0  -0.0733
  Cl  Cl212  1  0.629210  0.973550  0.797840  1.0  -0.0656
  Cl  Cl213  1  0.938820  0.842880  0.882460  1.0  -0.0993
  Cl  Cl214  1  0.879490  0.838460  0.820380  1.0  -0.0913
  Cl  Cl215  1  0.770540  0.985860  0.865760  1.0  -0.0665
  Cl  Cl216  1  0.828810  0.986170  0.929940  1.0  -0.0763
  Cl  Cl217  1  0.977970  0.038890  0.613780  1.0  -0.0516
  Cl  Cl218  1  0.892110  0.021860  0.730680  1.0  -0.0964
  Cl  Cl219  1  0.774860  0.831090  0.780720  1.0  -0.104
  Cl  Cl220  1  0.856230  0.857140  0.657920  1.0  -0.0894
  Cl  Cl221  1  0.911050  0.218870  0.986080  1.0  -0.1008
  Cl  Cl222  1  0.840320  0.258770  0.930140  1.0  -0.0915
  Cl  Cl223  1  0.003050  0.265520  0.740400  1.0  -0.0729
  Cl  Cl224  1  0.072950  0.228610  0.797840  1.0  -0.0669
  Cl  Cl225  1  0.678720  0.274660  0.882460  1.0  -0.0978
  Cl  Cl226  1  0.800130  0.341160  0.820380  1.0  -0.0912
  Cl  Cl227  1  0.863700  0.148380  0.865760  1.0  -0.0667
  Cl  Cl228  1  0.741250  0.083890  0.929940  1.0  -0.0761
  Cl  Cl229  1  0.908250  0.347330  0.613780  1.0  -0.0555
  Cl  Cl230  1  0.877210  0.247460  0.730680  1.0  -0.0979
  Cl  Cl231  1  0.944420  0.388190  0.780720  1.0  -0.1045
  Cl  Cl232  1  0.985850  0.484940  0.657920  1.0  -0.0875
  Cl  Cl233  1  0.781130  0.397130  0.513920  1.0  -0.1022
  Cl  Cl234  1  0.741230  0.270460  0.569860  1.0  -0.0949
  Cl  Cl235  1  0.734480  0.243450  0.759600  1.0  -0.075
  Cl  Cl236  1  0.771390  0.370790  0.702160  1.0  -0.0687
  Cl  Cl237  1  0.725340  0.061180  0.617540  1.0  -0.0988
  Cl  Cl238  1  0.658840  0.120510  0.679620  1.0  -0.0907
  Cl  Cl239  1  0.851620  0.229460  0.634240  1.0  -0.0667
  Cl  Cl240  1  0.916110  0.171190  0.570060  1.0  -0.0745
  Cl  Cl241  1  0.652670  0.022030  0.886220  1.0  -0.0535
  Cl  Cl242  1  0.752540  0.107890  0.769320  1.0  -0.0943
  Cl  Cl243  1  0.611810  0.225140  0.719280  1.0  -0.1038
  Cl  Cl244  1  0.515060  0.143770  0.842080  1.0  -0.0855
  Cl  Cl245  1  0.204950  0.088950  0.513920  1.0  -0.1017
  Cl  Cl246  1  0.188910  0.159680  0.569860  1.0  -0.0917
  Cl  Cl247  1  0.005920  0.996950  0.759600  1.0  -0.0739
  Cl  Cl248  1  0.026450  0.927050  0.702160  1.0  -0.0674
  Cl  Cl249  1  0.157120  0.321280  0.617540  1.0  -0.0976
  Cl  Cl250  1  0.161540  0.199870  0.679620  1.0  -0.0926
  Cl  Cl251  1  0.014140  0.136300  0.634240  1.0  -0.0698
  Cl  Cl252  1  0.013830  0.258750  0.570060  1.0  -0.0749
  Cl  Cl253  1  0.961110  0.091750  0.886220  1.0  -0.0537
  Cl  Cl254  1  0.978140  0.122790  0.769320  1.0  -0.0939
  Cl  Cl255  1  0.168910  0.055580  0.719280  1.0  -0.1038
  Cl  Cl256  1  0.142860  0.014150  0.842080  1.0  -0.0875
  Cl  Cl257  1  0.397130  0.204950  0.013920  1.0  -0.0998
  Cl  Cl258  1  0.270460  0.188910  0.069860  1.0  -0.095
  Cl  Cl259  1  0.243450  0.005920  0.259600  1.0  -0.0743
  Cl  Cl260  1  0.370790  0.026450  0.202160  1.0  -0.0666
  Cl  Cl261  1  0.061180  0.157120  0.117540  1.0  -0.0979
  Cl  Cl262  1  0.120510  0.161540  0.179620  1.0  -0.091
  Cl  Cl263  1  0.229460  0.014140  0.134240  1.0  -0.0669
  Cl  Cl264  1  0.171190  0.013830  0.070060  1.0  -0.0767
  Cl  Cl265  1  0.022030  0.961110  0.386220  1.0  -0.0523
  Cl  Cl266  1  0.107890  0.978140  0.269320  1.0  -0.0983
  Cl  Cl267  1  0.225140  0.168910  0.219280  1.0  -0.1034
  Cl  Cl268  1  0.143770  0.142860  0.342080  1.0  -0.087
  Cl  Cl269  1  0.088950  0.781130  0.013920  1.0  -0.0994
  Cl  Cl270  1  0.159680  0.741230  0.069860  1.0  -0.0932
  Cl  Cl271  1  0.996950  0.734480  0.259600  1.0  -0.0736
  Cl  Cl272  1  0.927050  0.771390  0.202160  1.0  -0.0675
  Cl  Cl273  1  0.321280  0.725340  0.117540  1.0  -0.0994
  Cl  Cl274  1  0.199870  0.658840  0.179620  1.0  -0.0922
  Cl  Cl275  1  0.136300  0.851620  0.134240  1.0  -0.0669
  Cl  Cl276  1  0.258750  0.916110  0.070060  1.0  -0.0762
  Cl  Cl277  1  0.091750  0.652670  0.386220  1.0  -0.0555
  Cl  Cl278  1  0.122790  0.752540  0.269320  1.0  -0.0977
  Cl  Cl279  1  0.055580  0.611810  0.219280  1.0  -0.1045
  Cl  Cl280  1  0.014150  0.515060  0.342080  1.0  -0.0903
  O  O281  1  0.154250  0.539350  0.445500  1.0  -0.6448
  O  O282  1  0.242560  0.535660  0.411280  1.0  -0.4829
  O  O283  1  0.129630  0.943430  0.417940  1.0  -0.5919
  O  O284  1  0.143590  0.887690  0.485820  1.0  -0.5786
  O  O285  1  0.481940  0.994340  0.076720  1.0  -0.6882
  O  O286  1  0.470400  0.939040  0.046320  1.0  -0.6416
  O  O287  1  0.900250  0.015150  0.445500  1.0  -0.6445
  O  O288  1  0.846160  0.053060  0.411280  1.0  -0.4837
  O  O289  1  0.952430  0.638630  0.417940  1.0  -0.5904
  O  O290  1  0.870590  0.626490  0.485820  1.0  -0.5785
  O  O291  1  0.941340  0.928940  0.076720  1.0  -0.6896
  O  O292  1  0.983280  0.014640  0.046320  1.0  -0.6414
  O  O293  1  0.539350  0.900250  0.945500  1.0  -0.6455
  O  O294  1  0.535660  0.846160  0.911280  1.0  -0.4907
  O  O295  1  0.943430  0.952430  0.917940  1.0  -0.5922
  O  O296  1  0.887690  0.870590  0.985820  1.0  -0.5753
  O  O297  1  0.994340  0.941340  0.576720  1.0  -0.6884
  O  O298  1  0.939040  0.983280  0.546320  1.0  -0.643
  O  O299  1  0.015150  0.154250  0.945500  1.0  -0.6434
  O  O300  1  0.053060  0.242560  0.911280  1.0  -0.4881
  O  O301  1  0.638630  0.129630  0.917940  1.0  -0.5906
  O  O302  1  0.626490  0.143590  0.985820  1.0  -0.5804
  O  O303  1  0.928940  0.481940  0.576720  1.0  -0.6883
  O  O304  1  0.014640  0.470400  0.546320  1.0  -0.6408
  O  O305  1  0.845750  0.460650  0.554500  1.0  -0.6447
  O  O306  1  0.757440  0.464340  0.588720  1.0  -0.4855
  O  O307  1  0.870370  0.056570  0.582060  1.0  -0.5915
  O  O308  1  0.856410  0.112310  0.514180  1.0  -0.5783
  O  O309  1  0.518060  0.005660  0.923280  1.0  -0.6896
  O  O310  1  0.529600  0.060960  0.953680  1.0  -0.645
  O  O311  1  0.099750  0.984850  0.554500  1.0  -0.6457
  O  O312  1  0.153840  0.946940  0.588720  1.0  -0.4837
  O  O313  1  0.047570  0.361370  0.582060  1.0  -0.5914
  O  O314  1  0.129410  0.373510  0.514180  1.0  -0.5772
  O  O315  1  0.058660  0.071060  0.923280  1.0  -0.6885
  O  O316  1  0.016720  0.985360  0.953680  1.0  -0.6457
  O  O317  1  0.460650  0.099750  0.054500  1.0  -0.6442
  O  O318  1  0.464340  0.153840  0.088720  1.0  -0.4925
  O  O319  1  0.056570  0.047570  0.082060  1.0  -0.5891
  O  O320  1  0.112310  0.129410  0.014180  1.0  -0.5747
  O  O321  1  0.005660  0.058660  0.423280  1.0  -0.6873
  O  O322  1  0.060960  0.016720  0.453680  1.0  -0.6453
  O  O323  1  0.984850  0.845750  0.054500  1.0  -0.644
  O  O324  1  0.946940  0.757440  0.088720  1.0  -0.4877
  O  O325  1  0.361370  0.870370  0.082060  1.0  -0.5891
  O  O326  1  0.373510  0.856410  0.014180  1.0  -0.5791
  O  O327  1  0.071060  0.518060  0.423280  1.0  -0.6891
  O  O328  1  0.985360  0.529600  0.453680  1.0  -0.6453
