# generated using pymatgen
data_TbHC22(Cl2O)6
_symmetry_space_group_name_H-M   'P 1'
_cell_length_a   28.48600000
_cell_length_b   28.48600000
_cell_length_c   46.67800000
_cell_angle_alpha   90.00000000
_cell_angle_beta   90.00000000
_cell_angle_gamma   90.00000000
_symmetry_Int_Tables_number   1
_chemical_formula_structural   TbHC22(Cl2O)6
_chemical_formula_sum   'Tb16 H16 C352 Cl192 O96'
_cell_volume   37876.96560489
_cell_formula_units_Z   16
loop_
 _symmetry_equiv_pos_site_id
 _symmetry_equiv_pos_as_xyz
  1  'x, y, z'
loop_
 _atom_site_type_symbol
 _atom_site_label
 _atom_site_symmetry_multiplicity
 _atom_site_fract_x
 _atom_site_fract_y
 _atom_site_fract_z
 _atom_site_occupancy
 _atom_site_charge
  Tb  Tb1  1  0.795470  0.163870  0.254160  1.0  2.1767
  Tb  Tb2  1  0.295470  0.663870  0.754160  1.0  2.1767
  Tb  Tb3  1  0.704530  0.836130  0.754160  1.0  2.1757
  Tb  Tb4  1  0.204530  0.336130  0.254160  1.0  2.1757
  Tb  Tb5  1  0.586130  0.045470  0.504160  1.0  2.1765
  Tb  Tb6  1  0.086130  0.545470  0.004160  1.0  2.1765
  Tb  Tb7  1  0.913870  0.954530  0.004160  1.0  2.1763
  Tb  Tb8  1  0.413870  0.454530  0.504160  1.0  2.1763
  Tb  Tb9  1  0.204530  0.836130  0.745840  1.0  2.1758
  Tb  Tb10  1  0.704530  0.336130  0.245840  1.0  2.1758
  Tb  Tb11  1  0.295470  0.163870  0.245840  1.0  2.1765
  Tb  Tb12  1  0.795470  0.663870  0.745840  1.0  2.1765
  Tb  Tb13  1  0.413870  0.954530  0.495840  1.0  2.1761
  Tb  Tb14  1  0.913870  0.454530  0.995840  1.0  2.1761
  Tb  Tb15  1  0.086130  0.045470  0.995840  1.0  2.1765
  Tb  Tb16  1  0.586130  0.545470  0.495840  1.0  2.1765
  H  H17  1  0.539200  0.037800  0.333000  1.0  0.1271
  H  H18  1  0.039200  0.537800  0.833000  1.0  0.1271
  H  H19  1  0.960800  0.962200  0.833000  1.0  0.1248
  H  H20  1  0.460800  0.462200  0.333000  1.0  0.1248
  H  H21  1  0.712200  0.789200  0.583000  1.0  0.1309
  H  H22  1  0.212200  0.289200  0.083000  1.0  0.1309
  H  H23  1  0.787800  0.210800  0.083000  1.0  0.1325
  H  H24  1  0.287800  0.710800  0.583000  1.0  0.1325
  H  H25  1  0.460800  0.962200  0.667000  1.0  0.1237
  H  H26  1  0.960800  0.462200  0.167000  1.0  0.1237
  H  H27  1  0.039200  0.037800  0.167000  1.0  0.1272
  H  H28  1  0.539200  0.537800  0.667000  1.0  0.1272
  H  H29  1  0.287800  0.210800  0.417000  1.0  0.1314
  H  H30  1  0.787800  0.710800  0.917000  1.0  0.1314
  H  H31  1  0.212200  0.789200  0.917000  1.0  0.1307
  H  H32  1  0.712200  0.289200  0.417000  1.0  0.1307
  C  C33  1  0.678100  0.093400  0.302000  1.0  0.3278
  C  C34  1  0.642500  0.068400  0.288100  1.0  -0.0006
  C  C35  1  0.600000  0.061000  0.300700  1.0  0.068
  C  C36  1  0.590300  0.075800  0.328100  1.0  0.0585
  C  C37  1  0.626900  0.096900  0.342400  1.0  0.1242
  C  C38  1  0.670900  0.105100  0.329800  1.0  0.0131
  C  C39  1  0.542400  0.069700  0.340500  1.0  -0.0563
  C  C40  1  0.373200  0.136500  0.278900  1.0  0.6814
  C  C41  1  0.417700  0.118800  0.295700  1.0  -0.1159
  C  C42  1  0.419800  0.074900  0.307400  1.0  0.0336
  C  C43  1  0.460000  0.060000  0.321800  1.0  0.031
  C  C44  1  0.500400  0.087100  0.324830  1.0  0.0043
  C  C45  1  0.498600  0.131800  0.312100  1.0  0.0819
  C  C46  1  0.457900  0.147200  0.297600  1.0  0.0608
  C  C47  1  0.505100  0.004100  0.456500  1.0  0.6861
  C  C48  1  0.515000  0.021400  0.427000  1.0  -0.0123
  C  C49  1  0.500600  0.064400  0.418000  1.0  0.1225
  C  C50  1  0.511100  0.081200  0.390800  1.0  0.1116
  C  C51  1  0.535300  0.054600  0.371000  1.0  0.0291
  C  C52  1  0.551100  0.011500  0.380000  1.0  0.0042
  C  C53  1  0.540000  0.995000  0.408400  1.0  -0.0083
  C  C54  1  0.714300  0.103300  0.289000  1.0  0.2426
  C  C55  1  0.178100  0.593400  0.802000  1.0  0.3278
  C  C56  1  0.142500  0.568400  0.788100  1.0  -0.0006
  C  C57  1  0.100000  0.561000  0.800700  1.0  0.068
  C  C58  1  0.090300  0.575800  0.828100  1.0  0.0585
  C  C59  1  0.126900  0.596900  0.842400  1.0  0.1242
  C  C60  1  0.170900  0.605100  0.829800  1.0  0.0131
  C  C61  1  0.042400  0.569700  0.840500  1.0  -0.0563
  C  C62  1  0.873200  0.636500  0.778900  1.0  0.6814
  C  C63  1  0.917700  0.618800  0.795700  1.0  -0.1159
  C  C64  1  0.919800  0.574900  0.807400  1.0  0.0336
  C  C65  1  0.960000  0.560000  0.821800  1.0  0.031
  C  C66  1  0.000400  0.587100  0.824830  1.0  0.0043
  C  C67  1  0.998600  0.631800  0.812100  1.0  0.0819
  C  C68  1  0.957900  0.647200  0.797600  1.0  0.0608
  C  C69  1  0.005100  0.504100  0.956500  1.0  0.6861
  C  C70  1  0.015000  0.521400  0.927000  1.0  -0.0123
  C  C71  1  0.000600  0.564400  0.918000  1.0  0.1225
  C  C72  1  0.011100  0.581200  0.890800  1.0  0.1116
  C  C73  1  0.035300  0.554600  0.871000  1.0  0.0291
  C  C74  1  0.051100  0.511500  0.880000  1.0  0.0042
  C  C75  1  0.040000  0.495000  0.908400  1.0  -0.0083
  C  C76  1  0.214300  0.603300  0.789000  1.0  0.2426
  C  C77  1  0.821900  0.906600  0.802000  1.0  0.3288
  C  C78  1  0.857500  0.931600  0.788100  1.0  0.0009
  C  C79  1  0.900000  0.939000  0.800700  1.0  0.0687
  C  C80  1  0.909700  0.924200  0.828100  1.0  0.0564
  C  C81  1  0.873100  0.903100  0.842400  1.0  0.1243
  C  C82  1  0.829100  0.894900  0.829800  1.0  0.0124
  C  C83  1  0.957600  0.930300  0.840500  1.0  -0.0572
  C  C84  1  0.126800  0.863500  0.778900  1.0  0.6811
  C  C85  1  0.082300  0.881200  0.795700  1.0  -0.1166
  C  C86  1  0.080200  0.925100  0.807400  1.0  0.0323
  C  C87  1  0.040000  0.940000  0.821800  1.0  0.0279
  C  C88  1  0.999600  0.912900  0.824830  1.0  0.0043
  C  C89  1  0.001400  0.868200  0.812100  1.0  0.083
  C  C90  1  0.042100  0.852800  0.797600  1.0  0.0602
  C  C91  1  0.994900  0.995900  0.956500  1.0  0.6852
  C  C92  1  0.985000  0.978600  0.927000  1.0  -0.012
  C  C93  1  0.999400  0.935600  0.918000  1.0  0.1249
  C  C94  1  0.988900  0.918800  0.890800  1.0  0.1137
  C  C95  1  0.964700  0.945400  0.871000  1.0  0.0298
  C  C96  1  0.948900  0.988500  0.880000  1.0  0.0014
  C  C97  1  0.960000  0.005000  0.908400  1.0  -0.0093
  C  C98  1  0.785700  0.896700  0.789000  1.0  0.2433
  C  C99  1  0.321900  0.406600  0.302000  1.0  0.3288
  C  C100  1  0.357500  0.431600  0.288100  1.0  0.0009
  C  C101  1  0.400000  0.439000  0.300700  1.0  0.0687
  C  C102  1  0.409700  0.424200  0.328100  1.0  0.0564
  C  C103  1  0.373100  0.403100  0.342400  1.0  0.1243
  C  C104  1  0.329100  0.394900  0.329800  1.0  0.0124
  C  C105  1  0.457600  0.430300  0.340500  1.0  -0.0572
  C  C106  1  0.626800  0.363500  0.278900  1.0  0.6811
  C  C107  1  0.582300  0.381200  0.295700  1.0  -0.1166
  C  C108  1  0.580200  0.425100  0.307400  1.0  0.0323
  C  C109  1  0.540000  0.440000  0.321800  1.0  0.0279
  C  C110  1  0.499600  0.412900  0.324830  1.0  0.0043
  C  C111  1  0.501400  0.368200  0.312100  1.0  0.083
  C  C112  1  0.542100  0.352800  0.297600  1.0  0.0602
  C  C113  1  0.494900  0.495900  0.456500  1.0  0.6852
  C  C114  1  0.485000  0.478600  0.427000  1.0  -0.012
  C  C115  1  0.499400  0.435600  0.418000  1.0  0.1249
  C  C116  1  0.488900  0.418800  0.390800  1.0  0.1137
  C  C117  1  0.464700  0.445400  0.371000  1.0  0.0298
  C  C118  1  0.448900  0.488500  0.380000  1.0  0.0014
  C  C119  1  0.460000  0.505000  0.408400  1.0  -0.0093
  C  C120  1  0.285700  0.396700  0.289000  1.0  0.2433
  C  C121  1  0.656600  0.928100  0.552000  1.0  0.3318
  C  C122  1  0.681600  0.892500  0.538100  1.0  0.001
  C  C123  1  0.689000  0.850000  0.550700  1.0  0.0719
  C  C124  1  0.674200  0.840300  0.578100  1.0  0.0593
  C  C125  1  0.653100  0.876900  0.592400  1.0  0.1245
  C  C126  1  0.644900  0.920900  0.579800  1.0  0.0116
  C  C127  1  0.680300  0.792400  0.590500  1.0  -0.0568
  C  C128  1  0.613500  0.623200  0.528900  1.0  0.6801
  C  C129  1  0.631200  0.667700  0.545700  1.0  -0.1161
  C  C130  1  0.675100  0.669800  0.557400  1.0  0.034
  C  C131  1  0.690000  0.710000  0.571800  1.0  0.0307
  C  C132  1  0.662900  0.750400  0.574830  1.0  0.0051
  C  C133  1  0.618200  0.748600  0.562100  1.0  0.08
  C  C134  1  0.602800  0.707900  0.547600  1.0  0.06
  C  C135  1  0.745900  0.755100  0.706500  1.0  0.6874
  C  C136  1  0.728600  0.765000  0.677000  1.0  -0.012
  C  C137  1  0.685600  0.750600  0.668000  1.0  0.1235
  C  C138  1  0.668800  0.761100  0.640800  1.0  0.1113
  C  C139  1  0.695400  0.785300  0.621000  1.0  0.0292
  C  C140  1  0.738500  0.801100  0.630000  1.0  0.003
  C  C141  1  0.755000  0.790000  0.658400  1.0  -0.0068
  C  C142  1  0.646700  0.964300  0.539000  1.0  0.2417
  C  C143  1  0.156600  0.428100  0.052000  1.0  0.3318
  C  C144  1  0.181600  0.392500  0.038100  1.0  0.001
  C  C145  1  0.189000  0.350000  0.050700  1.0  0.0719
  C  C146  1  0.174200  0.340300  0.078100  1.0  0.0593
  C  C147  1  0.153100  0.376900  0.092400  1.0  0.1245
  C  C148  1  0.144900  0.420900  0.079800  1.0  0.0116
  C  C149  1  0.180300  0.292400  0.090500  1.0  -0.0568
  C  C150  1  0.113500  0.123200  0.028900  1.0  0.6801
  C  C151  1  0.131200  0.167700  0.045700  1.0  -0.1161
  C  C152  1  0.175100  0.169800  0.057400  1.0  0.034
  C  C153  1  0.190000  0.210000  0.071800  1.0  0.0307
  C  C154  1  0.162900  0.250400  0.074830  1.0  0.0051
  C  C155  1  0.118200  0.248600  0.062100  1.0  0.08
  C  C156  1  0.102800  0.207900  0.047600  1.0  0.06
  C  C157  1  0.245900  0.255100  0.206500  1.0  0.6874
  C  C158  1  0.228600  0.265000  0.177000  1.0  -0.012
  C  C159  1  0.185600  0.250600  0.168000  1.0  0.1235
  C  C160  1  0.168800  0.261100  0.140800  1.0  0.1113
  C  C161  1  0.195400  0.285300  0.121000  1.0  0.0292
  C  C162  1  0.238500  0.301100  0.130000  1.0  0.003
  C  C163  1  0.255000  0.290000  0.158400  1.0  -0.0068
  C  C164  1  0.146700  0.464300  0.039000  1.0  0.2417
  C  C165  1  0.843400  0.071900  0.052000  1.0  0.3317
  C  C166  1  0.818400  0.107500  0.038100  1.0  0.0028
  C  C167  1  0.811000  0.150000  0.050700  1.0  0.0702
  C  C168  1  0.825800  0.159700  0.078100  1.0  0.0575
  C  C169  1  0.846900  0.123100  0.092400  1.0  0.1226
  C  C170  1  0.855100  0.079100  0.079800  1.0  0.0095
  C  C171  1  0.819700  0.207600  0.090500  1.0  -0.0588
  C  C172  1  0.886500  0.376800  0.028900  1.0  0.6804
  C  C173  1  0.868800  0.332300  0.045700  1.0  -0.1161
  C  C174  1  0.824900  0.330200  0.057400  1.0  0.0328
  C  C175  1  0.810000  0.290000  0.071800  1.0  0.0302
  C  C176  1  0.837100  0.249600  0.074830  1.0  0.0055
  C  C177  1  0.881800  0.251400  0.062100  1.0  0.0781
  C  C178  1  0.897200  0.292100  0.047600  1.0  0.0566
  C  C179  1  0.754100  0.244900  0.206500  1.0  0.6876
  C  C180  1  0.771400  0.235000  0.177000  1.0  -0.0123
  C  C181  1  0.814400  0.249400  0.168000  1.0  0.1245
  C  C182  1  0.831200  0.238900  0.140800  1.0  0.1109
  C  C183  1  0.804600  0.214700  0.121000  1.0  0.0286
  C  C184  1  0.761500  0.198900  0.130000  1.0  -0.0004
  C  C185  1  0.745000  0.210000  0.158400  1.0  -0.0105
  C  C186  1  0.853300  0.035700  0.039000  1.0  0.2391
  C  C187  1  0.343400  0.571900  0.552000  1.0  0.3317
  C  C188  1  0.318400  0.607500  0.538100  1.0  0.0028
  C  C189  1  0.311000  0.650000  0.550700  1.0  0.0702
  C  C190  1  0.325800  0.659700  0.578100  1.0  0.0575
  C  C191  1  0.346900  0.623100  0.592400  1.0  0.1226
  C  C192  1  0.355100  0.579100  0.579800  1.0  0.0095
  C  C193  1  0.319700  0.707600  0.590500  1.0  -0.0588
  C  C194  1  0.386500  0.876800  0.528900  1.0  0.6804
  C  C195  1  0.368800  0.832300  0.545700  1.0  -0.1161
  C  C196  1  0.324900  0.830200  0.557400  1.0  0.0328
  C  C197  1  0.310000  0.790000  0.571800  1.0  0.0302
  C  C198  1  0.337100  0.749600  0.574830  1.0  0.0055
  C  C199  1  0.381800  0.751400  0.562100  1.0  0.0781
  C  C200  1  0.397200  0.792100  0.547600  1.0  0.0566
  C  C201  1  0.254100  0.744900  0.706500  1.0  0.6876
  C  C202  1  0.271400  0.735000  0.677000  1.0  -0.0123
  C  C203  1  0.314400  0.749400  0.668000  1.0  0.1245
  C  C204  1  0.331200  0.738900  0.640800  1.0  0.1109
  C  C205  1  0.304600  0.714700  0.621000  1.0  0.0286
  C  C206  1  0.261500  0.698900  0.630000  1.0  -0.0004
  C  C207  1  0.245000  0.710000  0.658400  1.0  -0.0105
  C  C208  1  0.353300  0.535700  0.539000  1.0  0.2391
  C  C209  1  0.321900  0.906600  0.698000  1.0  0.3288
  C  C210  1  0.357500  0.931600  0.711900  1.0  0.004
  C  C211  1  0.400000  0.939000  0.699300  1.0  0.0662
  C  C212  1  0.409700  0.924200  0.671900  1.0  0.0559
  C  C213  1  0.373100  0.903100  0.657600  1.0  0.1239
  C  C214  1  0.329100  0.894900  0.670200  1.0  0.0127
  C  C215  1  0.457600  0.930300  0.659500  1.0  -0.0567
  C  C216  1  0.626800  0.863500  0.721100  1.0  0.6809
  C  C217  1  0.582300  0.881200  0.704300  1.0  -0.1172
  C  C218  1  0.580200  0.925100  0.692600  1.0  0.0317
  C  C219  1  0.540000  0.940000  0.678200  1.0  0.0281
  C  C220  1  0.499600  0.912900  0.675170  1.0  0.0042
  C  C221  1  0.501400  0.868200  0.687900  1.0  0.0833
  C  C222  1  0.542100  0.852800  0.702400  1.0  0.06
  C  C223  1  0.494900  0.995900  0.543500  1.0  0.6868
  C  C224  1  0.485000  0.978600  0.573000  1.0  -0.013
  C  C225  1  0.499400  0.935600  0.582000  1.0  0.1249
  C  C226  1  0.488900  0.918800  0.609200  1.0  0.1135
  C  C227  1  0.464700  0.945400  0.629000  1.0  0.0293
  C  C228  1  0.448900  0.988500  0.620000  1.0  0.0016
  C  C229  1  0.460000  0.005000  0.591600  1.0  -0.0094
  C  C230  1  0.285700  0.896700  0.711000  1.0  0.2426
  C  C231  1  0.821900  0.406600  0.198000  1.0  0.3288
  C  C232  1  0.857500  0.431600  0.211900  1.0  0.004
  C  C233  1  0.900000  0.439000  0.199300  1.0  0.0662
  C  C234  1  0.909700  0.424200  0.171900  1.0  0.0559
  C  C235  1  0.873100  0.403100  0.157600  1.0  0.1239
  C  C236  1  0.829100  0.394900  0.170200  1.0  0.0127
  C  C237  1  0.957600  0.430300  0.159500  1.0  -0.0567
  C  C238  1  0.126800  0.363500  0.221100  1.0  0.6809
  C  C239  1  0.082300  0.381200  0.204300  1.0  -0.1172
  C  C240  1  0.080200  0.425100  0.192600  1.0  0.0317
  C  C241  1  0.040000  0.440000  0.178200  1.0  0.0281
  C  C242  1  0.999600  0.412900  0.175170  1.0  0.0042
  C  C243  1  0.001400  0.368200  0.187900  1.0  0.0833
  C  C244  1  0.042100  0.352800  0.202400  1.0  0.06
  C  C245  1  0.994900  0.495900  0.043500  1.0  0.6868
  C  C246  1  0.985000  0.478600  0.073000  1.0  -0.013
  C  C247  1  0.999400  0.435600  0.082000  1.0  0.1249
  C  C248  1  0.988900  0.418800  0.109200  1.0  0.1135
  C  C249  1  0.964700  0.445400  0.129000  1.0  0.0293
  C  C250  1  0.948900  0.488500  0.120000  1.0  0.0016
  C  C251  1  0.960000  0.505000  0.091600  1.0  -0.0094
  C  C252  1  0.785700  0.396700  0.211000  1.0  0.2426
  C  C253  1  0.178100  0.093400  0.198000  1.0  0.328
  C  C254  1  0.142500  0.068400  0.211900  1.0  0.0036
  C  C255  1  0.100000  0.061000  0.199300  1.0  0.0677
  C  C256  1  0.090300  0.075800  0.171900  1.0  0.0584
  C  C257  1  0.126900  0.096900  0.157600  1.0  0.125
  C  C258  1  0.170900  0.105100  0.170200  1.0  0.0135
  C  C259  1  0.042400  0.069700  0.159500  1.0  -0.0559
  C  C260  1  0.873200  0.136500  0.221100  1.0  0.6809
  C  C261  1  0.917700  0.118800  0.204300  1.0  -0.1166
  C  C262  1  0.919800  0.074900  0.192600  1.0  0.0334
  C  C263  1  0.960000  0.060000  0.178200  1.0  0.0306
  C  C264  1  0.000400  0.087100  0.175170  1.0  0.0046
  C  C265  1  0.998600  0.131800  0.187900  1.0  0.0818
  C  C266  1  0.957900  0.147200  0.202400  1.0  0.0605
  C  C267  1  0.005100  0.004100  0.043500  1.0  0.6868
  C  C268  1  0.015000  0.021400  0.073000  1.0  -0.0134
  C  C269  1  0.000600  0.064400  0.082000  1.0  0.1235
  C  C270  1  0.011100  0.081200  0.109200  1.0  0.1122
  C  C271  1  0.035300  0.054600  0.129000  1.0  0.0291
  C  C272  1  0.051100  0.011500  0.120000  1.0  0.0039
  C  C273  1  0.040000  0.995000  0.091600  1.0  -0.0086
  C  C274  1  0.214300  0.103300  0.211000  1.0  0.2431
  C  C275  1  0.678100  0.593400  0.698000  1.0  0.328
  C  C276  1  0.642500  0.568400  0.711900  1.0  0.0036
  C  C277  1  0.600000  0.561000  0.699300  1.0  0.0677
  C  C278  1  0.590300  0.575800  0.671900  1.0  0.0584
  C  C279  1  0.626900  0.596900  0.657600  1.0  0.125
  C  C280  1  0.670900  0.605100  0.670200  1.0  0.0135
  C  C281  1  0.542400  0.569700  0.659500  1.0  -0.0559
  C  C282  1  0.373200  0.636500  0.721100  1.0  0.6809
  C  C283  1  0.417700  0.618800  0.704300  1.0  -0.1166
  C  C284  1  0.419800  0.574900  0.692600  1.0  0.0334
  C  C285  1  0.460000  0.560000  0.678200  1.0  0.0306
  C  C286  1  0.500400  0.587100  0.675170  1.0  0.0046
  C  C287  1  0.498600  0.631800  0.687900  1.0  0.0818
  C  C288  1  0.457900  0.647200  0.702400  1.0  0.0605
  C  C289  1  0.505100  0.504100  0.543500  1.0  0.6868
  C  C290  1  0.515000  0.521400  0.573000  1.0  -0.0134
  C  C291  1  0.500600  0.564400  0.582000  1.0  0.1235
  C  C292  1  0.511100  0.581200  0.609200  1.0  0.1122
  C  C293  1  0.535300  0.554600  0.629000  1.0  0.0291
  C  C294  1  0.551100  0.511500  0.620000  1.0  0.0039
  C  C295  1  0.540000  0.495000  0.591600  1.0  -0.0086
  C  C296  1  0.714300  0.603300  0.711000  1.0  0.2431
  C  C297  1  0.343400  0.071900  0.448000  1.0  0.3317
  C  C298  1  0.318400  0.107500  0.461900  1.0  0.0059
  C  C299  1  0.311000  0.150000  0.449300  1.0  0.0683
  C  C300  1  0.325800  0.159700  0.421900  1.0  0.0574
  C  C301  1  0.346900  0.123100  0.407600  1.0  0.1233
  C  C302  1  0.355100  0.079100  0.420200  1.0  0.0099
  C  C303  1  0.319700  0.207600  0.409500  1.0  -0.0586
  C  C304  1  0.386500  0.376800  0.471100  1.0  0.6801
  C  C305  1  0.368800  0.332300  0.454300  1.0  -0.1171
  C  C306  1  0.324900  0.330200  0.442600  1.0  0.0324
  C  C307  1  0.310000  0.290000  0.428200  1.0  0.0302
  C  C308  1  0.337100  0.249600  0.425170  1.0  0.0056
  C  C309  1  0.381800  0.251400  0.437900  1.0  0.0787
  C  C310  1  0.397200  0.292100  0.452400  1.0  0.0572
  C  C311  1  0.254100  0.244900  0.293500  1.0  0.6892
  C  C312  1  0.271400  0.235000  0.323000  1.0  -0.0137
  C  C313  1  0.314400  0.249400  0.332000  1.0  0.1249
  C  C314  1  0.331200  0.238900  0.359200  1.0  0.1113
  C  C315  1  0.304600  0.214700  0.379000  1.0  0.0287
  C  C316  1  0.261500  0.198900  0.370000  1.0  -0.0009
  C  C317  1  0.245000  0.210000  0.341600  1.0  -0.0105
  C  C318  1  0.353300  0.035700  0.461000  1.0  0.2396
  C  C319  1  0.843400  0.571900  0.948000  1.0  0.3317
  C  C320  1  0.818400  0.607500  0.961900  1.0  0.0059
  C  C321  1  0.811000  0.650000  0.949300  1.0  0.0683
  C  C322  1  0.825800  0.659700  0.921900  1.0  0.0574
  C  C323  1  0.846900  0.623100  0.907600  1.0  0.1233
  C  C324  1  0.855100  0.579100  0.920200  1.0  0.0099
  C  C325  1  0.819700  0.707600  0.909500  1.0  -0.0586
  C  C326  1  0.886500  0.876800  0.971100  1.0  0.6801
  C  C327  1  0.868800  0.832300  0.954300  1.0  -0.1171
  C  C328  1  0.824900  0.830200  0.942600  1.0  0.0324
  C  C329  1  0.810000  0.790000  0.928200  1.0  0.0302
  C  C330  1  0.837100  0.749600  0.925170  1.0  0.0056
  C  C331  1  0.881800  0.751400  0.937900  1.0  0.0787
  C  C332  1  0.897200  0.792100  0.952400  1.0  0.0572
  C  C333  1  0.754100  0.744900  0.793500  1.0  0.6892
  C  C334  1  0.771400  0.735000  0.823000  1.0  -0.0137
  C  C335  1  0.814400  0.749400  0.832000  1.0  0.1249
  C  C336  1  0.831200  0.738900  0.859200  1.0  0.1113
  C  C337  1  0.804600  0.714700  0.879000  1.0  0.0287
  C  C338  1  0.761500  0.698900  0.870000  1.0  -0.0009
  C  C339  1  0.745000  0.710000  0.841600  1.0  -0.0105
  C  C340  1  0.853300  0.535700  0.961000  1.0  0.2396
  C  C341  1  0.156600  0.928100  0.948000  1.0  0.3319
  C  C342  1  0.181600  0.892500  0.961900  1.0  0.0053
  C  C343  1  0.189000  0.850000  0.949300  1.0  0.0716
  C  C344  1  0.174200  0.840300  0.921900  1.0  0.0592
  C  C345  1  0.153100  0.876900  0.907600  1.0  0.1234
  C  C346  1  0.144900  0.920900  0.920200  1.0  0.0121
  C  C347  1  0.180300  0.792400  0.909500  1.0  -0.0561
  C  C348  1  0.113500  0.623200  0.971100  1.0  0.6801
  C  C349  1  0.131200  0.667700  0.954300  1.0  -0.1168
  C  C350  1  0.175100  0.669800  0.942600  1.0  0.0335
  C  C351  1  0.190000  0.710000  0.928200  1.0  0.0309
  C  C352  1  0.162900  0.750400  0.925170  1.0  0.0054
  C  C353  1  0.118200  0.748600  0.937900  1.0  0.0806
  C  C354  1  0.102800  0.707900  0.952400  1.0  0.0598
  C  C355  1  0.245900  0.755100  0.793500  1.0  0.6875
  C  C356  1  0.228600  0.765000  0.823000  1.0  -0.0131
  C  C357  1  0.185600  0.750600  0.832000  1.0  0.1232
  C  C358  1  0.168800  0.761100  0.859200  1.0  0.1109
  C  C359  1  0.195400  0.785300  0.879000  1.0  0.0291
  C  C360  1  0.238500  0.801100  0.870000  1.0  0.003
  C  C361  1  0.255000  0.790000  0.841600  1.0  -0.0068
  C  C362  1  0.146700  0.964300  0.961000  1.0  0.2416
  C  C363  1  0.656600  0.428100  0.448000  1.0  0.3319
  C  C364  1  0.681600  0.392500  0.461900  1.0  0.0053
  C  C365  1  0.689000  0.350000  0.449300  1.0  0.0716
  C  C366  1  0.674200  0.340300  0.421900  1.0  0.0592
  C  C367  1  0.653100  0.376900  0.407600  1.0  0.1234
  C  C368  1  0.644900  0.420900  0.420200  1.0  0.0121
  C  C369  1  0.680300  0.292400  0.409500  1.0  -0.0561
  C  C370  1  0.613500  0.123200  0.471100  1.0  0.6801
  C  C371  1  0.631200  0.167700  0.454300  1.0  -0.1168
  C  C372  1  0.675100  0.169800  0.442600  1.0  0.0335
  C  C373  1  0.690000  0.210000  0.428200  1.0  0.0309
  C  C374  1  0.662900  0.250400  0.425170  1.0  0.0054
  C  C375  1  0.618200  0.248600  0.437900  1.0  0.0806
  C  C376  1  0.602800  0.207900  0.452400  1.0  0.0598
  C  C377  1  0.745900  0.255100  0.293500  1.0  0.6875
  C  C378  1  0.728600  0.265000  0.323000  1.0  -0.0131
  C  C379  1  0.685600  0.250600  0.332000  1.0  0.1232
  C  C380  1  0.668800  0.261100  0.359200  1.0  0.1109
  C  C381  1  0.695400  0.285300  0.379000  1.0  0.0291
  C  C382  1  0.738500  0.301100  0.370000  1.0  0.003
  C  C383  1  0.755000  0.290000  0.341600  1.0  -0.0068
  C  C384  1  0.646700  0.464300  0.461000  1.0  0.2416
  Cl  Cl385  1  0.654240  0.049250  0.253410  1.0  -0.1095
  Cl  Cl386  1  0.559250  0.030830  0.280920  1.0  -0.1467
  Cl  Cl387  1  0.619370  0.117270  0.377720  1.0  -0.0935
  Cl  Cl388  1  0.714300  0.132920  0.349010  1.0  -0.0784
  Cl  Cl389  1  0.371070  0.039740  0.305460  1.0  -0.1031
  Cl  Cl390  1  0.458960  0.003130  0.335370  1.0  -0.1321
  Cl  Cl391  1  0.544190  0.169990  0.314390  1.0  -0.0811
  Cl  Cl392  1  0.456280  0.202190  0.282510  1.0  -0.0995
  Cl  Cl393  1  0.469930  0.099150  0.441790  1.0  -0.0603
  Cl  Cl394  1  0.494510  0.138070  0.382540  1.0  -0.0886
  Cl  Cl395  1  0.581380  0.974030  0.357170  1.0  -0.1286
  Cl  Cl396  1  0.559790  0.939520  0.418430  1.0  -0.1098
  Cl  Cl397  1  0.154240  0.549250  0.753410  1.0  -0.1158
  Cl  Cl398  1  0.059250  0.530830  0.780920  1.0  -0.1417
  Cl  Cl399  1  0.119370  0.617270  0.877720  1.0  -0.0935
  Cl  Cl400  1  0.214300  0.632920  0.849010  1.0  -0.0784
  Cl  Cl401  1  0.871070  0.539740  0.805460  1.0  -0.1037
  Cl  Cl402  1  0.958960  0.503130  0.835370  1.0  -0.137
  Cl  Cl403  1  0.044190  0.669990  0.814390  1.0  -0.0811
  Cl  Cl404  1  0.956280  0.702190  0.782510  1.0  -0.0995
  Cl  Cl405  1  0.969930  0.599150  0.941790  1.0  -0.0603
  Cl  Cl406  1  0.994510  0.638070  0.882540  1.0  -0.0886
  Cl  Cl407  1  0.081380  0.474030  0.857170  1.0  -0.1286
  Cl  Cl408  1  0.059790  0.439520  0.918430  1.0  -0.1098
  Cl  Cl409  1  0.845760  0.950750  0.753410  1.0  -0.1072
  Cl  Cl410  1  0.940750  0.969170  0.780920  1.0  -0.1509
  Cl  Cl411  1  0.880630  0.882730  0.877720  1.0  -0.0938
  Cl  Cl412  1  0.785700  0.867080  0.849010  1.0  -0.0777
  Cl  Cl413  1  0.128930  0.960260  0.805460  1.0  -0.1034
  Cl  Cl414  1  0.041040  0.996870  0.835370  1.0  -0.1296
  Cl  Cl415  1  0.955810  0.830010  0.814390  1.0  -0.083
  Cl  Cl416  1  0.043720  0.797810  0.782510  1.0  -0.0979
  Cl  Cl417  1  0.030070  0.900850  0.941790  1.0  -0.063
  Cl  Cl418  1  0.005490  0.861930  0.882540  1.0  -0.0902
  Cl  Cl419  1  0.918620  0.025970  0.857170  1.0  -0.1288
  Cl  Cl420  1  0.940210  0.060480  0.918430  1.0  -0.1091
  Cl  Cl421  1  0.345760  0.450750  0.253410  1.0  -0.1154
  Cl  Cl422  1  0.440750  0.469170  0.280920  1.0  -0.1415
  Cl  Cl423  1  0.380630  0.382730  0.377720  1.0  -0.0938
  Cl  Cl424  1  0.285700  0.367080  0.349010  1.0  -0.0777
  Cl  Cl425  1  0.628930  0.460260  0.305460  1.0  -0.1044
  Cl  Cl426  1  0.541040  0.496870  0.335370  1.0  -0.1341
  Cl  Cl427  1  0.455810  0.330010  0.314390  1.0  -0.083
  Cl  Cl428  1  0.543720  0.297810  0.282510  1.0  -0.0979
  Cl  Cl429  1  0.530070  0.400850  0.441790  1.0  -0.063
  Cl  Cl430  1  0.505490  0.361930  0.382540  1.0  -0.0902
  Cl  Cl431  1  0.418620  0.525970  0.357170  1.0  -0.1288
  Cl  Cl432  1  0.440210  0.560480  0.418430  1.0  -0.1091
  Cl  Cl433  1  0.700750  0.904240  0.503410  1.0  -0.1125
  Cl  Cl434  1  0.719170  0.809250  0.530920  1.0  -0.1439
  Cl  Cl435  1  0.632730  0.869370  0.627720  1.0  -0.0917
  Cl  Cl436  1  0.617080  0.964300  0.599010  1.0  -0.0774
  Cl  Cl437  1  0.710260  0.621070  0.555460  1.0  -0.1117
  Cl  Cl438  1  0.746870  0.708960  0.585370  1.0  -0.1293
  Cl  Cl439  1  0.580010  0.794190  0.564390  1.0  -0.0784
  Cl  Cl440  1  0.547810  0.706280  0.532510  1.0  -0.097
  Cl  Cl441  1  0.650850  0.719930  0.691790  1.0  -0.0617
  Cl  Cl442  1  0.611930  0.744510  0.632540  1.0  -0.0894
  Cl  Cl443  1  0.775970  0.831380  0.607170  1.0  -0.1267
  Cl  Cl444  1  0.810480  0.809790  0.668430  1.0  -0.1037
  Cl  Cl445  1  0.200750  0.404240  0.003410  1.0  -0.1159
  Cl  Cl446  1  0.219170  0.309250  0.030920  1.0  -0.1432
  Cl  Cl447  1  0.132730  0.369370  0.127720  1.0  -0.0917
  Cl  Cl448  1  0.117080  0.464300  0.099010  1.0  -0.0774
  Cl  Cl449  1  0.210260  0.121070  0.055460  1.0  -0.105
  Cl  Cl450  1  0.246870  0.208960  0.085370  1.0  -0.1336
  Cl  Cl451  1  0.080010  0.294190  0.064390  1.0  -0.0784
  Cl  Cl452  1  0.047810  0.206280  0.032510  1.0  -0.097
  Cl  Cl453  1  0.150850  0.219930  0.191790  1.0  -0.0617
  Cl  Cl454  1  0.111930  0.244510  0.132540  1.0  -0.0894
  Cl  Cl455  1  0.275970  0.331380  0.107170  1.0  -0.1278
  Cl  Cl456  1  0.310480  0.309790  0.168430  1.0  -0.1067
  Cl  Cl457  1  0.799250  0.095760  0.003410  1.0  -0.117
  Cl  Cl458  1  0.780830  0.190750  0.030920  1.0  -0.1446
  Cl  Cl459  1  0.867270  0.130630  0.127720  1.0  -0.0915
  Cl  Cl460  1  0.882920  0.035700  0.099010  1.0  -0.0795
  Cl  Cl461  1  0.789740  0.378930  0.055460  1.0  -0.1034
  Cl  Cl462  1  0.753130  0.291040  0.085370  1.0  -0.1353
  Cl  Cl463  1  0.919990  0.205810  0.064390  1.0  -0.0813
  Cl  Cl464  1  0.952190  0.293720  0.032510  1.0  -0.0966
  Cl  Cl465  1  0.849150  0.280070  0.191790  1.0  -0.0613
  Cl  Cl466  1  0.888070  0.255490  0.132540  1.0  -0.09
  Cl  Cl467  1  0.724030  0.168620  0.107170  1.0  -0.129
  Cl  Cl468  1  0.689520  0.190210  0.168430  1.0  -0.1093
  Cl  Cl469  1  0.299250  0.595760  0.503410  1.0  -0.1182
  Cl  Cl470  1  0.280830  0.690750  0.530920  1.0  -0.1418
  Cl  Cl471  1  0.367270  0.630630  0.627720  1.0  -0.0915
  Cl  Cl472  1  0.382920  0.535700  0.599010  1.0  -0.0795
  Cl  Cl473  1  0.289740  0.878930  0.555460  1.0  -0.1098
  Cl  Cl474  1  0.253130  0.791040  0.585370  1.0  -0.1303
  Cl  Cl475  1  0.419990  0.705810  0.564390  1.0  -0.0813
  Cl  Cl476  1  0.452190  0.793720  0.532510  1.0  -0.0966
  Cl  Cl477  1  0.349150  0.780070  0.691790  1.0  -0.0613
  Cl  Cl478  1  0.388070  0.755490  0.632540  1.0  -0.09
  Cl  Cl479  1  0.224030  0.668620  0.607170  1.0  -0.1236
  Cl  Cl480  1  0.189520  0.690210  0.668430  1.0  -0.1054
  Cl  Cl481  1  0.345760  0.950750  0.746590  1.0  -0.1077
  Cl  Cl482  1  0.440750  0.969170  0.719080  1.0  -0.144
  Cl  Cl483  1  0.380630  0.882730  0.622280  1.0  -0.0943
  Cl  Cl484  1  0.285700  0.867080  0.650990  1.0  -0.0778
  Cl  Cl485  1  0.628930  0.960260  0.694540  1.0  -0.1038
  Cl  Cl486  1  0.541040  0.996870  0.664630  1.0  -0.1287
  Cl  Cl487  1  0.455810  0.830010  0.685610  1.0  -0.0825
  Cl  Cl488  1  0.543720  0.797810  0.717490  1.0  -0.0981
  Cl  Cl489  1  0.530070  0.900850  0.558210  1.0  -0.0636
  Cl  Cl490  1  0.505490  0.861930  0.617460  1.0  -0.0908
  Cl  Cl491  1  0.418620  0.025970  0.642830  1.0  -0.1278
  Cl  Cl492  1  0.440210  0.060480  0.581570  1.0  -0.1091
  Cl  Cl493  1  0.845760  0.450750  0.246590  1.0  -0.1133
  Cl  Cl494  1  0.940750  0.469170  0.219080  1.0  -0.1402
  Cl  Cl495  1  0.880630  0.382730  0.122280  1.0  -0.0943
  Cl  Cl496  1  0.785700  0.367080  0.150990  1.0  -0.0778
  Cl  Cl497  1  0.128930  0.460260  0.194540  1.0  -0.1047
  Cl  Cl498  1  0.041040  0.496870  0.164630  1.0  -0.1335
  Cl  Cl499  1  0.955810  0.330010  0.185610  1.0  -0.0825
  Cl  Cl500  1  0.043720  0.297810  0.217490  1.0  -0.0981
  Cl  Cl501  1  0.030070  0.400850  0.058210  1.0  -0.0636
  Cl  Cl502  1  0.005490  0.361930  0.117460  1.0  -0.0908
  Cl  Cl503  1  0.918620  0.525970  0.142830  1.0  -0.1278
  Cl  Cl504  1  0.940210  0.560480  0.081570  1.0  -0.1091
  Cl  Cl505  1  0.154240  0.049250  0.246590  1.0  -0.1062
  Cl  Cl506  1  0.059250  0.030830  0.219080  1.0  -0.15
  Cl  Cl507  1  0.119370  0.117270  0.122280  1.0  -0.0936
  Cl  Cl508  1  0.214300  0.132920  0.150990  1.0  -0.078
  Cl  Cl509  1  0.871070  0.039740  0.194540  1.0  -0.1034
  Cl  Cl510  1  0.958960  0.003130  0.164630  1.0  -0.1323
  Cl  Cl511  1  0.044190  0.169990  0.185610  1.0  -0.0804
  Cl  Cl512  1  0.956280  0.202190  0.217490  1.0  -0.0976
  Cl  Cl513  1  0.969930  0.099150  0.058210  1.0  -0.0613
  Cl  Cl514  1  0.994510  0.138070  0.117460  1.0  -0.0892
  Cl  Cl515  1  0.081380  0.974030  0.142830  1.0  -0.1287
  Cl  Cl516  1  0.059790  0.939520  0.081570  1.0  -0.1093
  Cl  Cl517  1  0.654240  0.549250  0.746590  1.0  -0.114
  Cl  Cl518  1  0.559250  0.530830  0.719080  1.0  -0.1397
  Cl  Cl519  1  0.619370  0.617270  0.622280  1.0  -0.0936
  Cl  Cl520  1  0.714300  0.632920  0.650990  1.0  -0.078
  Cl  Cl521  1  0.371070  0.539740  0.694540  1.0  -0.1042
  Cl  Cl522  1  0.458960  0.503130  0.664630  1.0  -0.1362
  Cl  Cl523  1  0.544190  0.669990  0.685610  1.0  -0.0804
  Cl  Cl524  1  0.456280  0.702190  0.717490  1.0  -0.0976
  Cl  Cl525  1  0.469930  0.599150  0.558210  1.0  -0.0613
  Cl  Cl526  1  0.494510  0.638070  0.617460  1.0  -0.0892
  Cl  Cl527  1  0.581380  0.474030  0.642830  1.0  -0.1287
  Cl  Cl528  1  0.559790  0.439520  0.581570  1.0  -0.1093
  Cl  Cl529  1  0.299250  0.095760  0.496590  1.0  -0.1112
  Cl  Cl530  1  0.280830  0.190750  0.469080  1.0  -0.1426
  Cl  Cl531  1  0.367270  0.130630  0.372280  1.0  -0.0926
  Cl  Cl532  1  0.382920  0.035700  0.400990  1.0  -0.0785
  Cl  Cl533  1  0.289740  0.378930  0.444540  1.0  -0.1112
  Cl  Cl534  1  0.253130  0.291040  0.414630  1.0  -0.1286
  Cl  Cl535  1  0.419990  0.205810  0.435610  1.0  -0.0806
  Cl  Cl536  1  0.452190  0.293720  0.467490  1.0  -0.097
  Cl  Cl537  1  0.349150  0.280070  0.308210  1.0  -0.0624
  Cl  Cl538  1  0.388070  0.255490  0.367460  1.0  -0.0903
  Cl  Cl539  1  0.224030  0.168620  0.392830  1.0  -0.127
  Cl  Cl540  1  0.189520  0.190210  0.331570  1.0  -0.1051
  Cl  Cl541  1  0.799250  0.595760  0.996590  1.0  -0.1161
  Cl  Cl542  1  0.780830  0.690750  0.969080  1.0  -0.1422
  Cl  Cl543  1  0.867270  0.630630  0.872280  1.0  -0.0926
  Cl  Cl544  1  0.882920  0.535700  0.900990  1.0  -0.0785
  Cl  Cl545  1  0.789740  0.878930  0.944540  1.0  -0.1041
  Cl  Cl546  1  0.753130  0.791040  0.914630  1.0  -0.1335
  Cl  Cl547  1  0.919990  0.705810  0.935610  1.0  -0.0806
  Cl  Cl548  1  0.952190  0.793720  0.967490  1.0  -0.097
  Cl  Cl549  1  0.849150  0.780070  0.808210  1.0  -0.0624
  Cl  Cl550  1  0.888070  0.755490  0.867460  1.0  -0.0903
  Cl  Cl551  1  0.724030  0.668620  0.892830  1.0  -0.1285
  Cl  Cl552  1  0.689520  0.690210  0.831570  1.0  -0.1091
  Cl  Cl553  1  0.200750  0.904240  0.996590  1.0  -0.1148
  Cl  Cl554  1  0.219170  0.809250  0.969080  1.0  -0.1437
  Cl  Cl555  1  0.132730  0.869370  0.872280  1.0  -0.0918
  Cl  Cl556  1  0.117080  0.964300  0.900990  1.0  -0.0776
  Cl  Cl557  1  0.210260  0.621070  0.944540  1.0  -0.1057
  Cl  Cl558  1  0.246870  0.708960  0.914630  1.0  -0.1316
  Cl  Cl559  1  0.080010  0.794190  0.935610  1.0  -0.0778
  Cl  Cl560  1  0.047810  0.706280  0.967490  1.0  -0.0969
  Cl  Cl561  1  0.150850  0.719930  0.808210  1.0  -0.0627
  Cl  Cl562  1  0.111930  0.744510  0.867460  1.0  -0.0897
  Cl  Cl563  1  0.275970  0.831380  0.892830  1.0  -0.1273
  Cl  Cl564  1  0.310480  0.809790  0.831570  1.0  -0.1064
  Cl  Cl565  1  0.700750  0.404240  0.496590  1.0  -0.1155
  Cl  Cl566  1  0.719170  0.309250  0.469080  1.0  -0.1415
  Cl  Cl567  1  0.632730  0.369370  0.372280  1.0  -0.0918
  Cl  Cl568  1  0.617080  0.464300  0.400990  1.0  -0.0776
  Cl  Cl569  1  0.710260  0.121070  0.444540  1.0  -0.1115
  Cl  Cl570  1  0.746870  0.208960  0.414630  1.0  -0.127
  Cl  Cl571  1  0.580010  0.294190  0.435610  1.0  -0.0778
  Cl  Cl572  1  0.547810  0.206280  0.467490  1.0  -0.0969
  Cl  Cl573  1  0.650850  0.219930  0.308210  1.0  -0.0627
  Cl  Cl574  1  0.611930  0.244510  0.367460  1.0  -0.0897
  Cl  Cl575  1  0.775970  0.331380  0.392830  1.0  -0.1226
  Cl  Cl576  1  0.810480  0.309790  0.331570  1.0  -0.1035
  O  O577  1  0.728100  0.129500  0.274200  1.0  -0.6083
  O  O578  1  0.749300  0.081100  0.296200  1.0  -0.4656
  O  O579  1  0.347600  0.164100  0.291440  1.0  -0.5587
  O  O580  1  0.365800  0.121500  0.255500  1.0  -0.5344
  O  O581  1  0.466200  0.984300  0.459280  1.0  -0.7256
  O  O582  1  0.535400  0.009000  0.475700  1.0  -0.6699
  O  O583  1  0.228100  0.629500  0.774200  1.0  -0.6083
  O  O584  1  0.249300  0.581100  0.796200  1.0  -0.466
  O  O585  1  0.847600  0.664100  0.791440  1.0  -0.5587
  O  O586  1  0.865800  0.621500  0.755500  1.0  -0.5302
  O  O587  1  0.966200  0.484300  0.959280  1.0  -0.7256
  O  O588  1  0.035400  0.509000  0.975700  1.0  -0.6699
  O  O589  1  0.771900  0.870500  0.774200  1.0  -0.6057
  O  O590  1  0.750700  0.918900  0.796200  1.0  -0.4645
  O  O591  1  0.152400  0.835900  0.791440  1.0  -0.5596
  O  O592  1  0.134200  0.878500  0.755500  1.0  -0.5299
  O  O593  1  0.033800  0.015700  0.959280  1.0  -0.7255
  O  O594  1  0.964600  0.991000  0.975700  1.0  -0.671
  O  O595  1  0.271900  0.370500  0.274200  1.0  -0.6057
  O  O596  1  0.250700  0.418900  0.296200  1.0  -0.4647
  O  O597  1  0.652400  0.335900  0.291440  1.0  -0.5596
  O  O598  1  0.634200  0.378500  0.255500  1.0  -0.534
  O  O599  1  0.533800  0.515700  0.459280  1.0  -0.7255
  O  O600  1  0.464600  0.491000  0.475700  1.0  -0.671
  O  O601  1  0.620500  0.978100  0.524200  1.0  -0.6078
  O  O602  1  0.668900  0.999300  0.546200  1.0  -0.4608
  O  O603  1  0.585900  0.597600  0.541440  1.0  -0.5597
  O  O604  1  0.628500  0.615800  0.505500  1.0  -0.5332
  O  O605  1  0.765700  0.716200  0.709280  1.0  -0.7268
  O  O606  1  0.741000  0.785400  0.725700  1.0  -0.6715
  O  O607  1  0.120500  0.478100  0.024200  1.0  -0.6078
  O  O608  1  0.168900  0.499300  0.046200  1.0  -0.4651
  O  O609  1  0.085900  0.097600  0.041440  1.0  -0.5597
  O  O610  1  0.128500  0.115800  0.005500  1.0  -0.5332
  O  O611  1  0.265700  0.216200  0.209280  1.0  -0.7268
  O  O612  1  0.241000  0.285400  0.225700  1.0  -0.6715
  O  O613  1  0.879500  0.021900  0.024200  1.0  -0.6076
  O  O614  1  0.831100  0.000700  0.046200  1.0  -0.4674
  O  O615  1  0.914100  0.402400  0.041440  1.0  -0.5616
  O  O616  1  0.871500  0.384200  0.005500  1.0  -0.5328
  O  O617  1  0.734300  0.283800  0.209280  1.0  -0.7279
  O  O618  1  0.759000  0.214600  0.225700  1.0  -0.6705
  O  O619  1  0.379500  0.521900  0.524200  1.0  -0.6076
  O  O620  1  0.331100  0.500700  0.546200  1.0  -0.467
  O  O621  1  0.414100  0.902400  0.541440  1.0  -0.5616
  O  O622  1  0.371500  0.884200  0.505500  1.0  -0.5328
  O  O623  1  0.234300  0.783800  0.709280  1.0  -0.7279
  O  O624  1  0.259000  0.714600  0.725700  1.0  -0.6705
  O  O625  1  0.271900  0.870500  0.725800  1.0  -0.6021
  O  O626  1  0.250700  0.918900  0.703800  1.0  -0.4647
  O  O627  1  0.652400  0.835900  0.708560  1.0  -0.5589
  O  O628  1  0.634200  0.878500  0.744500  1.0  -0.5358
  O  O629  1  0.533800  0.015700  0.540720  1.0  -0.7252
  O  O630  1  0.464600  0.991000  0.524300  1.0  -0.6682
  O  O631  1  0.771900  0.370500  0.225800  1.0  -0.6021
  O  O632  1  0.750700  0.418900  0.203800  1.0  -0.4651
  O  O633  1  0.152400  0.335900  0.208560  1.0  -0.5589
  O  O634  1  0.134200  0.378500  0.244500  1.0  -0.5314
  O  O635  1  0.033800  0.515700  0.040720  1.0  -0.7252
  O  O636  1  0.964600  0.491000  0.024300  1.0  -0.6682
  O  O637  1  0.228100  0.129500  0.225800  1.0  -0.6041
  O  O638  1  0.249300  0.081100  0.203800  1.0  -0.4659
  O  O639  1  0.847600  0.164100  0.208560  1.0  -0.5578
  O  O640  1  0.865800  0.121500  0.244500  1.0  -0.5301
  O  O641  1  0.966200  0.984300  0.040720  1.0  -0.7254
  O  O642  1  0.035400  0.009000  0.024300  1.0  -0.6675
  O  O643  1  0.728100  0.629500  0.725800  1.0  -0.6041
  O  O644  1  0.749300  0.581100  0.703800  1.0  -0.4658
  O  O645  1  0.347600  0.664100  0.708560  1.0  -0.5578
  O  O646  1  0.365800  0.621500  0.744500  1.0  -0.5347
  O  O647  1  0.466200  0.484300  0.540720  1.0  -0.7254
  O  O648  1  0.535400  0.509000  0.524300  1.0  -0.6675
  O  O649  1  0.379500  0.021900  0.475800  1.0  -0.6035
  O  O650  1  0.331100  0.000700  0.453800  1.0  -0.4642
  O  O651  1  0.414100  0.402400  0.458560  1.0  -0.5613
  O  O652  1  0.371500  0.384200  0.494500  1.0  -0.5341
  O  O653  1  0.234300  0.283800  0.290720  1.0  -0.7274
  O  O654  1  0.259000  0.214600  0.274300  1.0  -0.6693
  O  O655  1  0.879500  0.521900  0.975800  1.0  -0.6035
  O  O656  1  0.831100  0.500700  0.953800  1.0  -0.4687
  O  O657  1  0.914100  0.902400  0.958560  1.0  -0.5613
  O  O658  1  0.871500  0.884200  0.994500  1.0  -0.5341
  O  O659  1  0.734300  0.783800  0.790720  1.0  -0.7274
  O  O660  1  0.759000  0.714600  0.774300  1.0  -0.6693
  O  O661  1  0.120500  0.978100  0.975800  1.0  -0.6041
  O  O662  1  0.168900  0.999300  0.953800  1.0  -0.4632
  O  O663  1  0.085900  0.597600  0.958560  1.0  -0.5589
  O  O664  1  0.128500  0.615800  0.994500  1.0  -0.5334
  O  O665  1  0.265700  0.716200  0.790720  1.0  -0.726
  O  O666  1  0.241000  0.785400  0.774300  1.0  -0.6685
  O  O667  1  0.620500  0.478100  0.475800  1.0  -0.6041
  O  O668  1  0.668900  0.499300  0.453800  1.0  -0.4637
  O  O669  1  0.585900  0.097600  0.458560  1.0  -0.5589
  O  O670  1  0.628500  0.115800  0.494500  1.0  -0.5334
  O  O671  1  0.765700  0.216200  0.290720  1.0  -0.726
  O  O672  1  0.741000  0.285400  0.274300  1.0  -0.6685
