# generated using pymatgen
data_Na4Dy2Zn2H48C97(N3O7)3
_symmetry_space_group_name_H-M   'P 1'
_cell_length_a   11.49240000
_cell_length_b   23.92820000
_cell_length_c   23.92820000
_cell_angle_alpha   93.55570000
_cell_angle_beta   103.36600000
_cell_angle_gamma   103.36600000
_symmetry_Int_Tables_number   1
_chemical_formula_structural   Na4Dy2Zn2H48C97(N3O7)3
_chemical_formula_sum   'Na8 Dy4 Zn4 H96 C194 N18 O42'
_cell_volume   6181.92777609
_cell_formula_units_Z   2
loop_
 _symmetry_equiv_pos_site_id
 _symmetry_equiv_pos_as_xyz
  1  'x, y, z'
loop_
 _atom_site_type_symbol
 _atom_site_label
 _atom_site_symmetry_multiplicity
 _atom_site_fract_x
 _atom_site_fract_y
 _atom_site_fract_z
 _atom_site_occupancy
 _atom_site_charge
  Na  Na1  1  0.987390  0.325280  0.170660  1.0  0.9294
  Na  Na2  1  0.491170  0.266740  0.266740  1.0  1.0711
  Na  Na3  1  0.007310  0.823880  0.823880  1.0  0.9532
  Na  Na4  1  0.012610  0.829340  0.674720  1.0  0.9283
  Na  Na5  1  0.987390  0.170660  0.325280  1.0  0.9258
  Na  Na6  1  0.508830  0.733260  0.733260  1.0  1.0702
  Na  Na7  1  0.992690  0.176120  0.176120  1.0  0.9512
  Na  Na8  1  0.012610  0.674720  0.829340  1.0  0.9275
  Dy  Dy9  1  0.232060  0.762830  0.762830  1.0  2.242
  Dy  Dy10  1  0.794910  0.707690  0.707690  1.0  2.2289
  Dy  Dy11  1  0.767940  0.237170  0.237170  1.0  2.2429
  Dy  Dy12  1  0.205090  0.292310  0.292310  1.0  2.2266
  Zn  Zn13  1  0.295270  0.797640  0.274840  1.0  0.8577
  Zn  Zn14  1  0.704730  0.725160  0.202360  1.0  0.8588
  Zn  Zn15  1  0.704730  0.202360  0.725160  1.0  0.8593
  Zn  Zn16  1  0.295270  0.274840  0.797640  1.0  0.8565
  H  H17  1  0.851200  0.433400  0.170800  1.0  0.1045
  H  H18  1  0.272200  0.902300  0.092100  1.0  0.1161
  H  H19  1  0.703900  0.308900  0.545500  1.0  0.1198
  H  H20  1  0.121700  0.791300  0.045700  1.0  0.0923
  H  H21  1  0.878300  0.954300  0.208700  1.0  0.0921
  H  H22  1  0.551100  0.692500  0.858700  1.0  0.1009
  H  H23  1  0.379500  0.923300  0.471100  1.0  0.1073
  H  H24  1  0.478400  0.048400  0.307000  1.0  0.0941
  H  H25  1  0.448900  0.141300  0.307500  1.0  0.1015
  H  H26  1  0.464800  0.777000  0.611400  1.0  0.1002
  H  H27  1  0.877400  0.797700  0.531100  1.0  0.1049
  H  H28  1  0.727800  0.097700  0.907900  1.0  0.1157
  H  H29  1  0.463300  0.329100  0.595900  1.0  0.0919
  H  H30  1  0.121700  0.045700  0.791300  1.0  0.0921
  H  H31  1  0.535200  0.388600  0.223000  1.0  0.1005
  H  H32  1  0.122600  0.468900  0.202300  1.0  0.1042
  H  H33  1  0.481500  0.796100  0.072100  1.0  0.0958
  H  H34  1  0.715900  0.623100  0.384300  1.0  0.1091
  H  H35  1  0.460300  0.790400  0.972200  1.0  0.0933
  H  H36  1  0.634700  0.600300  0.006900  1.0  0.1168
  H  H37  1  0.379500  0.471100  0.923300  1.0  0.1105
  H  H38  1  0.463300  0.595900  0.329100  1.0  0.0923
  H  H39  1  0.148800  0.829200  0.566600  1.0  0.1045
  H  H40  1  0.727900  0.022600  0.831200  1.0  0.1084
  H  H41  1  0.887900  0.018300  0.736100  1.0  0.1
  H  H42  1  0.101600  0.946700  0.788300  1.0  0.101
  H  H43  1  0.918100  0.925800  0.737400  1.0  0.1008
  H  H44  1  0.564500  0.503800  0.670600  1.0  0.1104
  H  H45  1  0.481500  0.072100  0.796100  1.0  0.0959
  H  H46  1  0.296100  0.454500  0.691100  1.0  0.1209
  H  H47  1  0.620500  0.528900  0.076700  1.0  0.1083
  H  H48  1  0.367500  0.621100  0.165300  1.0  0.1266
  H  H49  1  0.632500  0.378900  0.834700  1.0  0.1254
  H  H50  1  0.081900  0.262600  0.074200  1.0  0.101
  H  H51  1  0.632500  0.834700  0.378900  1.0  0.1235
  H  H52  1  0.877400  0.531100  0.797700  1.0  0.1043
  H  H53  1  0.112100  0.981700  0.263900  1.0  0.1001
  H  H54  1  0.535200  0.223000  0.388600  1.0  0.0998
  H  H55  1  0.272100  0.168800  0.977400  1.0  0.1101
  H  H56  1  0.284100  0.376900  0.615700  1.0  0.1098
  H  H57  1  0.851200  0.170800  0.433400  1.0  0.1046
  H  H58  1  0.514700  0.483000  0.219000  1.0  0.0932
  H  H59  1  0.369500  0.095400  0.693000  1.0  0.1244
  H  H60  1  0.369500  0.693000  0.095400  1.0  0.125
  H  H61  1  0.715900  0.384300  0.623100  1.0  0.1089
  H  H62  1  0.485300  0.517000  0.781000  1.0  0.0938
  H  H63  1  0.170500  0.834700  0.473100  1.0  0.1153
  H  H64  1  0.727800  0.907900  0.097700  1.0  0.1179
  H  H65  1  0.464800  0.611400  0.777000  1.0  0.0999
  H  H66  1  0.630500  0.904600  0.307000  1.0  0.1247
  H  H67  1  0.634700  0.006900  0.600300  1.0  0.1175
  H  H68  1  0.518500  0.927900  0.203900  1.0  0.0956
  H  H69  1  0.152000  0.200500  0.568500  1.0  0.1192
  H  H70  1  0.898400  0.211700  0.053300  1.0  0.1003
  H  H71  1  0.829500  0.526900  0.165300  1.0  0.1157
  H  H72  1  0.514700  0.219000  0.483000  1.0  0.0925
  H  H73  1  0.878300  0.208700  0.954300  1.0  0.0924
  H  H74  1  0.536700  0.404100  0.670900  1.0  0.0919
  H  H75  1  0.101600  0.788300  0.946700  1.0  0.1004
  H  H76  1  0.478400  0.307000  0.048400  1.0  0.0943
  H  H77  1  0.448900  0.307500  0.141300  1.0  0.1014
  H  H78  1  0.848000  0.799500  0.431500  1.0  0.1196
  H  H79  1  0.272100  0.977400  0.168800  1.0  0.108
  H  H80  1  0.122600  0.202300  0.468900  1.0  0.1045
  H  H81  1  0.887900  0.736100  0.018300  1.0  0.1005
  H  H82  1  0.829500  0.165300  0.526900  1.0  0.1149
  H  H83  1  0.152000  0.568500  0.200500  1.0  0.119
  H  H84  1  0.081900  0.074200  0.262600  1.0  0.0994
  H  H85  1  0.727900  0.831200  0.022600  1.0  0.1085
  H  H86  1  0.918100  0.737400  0.925800  1.0  0.0992
  H  H87  1  0.551100  0.858700  0.692500  1.0  0.1012
  H  H88  1  0.521600  0.951600  0.693000  1.0  0.0934
  H  H89  1  0.435500  0.329400  0.496200  1.0  0.1116
  H  H90  1  0.521600  0.693000  0.951600  1.0  0.0939
  H  H91  1  0.630500  0.307000  0.904600  1.0  0.1243
  H  H92  1  0.272200  0.092100  0.902300  1.0  0.1189
  H  H93  1  0.620500  0.076700  0.528900  1.0  0.1108
  H  H94  1  0.170500  0.473100  0.834700  1.0  0.115
  H  H95  1  0.365300  0.399700  0.993100  1.0  0.1173
  H  H96  1  0.485300  0.781000  0.517000  1.0  0.0924
  H  H97  1  0.296100  0.691100  0.454500  1.0  0.1198
  H  H98  1  0.518500  0.203900  0.927900  1.0  0.0962
  H  H99  1  0.367500  0.165300  0.621100  1.0  0.1254
  H  H100  1  0.848000  0.431500  0.799500  1.0  0.1184
  H  H101  1  0.564500  0.670600  0.503800  1.0  0.1122
  H  H102  1  0.460300  0.972200  0.790400  1.0  0.0933
  H  H103  1  0.112100  0.263900  0.981700  1.0  0.1001
  H  H104  1  0.703900  0.545500  0.308900  1.0  0.1204
  H  H105  1  0.435500  0.496200  0.329400  1.0  0.111
  H  H106  1  0.148800  0.566600  0.829200  1.0  0.1044
  H  H107  1  0.284100  0.615700  0.376900  1.0  0.1107
  H  H108  1  0.536700  0.670900  0.404100  1.0  0.0922
  H  H109  1  0.539700  0.209600  0.027800  1.0  0.0933
  H  H110  1  0.539700  0.027800  0.209600  1.0  0.0934
  H  H111  1  0.898400  0.053300  0.211700  1.0  0.1009
  H  H112  1  0.365300  0.993100  0.399700  1.0  0.1177
  C  C113  1  0.364100  0.914720  0.430360  1.0  -0.1742
  C  C114  1  0.746600  0.590530  0.728390  1.0  0.6789
  C  C115  1  0.208300  0.554220  0.228040  1.0  -0.1169
  C  C116  1  0.791700  0.445780  0.771960  1.0  -0.1174
  C  C117  1  0.355700  0.658840  0.171060  1.0  -0.1729
  C  C118  1  0.297900  0.005010  0.283870  1.0  0.0578
  C  C119  1  0.300500  0.848050  0.160210  1.0  0.1806
  C  C120  1  0.319600  0.271320  0.656760  1.0  -0.0375
  C  C121  1  0.281600  0.174050  0.939530  1.0  -0.1772
  C  C122  1  0.403100  0.793660  0.046780  1.0  -0.1275
  C  C123  1  0.665200  0.577090  0.194170  1.0  -0.051
  C  C124  1  0.278400  0.785600  0.949460  1.0  -0.106
  C  C125  1  0.208300  0.228040  0.554220  1.0  -0.1176
  C  C126  1  0.836400  0.930740  0.728320  1.0  -0.0686
  C  C127  1  0.163600  0.271680  0.069260  1.0  -0.0715
  C  C128  1  0.379200  0.297850  0.108870  1.0  -0.0597
  C  C129  1  0.607700  0.429660  0.696200  1.0  -0.13
  C  C130  1  0.603300  0.702470  0.946730  1.0  -0.1414
  C  C131  1  0.603300  0.946730  0.702470  1.0  -0.1447
  C  C132  1  0.818200  0.727940  0.985980  1.0  -0.1152
  C  C133  1  0.717900  0.101460  0.867940  1.0  -0.1705
  C  C134  1  0.770500  0.177980  0.499260  1.0  -0.1344
  C  C135  1  0.643200  0.866980  0.302100  1.0  -0.1788
  C  C136  1  0.624000  0.696000  0.489260  1.0  -0.0471
  C  C137  1  0.241200  0.176270  0.283750  1.0  0.6704
  C  C138  1  0.693100  0.406950  0.732590  1.0  0.081
  C  C139  1  0.364100  0.430360  0.914720  1.0  -0.1732
  C  C140  1  0.302900  0.069070  0.793770  1.0  0.0366
  C  C141  1  0.718500  0.206690  0.343350  1.0  0.6677
  C  C142  1  0.392300  0.303800  0.570340  1.0  -0.1301
  C  C143  1  0.315000  0.132950  0.797210  1.0  -0.0315
  C  C144  1  0.699500  0.151950  0.839790  1.0  0.1823
  C  C145  1  0.718400  0.825950  0.060470  1.0  -0.1774
  C  C146  1  0.304000  0.416530  0.696930  1.0  -0.1615
  C  C147  1  0.635900  0.569640  0.085280  1.0  -0.1736
  C  C148  1  0.758800  0.823730  0.716250  1.0  0.6686
  C  C149  1  0.821300  0.211640  0.028160  1.0  -0.0994
  C  C150  1  0.666400  0.777830  0.315290  1.0  0.2191
  C  C151  1  0.737100  0.882840  0.715560  1.0  -0.1462
  C  C152  1  0.262900  0.284440  0.117160  1.0  -0.1476
  C  C153  1  0.315300  0.684070  0.324310  1.0  0.21
  C  C154  1  0.698600  0.199770  0.402310  1.0  -0.1489
  C  C155  1  0.583900  0.473180  0.209540  1.0  -0.0787
  C  C156  1  0.261700  0.885590  0.779550  1.0  0.6728
  C  C157  1  0.191700  0.030990  0.791170  1.0  -0.0813
  C  C158  1  0.697100  0.206230  0.930930  1.0  0.0382
  C  C159  1  0.297700  0.656030  0.374350  1.0  -0.16
  C  C160  1  0.334800  0.160260  0.748880  1.0  0.1948
  C  C161  1  0.282100  0.132060  0.898540  1.0  -0.1719
  C  C162  1  0.403600  0.787590  0.582990  1.0  -0.0612
  C  C163  1  0.298100  0.914810  0.227830  1.0  0.149
  C  C164  1  0.635900  0.085280  0.569640  1.0  -0.1731
  C  C165  1  0.687000  0.717550  0.055610  1.0  -0.0452
  C  C166  1  0.746600  0.728390  0.590530  1.0  0.682
  C  C167  1  0.738300  0.114410  0.220450  1.0  0.6725
  C  C168  1  0.334800  0.748880  0.160260  1.0  0.1926
  C  C169  1  0.620800  0.702150  0.891130  1.0  -0.0586
  C  C170  1  0.725400  0.526940  0.732360  1.0  -0.1458
  C  C171  1  0.702300  0.343970  0.625650  1.0  -0.1598
  C  C172  1  0.335200  0.335300  0.921120  1.0  0.1885
  C  C173  1  0.301400  0.597690  0.800230  1.0  -0.1479
  C  C174  1  0.737100  0.715560  0.882840  1.0  -0.1479
  C  C175  1  0.229500  0.822020  0.500740  1.0  -0.1259
  C  C176  1  0.808300  0.208830  0.969010  1.0  -0.0814
  C  C177  1  0.783300  0.181310  0.443610  1.0  -0.0516
  C  C178  1  0.609900  0.210070  0.013070  1.0  -0.0321
  C  C179  1  0.241200  0.283750  0.176270  1.0  0.6704
  C  C180  1  0.376000  0.510740  0.304000  1.0  -0.0412
  C  C181  1  0.403600  0.582990  0.787590  1.0  -0.0614
  C  C182  1  0.671100  0.193080  0.515300  1.0  0.069
  C  C183  1  0.282100  0.898540  0.132060  1.0  -0.167
  C  C184  1  0.325300  0.751940  0.393200  1.0  0.2073
  C  C185  1  0.643200  0.302100  0.866980  1.0  -0.1775
  C  C186  1  0.178700  0.788360  0.971840  1.0  -0.1003
  C  C187  1  0.262900  0.117160  0.284440  1.0  -0.1489
  C  C188  1  0.718400  0.060470  0.825950  1.0  -0.179
  C  C189  1  0.333600  0.222170  0.684710  1.0  0.2157
  C  C190  1  0.229500  0.500740  0.822020  1.0  -0.1264
  C  C191  1  0.319600  0.656760  0.271320  1.0  -0.0384
  C  C192  1  0.191400  0.494790  0.228630  1.0  -0.0656
  C  C193  1  0.297700  0.374350  0.656030  1.0  -0.1608
  C  C194  1  0.624000  0.489260  0.696000  1.0  -0.04
  C  C195  1  0.596400  0.212410  0.417010  1.0  -0.064
  C  C196  1  0.783300  0.443610  0.181310  1.0  -0.0581
  C  C197  1  0.685000  0.867050  0.202790  1.0  -0.0317
  C  C198  1  0.721600  0.050540  0.214400  1.0  -0.1068
  C  C199  1  0.253400  0.409470  0.271610  1.0  0.6784
  C  C200  1  0.671100  0.515300  0.193080  1.0  0.0686
  C  C201  1  0.609900  0.013070  0.210070  1.0  -0.0342
  C  C202  1  0.396700  0.297530  0.053270  1.0  -0.142
  C  C203  1  0.304000  0.696930  0.416530  1.0  -0.1592
  C  C204  1  0.281600  0.939530  0.174050  1.0  -0.1783
  C  C205  1  0.390100  0.789930  0.986930  1.0  -0.0335
  C  C206  1  0.216700  0.818690  0.556390  1.0  -0.055
  C  C207  1  0.693100  0.732590  0.406950  1.0  0.0819
  C  C208  1  0.334800  0.805830  0.422910  1.0  -0.0511
  C  C209  1  0.396700  0.053270  0.297530  1.0  -0.1415
  C  C210  1  0.356800  0.697900  0.133020  1.0  -0.1763
  C  C211  1  0.216700  0.556390  0.818690  1.0  -0.0556
  C  C212  1  0.808600  0.771370  0.505210  1.0  -0.0651
  C  C213  1  0.596400  0.417010  0.212410  1.0  -0.0565
  C  C214  1  0.390100  0.986930  0.789930  1.0  -0.0328
  C  C215  1  0.181800  0.272060  0.014020  1.0  -0.1157
  C  C216  1  0.333600  0.684710  0.222170  1.0  0.219
  C  C217  1  0.698600  0.402310  0.199770  1.0  -0.1487
  C  C218  1  0.300500  0.160210  0.848050  1.0  0.1781
  C  C219  1  0.281500  0.793310  0.656650  1.0  0.6677
  C  C220  1  0.738300  0.220450  0.114410  1.0  0.6748
  C  C221  1  0.665200  0.839740  0.251120  1.0  0.1944
  C  C222  1  0.181800  0.014020  0.272060  1.0  -0.1153
  C  C223  1  0.596900  0.206340  0.953220  1.0  -0.1277
  C  C224  1  0.163600  0.069260  0.271680  1.0  -0.0692
  C  C225  1  0.301400  0.800230  0.597690  1.0  -0.1483
  C  C226  1  0.642800  0.608410  0.047130  1.0  -0.1693
  C  C227  1  0.298100  0.227830  0.914810  1.0  0.15
  C  C228  1  0.687000  0.055610  0.717550  1.0  -0.0462
  C  C229  1  0.721600  0.214400  0.050540  1.0  -0.1057
  C  C230  1  0.302900  0.793770  0.069070  1.0  0.0373
  C  C231  1  0.808600  0.505210  0.771370  1.0  -0.0647
  C  C232  1  0.770500  0.499260  0.177980  1.0  -0.1323
  C  C233  1  0.357200  0.391590  0.952870  1.0  -0.1695
  C  C234  1  0.656000  0.141630  0.601230  1.0  0.1953
  C  C235  1  0.666400  0.315290  0.777830  1.0  0.2204
  C  C236  1  0.274600  0.267640  0.473060  1.0  -0.1422
  C  C237  1  0.357200  0.952870  0.391590  1.0  -0.171
  C  C238  1  0.758800  0.716250  0.823730  1.0  0.6692
  C  C239  1  0.416100  0.526820  0.790460  1.0  -0.0778
  C  C240  1  0.664800  0.664700  0.078880  1.0  0.1879
  C  C241  1  0.583900  0.209540  0.473180  1.0  -0.0799
  C  C242  1  0.325300  0.393200  0.751940  1.0  0.2107
  C  C243  1  0.685000  0.202790  0.867050  1.0  -0.0302
  C  C244  1  0.664800  0.078880  0.664700  1.0  0.1884
  C  C245  1  0.717900  0.867940  0.101460  1.0  -0.1715
  C  C246  1  0.684700  0.315930  0.675690  1.0  0.2064
  C  C247  1  0.313000  0.282450  0.944390  1.0  -0.047
  C  C248  1  0.680400  0.343240  0.728680  1.0  -0.0385
  C  C249  1  0.335200  0.921120  0.335300  1.0  0.188
  C  C250  1  0.416100  0.790460  0.526820  1.0  -0.0784
  C  C251  1  0.665200  0.251120  0.839740  1.0  0.1945
  C  C252  1  0.000000  0.764800  0.235200  1.0  0.4196
  C  C253  1  0.791700  0.771960  0.445780  1.0  -0.1191
  C  C254  1  0.306900  0.593050  0.267410  1.0  0.0808
  C  C255  1  0.702100  0.994990  0.716130  1.0  0.0599
  C  C256  1  0.274600  0.473060  0.267640  1.0  -0.1472
  C  C257  1  0.656000  0.601230  0.141630  1.0  0.1958
  C  C258  1  0.642800  0.047130  0.608410  1.0  -0.1712
  C  C259  1  0.697100  0.930930  0.206230  1.0  0.0385
  C  C260  1  0.701900  0.085190  0.772170  1.0  0.1481
  C  C261  1  0.392300  0.570340  0.303800  1.0  -0.1323
  C  C262  1  0.836400  0.728320  0.930740  1.0  -0.0696
  C  C263  1  0.674700  0.248060  0.606800  1.0  0.2072
  C  C264  1  0.191400  0.228630  0.494790  1.0  -0.0644
  C  C265  1  0.315300  0.324310  0.684070  1.0  0.2085
  C  C266  1  0.379200  0.108870  0.297850  1.0  -0.0572
  C  C267  1  0.344000  0.398770  0.858370  1.0  0.1944
  C  C268  1  0.297900  0.283870  0.005010  1.0  0.0569
  C  C269  1  0.725400  0.732360  0.526940  1.0  -0.1448
  C  C270  1  0.253400  0.271610  0.409470  1.0  0.681
  C  C271  1  0.644300  0.341160  0.828940  1.0  -0.1735
  C  C272  1  0.356800  0.133020  0.697900  1.0  -0.181
  C  C273  1  0.178700  0.971840  0.788360  1.0  -0.0982
  C  C274  1  0.328900  0.806920  0.484700  1.0  0.0673
  C  C275  1  0.821300  0.028160  0.211640  1.0  -0.101
  C  C276  1  0.684700  0.675690  0.315930  1.0  0.2092
  C  C277  1  0.818200  0.985980  0.727940  1.0  -0.1148
  C  C278  1  0.403100  0.046780  0.793660  1.0  -0.13
  C  C279  1  0.665200  0.194170  0.577090  1.0  -0.0497
  C  C280  1  0.278400  0.949460  0.785600  1.0  -0.1063
  C  C281  1  0.702100  0.716130  0.994990  1.0  0.0582
  C  C282  1  0.306900  0.267410  0.593050  1.0  0.0816
  C  C283  1  0.718500  0.343350  0.206690  1.0  0.6662
  C  C284  1  0.808300  0.969010  0.208830  1.0  -0.0826
  C  C285  1  0.701900  0.772170  0.085190  1.0  0.1494
  C  C286  1  0.674700  0.606800  0.248060  1.0  0.2107
  C  C287  1  0.355700  0.171060  0.658840  1.0  -0.1713
  C  C288  1  0.596900  0.953220  0.206340  1.0  -0.1294
  C  C289  1  0.696000  0.583470  0.303070  1.0  -0.1612
  C  C290  1  0.315000  0.797210  0.132950  1.0  -0.0314
  C  C291  1  0.696000  0.303070  0.583470  1.0  -0.1593
  C  C292  1  0.699500  0.839790  0.151950  1.0  0.1799
  C  C293  1  0.334800  0.422910  0.805830  1.0  -0.0523
  C  C294  1  0.191700  0.791170  0.030990  1.0  -0.0789
  C  C295  1  0.261700  0.779550  0.885590  1.0  0.6749
  C  C296  1  0.644300  0.828940  0.341160  1.0  -0.1715
  C  C297  1  0.680400  0.728680  0.343240  1.0  -0.0369
  C  C298  1  0.376000  0.304000  0.510740  1.0  -0.0433
  C  C299  1  0.620800  0.891130  0.702150  1.0  -0.0592
  C  C300  1  0.313000  0.944390  0.282450  1.0  -0.0482
  C  C301  1  0.344000  0.858370  0.398770  1.0  0.1939
  C  C302  1  0.328900  0.484700  0.806920  1.0  0.0671
  C  C303  1  0.702300  0.625650  0.343970  1.0  -0.159
  C  C304  1  0.607700  0.696200  0.429660  1.0  -0.1285
  C  C305  1  0.000000  0.235200  0.764800  1.0  0.419
  C  C306  1  0.281500  0.656650  0.793310  1.0  0.6667
  N  N307  1  0.327100  0.215360  0.740160  1.0  -0.4119
  N  N308  1  0.672900  0.259840  0.784640  1.0  -0.4146
  N  N309  1  0.691500  0.141200  0.781780  1.0  -0.4185
  N  N310  1  0.982900  0.310850  0.310850  1.0  0.6575
  N  N311  1  0.327100  0.740160  0.215360  1.0  -0.4121
  N  N312  1  0.330700  0.341220  0.864140  1.0  -0.4067
  N  N313  1  0.669900  0.663240  0.257500  1.0  -0.4125
  N  N314  1  0.330100  0.742500  0.336760  1.0  -0.4109
  N  N315  1  0.669900  0.257500  0.663240  1.0  -0.4136
  N  N316  1  0.308500  0.218220  0.858800  1.0  -0.4166
  N  N317  1  0.308500  0.858800  0.218220  1.0  -0.416
  N  N318  1  0.672900  0.784640  0.259840  1.0  -0.4147
  N  N319  1  0.017100  0.689150  0.689150  1.0  0.6587
  N  N320  1  0.669300  0.135860  0.658780  1.0  -0.4068
  N  N321  1  0.330700  0.864140  0.341220  1.0  -0.4076
  N  N322  1  0.669300  0.658780  0.135860  1.0  -0.4063
  N  N323  1  0.691500  0.781780  0.141200  1.0  -0.4157
  N  N324  1  0.330100  0.336760  0.742500  1.0  -0.4114
  O  O325  1  0.353400  0.864910  0.782030  1.0  -0.6846
  O  O326  1  0.812200  0.195700  0.331260  1.0  -0.7296
  O  O327  1  0.896700  0.742550  0.230610  1.0  -0.6595
  O  O328  1  0.868100  0.734700  0.818360  1.0  -0.7985
  O  O329  1  0.153700  0.771390  0.852630  1.0  -0.7895
  O  O330  1  0.812200  0.331260  0.195700  1.0  -0.7291
  O  O331  1  0.672500  0.690050  0.608350  1.0  -0.6276
  O  O332  1  0.669000  0.779770  0.697710  1.0  -0.7092
  O  O333  1  0.911900  0.658550  0.658550  1.0  -0.6313
  O  O334  1  0.641500  0.225150  0.306490  1.0  -0.705
  O  O335  1  0.646600  0.217970  0.135090  1.0  -0.6833
  O  O336  1  0.103300  0.769390  0.257450  1.0  -0.6618
  O  O337  1  0.846300  0.147370  0.228610  1.0  -0.7901
  O  O338  1  0.672500  0.608350  0.690050  1.0  -0.629
  O  O339  1  0.159800  0.238800  0.374420  1.0  -0.7721
  O  O340  1  0.131900  0.181640  0.265300  1.0  -0.7987
  O  O341  1  0.013000  0.729320  0.729320  1.0  -0.7131
  O  O342  1  0.641500  0.306490  0.225150  1.0  -0.707
  O  O343  1  0.840200  0.761200  0.625580  1.0  -0.7726
  O  O344  1  0.896700  0.230610  0.742550  1.0  -0.6607
  O  O345  1  0.646600  0.135090  0.217970  1.0  -0.6833
  O  O346  1  0.187800  0.804300  0.668740  1.0  -0.7316
  O  O347  1  0.121600  0.684950  0.684950  1.0  -0.6222
  O  O348  1  0.353400  0.782030  0.864910  1.0  -0.6852
  O  O349  1  0.103300  0.257450  0.769390  1.0  -0.6623
  O  O350  1  0.088100  0.341450  0.341450  1.0  -0.6343
  O  O351  1  0.153700  0.852630  0.771390  1.0  -0.7912
  O  O352  1  0.327500  0.309950  0.391650  1.0  -0.6279
  O  O353  1  0.331000  0.220230  0.302290  1.0  -0.7089
  O  O354  1  0.327500  0.391650  0.309950  1.0  -0.6297
  O  O355  1  0.331000  0.302290  0.220230  1.0  -0.7077
  O  O356  1  0.878400  0.315050  0.315050  1.0  -0.6217
  O  O357  1  0.187800  0.668740  0.804300  1.0  -0.7307
  O  O358  1  0.669000  0.697710  0.779770  1.0  -0.7083
  O  O359  1  0.358500  0.774850  0.693510  1.0  -0.7045
  O  O360  1  0.868100  0.818360  0.734700  1.0  -0.8004
  O  O361  1  0.131900  0.265300  0.181640  1.0  -0.7994
  O  O362  1  0.846300  0.228610  0.147370  1.0  -0.7905
  O  O363  1  0.840200  0.625580  0.761200  1.0  -0.7726
  O  O364  1  0.987000  0.270680  0.270680  1.0  -0.7112
  O  O365  1  0.159800  0.374420  0.238800  1.0  -0.7735
  O  O366  1  0.358500  0.693510  0.774850  1.0  -0.706
