# generated using pymatgen
data_Na4H21C28N2O9
_symmetry_space_group_name_H-M   'P 1'
_cell_length_a   6.40590000
_cell_length_b   16.35020000
_cell_length_c   17.81960000
_cell_angle_alpha   98.10900000
_cell_angle_beta   94.05600000
_cell_angle_gamma   95.65100000
_symmetry_Int_Tables_number   1
_chemical_formula_structural   Na4H21C28N2O9
_chemical_formula_sum   'Na8 H42 C56 N4 O18'
_cell_volume   1831.94869858
_cell_formula_units_Z   2
loop_
 _symmetry_equiv_pos_site_id
 _symmetry_equiv_pos_as_xyz
  1  'x, y, z'
loop_
 _atom_site_type_symbol
 _atom_site_label
 _atom_site_symmetry_multiplicity
 _atom_site_fract_x
 _atom_site_fract_y
 _atom_site_fract_z
 _atom_site_occupancy
 _atom_site_charge
  Na  Na1  1  0.570750  0.396400  0.519290  1.0  0.9728
  Na  Na2  1  0.874310  0.508790  0.413510  1.0  0.9627
  Na  Na3  1  0.849600  0.412050  0.728590  1.0  0.9546
  Na  Na4  1  0.273400  0.311000  0.641020  1.0  0.9586
  Na  Na5  1  0.429250  0.603600  0.480710  1.0  0.973
  Na  Na6  1  0.125690  0.491210  0.586490  1.0  0.9611
  Na  Na7  1  0.150400  0.587950  0.271410  1.0  0.9533
  Na  Na8  1  0.726600  0.689000  0.358980  1.0  0.958
  H  H9  1  0.692100  0.279800  0.612100  1.0  0.4295
  H  H10  1  0.545600  0.227100  0.546600  1.0  0.3908
  H  H11  1  0.075700  0.973700  0.942700  1.0  0.2607
  H  H12  1  0.553400  0.327000  0.338300  1.0  0.0882
  H  H13  1  0.915900  0.290700  0.186800  1.0  0.0993
  H  H14  1  0.000500  0.409800  0.277300  1.0  0.0881
  H  H15  1  0.471300  0.209400  0.247200  1.0  0.0894
  H  H16  1  0.141500  0.846600  0.739000  1.0  0.0969
  H  H17  1  0.421300  0.965900  0.764200  1.0  0.1208
  H  H18  1  0.640300  0.212700  0.990400  1.0  0.1205
  H  H19  1  0.498000  0.263500  0.111600  1.0  0.113
  H  H20  1  0.844200  0.234400  0.433300  1.0  0.1224
  H  H21  1  0.075300  0.215900  0.461500  1.0  0.125
  H  H22  1  0.037900  0.253700  0.384100  1.0  0.1289
  H  H23  1  0.322900  0.515500  0.856200  1.0  0.14
  H  H24  1  0.382000  0.579300  0.798700  1.0  0.1354
  H  H25  1  0.560100  0.530400  0.834200  1.0  0.1291
  H  H26  1  0.804200  0.032300  0.867800  1.0  0.0829
  H  H27  1  0.026400  0.092600  0.788300  1.0  0.0846
  H  H28  1  0.613000  0.258200  0.756400  1.0  0.0853
  H  H29  1  0.390100  0.195900  0.833800  1.0  0.0917
  H  H30  1  0.307900  0.720200  0.387900  1.0  0.4286
  H  H31  1  0.454400  0.772900  0.453400  1.0  0.3879
  H  H32  1  0.924300  0.026300  0.057300  1.0  0.2595
  H  H33  1  0.446600  0.673000  0.661700  1.0  0.0878
  H  H34  1  0.084100  0.709300  0.813200  1.0  0.0992
  H  H35  1  0.999500  0.590200  0.722700  1.0  0.0887
  H  H36  1  0.528700  0.790600  0.752800  1.0  0.0901
  H  H37  1  0.858500  0.153400  0.261000  1.0  0.0967
  H  H38  1  0.578700  0.034100  0.235800  1.0  0.1213
  H  H39  1  0.359700  0.787300  0.009600  1.0  0.1206
  H  H40  1  0.502000  0.736500  0.888400  1.0  0.1132
  H  H41  1  0.155800  0.765600  0.566700  1.0  0.1227
  H  H42  1  0.924700  0.784100  0.538500  1.0  0.1262
  H  H43  1  0.962100  0.746300  0.615900  1.0  0.1259
  H  H44  1  0.677100  0.484500  0.143800  1.0  0.1402
  H  H45  1  0.618000  0.420700  0.201300  1.0  0.1324
  H  H46  1  0.439900  0.469600  0.165800  1.0  0.1298
  H  H47  1  0.195800  0.967700  0.132200  1.0  0.0823
  H  H48  1  0.973600  0.907400  0.211700  1.0  0.0851
  H  H49  1  0.387000  0.741800  0.243600  1.0  0.0856
  H  H50  1  0.609900  0.804100  0.166200  1.0  0.092
  C  C51  1  0.343700  0.459050  0.372580  1.0  0.6779
  C  C52  1  0.286900  0.380640  0.315480  1.0  -0.1488
  C  C53  1  0.036000  0.340010  0.479520  1.0  0.7356
  C  C54  1  0.424900  0.320260  0.306930  1.0  -0.0543
  C  C55  1  0.046900  0.298400  0.216800  1.0  -0.1131
  C  C56  1  0.187000  0.238900  0.206400  1.0  0.0467
  C  C57  1  0.298200  0.995200  0.871900  1.0  0.1524
  C  C58  1  0.096800  0.369300  0.270900  1.0  -0.0577
  C  C59  1  0.364000  0.456900  0.748900  1.0  0.7361
  C  C60  1  0.389500  0.113700  0.977000  1.0  0.2009
  C  C61  1  0.418100  0.068700  0.906300  1.0  -0.0877
  C  C62  1  0.045800  0.887700  0.848400  1.0  0.1601
  C  C63  1  0.133800  0.165700  0.145100  1.0  -0.1059
  C  C64  1  0.375600  0.250300  0.252800  1.0  -0.0833
  C  C65  1  0.165000  0.886300  0.784000  1.0  -0.1788
  C  C66  1  0.264300  0.157200  0.084700  1.0  0.1975
  C  C67  1  0.572400  0.107700  0.858500  1.0  0.0242
  C  C68  1  0.319100  0.951800  0.797700  1.0  -0.1916
  C  C69  1  0.980300  0.218700  0.709300  1.0  0.6952
  C  C70  1  0.840100  0.179900  0.762300  1.0  -0.1405
  C  C71  1  0.521100  0.187800  0.010900  1.0  -0.1677
  C  C72  1  0.444400  0.215300  0.076800  1.0  -0.1568
  C  C73  1  0.994700  0.253500  0.435800  1.0  -0.4865
  C  C74  1  0.411400  0.526700  0.815400  1.0  -0.4806
  C  C75  1  0.763700  0.077800  0.844600  1.0  -0.1128
  C  C76  1  0.895900  0.113700  0.797100  1.0  -0.0375
  C  C77  1  0.651600  0.211300  0.777900  1.0  -0.0936
  C  C78  1  0.520200  0.174500  0.824700  1.0  -0.1237
  C  C79  1  0.656300  0.540950  0.627420  1.0  0.6787
  C  C80  1  0.713100  0.619360  0.684520  1.0  -0.1489
  C  C81  1  0.964000  0.659990  0.520480  1.0  0.7341
  C  C82  1  0.575100  0.679740  0.693070  1.0  -0.0534
  C  C83  1  0.953100  0.701600  0.783200  1.0  -0.1122
  C  C84  1  0.813000  0.761100  0.793600  1.0  0.047
  C  C85  1  0.701800  0.004800  0.128100  1.0  0.152
  C  C86  1  0.903200  0.630700  0.729100  1.0  -0.0579
  C  C87  1  0.636000  0.543100  0.251100  1.0  0.7396
  C  C88  1  0.610500  0.886300  0.023000  1.0  0.2003
  C  C89  1  0.581900  0.931300  0.093700  1.0  -0.0875
  C  C90  1  0.954200  0.112300  0.151600  1.0  0.1609
  C  C91  1  0.866200  0.834300  0.854900  1.0  -0.1051
  C  C92  1  0.624400  0.749700  0.747200  1.0  -0.0841
  C  C93  1  0.835000  0.113700  0.216000  1.0  -0.1789
  C  C94  1  0.735700  0.842800  0.915300  1.0  0.1961
  C  C95  1  0.427600  0.892300  0.141500  1.0  0.0237
  C  C96  1  0.680900  0.048200  0.202300  1.0  -0.1928
  C  C97  1  0.019700  0.781300  0.290700  1.0  0.6955
  C  C98  1  0.159900  0.820100  0.237700  1.0  -0.1408
  C  C99  1  0.478900  0.812200  0.989100  1.0  -0.1711
  C  C100  1  0.555600  0.784700  0.923200  1.0  -0.1559
  C  C101  1  0.005300  0.746500  0.564200  1.0  -0.4856
  C  C102  1  0.588600  0.473300  0.184600  1.0  -0.4795
  C  C103  1  0.236300  0.922200  0.155400  1.0  -0.1131
  C  C104  1  0.104100  0.886300  0.202900  1.0  -0.0375
  C  C105  1  0.348400  0.788700  0.222100  1.0  -0.0947
  C  C106  1  0.479800  0.825500  0.175300  1.0  -0.1234
  N  N107  1  0.133300  0.953690  0.901410  1.0  -0.3002
  N  N108  1  0.234600  0.095060  0.023160  1.0  -0.4621
  N  N109  1  0.866700  0.046310  0.098590  1.0  -0.3012
  N  N110  1  0.765400  0.904940  0.976840  1.0  -0.4593
  O  O111  1  0.219300  0.514550  0.374200  1.0  -0.796
  O  O112  1  0.512300  0.465470  0.414040  1.0  -0.7531
  O  O113  1  0.906100  0.390560  0.469130  1.0  -0.7775
  O  O114  1  0.201100  0.358140  0.524340  1.0  -0.7908
  O  O115  1  0.195600  0.455610  0.707610  1.0  -0.8141
  O  O116  1  0.491000  0.403850  0.738760  1.0  -0.6957
  O  O117  1  0.920200  0.279100  0.679650  1.0  -0.7062
  O  O118  1  0.148500  0.189400  0.697300  1.0  -0.6229
  O  O119  1  0.578200  0.275030  0.578600  1.0  -0.9554
  O  O120  1  0.780700  0.485450  0.625800  1.0  -0.7958
  O  O121  1  0.487700  0.534530  0.585960  1.0  -0.7517
  O  O122  1  0.093900  0.609440  0.530870  1.0  -0.7765
  O  O123  1  0.798900  0.641860  0.475660  1.0  -0.7935
  O  O124  1  0.804400  0.544390  0.292390  1.0  -0.8129
  O  O125  1  0.509000  0.596150  0.261240  1.0  -0.6969
  O  O126  1  0.079800  0.720900  0.320350  1.0  -0.7056
  O  O127  1  0.851500  0.810600  0.302700  1.0  -0.6207
  O  O128  1  0.421800  0.724970  0.421400  1.0  -0.9558
