# generated using pymatgen
data_Mn2H41(C2O)24
_symmetry_space_group_name_H-M   'P 1'
_cell_length_a   12.30290000
_cell_length_b   17.43360000
_cell_length_c   17.49200000
_cell_angle_alpha   67.67000000
_cell_angle_beta   76.20000000
_cell_angle_gamma   71.88400000
_symmetry_Int_Tables_number   1
_chemical_formula_structural   Mn2H41(C2O)24
_chemical_formula_sum   'Mn4 H82 C96 O48'
_cell_volume   3267.30484360
_cell_formula_units_Z   2
loop_
 _symmetry_equiv_pos_site_id
 _symmetry_equiv_pos_as_xyz
  1  'x, y, z'
loop_
 _atom_site_type_symbol
 _atom_site_label
 _atom_site_symmetry_multiplicity
 _atom_site_fract_x
 _atom_site_fract_y
 _atom_site_fract_z
 _atom_site_occupancy
 _atom_site_charge
  Mn  Mn1  1  0.869460  0.200460  0.645510  1.0  1.0739
  Mn  Mn2  1  0.857020  0.435050  0.470370  1.0  1.0836
  Mn  Mn3  1  0.130540  0.799540  0.354490  1.0  1.073
  Mn  Mn4  1  0.142980  0.564950  0.529630  1.0  1.0817
  H  H5  1  0.027000  0.573200  0.301400  1.0  0.1193
  H  H6  1  0.149000  0.418300  0.123500  1.0  0.0819
  H  H7  1  0.132700  0.668300  0.248300  1.0  0.1103
  H  H8  1  0.260800  0.666800  0.247700  1.0  0.1324
  H  H9  1  0.721000  0.598900  0.281600  1.0  0.1207
  H  H10  1  0.830100  0.634900  0.237900  1.0  0.0944
  H  H11  1  0.372400  0.476500  0.160300  1.0  0.0979
  H  H12  1  0.297300  0.605400  0.060200  1.0  0.1173
  H  H13  1  0.282700  0.555100  0.007200  1.0  0.118
  H  H14  1  0.406500  0.551600  0.019500  1.0  0.1122
  H  H15  1  0.428300  0.188100  0.213800  1.0  0.1104
  H  H16  1  0.382700  0.432100  0.984600  1.0  0.1266
  H  H17  1  0.435400  0.045700  0.113200  1.0  0.1351
  H  H18  1  0.367300  0.104900  0.166400  1.0  0.098
  H  H19  1  0.257600  0.257400  0.298100  1.0  0.105
  H  H20  1  0.261900  0.306300  0.355700  1.0  0.1324
  H  H21  1  0.527400  0.254200  0.930800  1.0  0.1045
  H  H22  1  0.476400  0.366200  0.809400  1.0  0.1159
  H  H23  1  0.522600  0.396800  0.866300  1.0  0.1149
  H  H24  1  0.389700  0.419400  0.863300  1.0  0.1138
  H  H25  1  0.234900  0.283600  0.005900  1.0  0.0843
  H  H26  1  0.344200  0.151600  0.807700  1.0  0.1217
  H  H27  1  0.479700  0.242700  0.705900  1.0  0.1062
  H  H28  1  0.519500  0.143100  0.748500  1.0  0.0773
  H  H29  1  0.195600  0.117400  0.778000  1.0  0.1068
  H  H30  1  0.155800  0.217000  0.756100  1.0  0.0851
  H  H31  1  0.036700  0.176400  0.011000  1.0  0.1073
  H  H32  1  0.981700  0.286900  0.890500  1.0  0.1171
  H  H33  1  0.984600  0.354000  0.928900  1.0  0.1045
  H  H34  1  0.893500  0.298700  0.968600  1.0  0.1169
  H  H35  1  0.092900  0.140100  0.272300  1.0  0.1057
  H  H36  1  0.973200  0.370800  0.044400  1.0  0.1239
  H  H37  1  0.867200  0.414800  0.226800  1.0  0.0935
  H  H38  1  0.811700  0.469800  0.093300  1.0  0.108
  H  H39  1  0.921900  0.506000  0.057200  1.0  0.1132
  H  H40  1  0.825600  0.541900  0.120400  1.0  0.107
  H  H41  1  0.086200  0.189900  0.391300  1.0  0.1069
  H  H42  1  0.971200  0.174100  0.382600  1.0  0.0924
  H  H43  1  0.192100  0.036600  0.241300  1.0  0.0956
  H  H44  1  0.197800  0.978800  0.189800  1.0  0.1431
  H  H45  1  0.534000  0.963600  0.298500  1.0  0.296
  H  H46  1  0.973000  0.426800  0.698600  1.0  0.1197
  H  H47  1  0.851000  0.581700  0.876500  1.0  0.0825
  H  H48  1  0.867300  0.331700  0.751700  1.0  0.1114
  H  H49  1  0.739200  0.333200  0.752300  1.0  0.1348
  H  H50  1  0.279000  0.401100  0.718400  1.0  0.1174
  H  H51  1  0.169900  0.365100  0.762100  1.0  0.0949
  H  H52  1  0.627600  0.523500  0.839700  1.0  0.0991
  H  H53  1  0.702700  0.394600  0.939800  1.0  0.1167
  H  H54  1  0.717300  0.444900  0.992800  1.0  0.1176
  H  H55  1  0.593500  0.448400  0.980500  1.0  0.114
  H  H56  1  0.571700  0.811900  0.786200  1.0  0.1108
  H  H57  1  0.617300  0.567900  0.015400  1.0  0.127
  H  H58  1  0.564600  0.954300  0.886800  1.0  0.1351
  H  H59  1  0.632700  0.895100  0.833600  1.0  0.0995
  H  H60  1  0.742400  0.742600  0.701900  1.0  0.1042
  H  H61  1  0.738100  0.693700  0.644300  1.0  0.1324
  H  H62  1  0.472600  0.745800  0.069200  1.0  0.1047
  H  H63  1  0.523600  0.633800  0.190600  1.0  0.1148
  H  H64  1  0.477400  0.603200  0.133700  1.0  0.1126
  H  H65  1  0.610300  0.580600  0.136700  1.0  0.1116
  H  H66  1  0.765100  0.716400  0.994100  1.0  0.0852
  H  H67  1  0.655800  0.848400  0.192300  1.0  0.1216
  H  H68  1  0.520300  0.757300  0.294100  1.0  0.1071
  H  H69  1  0.480500  0.856900  0.251500  1.0  0.0767
  H  H70  1  0.804400  0.882600  0.222000  1.0  0.106
  H  H71  1  0.844200  0.783000  0.243900  1.0  0.0861
  H  H72  1  0.963300  0.823600  0.989000  1.0  0.108
  H  H73  1  0.018300  0.713100  0.109500  1.0  0.1176
  H  H74  1  0.015400  0.646000  0.071100  1.0  0.1049
  H  H75  1  0.106500  0.701300  0.031400  1.0  0.1171
  H  H76  1  0.907100  0.859900  0.727700  1.0  0.1078
  H  H77  1  0.026800  0.629200  0.955600  1.0  0.1263
  H  H78  1  0.132800  0.585200  0.773200  1.0  0.0954
  H  H79  1  0.188300  0.530200  0.906700  1.0  0.1083
  H  H80  1  0.078100  0.494000  0.942800  1.0  0.1137
  H  H81  1  0.174400  0.458100  0.879600  1.0  0.1077
  H  H82  1  0.913800  0.810100  0.608700  1.0  0.1061
  H  H83  1  0.028800  0.825900  0.617400  1.0  0.0917
  H  H84  1  0.807900  0.963400  0.758700  1.0  0.0957
  H  H85  1  0.802200  0.021200  0.810200  1.0  0.1422
  H  H86  1  0.466000  0.036400  0.701500  1.0  0.2974
  C  C87  1  0.051700  0.541600  0.265200  1.0  -0.2327
  C  C88  1  0.163400  0.531000  0.225000  1.0  0.2672
  C  C89  1  0.201800  0.485000  0.170800  1.0  0.0435
  C  C90  1  0.124000  0.450000  0.159600  1.0  -0.1055
  C  C91  1  0.011100  0.458200  0.197800  1.0  0.0417
  C  C92  1  0.976600  0.505000  0.251400  1.0  0.2534
  C  C93  1  0.204900  0.632200  0.268400  1.0  -0.0395
  C  C94  1  0.186100  0.603700  0.363100  1.0  0.7142
  C  C95  1  0.799200  0.594700  0.287800  1.0  -0.0447
  C  C96  1  0.794500  0.621000  0.361600  1.0  0.7447
  C  C97  1  0.323100  0.476000  0.124100  1.0  -0.1249
  C  C98  1  0.327800  0.554300  0.045400  1.0  -0.332
  C  C99  1  0.368400  0.391600  0.109300  1.0  0.033
  C  C100  1  0.385500  0.317000  0.176600  1.0  0.2679
  C  C101  1  0.419500  0.237400  0.167200  1.0  -0.235
  C  C102  1  0.440600  0.231400  0.087400  1.0  0.2634
  C  C103  1  0.426900  0.305000  0.017600  1.0  0.0059
  C  C104  1  0.391600  0.382600  0.030900  1.0  -0.125
  C  C105  1  0.442600  0.084800  0.137800  1.0  -0.0006
  C  C106  1  0.525500  0.037000  0.200900  1.0  0.6053
  C  C107  1  0.309100  0.273600  0.320100  1.0  -0.0758
  C  C108  1  0.383700  0.194800  0.371400  1.0  0.7223
  C  C109  1  0.451600  0.294400  0.933200  1.0  -0.1303
  C  C110  1  0.460900  0.376800  0.861400  1.0  -0.3395
  C  C111  1  0.366400  0.254600  0.920700  1.0  -0.011
  C  C112  1  0.256600  0.257600  0.965200  1.0  -0.0812
  C  C113  1  0.177400  0.223500  0.952000  1.0  0.0059
  C  C114  1  0.211100  0.186600  0.890500  1.0  0.245
  C  C115  1  0.321600  0.179500  0.847000  1.0  -0.1922
  C  C116  1  0.397000  0.213100  0.861800  1.0  0.2554
  C  C117  1  0.531400  0.197500  0.742900  1.0  -0.0429
  C  C118  1  0.653400  0.200500  0.707300  1.0  0.7524
  C  C119  1  0.135900  0.163700  0.791500  1.0  -0.0701
  C  C120  1  0.022300  0.163400  0.773800  1.0  0.7408
  C  C121  1  0.055400  0.231100  0.998200  1.0  -0.122
  C  C122  1  0.971100  0.298900  0.941300  1.0  -0.348
  C  C123  1  0.042700  0.244700  0.080500  1.0  0.0108
  C  C124  1  0.078100  0.175300  0.151000  1.0  0.2558
  C  C125  1  0.067300  0.186200  0.226300  1.0  -0.2205
  C  C126  1  0.017200  0.267500  0.232900  1.0  0.2598
  C  C127  1  0.980600  0.338100  0.165500  1.0  -0.0006
  C  C128  1  0.995800  0.324000  0.090800  1.0  -0.1537
  C  C129  1  0.926600  0.423900  0.177900  1.0  -0.1309
  C  C130  1  0.865800  0.491700  0.105500  1.0  -0.3311
  C  C131  1  0.006300  0.216900  0.382400  1.0  -0.0206
  C  C132  1  0.941500  0.254600  0.451400  1.0  0.733
  C  C133  1  0.148500  0.025400  0.208900  1.0  -0.0739
  C  C134  1  0.047000  0.996800  0.264600  1.0  0.7436
  C  C135  1  0.948300  0.458400  0.734800  1.0  -0.2336
  C  C136  1  0.836600  0.469000  0.775000  1.0  0.2601
  C  C137  1  0.798200  0.515000  0.829200  1.0  0.0431
  C  C138  1  0.876000  0.550000  0.840400  1.0  -0.1092
  C  C139  1  0.988900  0.541800  0.802200  1.0  0.0417
  C  C140  1  0.023400  0.495000  0.748600  1.0  0.2522
  C  C141  1  0.795100  0.367800  0.731600  1.0  -0.0407
  C  C142  1  0.813900  0.396300  0.636900  1.0  0.7116
  C  C143  1  0.200800  0.405300  0.712200  1.0  -0.043
  C  C144  1  0.205500  0.379000  0.638400  1.0  0.7377
  C  C145  1  0.676900  0.524000  0.875900  1.0  -0.126
  C  C146  1  0.672200  0.445700  0.954600  1.0  -0.3324
  C  C147  1  0.631600  0.608400  0.890700  1.0  0.0353
  C  C148  1  0.614500  0.683000  0.823400  1.0  0.2675
  C  C149  1  0.580500  0.762600  0.832800  1.0  -0.2342
  C  C150  1  0.559400  0.768600  0.912600  1.0  0.2643
  C  C151  1  0.573100  0.695000  0.982400  1.0  0.0062
  C  C152  1  0.608400  0.617400  0.969100  1.0  -0.1245
  C  C153  1  0.557400  0.915200  0.862200  1.0  -0.0021
  C  C154  1  0.474500  0.963000  0.799100  1.0  0.605
  C  C155  1  0.690900  0.726400  0.679900  1.0  -0.0744
  C  C156  1  0.616300  0.805200  0.628600  1.0  0.7216
  C  C157  1  0.548400  0.705600  0.066800  1.0  -0.1294
  C  C158  1  0.539100  0.623200  0.138600  1.0  -0.3383
  C  C159  1  0.633600  0.745400  0.079300  1.0  -0.011
  C  C160  1  0.743400  0.742400  0.034800  1.0  -0.0805
  C  C161  1  0.822600  0.776500  0.048000  1.0  0.0053
  C  C162  1  0.788900  0.813400  0.109500  1.0  0.2452
  C  C163  1  0.678400  0.820500  0.153000  1.0  -0.1945
  C  C164  1  0.603000  0.786900  0.138200  1.0  0.2523
  C  C165  1  0.468600  0.802500  0.257100  1.0  -0.0445
  C  C166  1  0.346600  0.799500  0.292700  1.0  0.753
  C  C167  1  0.864100  0.836300  0.208500  1.0  -0.0704
  C  C168  1  0.977700  0.836600  0.226200  1.0  0.7462
  C  C169  1  0.944600  0.768900  0.001800  1.0  -0.1204
  C  C170  1  0.028900  0.701100  0.058700  1.0  -0.3512
  C  C171  1  0.957300  0.755300  0.919500  1.0  0.0102
  C  C172  1  0.921900  0.824700  0.849000  1.0  0.2591
  C  C173  1  0.932700  0.813800  0.773700  1.0  -0.2202
  C  C174  1  0.982800  0.732500  0.767100  1.0  0.2629
  C  C175  1  0.019400  0.661900  0.834500  1.0  1e-04
  C  C176  1  0.004200  0.676000  0.909200  1.0  -0.1544
  C  C177  1  0.073400  0.576100  0.822100  1.0  -0.1302
  C  C178  1  0.134200  0.508300  0.894500  1.0  -0.3338
  C  C179  1  0.993700  0.783100  0.617600  1.0  -0.0183
  C  C180  1  0.058500  0.745400  0.548600  1.0  0.7347
  C  C181  1  0.851500  0.974600  0.791100  1.0  -0.0706
  C  C182  1  0.953000  0.003200  0.735400  1.0  0.7437
  O  O183  1  0.476000  0.155600  0.073300  1.0  -0.2711
  O  O184  1  0.622800  0.047400  0.185400  1.0  -0.4972
  O  O185  1  0.485100  0.987700  0.266700  1.0  -0.4972
  O  O186  1  0.371500  0.326500  0.252900  1.0  -0.2708
  O  O187  1  0.328300  0.146600  0.430400  1.0  -0.5094
  O  O188  1  0.507800  0.208100  0.821500  1.0  -0.2518
  O  O189  1  0.682300  0.209100  0.630700  1.0  -0.569
  O  O190  1  0.724700  0.193600  0.751100  1.0  -0.5756
  O  O191  1  0.132200  0.154300  0.875600  1.0  -0.2742
  O  O192  1  0.008800  0.195600  0.698300  1.0  -0.6039
  O  O193  1  0.954100  0.132200  0.830100  1.0  -0.4989
  O  O194  1  0.124000  0.098300  0.138900  1.0  -0.2591
  O  O195  1  0.070500  0.934700  0.331000  1.0  -0.6193
  O  O196  1  0.948000  0.034100  0.246000  1.0  -0.5368
  O  O197  1  0.000300  0.284300  0.306000  1.0  -0.2674
  O  O198  1  0.945900  0.203100  0.523300  1.0  -0.6004
  O  O199  1  0.887900  0.330600  0.431100  1.0  -0.6537
  O  O200  1  0.865100  0.512500  0.293100  1.0  -0.3323
  O  O201  1  0.848500  0.567600  0.420300  1.0  -0.5964
  O  O202  1  0.735500  0.693400  0.359200  1.0  -0.5693
  O  O203  1  0.243600  0.565400  0.234500  1.0  -0.258
  O  O204  1  0.187500  0.530400  0.406200  1.0  -0.5653
  O  O205  1  0.168800  0.660900  0.394500  1.0  -0.644
  O  O206  1  0.489100  0.180200  0.354800  1.0  -0.4874
  O  O207  1  0.524000  0.844400  0.926700  1.0  -0.2701
  O  O208  1  0.377200  0.952600  0.814600  1.0  -0.4972
  O  O209  1  0.514900  0.012300  0.733300  1.0  -0.4946
  O  O210  1  0.628500  0.673500  0.747100  1.0  -0.2704
  O  O211  1  0.671700  0.853400  0.569600  1.0  -0.5111
  O  O212  1  0.492200  0.791900  0.178500  1.0  -0.2522
  O  O213  1  0.317700  0.790900  0.369300  1.0  -0.5736
  O  O214  1  0.275300  0.806400  0.248900  1.0  -0.5753
  O  O215  1  0.867800  0.845700  0.124400  1.0  -0.2758
  O  O216  1  0.991200  0.804400  0.301700  1.0  -0.604
  O  O217  1  0.045900  0.867800  0.169900  1.0  -0.4994
  O  O218  1  0.876000  0.901700  0.861100  1.0  -0.2594
  O  O219  1  0.929500  0.065300  0.669000  1.0  -0.6206
  O  O220  1  0.052000  0.965900  0.754000  1.0  -0.5392
  O  O221  1  0.999700  0.715700  0.694000  1.0  -0.2677
  O  O222  1  0.054100  0.796900  0.476700  1.0  -0.6005
  O  O223  1  0.112100  0.669400  0.568900  1.0  -0.6542
  O  O224  1  0.134900  0.487500  0.706900  1.0  -0.3316
  O  O225  1  0.151500  0.432400  0.579700  1.0  -0.5939
  O  O226  1  0.264500  0.306600  0.640800  1.0  -0.5674
  O  O227  1  0.756400  0.434600  0.765500  1.0  -0.2548
  O  O228  1  0.812500  0.469600  0.593800  1.0  -0.5666
  O  O229  1  0.831200  0.339100  0.605500  1.0  -0.6461
  O  O230  1  0.510900  0.819800  0.645200  1.0  -0.4867
