# generated using pymatgen
data_CoH10(C2O)6
_symmetry_space_group_name_H-M   'P 1'
_cell_length_a   16.71900000
_cell_length_b   16.71900000
_cell_length_c   24.59800000
_cell_angle_alpha   90.00000000
_cell_angle_beta   90.00000000
_cell_angle_gamma   120.00000000
_symmetry_Int_Tables_number   1
_chemical_formula_structural   CoH10(C2O)6
_chemical_formula_sum   'Co12 H120 C144 O72'
_cell_volume   5954.57849212
_cell_formula_units_Z   12
loop_
 _symmetry_equiv_pos_site_id
 _symmetry_equiv_pos_as_xyz
  1  'x, y, z'
loop_
 _atom_site_type_symbol
 _atom_site_label
 _atom_site_symmetry_multiplicity
 _atom_site_fract_x
 _atom_site_fract_y
 _atom_site_fract_z
 _atom_site_occupancy
 _atom_site_charge
  Co  Co1  1  0.407880  0.684020  0.749450  1.0  0.9543
  Co  Co2  1  0.491820  0.254820  0.468620  1.0  0.969
  Co  Co3  1  0.315980  0.723860  0.082780  1.0  0.956
  Co  Co4  1  0.745180  0.237000  0.801950  1.0  0.9655
  Co  Co5  1  0.276140  0.592120  0.416120  1.0  0.949
  Co  Co6  1  0.763000  0.508180  0.135290  1.0  0.9657
  Co  Co7  1  0.684020  0.407880  0.250550  1.0  0.9542
  Co  Co8  1  0.254820  0.491820  0.531380  1.0  0.9681
  Co  Co9  1  0.723860  0.315980  0.917220  1.0  0.9535
  Co  Co10  1  0.237000  0.745180  0.198050  1.0  0.9691
  Co  Co11  1  0.592120  0.276140  0.583880  1.0  0.9544
  Co  Co12  1  0.508180  0.763000  0.864710  1.0  0.9685
  H  H13  1  0.099800  0.831700  0.544000  1.0  0.1106
  H  H14  1  0.051300  0.832300  0.598400  1.0  0.1141
  H  H15  1  0.038800  0.878600  0.546100  1.0  0.1132
  H  H16  1  0.968700  0.687300  0.559400  1.0  0.0995
  H  H17  1  0.917700  0.847700  0.601200  1.0  0.1191
  H  H18  1  0.651900  0.569200  0.572500  1.0  0.1146
  H  H19  1  0.762000  0.533400  0.453600  1.0  0.1103
  H  H20  1  0.695800  0.562000  0.481500  1.0  0.0894
  H  H21  1  0.559900  0.550400  0.643500  1.0  0.0952
  H  H22  1  0.520000  0.580400  0.594800  1.0  0.0977
  H  H23  1  0.732700  0.830100  0.675100  1.0  0.0887
  H  H24  1  0.859900  0.975100  0.689200  1.0  0.1055
  H  H25  1  0.914200  0.956700  0.643600  1.0  0.1087
  H  H26  1  0.886700  0.898400  0.697300  1.0  0.1175
  H  H27  1  0.640000  0.028700  0.613600  1.0  0.1091
  H  H28  1  0.783000  0.881800  0.536400  1.0  0.0876
  H  H29  1  0.582700  0.823700  0.684300  1.0  0.1028
  H  H30  1  0.552800  0.898600  0.690800  1.0  0.1015
  H  H31  1  0.649600  0.133600  0.559200  1.0  0.0816
  H  H32  1  0.551900  0.047300  0.548200  1.0  0.0975
  H  H33  1  0.168300  0.268100  0.877330  1.0  0.1128
  H  H34  1  0.167700  0.219000  0.931730  1.0  0.1149
  H  H35  1  0.121400  0.160200  0.879430  1.0  0.1117
  H  H36  1  0.312700  0.281400  0.892730  1.0  0.0991
  H  H37  1  0.152300  0.070000  0.934530  1.0  0.1199
  H  H38  1  0.430800  0.082700  0.905830  1.0  0.1147
  H  H39  1  0.466600  0.228600  0.786930  1.0  0.1097
  H  H40  1  0.438000  0.133800  0.814830  1.0  0.0942
  H  H41  1  0.449600  0.009500  0.976830  1.0  0.0948
  H  H42  1  0.419600  0.939600  0.928130  1.0  0.0973
  H  H43  1  0.169900  0.902600  0.008430  1.0  0.0884
  H  H44  1  0.024900  0.884800  0.022530  1.0  0.1063
  H  H45  1  0.043300  0.957500  0.976930  1.0  0.1091
  H  H46  1  0.101600  0.988300  0.030630  1.0  0.1172
  H  H47  1  0.971300  0.611300  0.946930  1.0  0.1096
  H  H48  1  0.118200  0.901200  0.869730  1.0  0.0889
  H  H49  1  0.176300  0.759000  0.017630  1.0  0.1
  H  H50  1  0.101400  0.654200  0.024130  1.0  0.1052
  H  H51  1  0.866400  0.516000  0.892530  1.0  0.0832
  H  H52  1  0.952700  0.504600  0.881530  1.0  0.0932
  H  H53  1  0.731900  0.900200  0.210670  1.0  0.1094
  H  H54  1  0.781000  0.948700  0.265070  1.0  0.1138
  H  H55  1  0.839800  0.961200  0.212770  1.0  0.1094
  H  H56  1  0.718600  0.031300  0.226070  1.0  0.0959
  H  H57  1  0.930000  0.082300  0.267870  1.0  0.1185
  H  H58  1  0.917300  0.348100  0.239170  1.0  0.1131
  H  H59  1  0.771400  0.238000  0.120270  1.0  0.1116
  H  H60  1  0.866200  0.304200  0.148170  1.0  0.0906
  H  H61  1  0.990500  0.440100  0.310170  1.0  0.0952
  H  H62  1  0.060400  0.480000  0.261470  1.0  0.0982
  H  H63  1  0.097400  0.267300  0.341770  1.0  0.0885
  H  H64  1  0.115200  0.140100  0.355870  1.0  0.1049
  H  H65  1  0.042500  0.085800  0.310270  1.0  0.1104
  H  H66  1  0.011700  0.113300  0.363970  1.0  0.1159
  H  H67  1  0.388700  0.360000  0.280270  1.0  0.1092
  H  H68  1  0.098800  0.217000  0.203070  1.0  0.088
  H  H69  1  0.241000  0.417300  0.350970  1.0  0.1007
  H  H70  1  0.345800  0.447200  0.357470  1.0  0.1048
  H  H71  1  0.484000  0.350400  0.225870  1.0  0.0816
  H  H72  1  0.495400  0.448100  0.214870  1.0  0.0963
  H  H73  1  0.831700  0.099800  0.456000  1.0  0.109
  H  H74  1  0.832300  0.051300  0.401600  1.0  0.115
  H  H75  1  0.878600  0.038800  0.453900  1.0  0.1083
  H  H76  1  0.687300  0.968700  0.440600  1.0  0.0972
  H  H77  1  0.847700  0.917700  0.398800  1.0  0.1187
  H  H78  1  0.569200  0.651900  0.427500  1.0  0.1122
  H  H79  1  0.533400  0.762000  0.546400  1.0  0.1112
  H  H80  1  0.562000  0.695800  0.518500  1.0  0.0908
  H  H81  1  0.550400  0.559900  0.356500  1.0  0.0946
  H  H82  1  0.580400  0.520000  0.405200  1.0  0.099
  H  H83  1  0.830100  0.732700  0.324900  1.0  0.0881
  H  H84  1  0.975100  0.859900  0.310800  1.0  0.1063
  H  H85  1  0.956700  0.914200  0.356400  1.0  0.1099
  H  H86  1  0.898400  0.886700  0.302700  1.0  0.1152
  H  H87  1  0.028700  0.640000  0.386400  1.0  0.1087
  H  H88  1  0.881800  0.783000  0.463600  1.0  0.0882
  H  H89  1  0.823700  0.582700  0.315700  1.0  0.1003
  H  H90  1  0.898600  0.552800  0.309200  1.0  0.1051
  H  H91  1  0.133600  0.649600  0.440800  1.0  0.0821
  H  H92  1  0.047300  0.551900  0.451800  1.0  0.0945
  H  H93  1  0.268100  0.168300  0.122670  1.0  0.109
  H  H94  1  0.219000  0.167700  0.068270  1.0  0.1164
  H  H95  1  0.160200  0.121400  0.120570  1.0  0.1112
  H  H96  1  0.281400  0.312700  0.107270  1.0  0.0997
  H  H97  1  0.070000  0.152300  0.065470  1.0  0.1188
  H  H98  1  0.082700  0.430800  0.094170  1.0  0.1137
  H  H99  1  0.228600  0.466600  0.213070  1.0  0.1097
  H  H100  1  0.133800  0.438000  0.185170  1.0  0.0907
  H  H101  1  0.009500  0.449600  0.023170  1.0  0.0952
  H  H102  1  0.939600  0.419600  0.071870  1.0  0.098
  H  H103  1  0.902600  0.169900  0.991570  1.0  0.0886
  H  H104  1  0.884800  0.024900  0.977470  1.0  0.106
  H  H105  1  0.957500  0.043300  0.023070  1.0  0.1094
  H  H106  1  0.988300  0.101600  0.969370  1.0  0.1155
  H  H107  1  0.611300  0.971300  0.053070  1.0  0.1085
  H  H108  1  0.901200  0.118200  0.130270  1.0  0.0882
  H  H109  1  0.759000  0.176300  0.982370  1.0  0.103
  H  H110  1  0.654200  0.101400  0.975870  1.0  0.1018
  H  H111  1  0.516000  0.866400  0.107470  1.0  0.0821
  H  H112  1  0.504600  0.952700  0.118470  1.0  0.0971
  H  H113  1  0.900200  0.731900  0.789330  1.0  0.1133
  H  H114  1  0.948700  0.781000  0.734930  1.0  0.115
  H  H115  1  0.961200  0.839800  0.787230  1.0  0.1127
  H  H116  1  0.031300  0.718600  0.773930  1.0  0.1004
  H  H117  1  0.082300  0.930000  0.732130  1.0  0.1197
  H  H118  1  0.348100  0.917300  0.760830  1.0  0.1143
  H  H119  1  0.238000  0.771400  0.879730  1.0  0.1095
  H  H120  1  0.304200  0.866200  0.851830  1.0  0.0926
  H  H121  1  0.440100  0.990500  0.689830  1.0  0.0957
  H  H122  1  0.480000  0.060400  0.738530  1.0  0.098
  H  H123  1  0.267300  0.097400  0.658230  1.0  0.0875
  H  H124  1  0.140100  0.115200  0.644130  1.0  0.106
  H  H125  1  0.085800  0.042500  0.689730  1.0  0.1095
  H  H126  1  0.113300  0.011700  0.636030  1.0  0.1159
  H  H127  1  0.360000  0.388700  0.719730  1.0  0.1093
  H  H128  1  0.217000  0.098800  0.796930  1.0  0.0894
  H  H129  1  0.417300  0.241000  0.649030  1.0  0.1009
  H  H130  1  0.447200  0.345800  0.642530  1.0  0.1052
  H  H131  1  0.350400  0.484000  0.774130  1.0  0.0836
  H  H132  1  0.448100  0.495400  0.785130  1.0  0.0939
  C  C133  1  0.045600  0.828400  0.559500  1.0  -0.347
  C  C134  1  0.960600  0.736600  0.543600  1.0  -0.1011
  C  C135  1  0.872100  0.725400  0.566200  1.0  0.0239
  C  C136  1  0.864200  0.791500  0.595140  1.0  -0.1127
  C  C137  1  0.782100  0.780100  0.616000  1.0  -0.0148
  C  C138  1  0.702700  0.695300  0.608450  1.0  0.1835
  C  C139  1  0.705500  0.625500  0.578300  1.0  -0.2565
  C  C140  1  0.788100  0.641600  0.557500  1.0  0.2015
  C  C141  1  0.730000  0.529800  0.487100  1.0  -0.0326
  C  C142  1  0.662800  0.429800  0.499700  1.0  0.7421
  C  C143  1  0.543500  0.595800  0.631700  1.0  -0.0802
  C  C144  1  0.468900  0.590800  0.668170  1.0  0.756
  C  C145  1  0.777800  0.858400  0.645700  1.0  -0.1171
  C  C146  1  0.867800  0.928500  0.671300  1.0  -0.3494
  C  C147  1  0.742000  0.906700  0.607800  1.0  0.0245
  C  C148  1  0.698100  0.950500  0.629300  1.0  0.2089
  C  C149  1  0.668100  0.998600  0.597700  1.0  -0.2455
  C  C150  1  0.680400  0.001600  0.542200  1.0  0.1785
  C  C151  1  0.724100  0.956700  0.518200  1.0  0.0276
  C  C152  1  0.753700  0.911100  0.551900  1.0  -0.1047
  C  C153  1  0.598100  0.881700  0.701800  1.0  -0.0364
  C  C154  1  0.596500  0.870800  0.763600  1.0  0.6949
  C  C155  1  0.609500  0.092000  0.531200  1.0  -0.0479
  C  C156  1  0.591100  0.145900  0.489200  1.0  0.6691
  C  C157  1  0.171600  0.217200  0.892830  1.0  -0.3473
  C  C158  1  0.263400  0.224000  0.876930  1.0  -0.1029
  C  C159  1  0.274600  0.146700  0.899530  1.0  0.0252
  C  C160  1  0.208500  0.072700  0.928470  1.0  -0.1165
  C  C161  1  0.219900  0.002000  0.949330  1.0  -0.0144
  C  C162  1  0.304700  0.007400  0.941780  1.0  0.1842
  C  C163  1  0.374500  0.080000  0.911630  1.0  -0.258
  C  C164  1  0.358400  0.146500  0.890830  1.0  0.2028
  C  C165  1  0.470200  0.200200  0.820430  1.0  -0.0332
  C  C166  1  0.570200  0.233000  0.833030  1.0  0.7401
  C  C167  1  0.404200  0.947700  0.965030  1.0  -0.0766
  C  C168  1  0.409200  0.878100  0.001500  1.0  0.7582
  C  C169  1  0.141600  0.919400  0.979030  1.0  -0.1151
  C  C170  1  0.071500  0.939300  0.004630  1.0  -0.3517
  C  C171  1  0.093300  0.835300  0.941130  1.0  0.0244
  C  C172  1  0.049500  0.747600  0.962630  1.0  0.2091
  C  C173  1  0.001400  0.669500  0.931030  1.0  -0.2438
  C  C174  1  0.998400  0.678800  0.875530  1.0  0.1776
  C  C175  1  0.043300  0.767400  0.851530  1.0  0.0256
  C  C176  1  0.088900  0.842600  0.885230  1.0  -0.1008
  C  C177  1  0.118300  0.716400  0.035130  1.0  -0.038
  C  C178  1  0.129200  0.725700  0.096930  1.0  0.6937
  C  C179  1  0.908000  0.517500  0.864530  1.0  -0.0478
  C  C180  1  0.854100  0.445200  0.822530  1.0  0.6686
  C  C181  1  0.782800  0.954400  0.226170  1.0  -0.3429
  C  C182  1  0.776000  0.039400  0.210270  1.0  -0.1031
  C  C183  1  0.853300  0.127900  0.232870  1.0  0.0255
  C  C184  1  0.927300  0.135800  0.261810  1.0  -0.1137
  C  C185  1  0.998000  0.217900  0.282670  1.0  -0.0159
  C  C186  1  0.992600  0.297300  0.275120  1.0  0.184
  C  C187  1  0.920000  0.294500  0.244970  1.0  -0.2549
  C  C188  1  0.853500  0.211900  0.224170  1.0  0.206
  C  C189  1  0.799800  0.270000  0.153770  1.0  -0.0313
  C  C190  1  0.767000  0.337200  0.166370  1.0  0.74
  C  C191  1  0.052300  0.456500  0.298370  1.0  -0.0795
  C  C192  1  0.121900  0.531100  0.334840  1.0  0.7583
  C  C193  1  0.080600  0.222200  0.312370  1.0  -0.1154
  C  C194  1  0.060700  0.132200  0.337970  1.0  -0.3533
  C  C195  1  0.164700  0.258000  0.274470  1.0  0.0227
  C  C196  1  0.252400  0.301900  0.295970  1.0  0.2128
  C  C197  1  0.330500  0.331900  0.264370  1.0  -0.2424
  C  C198  1  0.321200  0.319600  0.208870  1.0  0.1797
  C  C199  1  0.232600  0.275900  0.184870  1.0  0.0279
  C  C200  1  0.157400  0.246300  0.218570  1.0  -0.1037
  C  C201  1  0.283600  0.401900  0.368470  1.0  -0.0355
  C  C202  1  0.274300  0.403500  0.430270  1.0  0.6943
  C  C203  1  0.482500  0.390500  0.197870  1.0  -0.0463
  C  C204  1  0.554800  0.408900  0.155870  1.0  0.6691
  C  C205  1  0.828400  0.045600  0.440500  1.0  -0.3432
  C  C206  1  0.736600  0.960600  0.456400  1.0  -0.1042
  C  C207  1  0.725400  0.872100  0.433800  1.0  0.0237
  C  C208  1  0.791500  0.864200  0.404860  1.0  -0.1138
  C  C209  1  0.780100  0.782100  0.384000  1.0  -0.0177
  C  C210  1  0.695300  0.702700  0.391550  1.0  0.1837
  C  C211  1  0.625500  0.705500  0.421700  1.0  -0.254
  C  C212  1  0.641600  0.788100  0.442500  1.0  0.2063
  C  C213  1  0.529800  0.730000  0.512900  1.0  -0.0321
  C  C214  1  0.429800  0.662800  0.500300  1.0  0.7396
  C  C215  1  0.595800  0.543500  0.368300  1.0  -0.0786
  C  C216  1  0.590800  0.468900  0.331830  1.0  0.7574
  C  C217  1  0.858400  0.777800  0.354300  1.0  -0.1133
  C  C218  1  0.928500  0.867800  0.328700  1.0  -0.3521
  C  C219  1  0.906700  0.742000  0.392200  1.0  0.0234
  C  C220  1  0.950500  0.698100  0.370700  1.0  0.2139
  C  C221  1  0.998600  0.668100  0.402300  1.0  -0.2421
  C  C222  1  0.001600  0.680400  0.457800  1.0  0.1802
  C  C223  1  0.956700  0.724100  0.481800  1.0  0.0271
  C  C224  1  0.911100  0.753700  0.448100  1.0  -0.1062
  C  C225  1  0.881700  0.598100  0.298200  1.0  -0.0345
  C  C226  1  0.870800  0.596500  0.236400  1.0  0.6958
  C  C227  1  0.092000  0.609500  0.468800  1.0  -0.0507
  C  C228  1  0.145900  0.591100  0.510800  1.0  0.6712
  C  C229  1  0.217200  0.171600  0.107170  1.0  -0.3471
  C  C230  1  0.224000  0.263400  0.123070  1.0  -0.1019
  C  C231  1  0.146700  0.274600  0.100470  1.0  0.0236
  C  C232  1  0.072700  0.208500  0.071530  1.0  -0.1128
  C  C233  1  0.002000  0.219900  0.050670  1.0  -0.0167
  C  C234  1  0.007400  0.304700  0.058220  1.0  0.1821
  C  C235  1  0.080000  0.374500  0.088370  1.0  -0.2559
  C  C236  1  0.146500  0.358400  0.109170  1.0  0.2028
  C  C237  1  0.200200  0.470200  0.179570  1.0  -0.0345
  C  C238  1  0.233000  0.570200  0.166970  1.0  0.7419
  C  C239  1  0.947700  0.404200  0.034970  1.0  -0.078
  C  C240  1  0.878100  0.409200  0.998500  1.0  0.7549
  C  C241  1  0.919400  0.141600  0.020970  1.0  -0.1154
  C  C242  1  0.939300  0.071500  0.995370  1.0  -0.3503
  C  C243  1  0.835300  0.093300  0.058870  1.0  0.0251
  C  C244  1  0.747600  0.049500  0.037370  1.0  0.2073
  C  C245  1  0.669500  0.001400  0.068970  1.0  -0.2437
  C  C246  1  0.678800  0.998400  0.124470  1.0  0.178
  C  C247  1  0.767400  0.043300  0.148470  1.0  0.0266
  C  C248  1  0.842600  0.088900  0.114770  1.0  -0.1053
  C  C249  1  0.716400  0.118300  0.964870  1.0  -0.0339
  C  C250  1  0.725700  0.129200  0.903070  1.0  0.6955
  C  C251  1  0.517500  0.908000  0.135470  1.0  -0.0511
  C  C252  1  0.445200  0.854100  0.177470  1.0  0.6671
  C  C253  1  0.954400  0.782800  0.773830  1.0  -0.348
  C  C254  1  0.039400  0.776000  0.789730  1.0  -0.1044
  C  C255  1  0.127900  0.853300  0.767130  1.0  0.0241
  C  C256  1  0.135800  0.927300  0.738190  1.0  -0.1163
  C  C257  1  0.217900  0.998000  0.717330  1.0  -0.0163
  C  C258  1  0.297300  0.992600  0.724880  1.0  0.1823
  C  C259  1  0.294500  0.920000  0.755030  1.0  -0.257
  C  C260  1  0.211900  0.853500  0.775830  1.0  0.2033
  C  C261  1  0.270000  0.799800  0.846230  1.0  -0.0325
  C  C262  1  0.337200  0.767000  0.833630  1.0  0.7394
  C  C263  1  0.456500  0.052300  0.701630  1.0  -0.0755
  C  C264  1  0.531100  0.121900  0.665160  1.0  0.7579
  C  C265  1  0.222200  0.080600  0.687630  1.0  -0.1134
  C  C266  1  0.132200  0.060700  0.662030  1.0  -0.3512
  C  C267  1  0.258000  0.164700  0.725530  1.0  0.025
  C  C268  1  0.301900  0.252400  0.704030  1.0  0.2107
  C  C269  1  0.331900  0.330500  0.735630  1.0  -0.2444
  C  C270  1  0.319600  0.321200  0.791130  1.0  0.1787
  C  C271  1  0.275900  0.232600  0.815130  1.0  0.0254
  C  C272  1  0.246300  0.157400  0.781430  1.0  -0.1026
  C  C273  1  0.401900  0.283600  0.631530  1.0  -0.0356
  C  C274  1  0.403500  0.274300  0.569730  1.0  0.6968
  C  C275  1  0.390500  0.482500  0.802130  1.0  -0.0527
  C  C276  1  0.408900  0.554800  0.844130  1.0  0.6679
  O  O277  1  0.796200  0.575100  0.529050  1.0  -0.2905
  O  O278  1  0.603500  0.387200  0.463520  1.0  -0.5971
  O  O279  1  0.672600  0.398800  0.543920  1.0  -0.6399
  O  O280  1  0.623800  0.684700  0.632000  1.0  -0.267
  O  O281  1  0.490700  0.652400  0.703540  1.0  -0.615
  O  O282  1  0.390600  0.522700  0.661840  1.0  -0.5302
  O  O283  1  0.687000  0.950900  0.685650  1.0  -0.3113
  O  O284  1  0.655800  0.930700  0.790560  1.0  -0.493
  O  O285  1  0.526400  0.800800  0.782770  1.0  -0.6919
  O  O286  1  0.651700  0.045900  0.507110  1.0  -0.2631
  O  O287  1  0.569000  0.203100  0.508520  1.0  -0.6878
  O  O288  1  0.596300  0.134000  0.440700  1.0  -0.4713
  O  O289  1  0.424900  0.221100  0.862380  1.0  -0.2884
  O  O290  1  0.612800  0.216300  0.796850  1.0  -0.5977
  O  O291  1  0.601200  0.273800  0.877250  1.0  -0.6329
  O  O292  1  0.315300  0.939100  0.965330  1.0  -0.2661
  O  O293  1  0.347600  0.838300  0.036870  1.0  -0.6144
  O  O294  1  0.477300  0.867900  0.995170  1.0  -0.5326
  O  O295  1  0.049100  0.736100  0.018980  1.0  -0.3119
  O  O296  1  0.069300  0.725100  0.123890  1.0  -0.4926
  O  O297  1  0.199200  0.725600  0.116100  1.0  -0.6895
  O  O298  1  0.954100  0.605800  0.840440  1.0  -0.2637
  O  O299  1  0.796900  0.365900  0.841850  1.0  -0.6899
  O  O300  1  0.866000  0.462300  0.774030  1.0  -0.4704
  O  O301  1  0.778900  0.203800  0.195720  1.0  -0.2858
  O  O302  1  0.783700  0.396500  0.130190  1.0  -0.597
  O  O303  1  0.726200  0.327400  0.210590  1.0  -0.6379
  O  O304  1  0.060900  0.376200  0.298670  1.0  -0.27
  O  O305  1  0.161700  0.509300  0.370210  1.0  -0.6132
  O  O306  1  0.132100  0.609400  0.328510  1.0  -0.5259
  O  O307  1  0.263900  0.313000  0.352320  1.0  -0.3131
  O  O308  1  0.274900  0.344200  0.457230  1.0  -0.489
  O  O309  1  0.274400  0.473600  0.449440  1.0  -0.6911
  O  O310  1  0.394200  0.348300  0.173780  1.0  -0.2638
  O  O311  1  0.634100  0.431000  0.175190  1.0  -0.6886
  O  O312  1  0.537700  0.403700  0.107370  1.0  -0.4711
  O  O313  1  0.575100  0.796200  0.470950  1.0  -0.2841
  O  O314  1  0.387200  0.603500  0.536480  1.0  -0.5937
  O  O315  1  0.398800  0.672600  0.456080  1.0  -0.6368
  O  O316  1  0.684700  0.623800  0.368000  1.0  -0.2696
  O  O317  1  0.652400  0.490700  0.296460  1.0  -0.6139
  O  O318  1  0.522700  0.390600  0.338160  1.0  -0.53
  O  O319  1  0.950900  0.687000  0.314350  1.0  -0.3123
  O  O320  1  0.930700  0.655800  0.209440  1.0  -0.4888
  O  O321  1  0.800800  0.526400  0.217230  1.0  -0.6919
  O  O322  1  0.045900  0.651700  0.492890  1.0  -0.2642
  O  O323  1  0.203100  0.569000  0.491480  1.0  -0.6887
  O  O324  1  0.134000  0.596300  0.559300  1.0  -0.4723
  O  O325  1  0.221100  0.424900  0.137620  1.0  -0.2911
  O  O326  1  0.216300  0.612800  0.203150  1.0  -0.5952
  O  O327  1  0.273800  0.601200  0.122750  1.0  -0.6396
  O  O328  1  0.939100  0.315300  0.034670  1.0  -0.2665
  O  O329  1  0.838300  0.347600  0.963130  1.0  -0.6154
  O  O330  1  0.867900  0.477300  0.004830  1.0  -0.5303
  O  O331  1  0.736100  0.049100  0.981020  1.0  -0.3092
  O  O332  1  0.725100  0.069300  0.876110  1.0  -0.4924
  O  O333  1  0.725600  0.199200  0.883900  1.0  -0.6919
  O  O334  1  0.605800  0.954100  0.159560  1.0  -0.2649
  O  O335  1  0.365900  0.796900  0.158150  1.0  -0.6884
  O  O336  1  0.462300  0.866000  0.225970  1.0  -0.4726
  O  O337  1  0.203800  0.778900  0.804280  1.0  -0.2891
  O  O338  1  0.396500  0.783700  0.869810  1.0  -0.5955
  O  O339  1  0.327400  0.726200  0.789410  1.0  -0.6355
  O  O340  1  0.376200  0.060900  0.701330  1.0  -0.2661
  O  O341  1  0.509300  0.161700  0.629790  1.0  -0.6149
  O  O342  1  0.609400  0.132100  0.671490  1.0  -0.5333
  O  O343  1  0.313000  0.263900  0.647680  1.0  -0.3131
  O  O344  1  0.344200  0.274900  0.542770  1.0  -0.4934
  O  O345  1  0.473600  0.274400  0.550560  1.0  -0.6892
  O  O346  1  0.348300  0.394200  0.826220  1.0  -0.265
  O  O347  1  0.431000  0.634100  0.824810  1.0  -0.6917
  O  O348  1  0.403700  0.537700  0.892630  1.0  -0.4715
