# generated using pymatgen
data_NiH10(C2O)6
_symmetry_space_group_name_H-M   'P 1'
_cell_length_a   16.71900000
_cell_length_b   16.71900000
_cell_length_c   24.59800000
_cell_angle_alpha   90.00000000
_cell_angle_beta   90.00000000
_cell_angle_gamma   120.00000000
_symmetry_Int_Tables_number   1
_chemical_formula_structural   NiH10(C2O)6
_chemical_formula_sum   'Ni12 H120 C144 O72'
_cell_volume   5954.57849212
_cell_formula_units_Z   12
loop_
 _symmetry_equiv_pos_site_id
 _symmetry_equiv_pos_as_xyz
  1  'x, y, z'
loop_
 _atom_site_type_symbol
 _atom_site_label
 _atom_site_symmetry_multiplicity
 _atom_site_fract_x
 _atom_site_fract_y
 _atom_site_fract_z
 _atom_site_occupancy
 _atom_site_charge
  Ni  Ni1  1  0.408100  0.685580  0.750500  1.0  0.7638
  Ni  Ni2  1  0.494590  0.256320  0.468770  1.0  0.7026
  Ni  Ni3  1  0.314420  0.722520  0.083830  1.0  0.7633
  Ni  Ni4  1  0.743680  0.238270  0.802100  1.0  0.6977
  Ni  Ni5  1  0.277480  0.591900  0.417170  1.0  0.7636
  Ni  Ni6  1  0.761730  0.505410  0.135440  1.0  0.7018
  Ni  Ni7  1  0.685580  0.408100  0.249500  1.0  0.7631
  Ni  Ni8  1  0.256320  0.494590  0.531230  1.0  0.7034
  Ni  Ni9  1  0.722520  0.314420  0.916170  1.0  0.761
  Ni  Ni10  1  0.238270  0.743680  0.197900  1.0  0.7028
  Ni  Ni11  1  0.591900  0.277480  0.582830  1.0  0.7611
  Ni  Ni12  1  0.505410  0.761730  0.864560  1.0  0.7031
  H  H13  1  0.100700  0.833100  0.544500  1.0  0.1196
  H  H14  1  0.051700  0.833100  0.598800  1.0  0.1224
  H  H15  1  0.038900  0.879100  0.546500  1.0  0.1238
  H  H16  1  0.970600  0.688400  0.559800  1.0  0.1108
  H  H17  1  0.651400  0.569900  0.573600  1.0  0.1218
  H  H18  1  0.919000  0.847500  0.602200  1.0  0.1359
  H  H19  1  0.763000  0.534800  0.453800  1.0  0.1145
  H  H20  1  0.696000  0.562200  0.482000  1.0  0.1022
  H  H21  1  0.561100  0.551800  0.645200  1.0  0.1062
  H  H22  1  0.521600  0.580500  0.595700  1.0  0.1047
  H  H23  1  0.734100  0.832100  0.675200  1.0  0.0921
  H  H24  1  0.861300  0.977800  0.688600  1.0  0.1125
  H  H25  1  0.915800  0.957900  0.643900  1.0  0.1153
  H  H26  1  0.887100  0.900700  0.698000  1.0  0.1248
  H  H27  1  0.638800  0.027700  0.613800  1.0  0.1056
  H  H28  1  0.782200  0.882300  0.536600  1.0  0.092
  H  H29  1  0.583700  0.824400  0.684600  1.0  0.1068
  H  H30  1  0.552600  0.898300  0.691500  1.0  0.1082
  H  H31  1  0.649200  0.134500  0.558600  1.0  0.0939
  H  H32  1  0.551100  0.049200  0.547400  1.0  0.1093
  H  H33  1  0.166900  0.267600  0.877830  1.0  0.1196
  H  H34  1  0.166900  0.218600  0.932130  1.0  0.1231
  H  H35  1  0.120900  0.159800  0.879830  1.0  0.122
  H  H36  1  0.311600  0.282200  0.893130  1.0  0.1101
  H  H37  1  0.430100  0.081500  0.906930  1.0  0.1226
  H  H38  1  0.152500  0.071500  0.935530  1.0  0.1366
  H  H39  1  0.465200  0.228200  0.787130  1.0  0.1143
  H  H40  1  0.437800  0.133800  0.815330  1.0  0.1052
  H  H41  1  0.448200  0.009300  0.978530  1.0  0.1067
  H  H42  1  0.419500  0.941100  0.929030  1.0  0.1037
  H  H43  1  0.167900  0.902000  0.008530  1.0  0.0913
  H  H44  1  0.022200  0.883500  0.021930  1.0  0.1148
  H  H45  1  0.042100  0.957900  0.977230  1.0  0.1147
  H  H46  1  0.099300  0.986400  0.031330  1.0  0.1252
  H  H47  1  0.972300  0.611100  0.947130  1.0  0.106
  H  H48  1  0.117700  0.899900  0.869930  1.0  0.0925
  H  H49  1  0.175600  0.759300  0.017930  1.0  0.1044
  H  H50  1  0.101700  0.654300  0.024830  1.0  0.1117
  H  H51  1  0.865500  0.514700  0.891930  1.0  0.0954
  H  H52  1  0.950800  0.501900  0.880730  1.0  0.1049
  H  H53  1  0.732400  0.899300  0.211170  1.0  0.1165
  H  H54  1  0.781400  0.948300  0.265470  1.0  0.1223
  H  H55  1  0.840200  0.961100  0.213170  1.0  0.1195
  H  H56  1  0.717800  0.029400  0.226470  1.0  0.1071
  H  H57  1  0.918500  0.348600  0.240270  1.0  0.1213
  H  H58  1  0.928500  0.081000  0.268870  1.0  0.1348
  H  H59  1  0.771800  0.237000  0.120470  1.0  0.1165
  H  H60  1  0.866200  0.304000  0.148670  1.0  0.1023
  H  H61  1  0.990700  0.438900  0.311870  1.0  0.1063
  H  H62  1  0.058900  0.478400  0.262370  1.0  0.1052
  H  H63  1  0.098000  0.265900  0.341870  1.0  0.0913
  H  H64  1  0.116500  0.138700  0.355270  1.0  0.1128
  H  H65  1  0.042100  0.084200  0.310570  1.0  0.1167
  H  H66  1  0.013600  0.112900  0.364670  1.0  0.1239
  H  H67  1  0.388900  0.361200  0.280470  1.0  0.1051
  H  H68  1  0.100100  0.217800  0.203270  1.0  0.0912
  H  H69  1  0.240700  0.416300  0.351270  1.0  0.1054
  H  H70  1  0.345700  0.447400  0.358170  1.0  0.1112
  H  H71  1  0.485300  0.350800  0.225270  1.0  0.0938
  H  H72  1  0.498100  0.448900  0.214070  1.0  0.1072
  H  H73  1  0.833100  0.100700  0.455500  1.0  0.1181
  H  H74  1  0.833100  0.051700  0.401200  1.0  0.1233
  H  H75  1  0.879100  0.038900  0.453500  1.0  0.118
  H  H76  1  0.688400  0.970600  0.440200  1.0  0.1081
  H  H77  1  0.569900  0.651400  0.426400  1.0  0.1202
  H  H78  1  0.847500  0.919000  0.397800  1.0  0.1352
  H  H79  1  0.534800  0.763000  0.546200  1.0  0.1161
  H  H80  1  0.562200  0.696000  0.518000  1.0  0.1027
  H  H81  1  0.551800  0.561100  0.354800  1.0  0.1061
  H  H82  1  0.580500  0.521600  0.404300  1.0  0.1052
  H  H83  1  0.832100  0.734100  0.324800  1.0  0.0907
  H  H84  1  0.977800  0.861300  0.311400  1.0  0.1142
  H  H85  1  0.957900  0.915800  0.356100  1.0  0.1163
  H  H86  1  0.900700  0.887100  0.302000  1.0  0.1246
  H  H87  1  0.027700  0.638800  0.386200  1.0  0.1047
  H  H88  1  0.882300  0.782200  0.463400  1.0  0.0911
  H  H89  1  0.824400  0.583700  0.315400  1.0  0.1047
  H  H90  1  0.898300  0.552600  0.308500  1.0  0.1115
  H  H91  1  0.134500  0.649200  0.441400  1.0  0.0944
  H  H92  1  0.049200  0.551100  0.452600  1.0  0.1065
  H  H93  1  0.267600  0.166900  0.122170  1.0  0.1184
  H  H94  1  0.218600  0.166900  0.067870  1.0  0.125
  H  H95  1  0.159800  0.120900  0.120170  1.0  0.1213
  H  H96  1  0.282200  0.311600  0.106870  1.0  0.1107
  H  H97  1  0.081500  0.430100  0.093070  1.0  0.1214
  H  H98  1  0.071500  0.152500  0.064470  1.0  0.1353
  H  H99  1  0.228200  0.465200  0.212870  1.0  0.114
  H  H100  1  0.133800  0.437800  0.184670  1.0  0.1035
  H  H101  1  0.009300  0.448200  0.021470  1.0  0.1063
  H  H102  1  0.941100  0.419500  0.070970  1.0  0.1043
  H  H103  1  0.902000  0.167900  0.991470  1.0  0.0916
  H  H104  1  0.883500  0.022200  0.978070  1.0  0.113
  H  H105  1  0.957900  0.042100  0.022770  1.0  0.1163
  H  H106  1  0.986400  0.099300  0.968670  1.0  0.1243
  H  H107  1  0.611100  0.972300  0.052870  1.0  0.1049
  H  H108  1  0.899900  0.117700  0.130070  1.0  0.0916
  H  H109  1  0.759300  0.175600  0.982070  1.0  0.1068
  H  H110  1  0.654300  0.101700  0.975170  1.0  0.1085
  H  H111  1  0.514700  0.865500  0.108070  1.0  0.0942
  H  H112  1  0.501900  0.950800  0.119270  1.0  0.1087
  H  H113  1  0.899300  0.732400  0.788830  1.0  0.1198
  H  H114  1  0.948300  0.781400  0.734530  1.0  0.1235
  H  H115  1  0.961100  0.840200  0.786830  1.0  0.122
  H  H116  1  0.029400  0.717800  0.773530  1.0  0.1115
  H  H117  1  0.348600  0.918500  0.759730  1.0  0.1222
  H  H118  1  0.081000  0.928500  0.731130  1.0  0.1363
  H  H119  1  0.237000  0.771800  0.879530  1.0  0.1136
  H  H120  1  0.304000  0.866200  0.851330  1.0  0.1047
  H  H121  1  0.438900  0.990700  0.688130  1.0  0.1081
  H  H122  1  0.478400  0.058900  0.737630  1.0  0.1037
  H  H123  1  0.265900  0.098000  0.658130  1.0  0.09
  H  H124  1  0.138700  0.116500  0.644730  1.0  0.1134
  H  H125  1  0.084200  0.042100  0.689430  1.0  0.1154
  H  H126  1  0.112900  0.013600  0.635330  1.0  0.125
  H  H127  1  0.361200  0.388900  0.719530  1.0  0.1055
  H  H128  1  0.217800  0.100100  0.796730  1.0  0.092
  H  H129  1  0.416300  0.240700  0.648730  1.0  0.1046
  H  H130  1  0.447400  0.345700  0.641830  1.0  0.112
  H  H131  1  0.350800  0.485300  0.774730  1.0  0.0955
  H  H132  1  0.448900  0.498100  0.785930  1.0  0.1055
  C  C133  1  0.046200  0.829200  0.559900  1.0  -0.3396
  C  C134  1  0.962100  0.737400  0.544000  1.0  -0.0987
  C  C135  1  0.872600  0.725900  0.567100  1.0  0.0502
  C  C136  1  0.787700  0.641600  0.558300  1.0  0.2033
  C  C137  1  0.705200  0.626100  0.579300  1.0  -0.2371
  C  C138  1  0.703100  0.696100  0.609500  1.0  0.2029
  C  C139  1  0.783200  0.781700  0.616900  1.0  0.0139
  C  C140  1  0.865100  0.791700  0.596000  1.0  -0.1012
  C  C141  1  0.730600  0.530400  0.487400  1.0  -0.0329
  C  C142  1  0.664000  0.429900  0.499700  1.0  0.7309
  C  C143  1  0.544500  0.596600  0.632600  1.0  -0.0985
  C  C144  1  0.468700  0.592700  0.668900  1.0  0.7626
  C  C145  1  0.778700  0.860200  0.645500  1.0  -0.1277
  C  C146  1  0.869000  0.930600  0.671400  1.0  -0.3492
  C  C147  1  0.741600  0.907400  0.608300  1.0  0.0454
  C  C148  1  0.698100  0.950300  0.629700  1.0  0.2114
  C  C149  1  0.667400  0.998300  0.597700  1.0  -0.2327
  C  C150  1  0.679400  0.002400  0.541900  1.0  0.2115
  C  C151  1  0.724000  0.956900  0.517900  1.0  0.0374
  C  C152  1  0.753000  0.911800  0.551900  1.0  -0.092
  C  C153  1  0.598400  0.882000  0.702300  1.0  -0.0329
  C  C154  1  0.596500  0.870100  0.764400  1.0  0.7055
  C  C155  1  0.609000  0.093400  0.530400  1.0  -0.0821
  C  C156  1  0.591300  0.148300  0.489000  1.0  0.6781
  C  C157  1  0.170800  0.217000  0.893230  1.0  -0.3402
  C  C158  1  0.262600  0.224700  0.877330  1.0  -0.1013
  C  C159  1  0.274100  0.146700  0.900430  1.0  0.0507
  C  C160  1  0.358400  0.146100  0.891630  1.0  0.2044
  C  C161  1  0.373900  0.079100  0.912630  1.0  -0.2387
  C  C162  1  0.303900  0.007000  0.942830  1.0  0.2038
  C  C163  1  0.218300  0.001500  0.950230  1.0  0.0147
  C  C164  1  0.208300  0.073400  0.929330  1.0  -0.1038
  C  C165  1  0.469600  0.200200  0.820730  1.0  -0.0325
  C  C166  1  0.570100  0.234100  0.833030  1.0  0.7278
  C  C167  1  0.403400  0.947900  0.965930  1.0  -0.096
  C  C168  1  0.407300  0.876000  0.002230  1.0  0.7626
  C  C169  1  0.139800  0.918500  0.978830  1.0  -0.1262
  C  C170  1  0.069400  0.938400  0.004730  1.0  -0.3515
  C  C171  1  0.092600  0.834200  0.941630  1.0  0.0453
  C  C172  1  0.049700  0.747800  0.963030  1.0  0.2116
  C  C173  1  0.001700  0.669100  0.931030  1.0  -0.2306
  C  C174  1  0.997600  0.677000  0.875230  1.0  0.2103
  C  C175  1  0.043100  0.767100  0.851230  1.0  0.0354
  C  C176  1  0.088200  0.841200  0.885230  1.0  -0.0879
  C  C177  1  0.118000  0.716400  0.035630  1.0  -0.0344
  C  C178  1  0.129900  0.726400  0.097730  1.0  0.7053
  C  C179  1  0.906600  0.515600  0.863730  1.0  -0.0821
  C  C180  1  0.851700  0.443000  0.822330  1.0  0.6789
  C  C181  1  0.783000  0.953800  0.226570  1.0  -0.3355
  C  C182  1  0.775300  0.037900  0.210670  1.0  -0.1014
  C  C183  1  0.853300  0.127400  0.233770  1.0  0.0507
  C  C184  1  0.853900  0.212300  0.224970  1.0  0.207
  C  C185  1  0.920900  0.294800  0.245970  1.0  -0.2359
  C  C186  1  0.993000  0.296900  0.276170  1.0  0.2036
  C  C187  1  0.998500  0.216800  0.283570  1.0  0.014
  C  C188  1  0.926600  0.134900  0.262670  1.0  -0.101
  C  C189  1  0.799800  0.269400  0.154070  1.0  -0.0314
  C  C190  1  0.765900  0.336000  0.166370  1.0  0.729
  C  C191  1  0.052100  0.455500  0.299270  1.0  -0.098
  C  C192  1  0.124000  0.531300  0.335570  1.0  0.7621
  C  C193  1  0.081500  0.221300  0.312170  1.0  -0.1263
  C  C194  1  0.061600  0.131000  0.338070  1.0  -0.3527
  C  C195  1  0.165800  0.258400  0.274970  1.0  0.0458
  C  C196  1  0.252200  0.301900  0.296370  1.0  0.2147
  C  C197  1  0.330900  0.332600  0.264370  1.0  -0.2272
  C  C198  1  0.323000  0.320600  0.208570  1.0  0.2126
  C  C199  1  0.232900  0.276000  0.184570  1.0  0.0379
  C  C200  1  0.158800  0.247000  0.218570  1.0  -0.0903
  C  C201  1  0.283600  0.401600  0.368970  1.0  -0.0319
  C  C202  1  0.273600  0.403500  0.431070  1.0  0.7061
  C  C203  1  0.484400  0.391000  0.197070  1.0  -0.0807
  C  C204  1  0.557000  0.408700  0.155670  1.0  0.6786
  C  C205  1  0.829200  0.046200  0.440100  1.0  -0.3361
  C  C206  1  0.737400  0.962100  0.456000  1.0  -0.1028
  C  C207  1  0.725900  0.872600  0.432900  1.0  0.0506
  C  C208  1  0.641600  0.787700  0.441700  1.0  0.2078
  C  C209  1  0.626100  0.705200  0.420700  1.0  -0.2351
  C  C210  1  0.696100  0.703100  0.390500  1.0  0.2029
  C  C211  1  0.781700  0.783200  0.383100  1.0  0.013
  C  C212  1  0.791700  0.865100  0.404000  1.0  -0.1015
  C  C213  1  0.530400  0.730600  0.512600  1.0  -0.0319
  C  C214  1  0.429900  0.664000  0.500300  1.0  0.7282
  C  C215  1  0.596600  0.544500  0.367400  1.0  -0.0989
  C  C216  1  0.592700  0.468700  0.331100  1.0  0.761
  C  C217  1  0.860200  0.778700  0.354500  1.0  -0.1246
  C  C218  1  0.930600  0.869000  0.328600  1.0  -0.3516
  C  C219  1  0.907400  0.741600  0.391700  1.0  0.0464
  C  C220  1  0.950300  0.698100  0.370300  1.0  0.217
  C  C221  1  0.998300  0.667400  0.402300  1.0  -0.2269
  C  C222  1  0.002400  0.679400  0.458100  1.0  0.212
  C  C223  1  0.956900  0.724000  0.482100  1.0  0.038
  C  C224  1  0.911800  0.753000  0.448100  1.0  -0.0927
  C  C225  1  0.882000  0.598400  0.297700  1.0  -0.0302
  C  C226  1  0.870100  0.596500  0.235600  1.0  0.7063
  C  C227  1  0.093400  0.609000  0.469600  1.0  -0.0845
  C  C228  1  0.148300  0.591300  0.511000  1.0  0.6802
  C  C229  1  0.217000  0.170800  0.106770  1.0  -0.3402
  C  C230  1  0.224700  0.262600  0.122670  1.0  -0.0999
  C  C231  1  0.146700  0.274100  0.099570  1.0  0.0506
  C  C232  1  0.146100  0.358400  0.108370  1.0  0.2048
  C  C233  1  0.079100  0.373900  0.087370  1.0  -0.2368
  C  C234  1  0.007000  0.303900  0.057170  1.0  0.2019
  C  C235  1  0.001500  0.218300  0.049770  1.0  0.0147
  C  C236  1  0.073400  0.208300  0.070670  1.0  -0.1015
  C  C237  1  0.200200  0.469600  0.179270  1.0  -0.0343
  C  C238  1  0.234100  0.570100  0.166970  1.0  0.7293
  C  C239  1  0.947900  0.403400  0.034070  1.0  -0.0972
  C  C240  1  0.876000  0.407300  0.997770  1.0  0.7612
  C  C241  1  0.918500  0.139800  0.021170  1.0  -0.1259
  C  C242  1  0.938400  0.069400  0.995270  1.0  -0.3496
  C  C243  1  0.834200  0.092600  0.058370  1.0  0.0462
  C  C244  1  0.747800  0.049700  0.036970  1.0  0.2114
  C  C245  1  0.669100  0.001700  0.068970  1.0  -0.2309
  C  C246  1  0.677000  0.997600  0.124770  1.0  0.211
  C  C247  1  0.767100  0.043100  0.148770  1.0  0.0368
  C  C248  1  0.841200  0.088200  0.114770  1.0  -0.0922
  C  C249  1  0.716400  0.118000  0.964370  1.0  -0.0295
  C  C250  1  0.726400  0.129900  0.902270  1.0  0.7064
  C  C251  1  0.515600  0.906600  0.136270  1.0  -0.085
  C  C252  1  0.443000  0.851700  0.177670  1.0  0.6766
  C  C253  1  0.953800  0.783000  0.773430  1.0  -0.3408
  C  C254  1  0.037900  0.775300  0.789330  1.0  -0.103
  C  C255  1  0.127400  0.853300  0.766230  1.0  0.0506
  C  C256  1  0.212300  0.853900  0.775030  1.0  0.2053
  C  C257  1  0.294800  0.920900  0.754030  1.0  -0.238
  C  C258  1  0.296900  0.993000  0.723830  1.0  0.2021
  C  C259  1  0.216800  0.998500  0.716430  1.0  0.0143
  C  C260  1  0.134900  0.926600  0.737330  1.0  -0.1036
  C  C261  1  0.269400  0.799800  0.845930  1.0  -0.0327
  C  C262  1  0.336000  0.765900  0.833630  1.0  0.7276
  C  C263  1  0.455500  0.052100  0.700730  1.0  -0.0964
  C  C264  1  0.531300  0.124000  0.664430  1.0  0.7618
  C  C265  1  0.221300  0.081500  0.687830  1.0  -0.1245
  C  C266  1  0.131000  0.061600  0.661930  1.0  -0.3506
  C  C267  1  0.258400  0.165800  0.725030  1.0  0.0461
  C  C268  1  0.301900  0.252200  0.703630  1.0  0.2138
  C  C269  1  0.332600  0.330900  0.735630  1.0  -0.2297
  C  C270  1  0.320600  0.323000  0.791430  1.0  0.2118
  C  C271  1  0.276000  0.232900  0.815430  1.0  0.0363
  C  C272  1  0.247000  0.158800  0.781430  1.0  -0.0883
  C  C273  1  0.401600  0.283600  0.631030  1.0  -0.0317
  C  C274  1  0.403500  0.273600  0.568930  1.0  0.708
  C  C275  1  0.391000  0.484400  0.802930  1.0  -0.0874
  C  C276  1  0.408700  0.557000  0.844330  1.0  0.6782
  O  O277  1  0.796000  0.575000  0.529400  1.0  -0.2853
  O  O278  1  0.673900  0.399600  0.544100  1.0  -0.622
  O  O279  1  0.604100  0.387100  0.463000  1.0  -0.582
  O  O280  1  0.624400  0.686400  0.633000  1.0  -0.2591
  O  O281  1  0.389400  0.525900  0.662100  1.0  -0.5201
  O  O282  1  0.490700  0.654400  0.705100  1.0  -0.6007
  O  O283  1  0.686000  0.951300  0.686460  1.0  -0.3138
  O  O284  1  0.656200  0.928600  0.791900  1.0  -0.4846
  O  O285  1  0.524300  0.800700  0.783920  1.0  -0.6852
  O  O286  1  0.650400  0.045800  0.506900  1.0  -0.2643
  O  O287  1  0.595900  0.135400  0.440300  1.0  -0.4594
  O  O288  1  0.569800  0.204600  0.508040  1.0  -0.6512
  O  O289  1  0.425000  0.221000  0.862730  1.0  -0.2846
  O  O290  1  0.600400  0.274300  0.877430  1.0  -0.6166
  O  O291  1  0.612900  0.217000  0.796330  1.0  -0.581
  O  O292  1  0.313600  0.938000  0.966330  1.0  -0.2581
  O  O293  1  0.474100  0.863500  0.995430  1.0  -0.5229
  O  O294  1  0.345600  0.836300  0.038430  1.0  -0.6003
  O  O295  1  0.048700  0.734700  0.019790  1.0  -0.3144
  O  O296  1  0.071400  0.727600  0.125230  1.0  -0.4835
  O  O297  1  0.199300  0.723600  0.117250  1.0  -0.6845
  O  O298  1  0.954200  0.604600  0.840230  1.0  -0.2626
  O  O299  1  0.864600  0.460500  0.773630  1.0  -0.457
  O  O300  1  0.795400  0.365200  0.841370  1.0  -0.6526
  O  O301  1  0.779000  0.204000  0.196070  1.0  -0.2807
  O  O302  1  0.725700  0.326100  0.210770  1.0  -0.6206
  O  O303  1  0.783000  0.395900  0.129670  1.0  -0.581
  O  O304  1  0.062000  0.375600  0.299670  1.0  -0.2618
  O  O305  1  0.136500  0.610600  0.328770  1.0  -0.5184
  O  O306  1  0.163700  0.509300  0.371770  1.0  -0.5988
  O  O307  1  0.265300  0.314000  0.353130  1.0  -0.3143
  O  O308  1  0.272400  0.343800  0.458570  1.0  -0.4799
  O  O309  1  0.276400  0.475700  0.450590  1.0  -0.6861
  O  O310  1  0.395400  0.349600  0.173570  1.0  -0.2628
  O  O311  1  0.539500  0.404100  0.106970  1.0  -0.4575
  O  O312  1  0.634800  0.430200  0.174710  1.0  -0.6516
  O  O313  1  0.575000  0.796000  0.470600  1.0  -0.2802
  O  O314  1  0.399600  0.673900  0.455900  1.0  -0.6191
  O  O315  1  0.387100  0.604100  0.537000  1.0  -0.575
  O  O316  1  0.686400  0.624400  0.367000  1.0  -0.261
  O  O317  1  0.525900  0.389400  0.337900  1.0  -0.5194
  O  O318  1  0.654400  0.490700  0.294900  1.0  -0.5987
  O  O319  1  0.951300  0.686000  0.313540  1.0  -0.3132
  O  O320  1  0.928600  0.656200  0.208100  1.0  -0.4806
  O  O321  1  0.800700  0.524300  0.216080  1.0  -0.6867
  O  O322  1  0.045800  0.650400  0.493100  1.0  -0.2665
  O  O323  1  0.135400  0.595900  0.559700  1.0  -0.4566
  O  O324  1  0.204600  0.569800  0.491960  1.0  -0.6515
  O  O325  1  0.221000  0.425000  0.137270  1.0  -0.2879
  O  O326  1  0.274300  0.600400  0.122570  1.0  -0.6213
  O  O327  1  0.217000  0.612900  0.203670  1.0  -0.5761
  O  O328  1  0.938000  0.313600  0.033670  1.0  -0.2577
  O  O329  1  0.863500  0.474100  0.004570  1.0  -0.5198
  O  O330  1  0.836300  0.345600  0.961570  1.0  -0.6005
  O  O331  1  0.734700  0.048700  0.980210  1.0  -0.311
  O  O332  1  0.727600  0.071400  0.874770  1.0  -0.4828
  O  O333  1  0.723600  0.199300  0.882750  1.0  -0.686
  O  O334  1  0.604600  0.954200  0.159770  1.0  -0.267
  O  O335  1  0.460500  0.864600  0.226370  1.0  -0.4574
  O  O336  1  0.365200  0.795400  0.158630  1.0  -0.6513
  O  O337  1  0.204000  0.779000  0.803930  1.0  -0.2854
  O  O338  1  0.326100  0.725700  0.789230  1.0  -0.6183
  O  O339  1  0.395900  0.783000  0.870330  1.0  -0.5767
  O  O340  1  0.375600  0.062000  0.700330  1.0  -0.259
  O  O341  1  0.610600  0.136500  0.671230  1.0  -0.5245
  O  O342  1  0.509300  0.163700  0.628230  1.0  -0.6006
  O  O343  1  0.314000  0.265300  0.646870  1.0  -0.3133
  O  O344  1  0.343800  0.272400  0.541430  1.0  -0.4842
  O  O345  1  0.475700  0.276400  0.549410  1.0  -0.6845
  O  O346  1  0.349600  0.395400  0.826430  1.0  -0.2667
  O  O347  1  0.404100  0.539500  0.893030  1.0  -0.4562
  O  O348  1  0.430200  0.634800  0.825290  1.0  -0.653
