# generated using pymatgen
data_GaH5C8O5
_symmetry_space_group_name_H-M   'P 1'
_cell_length_a   6.72610000
_cell_length_b   11.04550000
_cell_length_c   11.04550000
_cell_angle_alpha   119.89600000
_cell_angle_beta   105.95100000
_cell_angle_gamma   74.04860000
_symmetry_Int_Tables_number   1
_chemical_formula_structural   GaH5C8O5
_chemical_formula_sum   'Ga2 H10 C16 O10'
_cell_volume   674.59883722
_cell_formula_units_Z   2
loop_
 _symmetry_equiv_pos_site_id
 _symmetry_equiv_pos_as_xyz
  1  'x, y, z'
loop_
 _atom_site_type_symbol
 _atom_site_label
 _atom_site_symmetry_multiplicity
 _atom_site_fract_x
 _atom_site_fract_y
 _atom_site_fract_z
 _atom_site_occupancy
 _atom_site_charge
  Ga  Ga1  1  0.000000  0.000000  0.000000  1.0  1.6184
  Ga  Ga2  1  0.500000  0.000000  0.000000  1.0  1.6184
  H  H3  1  0.282800  0.955600  0.597600  1.0  0.1067
  H  H4  1  0.842300  0.023600  0.608400  1.0  0.1037
  H  H5  1  0.217200  0.597600  0.955600  1.0  0.1073
  H  H6  1  0.657700  0.608400  0.023600  1.0  0.1031
  H  H7  1  0.717200  0.044400  0.402400  1.0  0.1069
  H  H8  1  0.157700  0.976400  0.391600  1.0  0.104
  H  H9  1  0.782800  0.402400  0.044400  1.0  0.1075
  H  H10  1  0.342300  0.391600  0.976400  1.0  0.1037
  H  H11  1  0.750000  0.151600  0.151600  1.0  0.4917
  H  H12  1  0.250000  0.848400  0.848400  1.0  0.4913
  C  C13  1  0.657400  0.973200  0.758200  1.0  0.7381
  C  C14  1  0.577200  0.986600  0.624000  1.0  -0.1425
  C  C15  1  0.370800  0.973200  0.558400  1.0  -0.0436
  C  C16  1  0.704100  0.013800  0.564800  1.0  -0.0393
  C  C17  1  0.842600  0.758200  0.973200  1.0  0.7373
  C  C18  1  0.922800  0.624000  0.986600  1.0  -0.1407
  C  C19  1  0.129200  0.558400  0.973200  1.0  -0.0469
  C  C20  1  0.795900  0.564800  0.013800  1.0  -0.0394
  C  C21  1  0.342600  0.026800  0.241800  1.0  0.738
  C  C22  1  0.422800  0.013400  0.376000  1.0  -0.142
  C  C23  1  0.629200  0.026800  0.441600  1.0  -0.0433
  C  C24  1  0.295900  0.986200  0.435200  1.0  -0.0397
  C  C25  1  0.157400  0.241800  0.026800  1.0  0.7382
  C  C26  1  0.077200  0.376000  0.013400  1.0  -0.14
  C  C27  1  0.870800  0.441600  0.026800  1.0  -0.0455
  C  C28  1  0.204100  0.435200  0.986200  1.0  -0.0381
  O  O29  1  0.845200  0.988700  0.813300  1.0  -0.6137
  O  O30  1  0.531800  0.946700  0.804100  1.0  -0.6252
  O  O31  1  0.654800  0.813300  0.988700  1.0  -0.6147
  O  O32  1  0.968200  0.804100  0.946700  1.0  -0.6234
  O  O33  1  0.154800  0.011300  0.186700  1.0  -0.6129
  O  O34  1  0.468200  0.053300  0.195900  1.0  -0.6227
  O  O35  1  0.345200  0.186700  0.011300  1.0  -0.6146
  O  O36  1  0.031800  0.195900  0.053300  1.0  -0.6227
  O  O37  1  0.750000  0.078500  0.078500  1.0  -1.0802
  O  O38  1  0.250000  0.921500  0.921500  1.0  -1.0832
