# generated using pymatgen
data_GaH4C8O5
_symmetry_space_group_name_H-M   'P 1'
_cell_length_a   17.28700000
_cell_length_b   6.72700000
_cell_length_c   12.46100000
_cell_angle_alpha   90.00000000
_cell_angle_beta   90.00000000
_cell_angle_gamma   90.00000000
_symmetry_Int_Tables_number   1
_chemical_formula_structural   GaH4C8O5
_chemical_formula_sum   'Ga4 H16 C32 O20'
_cell_volume   1449.08531619
_cell_formula_units_Z   4
loop_
 _symmetry_equiv_pos_site_id
 _symmetry_equiv_pos_as_xyz
  1  'x, y, z'
loop_
 _atom_site_type_symbol
 _atom_site_label
 _atom_site_symmetry_multiplicity
 _atom_site_fract_x
 _atom_site_fract_y
 _atom_site_fract_z
 _atom_site_occupancy
 _atom_site_charge
  Ga  Ga1  1  0.500000  0.000000  0.000000  1.0  1.5854
  Ga  Ga2  1  0.000000  0.500000  0.500000  1.0  1.5854
  Ga  Ga3  1  0.500000  0.500000  0.000000  1.0  1.5854
  Ga  Ga4  1  0.000000  0.000000  0.500000  1.0  1.5854
  H  H5  1  0.694100  0.953100  0.801100  1.0  0.1082
  H  H6  1  0.194100  0.453100  0.301100  1.0  0.1082
  H  H7  1  0.305900  0.546900  0.801100  1.0  0.1084
  H  H8  1  0.805900  0.046900  0.301100  1.0  0.1084
  H  H9  1  0.305900  0.453100  0.198900  1.0  0.1085
  H  H10  1  0.805900  0.953100  0.698900  1.0  0.1085
  H  H11  1  0.694100  0.046900  0.198900  1.0  0.1085
  H  H12  1  0.194100  0.546900  0.698900  1.0  0.1085
  H  H13  1  0.305900  0.046900  0.198900  1.0  0.1086
  H  H14  1  0.805900  0.546900  0.698900  1.0  0.1086
  H  H15  1  0.694100  0.453100  0.198900  1.0  0.1088
  H  H16  1  0.194100  0.953100  0.698900  1.0  0.1088
  H  H17  1  0.694100  0.546900  0.801100  1.0  0.1082
  H  H18  1  0.194100  0.046900  0.301100  1.0  0.1082
  H  H19  1  0.305900  0.953100  0.801100  1.0  0.1083
  H  H20  1  0.805900  0.453100  0.301100  1.0  0.1083
  C  C21  1  0.716400  0.073000  0.780500  1.0  -0.0487
  C  C22  1  0.216400  0.573000  0.280500  1.0  -0.0487
  C  C23  1  0.283600  0.427000  0.780500  1.0  -0.0488
  C  C24  1  0.783600  0.927000  0.280500  1.0  -0.0488
  C  C25  1  0.283600  0.573000  0.219500  1.0  -0.0489
  C  C26  1  0.783600  0.073000  0.719500  1.0  -0.0489
  C  C27  1  0.716400  0.927000  0.219500  1.0  -0.0491
  C  C28  1  0.216400  0.427000  0.719500  1.0  -0.0491
  C  C29  1  0.283600  0.927000  0.219500  1.0  -0.0491
  C  C30  1  0.783600  0.427000  0.719500  1.0  -0.0491
  C  C31  1  0.716400  0.573000  0.219500  1.0  -0.0493
  C  C32  1  0.216400  0.073000  0.719500  1.0  -0.0493
  C  C33  1  0.716400  0.427000  0.780500  1.0  -0.0488
  C  C34  1  0.216400  0.927000  0.280500  1.0  -0.0488
  C  C35  1  0.283600  0.073000  0.780500  1.0  -0.0484
  C  C36  1  0.783600  0.573000  0.280500  1.0  -0.0484
  C  C37  1  0.682500  0.250000  0.810700  1.0  -0.1204
  C  C38  1  0.609300  0.250000  0.876100  1.0  0.7419
  C  C39  1  0.182500  0.750000  0.310700  1.0  -0.1204
  C  C40  1  0.109300  0.750000  0.376100  1.0  0.7419
  C  C41  1  0.317500  0.250000  0.810700  1.0  -0.1208
  C  C42  1  0.390700  0.250000  0.876100  1.0  0.7419
  C  C43  1  0.817500  0.750000  0.310700  1.0  -0.1208
  C  C44  1  0.890700  0.750000  0.376100  1.0  0.7419
  C  C45  1  0.317500  0.750000  0.189300  1.0  -0.1211
  C  C46  1  0.390700  0.750000  0.123900  1.0  0.7419
  C  C47  1  0.817500  0.250000  0.689300  1.0  -0.1211
  C  C48  1  0.890700  0.250000  0.623900  1.0  0.7419
  C  C49  1  0.682500  0.750000  0.189300  1.0  -0.1214
  C  C50  1  0.609300  0.750000  0.123900  1.0  0.7417
  C  C51  1  0.182500  0.250000  0.689300  1.0  -0.1214
  C  C52  1  0.109300  0.250000  0.623900  1.0  0.7417
  O  O53  1  0.582100  0.083600  0.900400  1.0  -0.5969
  O  O54  1  0.082100  0.583600  0.400400  1.0  -0.5969
  O  O55  1  0.417900  0.416400  0.900400  1.0  -0.5967
  O  O56  1  0.917900  0.916400  0.400400  1.0  -0.5967
  O  O57  1  0.417900  0.583600  0.099600  1.0  -0.5965
  O  O58  1  0.917900  0.083600  0.599600  1.0  -0.5965
  O  O59  1  0.582100  0.916400  0.099600  1.0  -0.5957
  O  O60  1  0.082100  0.416400  0.599600  1.0  -0.5957
  O  O61  1  0.417900  0.916400  0.099600  1.0  -0.5958
  O  O62  1  0.917900  0.416400  0.599600  1.0  -0.5958
  O  O63  1  0.582100  0.583600  0.099600  1.0  -0.5966
  O  O64  1  0.082100  0.083600  0.599600  1.0  -0.5966
  O  O65  1  0.582100  0.416400  0.900400  1.0  -0.5967
  O  O66  1  0.082100  0.916400  0.400400  1.0  -0.5967
  O  O67  1  0.417900  0.083600  0.900400  1.0  -0.5967
  O  O68  1  0.917900  0.583600  0.400400  1.0  -0.5967
  O  O69  1  0.500000  0.250000  0.069700  1.0  -0.6791
  O  O70  1  0.000000  0.750000  0.569700  1.0  -0.6791
  O  O71  1  0.500000  0.750000  0.930300  1.0  -0.6802
  O  O72  1  0.000000  0.250000  0.430300  1.0  -0.6802
