# generated using pymatgen
data_GaH4C8O5
_symmetry_space_group_name_H-M   'P 1'
_cell_length_a   17.52500000
_cell_length_b   6.72160000
_cell_length_c   11.89300000
_cell_angle_alpha   90.00000000
_cell_angle_beta   90.00000000
_cell_angle_gamma   90.00000000
_symmetry_Int_Tables_number   1
_chemical_formula_structural   GaH4C8O5
_chemical_formula_sum   'Ga4 H16 C32 O20'
_cell_volume   1400.94830372
_cell_formula_units_Z   4
loop_
 _symmetry_equiv_pos_site_id
 _symmetry_equiv_pos_as_xyz
  1  'x, y, z'
loop_
 _atom_site_type_symbol
 _atom_site_label
 _atom_site_symmetry_multiplicity
 _atom_site_fract_x
 _atom_site_fract_y
 _atom_site_fract_z
 _atom_site_occupancy
 _atom_site_charge
  Ga  Ga1  1  0.500000  0.500000  0.000000  1.0  1.5786
  Ga  Ga2  1  0.000000  0.500000  0.500000  1.0  1.5786
  Ga  Ga3  1  0.500000  0.000000  0.000000  1.0  1.5786
  Ga  Ga4  1  0.000000  0.000000  0.500000  1.0  1.5786
  H  H5  1  0.317200  0.548700  0.779300  1.0  0.118
  H  H6  1  0.202800  0.548600  0.682100  1.0  0.12
  H  H7  1  0.182800  0.451300  0.279300  1.0  0.1182
  H  H8  1  0.297200  0.451400  0.182100  1.0  0.1196
  H  H9  1  0.682800  0.048700  0.220700  1.0  0.1188
  H  H10  1  0.797200  0.048600  0.317900  1.0  0.1194
  H  H11  1  0.817200  0.951300  0.720700  1.0  0.1189
  H  H12  1  0.702800  0.951400  0.817900  1.0  0.1192
  H  H13  1  0.682800  0.451300  0.220700  1.0  0.1188
  H  H14  1  0.797200  0.451400  0.317900  1.0  0.1192
  H  H15  1  0.817200  0.548700  0.720700  1.0  0.1187
  H  H16  1  0.702800  0.548600  0.817900  1.0  0.1195
  H  H17  1  0.317200  0.951300  0.779300  1.0  0.1182
  H  H18  1  0.202800  0.951400  0.682100  1.0  0.1195
  H  H19  1  0.182800  0.048700  0.279300  1.0  0.1181
  H  H20  1  0.297200  0.048600  0.182100  1.0  0.1199
  C  C21  1  0.294000  0.429000  0.759900  1.0  -0.0497
  C  C22  1  0.225800  0.428900  0.701900  1.0  -0.0482
  C  C23  1  0.206000  0.571000  0.259900  1.0  -0.0494
  C  C24  1  0.274200  0.571100  0.201900  1.0  -0.0482
  C  C25  1  0.706000  0.929000  0.240100  1.0  -0.0498
  C  C26  1  0.774200  0.928900  0.298100  1.0  -0.0482
  C  C27  1  0.794000  0.071000  0.740100  1.0  -0.0499
  C  C28  1  0.725800  0.071100  0.798100  1.0  -0.0483
  C  C29  1  0.706000  0.571000  0.240100  1.0  -0.0501
  C  C30  1  0.774200  0.571100  0.298100  1.0  -0.048
  C  C31  1  0.794000  0.429000  0.740100  1.0  -0.0505
  C  C32  1  0.725800  0.428900  0.798100  1.0  -0.048
  C  C33  1  0.294000  0.071000  0.759900  1.0  -0.0493
  C  C34  1  0.225800  0.071100  0.701900  1.0  -0.0488
  C  C35  1  0.206000  0.929000  0.259900  1.0  -0.0488
  C  C36  1  0.274200  0.928900  0.201900  1.0  -0.0483
  C  C37  1  0.400000  0.250000  0.857300  1.0  0.7254
  C  C38  1  0.327900  0.250000  0.789300  1.0  -0.1189
  C  C39  1  0.191500  0.250000  0.673100  1.0  -0.1268
  C  C40  1  0.116500  0.250000  0.613300  1.0  0.7274
  C  C41  1  0.100000  0.750000  0.357300  1.0  0.7249
  C  C42  1  0.172100  0.750000  0.289300  1.0  -0.1201
  C  C43  1  0.308500  0.750000  0.173100  1.0  -0.1266
  C  C44  1  0.383500  0.750000  0.113300  1.0  0.727
  C  C45  1  0.600000  0.750000  0.142700  1.0  0.7248
  C  C46  1  0.672100  0.750000  0.210700  1.0  -0.1195
  C  C47  1  0.808500  0.750000  0.326900  1.0  -0.1265
  C  C48  1  0.883500  0.750000  0.386700  1.0  0.7273
  C  C49  1  0.900000  0.250000  0.642700  1.0  0.7251
  C  C50  1  0.827900  0.250000  0.710700  1.0  -0.118
  C  C51  1  0.691500  0.250000  0.826900  1.0  -0.1265
  C  C52  1  0.616500  0.250000  0.886700  1.0  0.7277
  O  O53  1  0.426650  0.417700  0.883400  1.0  -0.5806
  O  O54  1  0.088590  0.417900  0.590400  1.0  -0.6026
  O  O55  1  0.073350  0.582300  0.383400  1.0  -0.5823
  O  O56  1  0.411410  0.582100  0.090400  1.0  -0.6033
  O  O57  1  0.573350  0.917700  0.116600  1.0  -0.5803
  O  O58  1  0.911410  0.917900  0.409600  1.0  -0.6043
  O  O59  1  0.926650  0.082300  0.616600  1.0  -0.5818
  O  O60  1  0.588590  0.082100  0.909600  1.0  -0.6036
  O  O61  1  0.573350  0.582300  0.116600  1.0  -0.5822
  O  O62  1  0.911410  0.582100  0.409600  1.0  -0.6036
  O  O63  1  0.926650  0.417700  0.616600  1.0  -0.5804
  O  O64  1  0.588590  0.417900  0.909600  1.0  -0.6033
  O  O65  1  0.426650  0.082300  0.883400  1.0  -0.5816
  O  O66  1  0.088590  0.082100  0.590400  1.0  -0.6034
  O  O67  1  0.073350  0.917700  0.383400  1.0  -0.5805
  O  O68  1  0.411410  0.917900  0.090400  1.0  -0.6034
  O  O69  1  0.493940  0.250000  0.073200  1.0  -0.695
  O  O70  1  0.006060  0.750000  0.573200  1.0  -0.695
  O  O71  1  0.506060  0.750000  0.926800  1.0  -0.6971
  O  O72  1  0.993940  0.250000  0.426800  1.0  -0.6971
