# generated using pymatgen
data_GaH5C8O5
_symmetry_space_group_name_H-M   'P 1'
_cell_length_a   17.43700000
_cell_length_b   6.74750000
_cell_length_c   12.15410000
_cell_angle_alpha   90.00000000
_cell_angle_beta   90.00000000
_cell_angle_gamma   90.00000000
_symmetry_Int_Tables_number   1
_chemical_formula_structural   GaH5C8O5
_chemical_formula_sum   'Ga4 H20 C32 O20'
_cell_volume   1430.00470387
_cell_formula_units_Z   4
loop_
 _symmetry_equiv_pos_site_id
 _symmetry_equiv_pos_as_xyz
  1  'x, y, z'
loop_
 _atom_site_type_symbol
 _atom_site_label
 _atom_site_symmetry_multiplicity
 _atom_site_fract_x
 _atom_site_fract_y
 _atom_site_fract_z
 _atom_site_occupancy
 _atom_site_charge
  Ga  Ga1  1  0.000000  0.000000  0.000000  1.0  1.5953
  Ga  Ga2  1  0.500000  0.000000  0.500000  1.0  1.5953
  Ga  Ga3  1  0.000000  0.500000  0.000000  1.0  1.5953
  Ga  Ga4  1  0.500000  0.500000  0.500000  1.0  1.5953
  H  H5  1  0.811900  0.566100  0.798900  1.0  0.1149
  H  H6  1  0.688100  0.433900  0.298900  1.0  0.1148
  H  H7  1  0.188100  0.066100  0.201100  1.0  0.1153
  H  H8  1  0.311900  0.933900  0.701100  1.0  0.1144
  H  H9  1  0.188100  0.433900  0.201100  1.0  0.1148
  H  H10  1  0.311900  0.566100  0.701100  1.0  0.1148
  H  H11  1  0.811900  0.933900  0.798900  1.0  0.1147
  H  H12  1  0.688100  0.066100  0.298900  1.0  0.1152
  H  H13  1  0.702100  0.564700  0.670400  1.0  0.111
  H  H14  1  0.797900  0.435300  0.170400  1.0  0.1105
  H  H15  1  0.297900  0.064700  0.329600  1.0  0.1103
  H  H16  1  0.202100  0.935300  0.829600  1.0  0.1106
  H  H17  1  0.297900  0.435300  0.329600  1.0  0.1107
  H  H18  1  0.202100  0.564700  0.829600  1.0  0.1105
  H  H19  1  0.702100  0.935300  0.670400  1.0  0.1106
  H  H20  1  0.797900  0.064700  0.170400  1.0  0.1108
  H  H21  1  0.506400  0.750000  0.655680  1.0  0.427
  H  H22  1  0.993600  0.250000  0.155680  1.0  0.427
  H  H23  1  0.493600  0.250000  0.344320  1.0  0.4276
  H  H24  1  0.006400  0.750000  0.844320  1.0  0.4277
  C  C25  1  0.791270  0.428800  0.765100  1.0  -0.0765
  C  C26  1  0.708730  0.571200  0.265100  1.0  -0.0747
  C  C27  1  0.208730  0.928800  0.234900  1.0  -0.075
  C  C28  1  0.291270  0.071200  0.734900  1.0  -0.0748
  C  C29  1  0.208730  0.571200  0.234900  1.0  -0.0746
  C  C30  1  0.291270  0.428800  0.734900  1.0  -0.0756
  C  C31  1  0.791270  0.071200  0.765100  1.0  -0.0753
  C  C32  1  0.708730  0.928800  0.265100  1.0  -0.0756
  C  C33  1  0.726050  0.427400  0.699500  1.0  -0.0945
  C  C34  1  0.773950  0.572600  0.199500  1.0  -0.0928
  C  C35  1  0.273950  0.927400  0.300500  1.0  -0.0947
  C  C36  1  0.226050  0.072600  0.800500  1.0  -0.0933
  C  C37  1  0.273950  0.572600  0.300500  1.0  -0.0928
  C  C38  1  0.226050  0.427400  0.800500  1.0  -0.095
  C  C39  1  0.726050  0.072600  0.699500  1.0  -0.0935
  C  C40  1  0.773950  0.927400  0.199500  1.0  -0.094
  C  C41  1  0.828140  0.250000  0.791400  1.0  -0.0972
  C  C42  1  0.671860  0.750000  0.291400  1.0  -0.0978
  C  C43  1  0.171860  0.750000  0.208600  1.0  -0.0983
  C  C44  1  0.328140  0.250000  0.708600  1.0  -0.0977
  C  C45  1  0.899070  0.250000  0.860000  1.0  0.714
  C  C46  1  0.600930  0.750000  0.360000  1.0  0.7143
  C  C47  1  0.100930  0.750000  0.140000  1.0  0.7132
  C  C48  1  0.399070  0.250000  0.640000  1.0  0.7133
  C  C49  1  0.692180  0.250000  0.671200  1.0  -0.0975
  C  C50  1  0.807820  0.750000  0.171200  1.0  -0.0963
  C  C51  1  0.307820  0.750000  0.328800  1.0  -0.0965
  C  C52  1  0.192180  0.250000  0.828800  1.0  -0.0974
  C  C53  1  0.617620  0.250000  0.610800  1.0  0.7183
  C  C54  1  0.882380  0.750000  0.110800  1.0  0.7191
  C  C55  1  0.382380  0.750000  0.389200  1.0  0.7195
  C  C56  1  0.117620  0.250000  0.889200  1.0  0.7188
  O  O57  1  0.926320  0.083000  0.885840  1.0  -0.6274
  O  O58  1  0.573680  0.917000  0.385840  1.0  -0.6283
  O  O59  1  0.073680  0.583000  0.114160  1.0  -0.6291
  O  O60  1  0.426320  0.417000  0.614160  1.0  -0.627
  O  O61  1  0.073680  0.917000  0.114160  1.0  -0.6279
  O  O62  1  0.426320  0.083000  0.614160  1.0  -0.6276
  O  O63  1  0.926320  0.417000  0.885840  1.0  -0.6275
  O  O64  1  0.573680  0.583000  0.385840  1.0  -0.629
  O  O65  1  0.589490  0.082600  0.588600  1.0  -0.6095
  O  O66  1  0.910510  0.917400  0.088600  1.0  -0.6102
  O  O67  1  0.410510  0.582600  0.411400  1.0  -0.6086
  O  O68  1  0.089490  0.417400  0.911400  1.0  -0.6098
  O  O69  1  0.410510  0.917400  0.411400  1.0  -0.6098
  O  O70  1  0.089490  0.082600  0.911400  1.0  -0.6088
  O  O71  1  0.589490  0.417400  0.588600  1.0  -0.61
  O  O72  1  0.910510  0.582600  0.088600  1.0  -0.6095
  O  O73  1  0.993600  0.250000  0.073400  1.0  -0.8978
  O  O74  1  0.506400  0.750000  0.573400  1.0  -0.8976
  O  O75  1  0.006400  0.750000  0.926600  1.0  -0.8987
  O  O76  1  0.493600  0.250000  0.426600  1.0  -0.8991
