# generated using pymatgen
data_CoH6C8S(NO)4
_symmetry_space_group_name_H-M   'P 1'
_cell_length_a   16.84200000
_cell_length_b   16.83500000
_cell_length_c   20.25800000
_cell_angle_alpha   90.00000000
_cell_angle_beta   90.00000000
_cell_angle_gamma   90.00000000
_symmetry_Int_Tables_number   1
_chemical_formula_structural   CoH6C8S(NO)4
_chemical_formula_sum   'Co16 H96 C128 S16 N64 O64'
_cell_volume   5743.85344806
_cell_formula_units_Z   16
loop_
 _symmetry_equiv_pos_site_id
 _symmetry_equiv_pos_as_xyz
  1  'x, y, z'
loop_
 _atom_site_type_symbol
 _atom_site_label
 _atom_site_symmetry_multiplicity
 _atom_site_fract_x
 _atom_site_fract_y
 _atom_site_fract_z
 _atom_site_occupancy
 _atom_site_charge
  Co  Co1  1  0.146280  0.698050  0.500700  1.0  0.8835
  Co  Co2  1  0.050030  0.613590  0.759850  1.0  0.9503
  Co  Co3  1  0.130060  0.744910  0.001550  1.0  0.9761
  Co  Co4  1  0.037790  0.632050  0.242360  1.0  0.9175
  Co  Co5  1  0.353720  0.301950  0.000700  1.0  0.886
  Co  Co6  1  0.449970  0.386410  0.259850  1.0  0.9534
  Co  Co7  1  0.369940  0.255090  0.501550  1.0  0.9791
  Co  Co8  1  0.462210  0.367950  0.742360  1.0  0.9195
  Co  Co9  1  0.853720  0.198050  0.999300  1.0  0.8845
  Co  Co10  1  0.949970  0.113590  0.740150  1.0  0.9531
  Co  Co11  1  0.869940  0.244910  0.498450  1.0  0.979
  Co  Co12  1  0.962210  0.132050  0.257640  1.0  0.9192
  Co  Co13  1  0.646280  0.801950  0.499300  1.0  0.8853
  Co  Co14  1  0.550030  0.886410  0.240150  1.0  0.9504
  Co  Co15  1  0.630060  0.755090  0.998450  1.0  0.9756
  Co  Co16  1  0.537790  0.867950  0.757640  1.0  0.9179
  H  H17  1  0.991900  0.951500  0.465400  1.0  0.2892
  H  H18  1  0.070800  0.843200  0.779400  1.0  0.2388
  H  H19  1  0.804800  0.771400  0.731300  1.0  0.338
  H  H20  1  0.892300  0.645900  0.039700  1.0  0.3636
  H  H21  1  0.793200  0.781100  0.211800  1.0  0.3377
  H  H22  1  0.920000  0.696400  0.520600  1.0  0.3225
  H  H23  1  0.905800  0.372900  0.213000  1.0  0.2871
  H  H24  1  0.037700  0.477000  0.513200  1.0  0.3296
  H  H25  1  0.053200  0.831500  0.424600  1.0  0.0945
  H  H26  1  0.018200  0.966700  0.820200  1.0  0.1102
  H  H27  1  0.926900  0.727700  0.690400  1.0  0.0942
  H  H28  1  0.767000  0.685600  0.077500  1.0  0.1046
  H  H29  1  0.909600  0.729900  0.165400  1.0  0.1009
  H  H30  1  0.799900  0.745900  0.568100  1.0  0.0993
  H  H31  1  0.948600  0.492800  0.165100  1.0  0.1032
  H  H32  1  0.977700  0.361300  0.564100  1.0  0.0982
  H  H33  1  0.101400  0.779100  0.654000  1.0  0.1041
  H  H34  1  0.966900  0.018900  0.590700  1.0  0.1139
  H  H35  1  0.971700  0.650900  0.915400  1.0  0.1211
  H  H36  1  0.726200  0.772900  0.854300  1.0  0.1109
  H  H37  1  0.982500  0.684000  0.392400  1.0  0.0978
  H  H38  1  0.731300  0.801400  0.342400  1.0  0.1088
  H  H39  1  0.899900  0.303100  0.338700  1.0  0.1058
  H  H40  1  0.048000  0.541700  0.385500  1.0  0.098
  H  H41  1  0.508100  0.048500  0.965400  1.0  0.2882
  H  H42  1  0.429200  0.156800  0.279400  1.0  0.2384
  H  H43  1  0.695200  0.228600  0.231300  1.0  0.3378
  H  H44  1  0.607700  0.354100  0.539700  1.0  0.3619
  H  H45  1  0.706800  0.218900  0.711800  1.0  0.3362
  H  H46  1  0.580000  0.303600  0.020600  1.0  0.3199
  H  H47  1  0.594200  0.627100  0.713000  1.0  0.2865
  H  H48  1  0.462300  0.523000  0.013200  1.0  0.3303
  H  H49  1  0.446800  0.168500  0.924600  1.0  0.0943
  H  H50  1  0.481800  0.033300  0.320200  1.0  0.1102
  H  H51  1  0.573100  0.272300  0.190400  1.0  0.0947
  H  H52  1  0.733000  0.314400  0.577500  1.0  0.105
  H  H53  1  0.590400  0.270100  0.665400  1.0  0.101
  H  H54  1  0.700100  0.254100  0.068100  1.0  0.0994
  H  H55  1  0.551400  0.507200  0.665100  1.0  0.1033
  H  H56  1  0.522300  0.638700  0.064100  1.0  0.0986
  H  H57  1  0.398600  0.220900  0.154000  1.0  0.1039
  H  H58  1  0.533100  0.981100  0.090700  1.0  0.1147
  H  H59  1  0.528300  0.349100  0.415400  1.0  0.1205
  H  H60  1  0.773800  0.227100  0.354300  1.0  0.1114
  H  H61  1  0.517500  0.316000  0.892400  1.0  0.0974
  H  H62  1  0.768700  0.198600  0.842400  1.0  0.1087
  H  H63  1  0.600100  0.696900  0.838700  1.0  0.1056
  H  H64  1  0.452000  0.458300  0.885500  1.0  0.0985
  H  H65  1  0.008100  0.451500  0.034600  1.0  0.2877
  H  H66  1  0.929200  0.343200  0.720600  1.0  0.2387
  H  H67  1  0.195200  0.271400  0.768700  1.0  0.3369
  H  H68  1  0.107700  0.145900  0.460300  1.0  0.3618
  H  H69  1  0.206800  0.281100  0.288200  1.0  0.3364
  H  H70  1  0.080000  0.196400  0.979400  1.0  0.3222
  H  H71  1  0.094200  0.872900  0.287000  1.0  0.288
  H  H72  1  0.962300  0.977000  0.986800  1.0  0.3304
  H  H73  1  0.946800  0.331500  0.075400  1.0  0.0948
  H  H74  1  0.981800  0.466700  0.679800  1.0  0.1093
  H  H75  1  0.073100  0.227700  0.809600  1.0  0.0947
  H  H76  1  0.233000  0.185600  0.422500  1.0  0.1046
  H  H77  1  0.090400  0.229900  0.334600  1.0  0.101
  H  H78  1  0.200100  0.245900  0.931900  1.0  0.0989
  H  H79  1  0.051400  0.992800  0.334900  1.0  0.1033
  H  H80  1  0.022300  0.861300  0.935900  1.0  0.0992
  H  H81  1  0.898600  0.279100  0.846000  1.0  0.1038
  H  H82  1  0.033100  0.518900  0.909300  1.0  0.1109
  H  H83  1  0.028300  0.150900  0.584600  1.0  0.1203
  H  H84  1  0.273800  0.272900  0.645700  1.0  0.111
  H  H85  1  0.017500  0.184000  0.107600  1.0  0.0974
  H  H86  1  0.268700  0.301400  0.157600  1.0  0.1082
  H  H87  1  0.100100  0.803100  0.161300  1.0  0.1057
  H  H88  1  0.952000  0.041700  0.114500  1.0  0.0986
  H  H89  1  0.491900  0.548500  0.534600  1.0  0.288
  H  H90  1  0.570800  0.656800  0.220600  1.0  0.2378
  H  H91  1  0.304800  0.728600  0.268700  1.0  0.3383
  H  H92  1  0.392300  0.854100  0.960300  1.0  0.3621
  H  H93  1  0.293200  0.718900  0.788200  1.0  0.3376
  H  H94  1  0.420000  0.803600  0.479400  1.0  0.3218
  H  H95  1  0.405800  0.127100  0.787000  1.0  0.2864
  H  H96  1  0.537700  0.023000  0.486800  1.0  0.3298
  H  H97  1  0.553200  0.668500  0.575400  1.0  0.0951
  H  H98  1  0.518200  0.533300  0.179800  1.0  0.1095
  H  H99  1  0.426900  0.772300  0.309600  1.0  0.0952
  H  H100  1  0.267000  0.814400  0.922500  1.0  0.1049
  H  H101  1  0.409600  0.770100  0.834600  1.0  0.1012
  H  H102  1  0.299900  0.754100  0.431900  1.0  0.099
  H  H103  1  0.448600  0.007200  0.834900  1.0  0.1038
  H  H104  1  0.477700  0.138700  0.435900  1.0  0.0988
  H  H105  1  0.601400  0.720900  0.346000  1.0  0.1039
  H  H106  1  0.466900  0.481100  0.409300  1.0  0.1126
  H  H107  1  0.471700  0.849100  0.084600  1.0  0.1207
  H  H108  1  0.226200  0.727100  0.145700  1.0  0.111
  H  H109  1  0.482500  0.816000  0.607600  1.0  0.0978
  H  H110  1  0.231300  0.698600  0.657600  1.0  0.1086
  H  H111  1  0.399900  0.196900  0.661300  1.0  0.1061
  H  H112  1  0.548000  0.958300  0.614500  1.0  0.0989
  C  C113  1  0.051200  0.846700  0.469200  1.0  0.2229
  C  C114  1  0.021300  0.952200  0.775500  1.0  0.1716
  C  C115  1  0.908900  0.720800  0.733900  1.0  0.2159
  C  C116  1  0.784700  0.690700  0.033700  1.0  0.1919
  C  C117  1  0.898100  0.732300  0.210700  1.0  0.2357
  C  C118  1  0.811800  0.744300  0.522800  1.0  0.1851
  C  C119  1  0.957400  0.476900  0.209000  1.0  0.2036
  C  C120  1  0.976600  0.373900  0.518900  1.0  0.1447
  C  C121  1  0.023200  0.917800  0.558100  1.0  0.1222
  C  C122  1  0.062100  0.844900  0.575400  1.0  0.093
  C  C123  1  0.075900  0.826200  0.641100  1.0  -0.0549
  C  C124  1  0.049500  0.881700  0.685900  1.0  0.1287
  C  C125  1  0.013300  0.954400  0.668400  1.0  0.1233
  C  C126  1  0.995300  0.973100  0.603100  1.0  -0.0846
  C  C127  1  0.834800  0.732000  0.820900  1.0  0.1333
  C  C128  1  0.906800  0.692200  0.837300  1.0  0.1273
  C  C129  1  0.922300  0.671800  0.902400  1.0  -0.0507
  C  C130  1  0.861800  0.683700  0.947100  1.0  0.1242
  C  C131  1  0.787900  0.720200  0.929700  1.0  0.0801
  C  C132  1  0.773400  0.746900  0.866200  1.0  -0.1011
  C  C133  1  0.834500  0.755600  0.303600  1.0  0.1004
  C  C134  1  0.908400  0.719000  0.317200  1.0  0.1274
  C  C135  1  0.932400  0.705300  0.382000  1.0  -0.0741
  C  C136  1  0.878100  0.725000  0.429700  1.0  0.1518
  C  C137  1  0.802500  0.760800  0.415900  1.0  0.1271
  C  C138  1  0.780100  0.777200  0.352500  1.0  -0.0449
  C  C139  1  0.992200  0.477400  0.314100  1.0  0.1142
  C  C140  1  0.949500  0.406000  0.300500  1.0  0.0941
  C  C141  1  0.929300  0.349300  0.347900  1.0  -0.0735
  C  C142  1  0.957700  0.369100  0.411000  1.0  0.1199
  C  C143  1  0.997200  0.442500  0.423900  1.0  0.0803
  C  C144  1  0.018100  0.495900  0.376300  1.0  -0.0371
  C  C145  1  0.448800  0.153300  0.969200  1.0  0.223
  C  C146  1  0.478700  0.047800  0.275500  1.0  0.1722
  C  C147  1  0.591100  0.279200  0.233900  1.0  0.2171
  C  C148  1  0.715300  0.309300  0.533700  1.0  0.1918
  C  C149  1  0.601900  0.267700  0.710700  1.0  0.2368
  C  C150  1  0.688200  0.255700  0.022800  1.0  0.1862
  C  C151  1  0.542600  0.523100  0.709000  1.0  0.2019
  C  C152  1  0.523400  0.626100  0.018900  1.0  0.1454
  C  C153  1  0.476800  0.082200  0.058100  1.0  0.1223
  C  C154  1  0.437900  0.155100  0.075400  1.0  0.0929
  C  C155  1  0.424100  0.173800  0.141100  1.0  -0.0568
  C  C156  1  0.450500  0.118300  0.185900  1.0  0.129
  C  C157  1  0.486700  0.045600  0.168400  1.0  0.1241
  C  C158  1  0.504700  0.026900  0.103100  1.0  -0.0844
  C  C159  1  0.665200  0.268000  0.320900  1.0  0.1339
  C  C160  1  0.593200  0.307800  0.337300  1.0  0.1265
  C  C161  1  0.577700  0.328200  0.402400  1.0  -0.0498
  C  C162  1  0.638200  0.316300  0.447100  1.0  0.1232
  C  C163  1  0.712100  0.279800  0.429700  1.0  0.0801
  C  C164  1  0.726600  0.253100  0.366200  1.0  -0.1017
  C  C165  1  0.665500  0.244400  0.803600  1.0  0.0989
  C  C166  1  0.591600  0.281000  0.817200  1.0  0.1269
  C  C167  1  0.567600  0.294700  0.882000  1.0  -0.0734
  C  C168  1  0.621900  0.275000  0.929700  1.0  0.1525
  C  C169  1  0.697500  0.239200  0.915900  1.0  0.1282
  C  C170  1  0.719900  0.222800  0.852500  1.0  -0.0442
  C  C171  1  0.507800  0.522600  0.814100  1.0  0.1149
  C  C172  1  0.550500  0.594000  0.800500  1.0  0.0934
  C  C173  1  0.570700  0.650700  0.847900  1.0  -0.0727
  C  C174  1  0.542300  0.630900  0.911000  1.0  0.1204
  C  C175  1  0.502800  0.557500  0.923900  1.0  0.0805
  C  C176  1  0.481900  0.504100  0.876300  1.0  -0.0365
  C  C177  1  0.948800  0.346700  0.030800  1.0  0.2229
  C  C178  1  0.978700  0.452200  0.724500  1.0  0.1713
  C  C179  1  0.091100  0.220800  0.766100  1.0  0.2178
  C  C180  1  0.215300  0.190700  0.466300  1.0  0.192
  C  C181  1  0.101900  0.232300  0.289300  1.0  0.2371
  C  C182  1  0.188200  0.244300  0.977200  1.0  0.1871
  C  C183  1  0.042600  0.976900  0.291000  1.0  0.2026
  C  C184  1  0.023400  0.873900  0.981100  1.0  0.145
  C  C185  1  0.976800  0.417800  0.941900  1.0  0.1215
  C  C186  1  0.937900  0.344900  0.924600  1.0  0.0933
  C  C187  1  0.924100  0.326200  0.858900  1.0  -0.0566
  C  C188  1  0.950500  0.381700  0.814100  1.0  0.1291
  C  C189  1  0.986700  0.454400  0.831600  1.0  0.1234
  C  C190  1  0.004700  0.473100  0.896900  1.0  -0.0842
  C  C191  1  0.165200  0.232000  0.679100  1.0  0.1328
  C  C192  1  0.093200  0.192200  0.662700  1.0  0.1268
  C  C193  1  0.077700  0.171800  0.597600  1.0  -0.0501
  C  C194  1  0.138200  0.183700  0.552900  1.0  0.1234
  C  C195  1  0.212100  0.220200  0.570300  1.0  0.0797
  C  C196  1  0.226600  0.246900  0.633800  1.0  -0.1018
  C  C197  1  0.165500  0.255600  0.196400  1.0  0.0986
  C  C198  1  0.091600  0.219000  0.182800  1.0  0.127
  C  C199  1  0.067600  0.205300  0.118000  1.0  -0.0732
  C  C200  1  0.121900  0.225000  0.070300  1.0  0.1515
  C  C201  1  0.197500  0.260800  0.084100  1.0  0.1272
  C  C202  1  0.219900  0.277200  0.147500  1.0  -0.045
  C  C203  1  0.007800  0.977400  0.185900  1.0  0.115
  C  C204  1  0.050500  0.906000  0.199500  1.0  0.0928
  C  C205  1  0.070700  0.849300  0.152100  1.0  -0.073
  C  C206  1  0.042300  0.869100  0.089000  1.0  0.1198
  C  C207  1  0.002800  0.942500  0.076100  1.0  0.0805
  C  C208  1  0.981900  0.995900  0.123700  1.0  -0.0371
  C  C209  1  0.551200  0.653300  0.530800  1.0  0.2237
  C  C210  1  0.521300  0.547800  0.224500  1.0  0.1717
  C  C211  1  0.408900  0.779200  0.266100  1.0  0.2174
  C  C212  1  0.284700  0.809300  0.966300  1.0  0.1919
  C  C213  1  0.398100  0.767700  0.789300  1.0  0.2364
  C  C214  1  0.311800  0.755700  0.477200  1.0  0.1863
  C  C215  1  0.457400  0.023100  0.791000  1.0  0.2043
  C  C216  1  0.476600  0.126100  0.481100  1.0  0.1455
  C  C217  1  0.523200  0.582200  0.441900  1.0  0.1217
  C  C218  1  0.562100  0.655100  0.424600  1.0  0.0928
  C  C219  1  0.575900  0.673800  0.358900  1.0  -0.0551
  C  C220  1  0.549500  0.618300  0.314100  1.0  0.1294
  C  C221  1  0.513300  0.545600  0.331600  1.0  0.124
  C  C222  1  0.495300  0.526900  0.396900  1.0  -0.0845
  C  C223  1  0.334800  0.768000  0.179100  1.0  0.1318
  C  C224  1  0.406800  0.807800  0.162700  1.0  0.1273
  C  C225  1  0.422300  0.828200  0.097600  1.0  -0.0504
  C  C226  1  0.361800  0.816300  0.052900  1.0  0.1234
  C  C227  1  0.287900  0.779800  0.070300  1.0  0.08
  C  C228  1  0.273400  0.753100  0.133800  1.0  -0.1002
  C  C229  1  0.334500  0.744400  0.696400  1.0  0.1004
  C  C230  1  0.408400  0.781000  0.682800  1.0  0.1271
  C  C231  1  0.432400  0.794700  0.618000  1.0  -0.0741
  C  C232  1  0.378100  0.775000  0.570300  1.0  0.1525
  C  C233  1  0.302500  0.739200  0.584100  1.0  0.1278
  C  C234  1  0.280100  0.722800  0.647500  1.0  -0.044
  C  C235  1  0.492200  0.022600  0.685900  1.0  0.1144
  C  C236  1  0.449500  0.094000  0.699500  1.0  0.0935
  C  C237  1  0.429300  0.150700  0.652100  1.0  -0.0727
  C  C238  1  0.457700  0.130900  0.589000  1.0  0.1202
  C  C239  1  0.497200  0.057500  0.576100  1.0  0.0806
  C  C240  1  0.518100  0.004100  0.623700  1.0  -0.0359
  S  S241  1  0.053160  0.605060  0.598980  1.0  1.6223
  S  S242  1  0.141970  0.702170  0.853090  1.0  1.5848
  S  S243  1  0.164100  0.704920  0.336030  1.0  1.5668
  S  S244  1  0.063970  0.606580  0.094280  1.0  1.6409
  S  S245  1  0.446840  0.394940  0.098980  1.0  1.622
  S  S246  1  0.358030  0.297830  0.353090  1.0  1.5835
  S  S247  1  0.335900  0.295080  0.836030  1.0  1.5661
  S  S248  1  0.436030  0.393420  0.594280  1.0  1.6404
  S  S249  1  0.946840  0.105060  0.901020  1.0  1.6221
  S  S250  1  0.858030  0.202170  0.646910  1.0  1.5832
  S  S251  1  0.835900  0.204920  0.163970  1.0  1.5659
  S  S252  1  0.936030  0.106580  0.405720  1.0  1.6412
  S  S253  1  0.553160  0.894940  0.401020  1.0  1.6222
  S  S254  1  0.641970  0.797830  0.146910  1.0  1.5848
  S  S255  1  0.664100  0.795080  0.663970  1.0  1.5671
  S  S256  1  0.563970  0.893420  0.905720  1.0  1.6401
  N  N257  1  0.082600  0.803800  0.516700  1.0  -0.4659
  N  N258  1  0.015000  0.916100  0.490000  1.0  -0.3055
  N  N259  1  0.995500  0.999400  0.725900  1.0  -0.4643
  N  N260  1  0.052600  0.881100  0.754500  1.0  -0.2282
  N  N261  1  0.951500  0.681800  0.781100  1.0  -0.4946
  N  N262  1  0.840500  0.747600  0.755200  1.0  -0.225
  N  N263  1  0.740200  0.721700  0.987000  1.0  -0.4329
  N  N264  1  0.856000  0.667300  0.014900  1.0  -0.2701
  N  N265  1  0.946900  0.706600  0.257200  1.0  -0.4164
  N  N266  1  0.832100  0.761400  0.234800  1.0  -0.2528
  N  N267  1  0.762500  0.769500  0.475600  1.0  -0.4112
  N  N268  1  0.880900  0.716300  0.497900  1.0  -0.2765
  N  N269  1  0.998500  0.520100  0.253900  1.0  -0.4509
  N  N270  1  0.931100  0.409600  0.234700  1.0  -0.2428
  N  N271  1  0.942300  0.330600  0.473500  1.0  -0.3853
  N  N272  1  0.011300  0.441200  0.491400  1.0  -0.3043
  N  N273  1  0.417400  0.196200  0.016700  1.0  -0.4655
  N  N274  1  0.485000  0.083900  0.990000  1.0  -0.3076
  N  N275  1  0.504500  0.000600  0.225900  1.0  -0.4642
  N  N276  1  0.447400  0.118900  0.254500  1.0  -0.227
  N  N277  1  0.548500  0.318200  0.281100  1.0  -0.4938
  N  N278  1  0.659500  0.252400  0.255200  1.0  -0.2234
  N  N279  1  0.759800  0.278300  0.487000  1.0  -0.4318
  N  N280  1  0.644000  0.332700  0.514900  1.0  -0.2711
  N  N281  1  0.553100  0.293400  0.757200  1.0  -0.4177
  N  N282  1  0.667900  0.238600  0.734800  1.0  -0.2529
  N  N283  1  0.737500  0.230500  0.975600  1.0  -0.4111
  N  N284  1  0.619100  0.283700  0.997900  1.0  -0.2753
  N  N285  1  0.501500  0.479900  0.753900  1.0  -0.4518
  N  N286  1  0.568900  0.590400  0.734700  1.0  -0.244
  N  N287  1  0.557700  0.669400  0.973500  1.0  -0.3862
  N  N288  1  0.488700  0.558800  0.991400  1.0  -0.3049
  N  N289  1  0.917400  0.303800  0.983300  1.0  -0.4661
  N  N290  1  0.985000  0.416100  0.010000  1.0  -0.3062
  N  N291  1  0.004500  0.499400  0.774100  1.0  -0.4646
  N  N292  1  0.947400  0.381100  0.745500  1.0  -0.2256
  N  N293  1  0.048500  0.181800  0.718900  1.0  -0.494
  N  N294  1  0.159500  0.247600  0.744800  1.0  -0.2224
  N  N295  1  0.259800  0.221700  0.513000  1.0  -0.4317
  N  N296  1  0.144000  0.167300  0.485100  1.0  -0.2713
  N  N297  1  0.053100  0.206600  0.242800  1.0  -0.4178
  N  N298  1  0.167900  0.261400  0.265200  1.0  -0.2532
  N  N299  1  0.237500  0.269500  0.024400  1.0  -0.4114
  N  N300  1  0.119100  0.216300  0.002100  1.0  -0.2749
  N  N301  1  0.001500  0.020100  0.246100  1.0  -0.4521
  N  N302  1  0.068900  0.909600  0.265300  1.0  -0.2448
  N  N303  1  0.057700  0.830600  0.026500  1.0  -0.3853
  N  N304  1  0.988700  0.941200  0.008600  1.0  -0.3042
  N  N305  1  0.582600  0.696200  0.483300  1.0  -0.4664
  N  N306  1  0.515000  0.583900  0.510000  1.0  -0.3073
  N  N307  1  0.495500  0.500600  0.274100  1.0  -0.4652
  N  N308  1  0.552600  0.618900  0.245500  1.0  -0.2267
  N  N309  1  0.451500  0.818200  0.218900  1.0  -0.4949
  N  N310  1  0.340500  0.752400  0.244800  1.0  -0.2243
  N  N311  1  0.240200  0.778300  0.013000  1.0  -0.4333
  N  N312  1  0.356000  0.832700  0.985100  1.0  -0.2716
  N  N313  1  0.446900  0.793400  0.742800  1.0  -0.4166
  N  N314  1  0.332100  0.738600  0.765200  1.0  -0.2518
  N  N315  1  0.262500  0.730500  0.524400  1.0  -0.4111
  N  N316  1  0.380900  0.783700  0.502100  1.0  -0.2752
  N  N317  1  0.498500  0.979900  0.746100  1.0  -0.4497
  N  N318  1  0.431100  0.090400  0.765300  1.0  -0.2423
  N  N319  1  0.442300  0.169400  0.526500  1.0  -0.3854
  N  N320  1  0.511300  0.058800  0.508600  1.0  -0.3043
  O  O321  1  0.126300  0.653500  0.592800  1.0  -0.7533
  O  O322  1  0.016000  0.623300  0.662600  1.0  -0.7343
  O  O323  1  0.001100  0.626200  0.543900  1.0  -0.6975
  O  O324  1  0.071800  0.518000  0.597300  1.0  -0.6428
  O  O325  1  0.098900  0.623700  0.856400  1.0  -0.806
  O  O326  1  0.111400  0.756700  0.905400  1.0  -0.8034
  O  O327  1  0.126500  0.738500  0.788800  1.0  -0.6988
  O  O328  1  0.225900  0.689400  0.863200  1.0  -0.515
  O  O329  1  0.113000  0.642400  0.040100  1.0  -0.8271
  O  O330  1  0.094400  0.639500  0.158100  1.0  -0.7783
  O  O331  1  0.075200  0.519800  0.093500  1.0  -0.6321
  O  O332  1  0.979900  0.629100  0.091600  1.0  -0.7584
  O  O333  1  0.112500  0.636500  0.313900  1.0  -0.8413
  O  O334  1  0.139200  0.729200  0.403300  1.0  -0.8091
  O  O335  1  0.247100  0.680500  0.336400  1.0  -0.6293
  O  O336  1  0.152600  0.771700  0.290100  1.0  -0.6578
  O  O337  1  0.373700  0.346500  0.092800  1.0  -0.7543
  O  O338  1  0.484000  0.376700  0.162600  1.0  -0.735
  O  O339  1  0.498900  0.373800  0.043900  1.0  -0.6991
  O  O340  1  0.428200  0.482000  0.097300  1.0  -0.6422
  O  O341  1  0.401100  0.376300  0.356400  1.0  -0.8062
  O  O342  1  0.388600  0.243300  0.405400  1.0  -0.8047
  O  O343  1  0.373500  0.261500  0.288800  1.0  -0.7001
  O  O344  1  0.274100  0.310600  0.363200  1.0  -0.5149
  O  O345  1  0.387000  0.357600  0.540100  1.0  -0.828
  O  O346  1  0.405600  0.360500  0.658100  1.0  -0.7788
  O  O347  1  0.424800  0.480200  0.593500  1.0  -0.6322
  O  O348  1  0.520100  0.370900  0.591600  1.0  -0.7592
  O  O349  1  0.387500  0.363500  0.813900  1.0  -0.8426
  O  O350  1  0.360800  0.270800  0.903300  1.0  -0.8093
  O  O351  1  0.252900  0.319500  0.836400  1.0  -0.6294
  O  O352  1  0.347400  0.228300  0.790100  1.0  -0.6592
  O  O353  1  0.873700  0.153500  0.907200  1.0  -0.7535
  O  O354  1  0.984000  0.123300  0.837400  1.0  -0.7341
  O  O355  1  0.998900  0.126200  0.956100  1.0  -0.6986
  O  O356  1  0.928200  0.018000  0.902700  1.0  -0.6419
  O  O357  1  0.901100  0.123700  0.643600  1.0  -0.8059
  O  O358  1  0.888600  0.256700  0.594600  1.0  -0.805
  O  O359  1  0.873500  0.238500  0.711200  1.0  -0.6997
  O  O360  1  0.774100  0.189400  0.636800  1.0  -0.5142
  O  O361  1  0.887000  0.142400  0.459900  1.0  -0.8281
  O  O362  1  0.905600  0.139500  0.341900  1.0  -0.7773
  O  O363  1  0.924800  0.019800  0.406500  1.0  -0.6315
  O  O364  1  0.020100  0.129100  0.408400  1.0  -0.759
  O  O365  1  0.887500  0.136500  0.186100  1.0  -0.8416
  O  O366  1  0.860800  0.229200  0.096700  1.0  -0.8092
  O  O367  1  0.752900  0.180500  0.163600  1.0  -0.6275
  O  O368  1  0.847400  0.271700  0.209900  1.0  -0.6596
  O  O369  1  0.626300  0.846500  0.407200  1.0  -0.7541
  O  O370  1  0.516000  0.876700  0.337400  1.0  -0.7349
  O  O371  1  0.501100  0.873800  0.456100  1.0  -0.6971
  O  O372  1  0.571800  0.982000  0.402700  1.0  -0.6427
  O  O373  1  0.598900  0.876300  0.143600  1.0  -0.8056
  O  O374  1  0.611400  0.743300  0.094600  1.0  -0.8032
  O  O375  1  0.626500  0.761500  0.211200  1.0  -0.6994
  O  O376  1  0.725900  0.810600  0.136800  1.0  -0.5146
  O  O377  1  0.613000  0.857600  0.959900  1.0  -0.8268
  O  O378  1  0.594400  0.860500  0.841900  1.0  -0.7788
  O  O379  1  0.575200  0.980200  0.906500  1.0  -0.6316
  O  O380  1  0.479900  0.870900  0.908400  1.0  -0.7581
  O  O381  1  0.612500  0.863500  0.686100  1.0  -0.8419
  O  O382  1  0.639200  0.770800  0.596700  1.0  -0.809
  O  O383  1  0.747100  0.819500  0.663600  1.0  -0.6291
  O  O384  1  0.652600  0.728300  0.709900  1.0  -0.6586
