# generated using pymatgen
data_CuH5C7NO5
_symmetry_space_group_name_H-M   'P 1'
_cell_length_a   17.53000000
_cell_length_b   20.03700000
_cell_length_c   21.05000000
_cell_angle_alpha   90.00000000
_cell_angle_beta   90.00000000
_cell_angle_gamma   90.00000000
_symmetry_Int_Tables_number   1
_chemical_formula_structural   CuH5C7NO5
_chemical_formula_sum   'Cu24 H120 C168 N24 O120'
_cell_volume   7393.78324050
_cell_formula_units_Z   24
loop_
 _symmetry_equiv_pos_site_id
 _symmetry_equiv_pos_as_xyz
  1  'x, y, z'
loop_
 _atom_site_type_symbol
 _atom_site_label
 _atom_site_symmetry_multiplicity
 _atom_site_fract_x
 _atom_site_fract_y
 _atom_site_fract_z
 _atom_site_occupancy
 _atom_site_charge
  Cu  Cu1  1  0.133700  0.588330  0.049100  1.0  0.8996
  Cu  Cu2  1  0.977010  0.665960  0.069680  1.0  0.5367
  Cu  Cu3  1  0.494240  0.514780  0.439130  1.0  0.8936
  Cu  Cu4  1  0.133700  0.411670  0.450900  1.0  0.8993
  Cu  Cu5  1  0.977010  0.334040  0.430320  1.0  0.535
  Cu  Cu6  1  0.494240  0.485220  0.060870  1.0  0.8914
  Cu  Cu7  1  0.366300  0.088330  0.450900  1.0  0.8999
  Cu  Cu8  1  0.522990  0.165960  0.430320  1.0  0.5377
  Cu  Cu9  1  0.005760  0.014780  0.060870  1.0  0.8927
  Cu  Cu10  1  0.366300  0.911670  0.049100  1.0  0.8981
  Cu  Cu11  1  0.522990  0.834040  0.069680  1.0  0.5383
  Cu  Cu12  1  0.005760  0.985220  0.439130  1.0  0.8926
  Cu  Cu13  1  0.866300  0.411670  0.950900  1.0  0.8996
  Cu  Cu14  1  0.022990  0.334040  0.930320  1.0  0.5372
  Cu  Cu15  1  0.505760  0.485220  0.560870  1.0  0.8928
  Cu  Cu16  1  0.866300  0.588330  0.549100  1.0  0.8983
  Cu  Cu17  1  0.022990  0.665960  0.569680  1.0  0.5384
  Cu  Cu18  1  0.505760  0.514780  0.939130  1.0  0.8931
  Cu  Cu19  1  0.633700  0.911670  0.549100  1.0  0.8995
  Cu  Cu20  1  0.477010  0.834040  0.569680  1.0  0.5358
  Cu  Cu21  1  0.994240  0.985220  0.939130  1.0  0.893
  Cu  Cu22  1  0.633700  0.088330  0.950900  1.0  0.8991
  Cu  Cu23  1  0.477010  0.165960  0.930320  1.0  0.5361
  Cu  Cu24  1  0.994240  0.014780  0.560870  1.0  0.8915
  H  H25  1  0.930900  0.543300  0.897500  1.0  0.1399
  H  H26  1  0.967100  0.607000  0.867000  1.0  0.1426
  H  H27  1  0.221400  0.640400  0.872400  1.0  0.1346
  H  H28  1  0.178500  0.623700  0.684700  1.0  0.1363
  H  H29  1  0.290900  0.688800  0.932000  1.0  0.2952
  H  H30  1  0.383400  0.689200  0.745500  1.0  0.1266
  H  H31  1  0.323400  0.657800  0.518800  1.0  0.1154
  H  H32  1  0.258500  0.601800  0.444000  1.0  0.1368
  H  H33  1  0.199900  0.619800  0.497400  1.0  0.1491
  H  H34  1  0.325400  0.658200  0.042200  1.0  0.16
  H  H35  1  0.397800  0.690300  0.073400  1.0  0.1421
  H  H36  1  0.438900  0.723000  0.968300  1.0  0.124
  H  H37  1  0.146300  0.544500  0.867200  1.0  0.1135
  H  H38  1  0.258800  0.585400  0.609600  1.0  0.1888
  H  H39  1  0.012200  0.512900  0.813800  1.0  0.2143
  H  H40  1  0.930900  0.456700  0.602500  1.0  0.1411
  H  H41  1  0.967100  0.393000  0.633000  1.0  0.1437
  H  H42  1  0.221400  0.359600  0.627600  1.0  0.1344
  H  H43  1  0.178500  0.376300  0.815300  1.0  0.1355
  H  H44  1  0.290900  0.311200  0.568000  1.0  0.2954
  H  H45  1  0.383400  0.310800  0.754500  1.0  0.1261
  H  H46  1  0.323400  0.342200  0.981200  1.0  0.1115
  H  H47  1  0.258500  0.398200  0.056000  1.0  0.1374
  H  H48  1  0.199900  0.380200  0.002600  1.0  0.1511
  H  H49  1  0.325400  0.341800  0.457800  1.0  0.1594
  H  H50  1  0.397800  0.309700  0.426600  1.0  0.1417
  H  H51  1  0.438900  0.277000  0.531700  1.0  0.1241
  H  H52  1  0.146300  0.455500  0.632800  1.0  0.1135
  H  H53  1  0.258800  0.414600  0.890400  1.0  0.1902
  H  H54  1  0.012200  0.487100  0.686200  1.0  0.2129
  H  H55  1  0.569100  0.043300  0.602500  1.0  0.1383
  H  H56  1  0.532900  0.107000  0.633000  1.0  0.1403
  H  H57  1  0.278600  0.140400  0.627600  1.0  0.1344
  H  H58  1  0.321500  0.123700  0.815300  1.0  0.1355
  H  H59  1  0.209100  0.188800  0.568000  1.0  0.2956
  H  H60  1  0.116600  0.189200  0.754500  1.0  0.1262
  H  H61  1  0.176600  0.157800  0.981200  1.0  0.1156
  H  H62  1  0.241500  0.101800  0.056000  1.0  0.1372
  H  H63  1  0.300100  0.119800  0.002600  1.0  0.1472
  H  H64  1  0.174600  0.158200  0.457800  1.0  0.1589
  H  H65  1  0.102200  0.190300  0.426600  1.0  0.1418
  H  H66  1  0.061100  0.223000  0.531700  1.0  0.1258
  H  H67  1  0.353700  0.044500  0.632800  1.0  0.1141
  H  H68  1  0.241200  0.085400  0.890400  1.0  0.1894
  H  H69  1  0.487800  0.012900  0.686200  1.0  0.2123
  H  H70  1  0.569100  0.956700  0.897500  1.0  0.14
  H  H71  1  0.532900  0.893000  0.867000  1.0  0.1422
  H  H72  1  0.278600  0.859600  0.872400  1.0  0.1351
  H  H73  1  0.321500  0.876300  0.684700  1.0  0.136
  H  H74  1  0.209100  0.811200  0.932000  1.0  0.2958
  H  H75  1  0.116600  0.810800  0.745500  1.0  0.1262
  H  H76  1  0.176600  0.842200  0.518800  1.0  0.1102
  H  H77  1  0.241500  0.898200  0.444000  1.0  0.1359
  H  H78  1  0.300100  0.880200  0.497400  1.0  0.1485
  H  H79  1  0.174600  0.841800  0.042200  1.0  0.1573
  H  H80  1  0.102200  0.809700  0.073400  1.0  0.1424
  H  H81  1  0.061100  0.777000  0.968300  1.0  0.1257
  H  H82  1  0.353700  0.955500  0.867200  1.0  0.1138
  H  H83  1  0.241200  0.914600  0.609600  1.0  0.1913
  H  H84  1  0.487800  0.987100  0.813800  1.0  0.2143
  H  H85  1  0.069100  0.456700  0.102500  1.0  0.1387
  H  H86  1  0.032900  0.393000  0.133000  1.0  0.1418
  H  H87  1  0.778600  0.359600  0.127600  1.0  0.1346
  H  H88  1  0.821500  0.376300  0.315300  1.0  0.1358
  H  H89  1  0.709100  0.311200  0.068000  1.0  0.2957
  H  H90  1  0.616600  0.310800  0.254500  1.0  0.1259
  H  H91  1  0.676600  0.342200  0.481200  1.0  0.1112
  H  H92  1  0.741500  0.398200  0.556000  1.0  0.137
  H  H93  1  0.800100  0.380200  0.502600  1.0  0.1471
  H  H94  1  0.674600  0.341800  0.957800  1.0  0.159
  H  H95  1  0.602200  0.309700  0.926600  1.0  0.1416
  H  H96  1  0.561100  0.277000  0.031700  1.0  0.1257
  H  H97  1  0.853700  0.455500  0.132800  1.0  0.1142
  H  H98  1  0.741200  0.414600  0.390400  1.0  0.1915
  H  H99  1  0.987800  0.487100  0.186200  1.0  0.2123
  H  H100  1  0.069100  0.543300  0.397500  1.0  0.1396
  H  H101  1  0.032900  0.607000  0.367000  1.0  0.1419
  H  H102  1  0.778600  0.640400  0.372400  1.0  0.1353
  H  H103  1  0.821500  0.623700  0.184700  1.0  0.1362
  H  H104  1  0.709100  0.688800  0.432000  1.0  0.2958
  H  H105  1  0.616600  0.689200  0.245500  1.0  0.1265
  H  H106  1  0.676600  0.657800  0.018800  1.0  0.1153
  H  H107  1  0.741500  0.601800  0.944000  1.0  0.1364
  H  H108  1  0.800100  0.619800  0.997400  1.0  0.149
  H  H109  1  0.674600  0.658200  0.542200  1.0  0.1578
  H  H110  1  0.602200  0.690300  0.573400  1.0  0.1421
  H  H111  1  0.561100  0.723000  0.468300  1.0  0.1258
  H  H112  1  0.853700  0.544500  0.367200  1.0  0.1138
  H  H113  1  0.741200  0.585400  0.109600  1.0  0.1899
  H  H114  1  0.987800  0.512900  0.313800  1.0  0.2141
  H  H115  1  0.430900  0.956700  0.397500  1.0  0.1398
  H  H116  1  0.467100  0.893000  0.367000  1.0  0.1427
  H  H117  1  0.721400  0.859600  0.372400  1.0  0.1346
  H  H118  1  0.678500  0.876300  0.184700  1.0  0.1359
  H  H119  1  0.790900  0.811200  0.432000  1.0  0.2955
  H  H120  1  0.883400  0.810800  0.245500  1.0  0.1264
  H  H121  1  0.823400  0.842200  0.018800  1.0  0.1103
  H  H122  1  0.758500  0.898200  0.944000  1.0  0.1364
  H  H123  1  0.699900  0.880200  0.997400  1.0  0.1496
  H  H124  1  0.825400  0.841800  0.542200  1.0  0.1599
  H  H125  1  0.897800  0.809700  0.573400  1.0  0.1423
  H  H126  1  0.938900  0.777000  0.468300  1.0  0.1241
  H  H127  1  0.646300  0.955500  0.367200  1.0  0.1134
  H  H128  1  0.758800  0.914600  0.109600  1.0  0.1898
  H  H129  1  0.512200  0.987100  0.313800  1.0  0.2146
  H  H130  1  0.430900  0.043300  0.102500  1.0  0.141
  H  H131  1  0.467100  0.107000  0.133000  1.0  0.1421
  H  H132  1  0.721400  0.140400  0.127600  1.0  0.1338
  H  H133  1  0.678500  0.123700  0.315300  1.0  0.1353
  H  H134  1  0.790900  0.188800  0.068000  1.0  0.295
  H  H135  1  0.883400  0.189200  0.254500  1.0  0.1263
  H  H136  1  0.823400  0.157800  0.481200  1.0  0.1156
  H  H137  1  0.758500  0.101800  0.556000  1.0  0.1376
  H  H138  1  0.699900  0.119800  0.502600  1.0  0.1505
  H  H139  1  0.825400  0.158200  0.957800  1.0  0.1596
  H  H140  1  0.897800  0.190300  0.926600  1.0  0.1419
  H  H141  1  0.938900  0.223000  0.031700  1.0  0.124
  H  H142  1  0.646300  0.044500  0.132800  1.0  0.1135
  H  H143  1  0.758800  0.085400  0.390400  1.0  0.1885
  H  H144  1  0.512200  0.012900  0.186200  1.0  0.2132
  C  C145  1  0.310200  0.669500  0.817300  1.0  -0.1181
  C  C146  1  0.978300  0.567300  0.891500  1.0  -0.3312
  C  C147  1  0.237500  0.645000  0.830600  1.0  -0.0958
  C  C148  1  0.213100  0.632600  0.718100  1.0  -0.0773
  C  C149  1  0.359400  0.789800  0.002600  1.0  0.6388
  C  C150  1  0.316000  0.654900  0.638600  1.0  0.6343
  C  C151  1  0.365900  0.690900  0.868200  1.0  0.6049
  C  C152  1  0.221100  0.519100  0.492100  1.0  0.753
  C  C153  1  0.047100  0.454400  0.882260  1.0  0.6814
  C  C154  1  0.189300  0.627400  0.780900  1.0  -0.0273
  C  C155  1  0.287400  0.652800  0.705200  1.0  -0.112
  C  C156  1  0.335000  0.673200  0.754600  1.0  0.036
  C  C157  1  0.380100  0.567500  0.521500  1.0  0.6824
  C  C158  1  0.110800  0.599500  0.791200  1.0  0.5978
  C  C159  1  0.031800  0.523500  0.853000  1.0  0.0422
  C  C160  1  0.308900  0.612300  0.530700  1.0  0.0376
  C  C161  1  0.423500  0.604000  0.023600  1.0  0.7711
  C  C162  1  0.383800  0.719200  0.980300  1.0  0.0965
  C  C163  1  0.007900  0.588500  0.956100  1.0  0.7071
  C  C164  1  0.244000  0.592500  0.487100  1.0  -0.2637
  C  C165  1  0.378400  0.669400  0.035200  1.0  -0.3443
  C  C166  1  0.310200  0.330500  0.682700  1.0  -0.1182
  C  C167  1  0.978300  0.432700  0.608500  1.0  -0.33
  C  C168  1  0.237500  0.355000  0.669400  1.0  -0.0955
  C  C169  1  0.213100  0.367400  0.781900  1.0  -0.0771
  C  C170  1  0.359400  0.210200  0.497400  1.0  0.6395
  C  C171  1  0.316000  0.345100  0.861400  1.0  0.6367
  C  C172  1  0.365900  0.309100  0.631800  1.0  0.6046
  C  C173  1  0.221100  0.480900  0.007900  1.0  0.7515
  C  C174  1  0.047100  0.545600  0.617740  1.0  0.6833
  C  C175  1  0.189300  0.372600  0.719100  1.0  -0.0267
  C  C176  1  0.287400  0.347200  0.794800  1.0  -0.1124
  C  C177  1  0.335000  0.326800  0.745400  1.0  0.0358
  C  C178  1  0.380100  0.432500  0.978500  1.0  0.6833
  C  C179  1  0.110800  0.400500  0.708800  1.0  0.5981
  C  C180  1  0.031800  0.476500  0.647000  1.0  0.0406
  C  C181  1  0.308900  0.387700  0.969300  1.0  0.0383
  C  C182  1  0.423500  0.396000  0.476400  1.0  0.7714
  C  C183  1  0.383800  0.280800  0.519700  1.0  0.0947
  C  C184  1  0.007900  0.411500  0.543900  1.0  0.71
  C  C185  1  0.244000  0.407500  0.012900  1.0  -0.2655
  C  C186  1  0.378400  0.330600  0.464800  1.0  -0.3463
  C  C187  1  0.189800  0.169500  0.682700  1.0  -0.1171
  C  C188  1  0.521700  0.067300  0.608500  1.0  -0.3323
  C  C189  1  0.262500  0.145000  0.669400  1.0  -0.0956
  C  C190  1  0.286900  0.132600  0.781900  1.0  -0.0768
  C  C191  1  0.140600  0.289800  0.497400  1.0  0.6377
  C  C192  1  0.184000  0.154900  0.861400  1.0  0.6328
  C  C193  1  0.134100  0.190900  0.631800  1.0  0.6035
  C  C194  1  0.278900  0.019100  0.007900  1.0  0.7537
  C  C195  1  0.452900  0.954400  0.617740  1.0  0.6817
  C  C196  1  0.310700  0.127400  0.719100  1.0  -0.0269
  C  C197  1  0.212600  0.152800  0.794800  1.0  -0.1115
  C  C198  1  0.165000  0.173200  0.745400  1.0  0.0343
  C  C199  1  0.119900  0.067500  0.978500  1.0  0.6833
  C  C200  1  0.389200  0.099500  0.708800  1.0  0.5956
  C  C201  1  0.468200  0.023500  0.647000  1.0  0.0395
  C  C202  1  0.191100  0.112300  0.969300  1.0  0.0387
  C  C203  1  0.076500  0.104000  0.476400  1.0  0.7727
  C  C204  1  0.116200  0.219200  0.519700  1.0  0.0935
  C  C205  1  0.492100  0.088500  0.543900  1.0  0.7104
  C  C206  1  0.256000  0.092500  0.012900  1.0  -0.2624
  C  C207  1  0.121600  0.169400  0.464800  1.0  -0.3446
  C  C208  1  0.189800  0.830500  0.817300  1.0  -0.1162
  C  C209  1  0.521700  0.932700  0.891500  1.0  -0.3341
  C  C210  1  0.262500  0.855000  0.830600  1.0  -0.0955
  C  C211  1  0.286900  0.867400  0.718100  1.0  -0.0769
  C  C212  1  0.140600  0.710200  0.002600  1.0  0.64
  C  C213  1  0.184000  0.845100  0.638600  1.0  0.6353
  C  C214  1  0.134100  0.809100  0.868200  1.0  0.6036
  C  C215  1  0.278900  0.980900  0.492100  1.0  0.7526
  C  C216  1  0.452900  0.045600  0.882260  1.0  0.6823
  C  C217  1  0.310700  0.872600  0.780900  1.0  -0.0274
  C  C218  1  0.212600  0.847200  0.705200  1.0  -0.1116
  C  C219  1  0.165000  0.826800  0.754600  1.0  0.0356
  C  C220  1  0.119900  0.932500  0.521500  1.0  0.6842
  C  C221  1  0.389200  0.900500  0.791200  1.0  0.5977
  C  C222  1  0.468200  0.976500  0.853000  1.0  0.0409
  C  C223  1  0.191100  0.887700  0.530700  1.0  0.0366
  C  C224  1  0.076500  0.896000  0.023600  1.0  0.7709
  C  C225  1  0.116200  0.780800  0.980300  1.0  0.0951
  C  C226  1  0.492100  0.911500  0.956100  1.0  0.7071
  C  C227  1  0.256000  0.907500  0.487100  1.0  -0.2627
  C  C228  1  0.121600  0.830600  0.035200  1.0  -0.3448
  C  C229  1  0.689800  0.330500  0.182700  1.0  -0.1166
  C  C230  1  0.021700  0.432700  0.108500  1.0  -0.3319
  C  C231  1  0.762500  0.355000  0.169400  1.0  -0.0956
  C  C232  1  0.786900  0.367400  0.281900  1.0  -0.0768
  C  C233  1  0.640600  0.210200  0.997400  1.0  0.6389
  C  C234  1  0.684000  0.345100  0.361400  1.0  0.6345
  C  C235  1  0.634100  0.309100  0.131800  1.0  0.6029
  C  C236  1  0.778900  0.480900  0.507900  1.0  0.7517
  C  C237  1  0.952900  0.545600  0.117740  1.0  0.6827
  C  C238  1  0.810700  0.372600  0.219100  1.0  -0.027
  C  C239  1  0.712600  0.347200  0.294800  1.0  -0.1116
  C  C240  1  0.665000  0.326800  0.245400  1.0  0.0354
  C  C241  1  0.619900  0.432500  0.478500  1.0  0.6839
  C  C242  1  0.889200  0.400500  0.208800  1.0  0.5972
  C  C243  1  0.968200  0.476500  0.147000  1.0  0.0397
  C  C244  1  0.691100  0.387700  0.469300  1.0  0.038
  C  C245  1  0.576500  0.396000  0.976400  1.0  0.7723
  C  C246  1  0.616200  0.280800  0.019700  1.0  0.0936
  C  C247  1  0.992100  0.411500  0.043900  1.0  0.7094
  C  C248  1  0.756000  0.407500  0.512900  1.0  -0.2638
  C  C249  1  0.621600  0.330600  0.964800  1.0  -0.3444
  C  C250  1  0.689800  0.669500  0.317300  1.0  -0.1166
  C  C251  1  0.021700  0.567300  0.391500  1.0  -0.3335
  C  C252  1  0.762500  0.645000  0.330600  1.0  -0.0956
  C  C253  1  0.786900  0.632600  0.218100  1.0  -0.0769
  C  C254  1  0.640600  0.789800  0.502600  1.0  0.6384
  C  C255  1  0.684000  0.654900  0.138600  1.0  0.6343
  C  C256  1  0.634100  0.690900  0.368200  1.0  0.6035
  C  C257  1  0.778900  0.519100  0.992100  1.0  0.7536
  C  C258  1  0.952900  0.454400  0.382260  1.0  0.6817
  C  C259  1  0.810700  0.627400  0.280900  1.0  -0.0273
  C  C260  1  0.712600  0.652800  0.205200  1.0  -0.1116
  C  C261  1  0.665000  0.673200  0.254600  1.0  0.0346
  C  C262  1  0.619900  0.567500  0.021500  1.0  0.6836
  C  C263  1  0.889200  0.599500  0.291200  1.0  0.5969
  C  C264  1  0.968200  0.523500  0.353000  1.0  0.0408
  C  C265  1  0.691100  0.612300  0.030700  1.0  0.0381
  C  C266  1  0.576500  0.604000  0.523600  1.0  0.7715
  C  C267  1  0.616200  0.719200  0.480300  1.0  0.095
  C  C268  1  0.992100  0.588500  0.456100  1.0  0.7076
  C  C269  1  0.756000  0.592500  0.987100  1.0  -0.2627
  C  C270  1  0.621600  0.669400  0.535200  1.0  -0.3443
  C  C271  1  0.810200  0.830500  0.317300  1.0  -0.1177
  C  C272  1  0.478300  0.932700  0.391500  1.0  -0.33
  C  C273  1  0.737500  0.855000  0.330600  1.0  -0.0956
  C  C274  1  0.713100  0.867400  0.218100  1.0  -0.0773
  C  C275  1  0.859400  0.710200  0.502600  1.0  0.6404
  C  C276  1  0.816000  0.845100  0.138600  1.0  0.6367
  C  C277  1  0.865900  0.809100  0.368200  1.0  0.6038
  C  C278  1  0.721100  0.980900  0.992100  1.0  0.7519
  C  C279  1  0.547100  0.045600  0.382260  1.0  0.683
  C  C280  1  0.689300  0.872600  0.280900  1.0  -0.0274
  C  C281  1  0.787400  0.847200  0.205200  1.0  -0.1121
  C  C282  1  0.835000  0.826800  0.254600  1.0  0.0362
  C  C283  1  0.880100  0.932500  0.021500  1.0  0.6837
  C  C284  1  0.610800  0.900500  0.291200  1.0  0.5987
  C  C285  1  0.531800  0.976500  0.353000  1.0  0.0423
  C  C286  1  0.808900  0.887700  0.030700  1.0  0.0365
  C  C287  1  0.923500  0.896000  0.523600  1.0  0.7708
  C  C288  1  0.883800  0.780800  0.480300  1.0  0.0967
  C  C289  1  0.507900  0.911500  0.456100  1.0  0.7074
  C  C290  1  0.744000  0.907500  0.987100  1.0  -0.2643
  C  C291  1  0.878400  0.830600  0.535200  1.0  -0.3446
  C  C292  1  0.810200  0.169500  0.182700  1.0  -0.1183
  C  C293  1  0.478300  0.067300  0.108500  1.0  -0.332
  C  C294  1  0.737500  0.145000  0.169400  1.0  -0.0951
  C  C295  1  0.713100  0.132600  0.281900  1.0  -0.0771
  C  C296  1  0.859400  0.289800  0.997400  1.0  0.6378
  C  C297  1  0.816000  0.154900  0.361400  1.0  0.6339
  C  C298  1  0.865900  0.190900  0.131800  1.0  0.6049
  C  C299  1  0.721100  0.019100  0.507900  1.0  0.7536
  C  C300  1  0.547100  0.954400  0.117740  1.0  0.6815
  C  C301  1  0.689300  0.127400  0.219100  1.0  -0.0267
  C  C302  1  0.787400  0.152800  0.294800  1.0  -0.1124
  C  C303  1  0.835000  0.173200  0.245400  1.0  0.0356
  C  C304  1  0.880100  0.067500  0.478500  1.0  0.6819
  C  C305  1  0.610800  0.099500  0.208800  1.0  0.5957
  C  C306  1  0.531800  0.023500  0.147000  1.0  0.0404
  C  C307  1  0.808900  0.112300  0.469300  1.0  0.0388
  C  C308  1  0.923500  0.104000  0.976400  1.0  0.7714
  C  C309  1  0.883800  0.219200  0.019700  1.0  0.0945
  C  C310  1  0.507900  0.088500  0.043900  1.0  0.7106
  C  C311  1  0.744000  0.092500  0.512900  1.0  -0.2633
  C  C312  1  0.878400  0.169400  0.964800  1.0  -0.3464
  N  N313  1  0.285100  0.614400  0.597030  1.0  -0.4109
  N  N314  1  0.103300  0.557000  0.840020  1.0  -0.2783
  N  N315  1  0.338400  0.697600  0.925910  1.0  -0.3878
  N  N316  1  0.285100  0.385600  0.902970  1.0  -0.4094
  N  N317  1  0.103300  0.443000  0.659980  1.0  -0.279
  N  N318  1  0.338400  0.302400  0.574090  1.0  -0.3884
  N  N319  1  0.214900  0.114400  0.902970  1.0  -0.4104
  N  N320  1  0.396700  0.057000  0.659980  1.0  -0.2789
  N  N321  1  0.161600  0.197600  0.574090  1.0  -0.3892
  N  N322  1  0.214900  0.885600  0.597030  1.0  -0.4106
  N  N323  1  0.396700  0.943000  0.840020  1.0  -0.2801
  N  N324  1  0.161600  0.802400  0.925910  1.0  -0.3889
  N  N325  1  0.714900  0.385600  0.402970  1.0  -0.4102
  N  N326  1  0.896700  0.443000  0.159980  1.0  -0.2799
  N  N327  1  0.661600  0.302400  0.074090  1.0  -0.3889
  N  N328  1  0.714900  0.614400  0.097030  1.0  -0.4106
  N  N329  1  0.896700  0.557000  0.340020  1.0  -0.2795
  N  N330  1  0.661600  0.697600  0.425910  1.0  -0.3892
  N  N331  1  0.785100  0.885600  0.097030  1.0  -0.41
  N  N332  1  0.603300  0.943000  0.340020  1.0  -0.2795
  N  N333  1  0.838400  0.802400  0.425910  1.0  -0.3884
  N  N334  1  0.785100  0.114400  0.402970  1.0  -0.4103
  N  N335  1  0.603300  0.057000  0.159980  1.0  -0.2777
  N  N336  1  0.838400  0.197600  0.074090  1.0  -0.3878
  O  O337  1  0.112560  0.434250  0.891300  1.0  -0.558
  O  O338  1  0.306390  0.820260  0.977200  1.0  -0.5878
  O  O339  1  0.433400  0.698400  0.855000  1.0  -0.4939
  O  O340  1  0.070290  0.564580  0.975080  1.0  -0.5755
  O  O341  1  0.965500  0.629290  0.984890  1.0  -0.5758
  O  O342  1  0.371100  0.691800  0.625200  1.0  -0.5056
  O  O343  1  0.398600  0.816030  0.048090  1.0  -0.6702
  O  O344  1  0.058000  0.613160  0.753790  1.0  -0.5115
  O  O345  1  0.987500  0.418660  0.893060  1.0  -0.6606
  O  O346  1  0.177300  0.499570  0.447470  1.0  -0.5772
  O  O347  1  0.401300  0.563300  0.464080  1.0  -0.5702
  O  O348  1  0.432400  0.566600  0.070780  1.0  -0.5712
  O  O349  1  0.412200  0.541500  0.568240  1.0  -0.5699
  O  O350  1  0.446400  0.593770  0.968860  1.0  -0.5673
  O  O351  1  0.241100  0.484000  0.537300  1.0  -0.4877
  O  O352  1  0.112560  0.565750  0.608700  1.0  -0.558
  O  O353  1  0.306390  0.179740  0.522800  1.0  -0.588
  O  O354  1  0.433400  0.301600  0.645000  1.0  -0.4922
  O  O355  1  0.070290  0.435420  0.524920  1.0  -0.5755
  O  O356  1  0.965500  0.370710  0.515110  1.0  -0.5755
  O  O357  1  0.371100  0.308200  0.874800  1.0  -0.5064
  O  O358  1  0.398600  0.183970  0.451910  1.0  -0.6723
  O  O359  1  0.058000  0.386840  0.746210  1.0  -0.5102
  O  O360  1  0.987500  0.581340  0.606940  1.0  -0.6594
  O  O361  1  0.177300  0.500430  0.052530  1.0  -0.5779
  O  O362  1  0.401300  0.436700  0.035920  1.0  -0.5693
  O  O363  1  0.432400  0.433400  0.429220  1.0  -0.5679
  O  O364  1  0.412200  0.458500  0.931760  1.0  -0.5736
  O  O365  1  0.446400  0.406230  0.531140  1.0  -0.5668
  O  O366  1  0.241100  0.516000  0.962700  1.0  -0.487
  O  O367  1  0.387440  0.934250  0.608700  1.0  -0.5576
  O  O368  1  0.193610  0.320260  0.522800  1.0  -0.5875
  O  O369  1  0.066600  0.198400  0.645000  1.0  -0.494
  O  O370  1  0.429710  0.064580  0.524920  1.0  -0.5755
  O  O371  1  0.534500  0.129290  0.515110  1.0  -0.5742
  O  O372  1  0.128900  0.191800  0.874800  1.0  -0.506
  O  O373  1  0.101400  0.316030  0.451910  1.0  -0.6702
  O  O374  1  0.442000  0.113160  0.746210  1.0  -0.5126
  O  O375  1  0.512500  0.918660  0.606940  1.0  -0.6573
  O  O376  1  0.322700  0.999570  0.052530  1.0  -0.579
  O  O377  1  0.098700  0.063300  0.035920  1.0  -0.5694
  O  O378  1  0.067600  0.066600  0.429220  1.0  -0.5687
  O  O379  1  0.087800  0.041500  0.931760  1.0  -0.5706
  O  O380  1  0.053600  0.093770  0.531140  1.0  -0.5671
  O  O381  1  0.258900  0.984000  0.962700  1.0  -0.4869
  O  O382  1  0.387440  0.065750  0.891300  1.0  -0.557
  O  O383  1  0.193610  0.679740  0.977200  1.0  -0.5882
  O  O384  1  0.066600  0.801600  0.855000  1.0  -0.4958
  O  O385  1  0.429710  0.935420  0.975080  1.0  -0.5739
  O  O386  1  0.534500  0.870710  0.984890  1.0  -0.575
  O  O387  1  0.128900  0.808200  0.625200  1.0  -0.5054
  O  O388  1  0.101400  0.683970  0.048090  1.0  -0.6697
  O  O389  1  0.442000  0.886840  0.753790  1.0  -0.5121
  O  O390  1  0.512500  0.081340  0.893060  1.0  -0.6604
  O  O391  1  0.322700  0.000430  0.447470  1.0  -0.5782
  O  O392  1  0.098700  0.936700  0.464080  1.0  -0.5696
  O  O393  1  0.067600  0.933400  0.070780  1.0  -0.5718
  O  O394  1  0.087800  0.958500  0.568240  1.0  -0.5714
  O  O395  1  0.053600  0.906230  0.968860  1.0  -0.5662
  O  O396  1  0.258900  0.016000  0.537300  1.0  -0.4871
  O  O397  1  0.887440  0.565750  0.108700  1.0  -0.5573
  O  O398  1  0.693610  0.179740  0.022800  1.0  -0.588
  O  O399  1  0.566600  0.301600  0.145000  1.0  -0.4943
  O  O400  1  0.929710  0.435420  0.024920  1.0  -0.575
  O  O401  1  0.034500  0.370710  0.015110  1.0  -0.5745
  O  O402  1  0.628900  0.308200  0.374800  1.0  -0.5056
  O  O403  1  0.601400  0.183970  0.951910  1.0  -0.6713
  O  O404  1  0.942000  0.386840  0.246210  1.0  -0.5122
  O  O405  1  0.012500  0.581340  0.106940  1.0  -0.659
  O  O406  1  0.822700  0.500430  0.552530  1.0  -0.5785
  O  O407  1  0.598700  0.436700  0.535920  1.0  -0.5702
  O  O408  1  0.567600  0.433400  0.929220  1.0  -0.5678
  O  O409  1  0.587800  0.458500  0.431760  1.0  -0.5705
  O  O410  1  0.553600  0.406230  0.031140  1.0  -0.5669
  O  O411  1  0.758900  0.516000  0.462700  1.0  -0.4865
  O  O412  1  0.887440  0.434250  0.391300  1.0  -0.5575
  O  O413  1  0.693610  0.820260  0.477200  1.0  -0.5885
  O  O414  1  0.566600  0.698400  0.355000  1.0  -0.496
  O  O415  1  0.929710  0.564580  0.475080  1.0  -0.5747
  O  O416  1  0.034500  0.629290  0.484890  1.0  -0.5746
  O  O417  1  0.628900  0.691800  0.125200  1.0  -0.506
  O  O418  1  0.601400  0.816030  0.548090  1.0  -0.67
  O  O419  1  0.942000  0.613160  0.253790  1.0  -0.5114
  O  O420  1  0.012500  0.418660  0.393060  1.0  -0.6597
  O  O421  1  0.822700  0.499570  0.947470  1.0  -0.5769
  O  O422  1  0.598700  0.563300  0.964080  1.0  -0.5699
  O  O423  1  0.567600  0.566600  0.570780  1.0  -0.5703
  O  O424  1  0.587800  0.541500  0.068240  1.0  -0.5707
  O  O425  1  0.553600  0.593770  0.468860  1.0  -0.5668
  O  O426  1  0.758900  0.484000  0.037300  1.0  -0.4868
  O  O427  1  0.612560  0.065750  0.391300  1.0  -0.5576
  O  O428  1  0.806390  0.679740  0.477200  1.0  -0.5878
  O  O429  1  0.933400  0.801600  0.355000  1.0  -0.4934
  O  O430  1  0.570290  0.935420  0.475080  1.0  -0.5747
  O  O431  1  0.465500  0.870710  0.484890  1.0  -0.576
  O  O432  1  0.871100  0.808200  0.125200  1.0  -0.5055
  O  O433  1  0.898600  0.683970  0.548090  1.0  -0.6696
  O  O434  1  0.558000  0.886840  0.253790  1.0  -0.5118
  O  O435  1  0.487500  0.081340  0.393060  1.0  -0.6609
  O  O436  1  0.677300  0.000430  0.947470  1.0  -0.5783
  O  O437  1  0.901300  0.936700  0.964080  1.0  -0.5695
  O  O438  1  0.932400  0.933400  0.570780  1.0  -0.5722
  O  O439  1  0.912200  0.958500  0.068240  1.0  -0.5709
  O  O440  1  0.946400  0.906230  0.468860  1.0  -0.567
  O  O441  1  0.741100  0.016000  0.037300  1.0  -0.4877
  O  O442  1  0.612560  0.934250  0.108700  1.0  -0.5581
  O  O443  1  0.806390  0.320260  0.022800  1.0  -0.5872
  O  O444  1  0.933400  0.198400  0.145000  1.0  -0.4922
  O  O445  1  0.570290  0.064580  0.024920  1.0  -0.576
  O  O446  1  0.465500  0.129290  0.015110  1.0  -0.5756
  O  O447  1  0.871100  0.191800  0.374800  1.0  -0.5063
  O  O448  1  0.898600  0.316030  0.951910  1.0  -0.6713
  O  O449  1  0.558000  0.113160  0.246210  1.0  -0.5107
  O  O450  1  0.487500  0.918660  0.106940  1.0  -0.6585
  O  O451  1  0.677300  0.999570  0.552530  1.0  -0.5782
  O  O452  1  0.901300  0.063300  0.535920  1.0  -0.5691
  O  O453  1  0.932400  0.066600  0.929220  1.0  -0.5675
  O  O454  1  0.912200  0.041500  0.431760  1.0  -0.573
  O  O455  1  0.946400  0.093770  0.031140  1.0  -0.5669
  O  O456  1  0.741100  0.984000  0.462700  1.0  -0.4874
