# generated using pymatgen
data_LaPH3C3O8
_symmetry_space_group_name_H-M   'P 1'
_cell_length_a   7.19910000
_cell_length_b   10.29260000
_cell_length_c   13.38380000
_cell_angle_alpha   90.00000000
_cell_angle_beta   90.00000000
_cell_angle_gamma   98.89800000
_symmetry_Int_Tables_number   1
_chemical_formula_structural   LaPH3C3O8
_chemical_formula_sum   'La4 P4 H12 C12 O32'
_cell_volume   979.77062764
_cell_formula_units_Z   4
loop_
 _symmetry_equiv_pos_site_id
 _symmetry_equiv_pos_as_xyz
  1  'x, y, z'
loop_
 _atom_site_type_symbol
 _atom_site_label
 _atom_site_symmetry_multiplicity
 _atom_site_fract_x
 _atom_site_fract_y
 _atom_site_fract_z
 _atom_site_occupancy
 _atom_site_charge
  La  La1  1  0.159280  0.282380  0.905940  1.0  2.1887
  La  La2  1  0.840720  0.217620  0.405940  1.0  2.1893
  La  La3  1  0.840720  0.717620  0.094060  1.0  2.189
  La  La4  1  0.159280  0.782380  0.594060  1.0  2.1885
  P  P5  1  0.785020  0.073600  0.051930  1.0  1.5438
  P  P6  1  0.214980  0.426400  0.551930  1.0  1.5461
  P  P7  1  0.214980  0.926400  0.948070  1.0  1.5474
  P  P8  1  0.785020  0.573600  0.448070  1.0  1.5454
  H  H9  1  0.590000  0.192800  0.049100  1.0  0.4178
  H  H10  1  0.873500  0.001800  0.255900  1.0  0.4131
  H  H11  1  0.060200  0.087100  0.148100  1.0  0.1751
  H  H12  1  0.410000  0.307200  0.549100  1.0  0.417
  H  H13  1  0.126500  0.498200  0.755900  1.0  0.4138
  H  H14  1  0.939800  0.412900  0.648100  1.0  0.1835
  H  H15  1  0.410000  0.807200  0.950900  1.0  0.4178
  H  H16  1  0.126500  0.998200  0.744100  1.0  0.4139
  H  H17  1  0.939800  0.912900  0.851900  1.0  0.1809
  H  H18  1  0.590000  0.692800  0.450900  1.0  0.4183
  H  H19  1  0.873500  0.501800  0.244100  1.0  0.4125
  H  H20  1  0.060200  0.587100  0.351900  1.0  0.1738
  C  C21  1  0.945400  0.126300  0.156000  1.0  -0.3862
  C  C22  1  0.997400  0.274500  0.162900  1.0  0.7925
  C  C23  1  0.453500  0.554800  0.974000  1.0  0.5612
  C  C24  1  0.054600  0.373700  0.656000  1.0  -0.3864
  C  C25  1  0.002600  0.225500  0.662900  1.0  0.7906
  C  C26  1  0.546500  0.945200  0.474000  1.0  0.5614
  C  C27  1  0.054600  0.873700  0.844000  1.0  -0.3869
  C  C28  1  0.002600  0.725500  0.837100  1.0  0.7902
  C  C29  1  0.546500  0.445200  0.026000  1.0  0.5615
  C  C30  1  0.945400  0.626300  0.344000  1.0  -0.3865
  C  C31  1  0.997400  0.774500  0.337100  1.0  0.7923
  C  C32  1  0.453500  0.054800  0.526000  1.0  0.5614
  O  O33  1  0.602200  0.129200  0.084000  1.0  -0.6812
  O  O34  1  0.864700  0.131500  0.955240  1.0  -0.9106
  O  O35  1  0.743100  0.926800  0.057940  1.0  -0.8922
  O  O36  1  0.850400  0.076000  0.244780  1.0  -0.5883
  O  O37  1  0.078700  0.332700  0.088910  1.0  -0.6982
  O  O38  1  0.959700  0.330300  0.242780  1.0  -0.6643
  O  O39  1  0.309900  0.520700  0.923530  1.0  -0.6492
  O  O40  1  0.532600  0.670800  0.990150  1.0  -0.6233
  O  O41  1  0.397800  0.370800  0.584000  1.0  -0.6814
  O  O42  1  0.135300  0.368500  0.455240  1.0  -0.9112
  O  O43  1  0.256900  0.573200  0.557940  1.0  -0.8931
  O  O44  1  0.149600  0.424000  0.744780  1.0  -0.5877
  O  O45  1  0.921300  0.167300  0.588910  1.0  -0.6998
  O  O46  1  0.040300  0.169700  0.742780  1.0  -0.6657
  O  O47  1  0.690100  0.979300  0.423530  1.0  -0.6507
  O  O48  1  0.467400  0.829200  0.490150  1.0  -0.6226
  O  O49  1  0.397800  0.870800  0.916000  1.0  -0.681
  O  O50  1  0.135300  0.868500  0.044760  1.0  -0.9125
  O  O51  1  0.256900  0.073200  0.942060  1.0  -0.8929
  O  O52  1  0.149600  0.924000  0.755220  1.0  -0.5873
  O  O53  1  0.921300  0.667300  0.911090  1.0  -0.6982
  O  O54  1  0.040300  0.669700  0.757220  1.0  -0.6679
  O  O55  1  0.690100  0.479300  0.076470  1.0  -0.6499
  O  O56  1  0.467400  0.329200  0.009850  1.0  -0.6224
  O  O57  1  0.602200  0.629200  0.416000  1.0  -0.6811
  O  O58  1  0.864700  0.631500  0.544760  1.0  -0.9128
  O  O59  1  0.743100  0.426800  0.442060  1.0  -0.8919
  O  O60  1  0.850400  0.576000  0.255220  1.0  -0.5877
  O  O61  1  0.078700  0.832700  0.411090  1.0  -0.6975
  O  O62  1  0.959700  0.830300  0.257220  1.0  -0.6665
  O  O63  1  0.309900  0.020700  0.576470  1.0  -0.6485
  O  O64  1  0.532600  0.170800  0.509850  1.0  -0.6232
