# generated using pymatgen
data_PrPH3C3O8
_symmetry_space_group_name_H-M   'P 1'
_cell_length_a   7.23000000
_cell_length_b   10.25350000
_cell_length_c   13.22390000
_cell_angle_alpha   90.00000000
_cell_angle_beta   90.00000000
_cell_angle_gamma   99.86900000
_symmetry_Int_Tables_number   1
_chemical_formula_structural   PrPH3C3O8
_chemical_formula_sum   'Pr4 P4 H12 C12 O32'
_cell_volume   965.81815418
_cell_formula_units_Z   4
loop_
 _symmetry_equiv_pos_site_id
 _symmetry_equiv_pos_as_xyz
  1  'x, y, z'
loop_
 _atom_site_type_symbol
 _atom_site_label
 _atom_site_symmetry_multiplicity
 _atom_site_fract_x
 _atom_site_fract_y
 _atom_site_fract_z
 _atom_site_occupancy
 _atom_site_charge
  Pr  Pr1  1  0.162390  0.281660  0.905460  1.0  2.2013
  Pr  Pr2  1  0.837610  0.218340  0.405460  1.0  2.202
  Pr  Pr3  1  0.837610  0.718340  0.094540  1.0  2.2018
  Pr  Pr4  1  0.162390  0.781660  0.594540  1.0  2.2012
  P  P5  1  0.786920  0.071660  0.049940  1.0  1.5575
  P  P6  1  0.213080  0.428340  0.549940  1.0  1.5576
  P  P7  1  0.213080  0.928340  0.950060  1.0  1.5575
  P  P8  1  0.786920  0.571660  0.450060  1.0  1.5575
  H  H9  1  0.591700  0.188900  0.045400  1.0  0.4231
  H  H10  1  0.868500  0.001200  0.258400  1.0  0.4171
  H  H11  1  0.057800  0.086000  0.148800  1.0  0.1859
  H  H12  1  0.408300  0.311100  0.545400  1.0  0.4229
  H  H13  1  0.131500  0.498800  0.758400  1.0  0.4178
  H  H14  1  0.942200  0.414000  0.648800  1.0  0.1904
  H  H15  1  0.408300  0.811100  0.954600  1.0  0.4234
  H  H16  1  0.131500  0.998800  0.741600  1.0  0.4173
  H  H17  1  0.942200  0.914000  0.851200  1.0  0.1891
  H  H18  1  0.591700  0.688900  0.454600  1.0  0.4233
  H  H19  1  0.868500  0.501200  0.241600  1.0  0.4159
  H  H20  1  0.057800  0.586000  0.351200  1.0  0.1848
  C  C21  1  0.943900  0.125100  0.155700  1.0  -0.3902
  C  C22  1  0.998200  0.274300  0.163300  1.0  0.7972
  C  C23  1  0.452200  0.554200  0.975700  1.0  0.569
  C  C24  1  0.056100  0.374900  0.655700  1.0  -0.3897
  C  C25  1  0.001800  0.225700  0.663300  1.0  0.7964
  C  C26  1  0.547800  0.945800  0.475700  1.0  0.569
  C  C27  1  0.056100  0.874900  0.844300  1.0  -0.3903
  C  C28  1  0.001800  0.725700  0.836700  1.0  0.796
  C  C29  1  0.547800  0.445800  0.024300  1.0  0.5697
  C  C30  1  0.943900  0.625100  0.344300  1.0  -0.3906
  C  C31  1  0.998200  0.774300  0.336700  1.0  0.7974
  C  C32  1  0.452200  0.054200  0.524300  1.0  0.5698
  O  O33  1  0.602900  0.125000  0.080800  1.0  -0.6841
  O  O34  1  0.868700  0.131500  0.953100  1.0  -0.9212
  O  O35  1  0.744800  0.923500  0.055400  1.0  -0.9118
  O  O36  1  0.846800  0.075500  0.246200  1.0  -0.6033
  O  O37  1  0.080600  0.333700  0.087600  1.0  -0.722
  O  O38  1  0.960400  0.331000  0.243500  1.0  -0.6764
  O  O39  1  0.306700  0.519000  0.926400  1.0  -0.6179
  O  O40  1  0.532000  0.671700  0.991300  1.0  -0.6259
  O  O41  1  0.397100  0.375000  0.580800  1.0  -0.6846
  O  O42  1  0.131300  0.368500  0.453100  1.0  -0.9219
  O  O43  1  0.255200  0.576500  0.555400  1.0  -0.9122
  O  O44  1  0.153200  0.424500  0.746200  1.0  -0.6021
  O  O45  1  0.919400  0.166300  0.587600  1.0  -0.7219
  O  O46  1  0.039600  0.169000  0.743500  1.0  -0.6778
  O  O47  1  0.693300  0.981000  0.426400  1.0  -0.618
  O  O48  1  0.468000  0.828300  0.491300  1.0  -0.6256
  O  O49  1  0.397100  0.875000  0.919200  1.0  -0.6843
  O  O50  1  0.131300  0.868500  0.046900  1.0  -0.923
  O  O51  1  0.255200  0.076500  0.944600  1.0  -0.9117
  O  O52  1  0.153200  0.924500  0.753800  1.0  -0.6022
  O  O53  1  0.919400  0.666300  0.912400  1.0  -0.7209
  O  O54  1  0.039600  0.669000  0.756500  1.0  -0.6776
  O  O55  1  0.693300  0.481000  0.073600  1.0  -0.6163
  O  O56  1  0.468000  0.328300  0.008700  1.0  -0.6254
  O  O57  1  0.602900  0.625000  0.419200  1.0  -0.684
  O  O58  1  0.868700  0.631500  0.546900  1.0  -0.9233
  O  O59  1  0.744800  0.423500  0.444600  1.0  -0.9114
  O  O60  1  0.846800  0.575500  0.253800  1.0  -0.6027
  O  O61  1  0.080600  0.833700  0.412400  1.0  -0.7216
  O  O62  1  0.960400  0.831000  0.256500  1.0  -0.6771
  O  O63  1  0.306700  0.019000  0.573600  1.0  -0.6172
  O  O64  1  0.532000  0.171700  0.508700  1.0  -0.6258
