# generated using pymatgen
data_CePH3C3O8
_symmetry_space_group_name_H-M   'P 1'
_cell_length_a   7.22600000
_cell_length_b   10.27450000
_cell_length_c   13.29180000
_cell_angle_alpha   90.00000000
_cell_angle_beta   90.00000000
_cell_angle_gamma   99.49300000
_symmetry_Int_Tables_number   1
_chemical_formula_structural   CePH3C3O8
_chemical_formula_sum   'Ce4 P4 H12 C12 O32'
_cell_volume   973.31635345
_cell_formula_units_Z   4
loop_
 _symmetry_equiv_pos_site_id
 _symmetry_equiv_pos_as_xyz
  1  'x, y, z'
loop_
 _atom_site_type_symbol
 _atom_site_label
 _atom_site_symmetry_multiplicity
 _atom_site_fract_x
 _atom_site_fract_y
 _atom_site_fract_z
 _atom_site_occupancy
 _atom_site_charge
  Ce  Ce1  1  0.161440  0.281770  0.905560  1.0  2.2678
  Ce  Ce2  1  0.838560  0.218230  0.405560  1.0  2.2684
  Ce  Ce3  1  0.838560  0.718230  0.094440  1.0  2.2684
  Ce  Ce4  1  0.161440  0.781770  0.594440  1.0  2.2677
  P  P5  1  0.786280  0.072450  0.050610  1.0  1.5537
  P  P6  1  0.213720  0.427550  0.550610  1.0  1.5538
  P  P7  1  0.213720  0.927550  0.949390  1.0  1.5533
  P  P8  1  0.786280  0.572450  0.449390  1.0  1.5532
  H  H9  1  0.592400  0.190500  0.046500  1.0  0.4215
  H  H10  1  0.870500  0.001300  0.257000  1.0  0.4125
  H  H11  1  0.059000  0.086100  0.148700  1.0  0.1841
  H  H12  1  0.407600  0.309500  0.546500  1.0  0.4207
  H  H13  1  0.129500  0.498700  0.757000  1.0  0.413
  H  H14  1  0.941000  0.413900  0.648700  1.0  0.1868
  H  H15  1  0.407600  0.809500  0.953500  1.0  0.4216
  H  H16  1  0.129500  0.998700  0.743000  1.0  0.413
  H  H17  1  0.941000  0.913900  0.851300  1.0  0.1854
  H  H18  1  0.592400  0.690500  0.453500  1.0  0.4217
  H  H19  1  0.870500  0.501300  0.243000  1.0  0.4118
  H  H20  1  0.059000  0.586100  0.351300  1.0  0.1832
  C  C21  1  0.945100  0.125500  0.155900  1.0  -0.3903
  C  C22  1  0.998900  0.274500  0.162700  1.0  0.7951
  C  C23  1  0.454000  0.554900  0.974700  1.0  0.56
  C  C24  1  0.054900  0.374500  0.655900  1.0  -0.3903
  C  C25  1  0.001100  0.225500  0.662700  1.0  0.7935
  C  C26  1  0.546000  0.945100  0.474700  1.0  0.5596
  C  C27  1  0.054900  0.874500  0.844100  1.0  -0.3908
  C  C28  1  0.001100  0.725500  0.837300  1.0  0.7934
  C  C29  1  0.546000  0.445100  0.025300  1.0  0.5617
  C  C30  1  0.945100  0.625500  0.344100  1.0  -0.3906
  C  C31  1  0.998900  0.774500  0.337300  1.0  0.795
  C  C32  1  0.454000  0.054900  0.525300  1.0  0.5623
  O  O33  1  0.603700  0.126900  0.081800  1.0  -0.6837
  O  O34  1  0.867700  0.131900  0.954030  1.0  -0.9233
  O  O35  1  0.743800  0.924700  0.056200  1.0  -0.9256
  O  O36  1  0.848300  0.075500  0.245190  1.0  -0.6001
  O  O37  1  0.079300  0.333700  0.088030  1.0  -0.7072
  O  O38  1  0.960400  0.330700  0.243000  1.0  -0.6868
  O  O39  1  0.308700  0.519400  0.924800  1.0  -0.6454
  O  O40  1  0.532400  0.671800  0.991100  1.0  -0.6302
  O  O41  1  0.396300  0.373100  0.581800  1.0  -0.6835
  O  O42  1  0.132300  0.368100  0.454030  1.0  -0.9238
  O  O43  1  0.256200  0.575300  0.556200  1.0  -0.9271
  O  O44  1  0.151700  0.424500  0.745190  1.0  -0.5992
  O  O45  1  0.920700  0.166300  0.588030  1.0  -0.7091
  O  O46  1  0.039600  0.169300  0.743000  1.0  -0.6886
  O  O47  1  0.691300  0.980600  0.424800  1.0  -0.6464
  O  O48  1  0.467600  0.828200  0.491100  1.0  -0.6301
  O  O49  1  0.396300  0.873100  0.918200  1.0  -0.6828
  O  O50  1  0.132300  0.868100  0.045970  1.0  -0.9257
  O  O51  1  0.256200  0.075300  0.943800  1.0  -0.9269
  O  O52  1  0.151700  0.924500  0.754810  1.0  -0.5988
  O  O53  1  0.920700  0.666300  0.911970  1.0  -0.7077
  O  O54  1  0.039600  0.669300  0.757000  1.0  -0.6891
  O  O55  1  0.691300  0.480600  0.075200  1.0  -0.6454
  O  O56  1  0.467600  0.328200  0.008900  1.0  -0.6299
  O  O57  1  0.603700  0.626900  0.418200  1.0  -0.6834
  O  O58  1  0.867700  0.631900  0.545970  1.0  -0.9263
  O  O59  1  0.743800  0.424700  0.443800  1.0  -0.9255
  O  O60  1  0.848300  0.575500  0.254810  1.0  -0.5996
  O  O61  1  0.079300  0.833700  0.411970  1.0  -0.7062
  O  O62  1  0.960400  0.830700  0.257000  1.0  -0.6874
  O  O63  1  0.308700  0.019400  0.575200  1.0  -0.6456
  O  O64  1  0.532400  0.171800  0.508900  1.0  -0.6299
