# generated using pymatgen
data_NdPH3C3O8
_symmetry_space_group_name_H-M   'P 1'
_cell_length_a   7.23260000
_cell_length_b   10.23370000
_cell_length_c   13.15580000
_cell_angle_alpha   90.00000000
_cell_angle_beta   90.00000000
_cell_angle_gamma   100.10700000
_symmetry_Int_Tables_number   1
_chemical_formula_structural   NdPH3C3O8
_chemical_formula_sum   'Nd4 P4 H12 C12 O32'
_cell_volume   958.63230397
_cell_formula_units_Z   4
loop_
 _symmetry_equiv_pos_site_id
 _symmetry_equiv_pos_as_xyz
  1  'x, y, z'
loop_
 _atom_site_type_symbol
 _atom_site_label
 _atom_site_symmetry_multiplicity
 _atom_site_fract_x
 _atom_site_fract_y
 _atom_site_fract_z
 _atom_site_occupancy
 _atom_site_charge
  Nd  Nd1  1  0.163000  0.281870  0.905490  1.0  2.2982
  Nd  Nd2  1  0.837000  0.218130  0.405490  1.0  2.2989
  Nd  Nd3  1  0.837000  0.718130  0.094510  1.0  2.2988
  Nd  Nd4  1  0.163000  0.781870  0.594510  1.0  2.298
  P  P5  1  0.787450  0.070690  0.049460  1.0  1.5696
  P  P6  1  0.212550  0.429310  0.549460  1.0  1.5694
  P  P7  1  0.212550  0.929310  0.950540  1.0  1.5699
  P  P8  1  0.787450  0.570690  0.450540  1.0  1.5703
  H  H9  1  0.592900  0.188000  0.044700  1.0  0.4291
  H  H10  1  0.867900  0.000400  0.258600  1.0  0.4195
  H  H11  1  0.057700  0.086000  0.149500  1.0  0.1856
  H  H12  1  0.407100  0.312000  0.544700  1.0  0.4284
  H  H13  1  0.132100  0.499600  0.758600  1.0  0.4196
  H  H14  1  0.942300  0.414000  0.649500  1.0  0.1902
  H  H15  1  0.407100  0.812000  0.955300  1.0  0.4291
  H  H16  1  0.132100  0.999600  0.741400  1.0  0.4189
  H  H17  1  0.942300  0.914000  0.850500  1.0  0.1888
  H  H18  1  0.592900  0.688000  0.455300  1.0  0.4291
  H  H19  1  0.867900  0.500400  0.241400  1.0  0.4182
  H  H20  1  0.057700  0.586000  0.350500  1.0  0.1846
  C  C21  1  0.944100  0.125200  0.156200  1.0  -0.3934
  C  C22  1  0.999700  0.274500  0.163400  1.0  0.8097
  C  C23  1  0.453100  0.555300  0.975700  1.0  0.5676
  C  C24  1  0.055900  0.374800  0.656200  1.0  -0.3932
  C  C25  1  0.000300  0.225500  0.663400  1.0  0.809
  C  C26  1  0.546900  0.944700  0.475700  1.0  0.5674
  C  C27  1  0.055900  0.874800  0.843800  1.0  -0.3938
  C  C28  1  0.000300  0.725500  0.836600  1.0  0.8088
  C  C29  1  0.546900  0.444700  0.024300  1.0  0.5687
  C  C30  1  0.944100  0.625200  0.343800  1.0  -0.3937
  C  C31  1  0.999700  0.774500  0.336600  1.0  0.8097
  C  C32  1  0.453100  0.055300  0.524300  1.0  0.5691
  O  O33  1  0.603700  0.124100  0.080400  1.0  -0.6855
  O  O34  1  0.869600  0.131400  0.952300  1.0  -0.9407
  O  O35  1  0.745400  0.922300  0.054400  1.0  -0.93
  O  O36  1  0.846100  0.074800  0.246400  1.0  -0.6126
  O  O37  1  0.080900  0.333800  0.087400  1.0  -0.733
  O  O38  1  0.960900  0.330600  0.244200  1.0  -0.6881
  O  O39  1  0.305100  0.518600  0.926900  1.0  -0.667
  O  O40  1  0.532800  0.672000  0.991400  1.0  -0.6286
  O  O41  1  0.396300  0.375900  0.580400  1.0  -0.6854
  O  O42  1  0.130400  0.368600  0.452300  1.0  -0.9413
  O  O43  1  0.254600  0.577700  0.554400  1.0  -0.9324
  O  O44  1  0.153900  0.425200  0.746400  1.0  -0.6128
  O  O45  1  0.919100  0.166200  0.587400  1.0  -0.7335
  O  O46  1  0.039100  0.169400  0.744200  1.0  -0.6904
  O  O47  1  0.694900  0.981400  0.426900  1.0  -0.6669
  O  O48  1  0.467200  0.828000  0.491400  1.0  -0.6281
  O  O49  1  0.396300  0.875900  0.919600  1.0  -0.6851
  O  O50  1  0.130400  0.868600  0.047700  1.0  -0.9422
  O  O51  1  0.254600  0.077700  0.945600  1.0  -0.9324
  O  O52  1  0.153900  0.925200  0.753600  1.0  -0.6124
  O  O53  1  0.919100  0.666200  0.912600  1.0  -0.7321
  O  O54  1  0.039100  0.669400  0.755800  1.0  -0.6908
  O  O55  1  0.694900  0.481400  0.073100  1.0  -0.6659
  O  O56  1  0.467200  0.328000  0.008600  1.0  -0.6274
  O  O57  1  0.603700  0.624100  0.419600  1.0  -0.6855
  O  O58  1  0.869600  0.631400  0.547700  1.0  -0.9425
  O  O59  1  0.745400  0.422300  0.445600  1.0  -0.93
  O  O60  1  0.846100  0.574800  0.253600  1.0  -0.6123
  O  O61  1  0.080900  0.833800  0.412600  1.0  -0.7322
  O  O62  1  0.960900  0.830600  0.255800  1.0  -0.6891
  O  O63  1  0.305100  0.018600  0.573100  1.0  -0.6662
  O  O64  1  0.532800  0.172000  0.508600  1.0  -0.6279
