# generated using pymatgen
data_EuPH3C3O8
_symmetry_space_group_name_H-M   'P 1'
_cell_length_a   7.22930000
_cell_length_b   10.19800000
_cell_length_c   13.04290000
_cell_angle_alpha   90.00000000
_cell_angle_beta   90.00000000
_cell_angle_gamma   100.54100000
_symmetry_Int_Tables_number   1
_chemical_formula_structural   EuPH3C3O8
_chemical_formula_sum   'Eu4 P4 H12 C12 O32'
_cell_volume   945.35261221
_cell_formula_units_Z   4
loop_
 _symmetry_equiv_pos_site_id
 _symmetry_equiv_pos_as_xyz
  1  'x, y, z'
loop_
 _atom_site_type_symbol
 _atom_site_label
 _atom_site_symmetry_multiplicity
 _atom_site_fract_x
 _atom_site_fract_y
 _atom_site_fract_z
 _atom_site_occupancy
 _atom_site_charge
  Eu  Eu1  1  0.163770  0.282140  0.906090  1.0  2.1617
  Eu  Eu2  1  0.836230  0.217860  0.406090  1.0  2.1623
  Eu  Eu3  1  0.836230  0.717860  0.093910  1.0  2.1623
  Eu  Eu4  1  0.163770  0.782140  0.593910  1.0  2.1617
  P  P5  1  0.788650  0.068920  0.048970  1.0  1.5526
  P  P6  1  0.211350  0.431080  0.548970  1.0  1.5526
  P  P7  1  0.211350  0.931080  0.951030  1.0  1.5577
  P  P8  1  0.788650  0.568920  0.451030  1.0  1.5543
  H  H9  1  0.592900  0.185200  0.043800  1.0  0.4307
  H  H10  1  0.864600  0.999000  0.260700  1.0  0.4196
  H  H11  1  0.057700  0.084400  0.151300  1.0  0.1755
  H  H12  1  0.407100  0.314800  0.543800  1.0  0.4295
  H  H13  1  0.135400  0.501000  0.760700  1.0  0.4198
  H  H14  1  0.942300  0.415600  0.651300  1.0  0.1815
  H  H15  1  0.407100  0.814800  0.956200  1.0  0.4307
  H  H16  1  0.135400  0.001000  0.739300  1.0  0.4189
  H  H17  1  0.942300  0.915600  0.848700  1.0  0.1813
  H  H18  1  0.592900  0.685200  0.456200  1.0  0.4311
  H  H19  1  0.864600  0.499000  0.239300  1.0  0.4181
  H  H20  1  0.057700  0.584400  0.348700  1.0  0.1761
  C  C21  1  0.944000  0.123500  0.157300  1.0  -0.2946
  C  C22  1  0.999600  0.274000  0.163800  1.0  0.777
  C  C23  1  0.452400  0.555200  0.975600  1.0  0.5933
  C  C24  1  0.056000  0.376500  0.657300  1.0  -0.2949
  C  C25  1  0.000400  0.226000  0.663800  1.0  0.7742
  C  C26  1  0.547600  0.944800  0.475600  1.0  0.5951
  C  C27  1  0.056000  0.876500  0.842700  1.0  -0.2954
  C  C28  1  0.000400  0.726000  0.836200  1.0  0.7742
  C  C29  1  0.547600  0.444800  0.024400  1.0  0.595
  C  C30  1  0.944000  0.623500  0.342700  1.0  -0.2948
  C  C31  1  0.999600  0.774000  0.336200  1.0  0.777
  C  C32  1  0.452400  0.055200  0.524400  1.0  0.5947
  O  O33  1  0.603600  0.121000  0.079700  1.0  -0.6873
  O  O34  1  0.872400  0.132000  0.951300  1.0  -0.9204
  O  O35  1  0.747100  0.919900  0.053300  1.0  -0.9199
  O  O36  1  0.843800  0.073600  0.247700  1.0  -0.6116
  O  O37  1  0.081300  0.333500  0.087500  1.0  -0.7215
  O  O38  1  0.961400  0.330600  0.245400  1.0  -0.6519
  O  O39  1  0.302800  0.518000  0.928600  1.0  -0.6772
  O  O40  1  0.533500  0.672500  0.991000  1.0  -0.6282
  O  O41  1  0.396400  0.379000  0.579700  1.0  -0.6874
  O  O42  1  0.127600  0.368000  0.451300  1.0  -0.9209
  O  O43  1  0.252900  0.580100  0.553300  1.0  -0.9204
  O  O44  1  0.156200  0.426400  0.747700  1.0  -0.6115
  O  O45  1  0.918700  0.166500  0.587500  1.0  -0.722
  O  O46  1  0.038600  0.169400  0.745400  1.0  -0.6533
  O  O47  1  0.697200  0.982000  0.428600  1.0  -0.6772
  O  O48  1  0.466500  0.827500  0.491000  1.0  -0.6251
  O  O49  1  0.396400  0.879000  0.920300  1.0  -0.687
  O  O50  1  0.127600  0.868000  0.048700  1.0  -0.9215
  O  O51  1  0.252900  0.080100  0.946700  1.0  -0.9234
  O  O52  1  0.156200  0.926400  0.752300  1.0  -0.6116
  O  O53  1  0.918700  0.666500  0.912500  1.0  -0.7217
  O  O54  1  0.038600  0.669400  0.754600  1.0  -0.653
  O  O55  1  0.697200  0.482000  0.071400  1.0  -0.6771
  O  O56  1  0.466500  0.327500  0.009000  1.0  -0.6252
  O  O57  1  0.603600  0.621000  0.420300  1.0  -0.6874
  O  O58  1  0.872400  0.632000  0.548700  1.0  -0.9218
  O  O59  1  0.747100  0.419900  0.446700  1.0  -0.9231
  O  O60  1  0.843800  0.573600  0.252300  1.0  -0.6114
  O  O61  1  0.081300  0.833500  0.412500  1.0  -0.722
  O  O62  1  0.961400  0.830600  0.254600  1.0  -0.6519
  O  O63  1  0.302800  0.018000  0.571400  1.0  -0.6768
  O  O64  1  0.533500  0.172500  0.509000  1.0  -0.6281
