# generated using pymatgen
data_SmPH3C3O8
_symmetry_space_group_name_H-M   'P 1'
_cell_length_a   7.23510000
_cell_length_b   10.19990000
_cell_length_c   13.05500000
_cell_angle_alpha   90.00000000
_cell_angle_beta   90.00000000
_cell_angle_gamma   100.42700000
_symmetry_Int_Tables_number   1
_chemical_formula_structural   SmPH3C3O8
_chemical_formula_sum   'Sm4 P4 H12 C12 O32'
_cell_volume   947.51400981
_cell_formula_units_Z   4
loop_
 _symmetry_equiv_pos_site_id
 _symmetry_equiv_pos_as_xyz
  1  'x, y, z'
loop_
 _atom_site_type_symbol
 _atom_site_label
 _atom_site_symmetry_multiplicity
 _atom_site_fract_x
 _atom_site_fract_y
 _atom_site_fract_z
 _atom_site_occupancy
 _atom_site_charge
  Sm  Sm1  1  0.163640  0.282160  0.905950  1.0  2.2994
  Sm  Sm2  1  0.836360  0.217840  0.405950  1.0  2.3
  Sm  Sm3  1  0.836360  0.717840  0.094050  1.0  2.3
  Sm  Sm4  1  0.163640  0.782160  0.594050  1.0  2.2994
  P  P5  1  0.788410  0.069410  0.049100  1.0  1.5736
  P  P6  1  0.211590  0.430590  0.549100  1.0  1.5733
  P  P7  1  0.211590  0.930590  0.950900  1.0  1.5737
  P  P8  1  0.788410  0.569410  0.450900  1.0  1.5741
  H  H9  1  0.593000  0.186100  0.044100  1.0  0.4265
  H  H10  1  0.865900  0.999300  0.260100  1.0  0.418
  H  H11  1  0.057300  0.085100  0.150700  1.0  0.1835
  H  H12  1  0.407000  0.313900  0.544100  1.0  0.4253
  H  H13  1  0.134100  0.500700  0.760100  1.0  0.418
  H  H14  1  0.942700  0.414900  0.650700  1.0  0.1894
  H  H15  1  0.407000  0.813900  0.955900  1.0  0.4265
  H  H16  1  0.134100  0.000700  0.739900  1.0  0.4171
  H  H17  1  0.942700  0.914900  0.849300  1.0  0.1885
  H  H18  1  0.593000  0.686100  0.455900  1.0  0.427
  H  H19  1  0.865900  0.499300  0.239900  1.0  0.4164
  H  H20  1  0.057300  0.585100  0.349300  1.0  0.1832
  C  C21  1  0.943700  0.124300  0.157000  1.0  -0.3892
  C  C22  1  0.000000  0.274400  0.163800  1.0  0.8067
  C  C23  1  0.453200  0.554900  0.975800  1.0  0.5726
  C  C24  1  0.056300  0.375700  0.657000  1.0  -0.3892
  C  C25  1  0.000000  0.225600  0.663800  1.0  0.8063
  C  C26  1  0.546800  0.945100  0.475800  1.0  0.5725
  C  C27  1  0.056300  0.875700  0.843000  1.0  -0.3896
  C  C28  1  0.000000  0.725600  0.836200  1.0  0.8061
  C  C29  1  0.546800  0.445100  0.024200  1.0  0.573
  C  C30  1  0.943700  0.624300  0.343000  1.0  -0.3893
  C  C31  1  0.000000  0.774400  0.336200  1.0  0.8068
  C  C32  1  0.453200  0.054900  0.524200  1.0  0.5734
  O  O33  1  0.603700  0.121800  0.079900  1.0  -0.6897
  O  O34  1  0.871700  0.131800  0.951600  1.0  -0.9334
  O  O35  1  0.746500  0.920500  0.053700  1.0  -0.929
  O  O36  1  0.844600  0.073900  0.247500  1.0  -0.6159
  O  O37  1  0.081300  0.333600  0.087400  1.0  -0.7281
  O  O38  1  0.961000  0.330600  0.245000  1.0  -0.6867
  O  O39  1  0.303100  0.518300  0.928100  1.0  -0.674
  O  O40  1  0.534000  0.672700  0.990500  1.0  -0.6332
  O  O41  1  0.396300  0.378200  0.579900  1.0  -0.6902
  O  O42  1  0.128300  0.368200  0.451600  1.0  -0.9342
  O  O43  1  0.253500  0.579500  0.553700  1.0  -0.9309
  O  O44  1  0.155400  0.426100  0.747500  1.0  -0.6158
  O  O45  1  0.918700  0.166400  0.587400  1.0  -0.7279
  O  O46  1  0.039000  0.169400  0.745000  1.0  -0.6882
  O  O47  1  0.696900  0.981700  0.428100  1.0  -0.6741
  O  O48  1  0.466000  0.827300  0.490500  1.0  -0.6325
  O  O49  1  0.396300  0.878200  0.920100  1.0  -0.6901
  O  O50  1  0.128300  0.868200  0.048400  1.0  -0.9351
  O  O51  1  0.253500  0.079500  0.946300  1.0  -0.931
  O  O52  1  0.155400  0.926100  0.752500  1.0  -0.6161
  O  O53  1  0.918700  0.666400  0.912600  1.0  -0.7279
  O  O54  1  0.039000  0.669400  0.755000  1.0  -0.6889
  O  O55  1  0.696900  0.481700  0.071900  1.0  -0.674
  O  O56  1  0.466000  0.327300  0.009500  1.0  -0.6323
  O  O57  1  0.603700  0.621800  0.420100  1.0  -0.6899
  O  O58  1  0.871700  0.631800  0.548400  1.0  -0.9353
  O  O59  1  0.746500  0.420500  0.446300  1.0  -0.9293
  O  O60  1  0.844600  0.573900  0.252500  1.0  -0.6156
  O  O61  1  0.081300  0.833600  0.412600  1.0  -0.7292
  O  O62  1  0.961000  0.830600  0.255000  1.0  -0.6878
  O  O63  1  0.303100  0.018300  0.571900  1.0  -0.6738
  O  O64  1  0.534000  0.172700  0.509500  1.0  -0.6328
