# generated using pymatgen
data_Cd5H44C52(N7O8)2
_symmetry_space_group_name_H-M   'P 1'
_cell_length_a   13.79950000
_cell_length_b   13.79950000
_cell_length_c   17.66900000
_cell_angle_alpha   98.11340000
_cell_angle_beta   98.11340000
_cell_angle_gamma   96.65950000
_symmetry_Int_Tables_number   1
_chemical_formula_structural   Cd5H44C52(N7O8)2
_chemical_formula_sum   'Cd10 H88 C104 N28 O32'
_cell_volume   3265.77236616
_cell_formula_units_Z   2
loop_
 _symmetry_equiv_pos_site_id
 _symmetry_equiv_pos_as_xyz
  1  'x, y, z'
loop_
 _atom_site_type_symbol
 _atom_site_label
 _atom_site_symmetry_multiplicity
 _atom_site_fract_x
 _atom_site_fract_y
 _atom_site_fract_z
 _atom_site_occupancy
 _atom_site_charge
  Cd  Cd1  1  0.404820  0.224960  0.799130  1.0  0.9998
  Cd  Cd2  1  0.228540  0.265920  0.927500  1.0  1.0189
  Cd  Cd3  1  0.775040  0.595180  0.700870  1.0  1.0036
  Cd  Cd4  1  0.734080  0.771460  0.572500  1.0  1.0171
  Cd  Cd5  1  0.595180  0.775040  0.200870  1.0  1.0007
  Cd  Cd6  1  0.771460  0.734080  0.072500  1.0  1.0187
  Cd  Cd7  1  0.224960  0.404820  0.299130  1.0  1.004
  Cd  Cd8  1  0.265920  0.228540  0.427500  1.0  1.0163
  Cd  Cd9  1  0.542890  0.457110  0.750000  1.0  0.8168
  Cd  Cd10  1  0.457110  0.542890  0.250000  1.0  0.816
  H  H11  1  0.914500  0.412700  0.887100  1.0  0.122
  H  H12  1  0.744300  0.399900  0.859200  1.0  0.0924
  H  H13  1  0.723300  0.105300  0.834000  1.0  0.1073
  H  H14  1  0.892900  0.118900  0.873100  1.0  0.1141
  H  H15  1  0.227100  0.902300  0.758800  1.0  0.0994
  H  H16  1  0.033400  0.095400  0.764200  1.0  0.0937
  H  H17  1  0.557800  0.144800  0.961100  1.0  0.0985
  H  H18  1  0.334600  0.962400  0.005000  1.0  0.1072
  H  H19  1  0.296600  0.152800  0.605400  1.0  0.0776
  H  H20  1  0.428900  0.394100  0.559300  1.0  0.089
  H  H21  1  0.200400  0.529200  0.966500  1.0  0.1282
  H  H22  1  0.221900  0.696500  0.964400  1.0  0.1006
  H  H23  1  0.331600  0.767000  0.895800  1.0  0.107
  H  H24  1  0.432800  0.675200  0.828200  1.0  0.1173
  H  H25  1  0.587300  0.085500  0.612900  1.0  0.1221
  H  H26  1  0.600100  0.255700  0.640800  1.0  0.0924
  H  H27  1  0.894700  0.276700  0.666000  1.0  0.108
  H  H28  1  0.881100  0.107100  0.626900  1.0  0.1149
  H  H29  1  0.097700  0.772900  0.741200  1.0  0.0987
  H  H30  1  0.904600  0.966600  0.735800  1.0  0.0943
  H  H31  1  0.855200  0.442200  0.538900  1.0  0.097
  H  H32  1  0.037600  0.665400  0.495000  1.0  0.1064
  H  H33  1  0.847200  0.703400  0.894600  1.0  0.0772
  H  H34  1  0.605900  0.571100  0.940700  1.0  0.0895
  H  H35  1  0.470800  0.799600  0.533500  1.0  0.1271
  H  H36  1  0.303500  0.778100  0.535600  1.0  0.1007
  H  H37  1  0.233000  0.668400  0.604200  1.0  0.1087
  H  H38  1  0.324800  0.567200  0.671800  1.0  0.1171
  H  H39  1  0.085500  0.587300  0.112900  1.0  0.1219
  H  H40  1  0.255700  0.600100  0.140800  1.0  0.0921
  H  H41  1  0.276700  0.894700  0.166000  1.0  0.1074
  H  H42  1  0.107100  0.881100  0.126900  1.0  0.1139
  H  H43  1  0.772900  0.097700  0.241200  1.0  0.0987
  H  H44  1  0.966600  0.904600  0.235800  1.0  0.0939
  H  H45  1  0.442200  0.855200  0.038900  1.0  0.0982
  H  H46  1  0.665400  0.037600  0.995000  1.0  0.1083
  H  H47  1  0.703400  0.847200  0.394600  1.0  0.0778
  H  H48  1  0.571100  0.605900  0.440700  1.0  0.0892
  H  H49  1  0.799600  0.470800  0.033500  1.0  0.1279
  H  H50  1  0.778100  0.303500  0.035600  1.0  0.1002
  H  H51  1  0.668400  0.233000  0.104200  1.0  0.1072
  H  H52  1  0.567200  0.324800  0.171800  1.0  0.1174
  H  H53  1  0.412700  0.914500  0.387100  1.0  0.1229
  H  H54  1  0.399900  0.744300  0.359200  1.0  0.0922
  H  H55  1  0.105300  0.723300  0.334000  1.0  0.1072
  H  H56  1  0.118900  0.892900  0.373100  1.0  0.1151
  H  H57  1  0.902300  0.227100  0.258800  1.0  0.0984
  H  H58  1  0.095400  0.033400  0.264200  1.0  0.0941
  H  H59  1  0.144800  0.557800  0.461100  1.0  0.097
  H  H60  1  0.962400  0.334600  0.505000  1.0  0.1079
  H  H61  1  0.152800  0.296600  0.105400  1.0  0.0758
  H  H62  1  0.394100  0.428900  0.059300  1.0  0.089
  H  H63  1  0.529200  0.200400  0.466500  1.0  0.1277
  H  H64  1  0.696500  0.221900  0.464400  1.0  0.1007
  H  H65  1  0.767000  0.331600  0.395800  1.0  0.1087
  H  H66  1  0.675200  0.432800  0.328200  1.0  0.1171
  H  H67  1  0.564100  0.949900  0.701800  1.0  0.1514
  H  H68  1  0.569300  0.016300  0.774400  1.0  0.1963
  H  H69  1  0.703000  0.939600  0.778800  1.0  0.1078
  H  H70  1  0.640200  0.910600  0.841600  1.0  0.1061
  H  H71  1  0.633600  0.838200  0.763700  1.0  0.1056
  H  H72  1  0.420000  0.940400  0.737600  1.0  0.1061
  H  H73  1  0.461600  0.839400  0.737400  1.0  0.0901
  H  H74  1  0.467100  0.910900  0.815600  1.0  0.0958
  H  H75  1  0.050100  0.435900  0.798200  1.0  0.1499
  H  H76  1  0.983700  0.430700  0.725600  1.0  0.1856
  H  H77  1  0.060400  0.297000  0.721200  1.0  0.1084
  H  H78  1  0.089400  0.359800  0.658400  1.0  0.1045
  H  H79  1  0.161800  0.366400  0.736300  1.0  0.1079
  H  H80  1  0.059600  0.580000  0.762400  1.0  0.1035
  H  H81  1  0.160600  0.538400  0.762600  1.0  0.0879
  H  H82  1  0.089100  0.532900  0.684400  1.0  0.0947
  H  H83  1  0.435900  0.050100  0.298200  1.0  0.1509
  H  H84  1  0.430700  0.983700  0.225600  1.0  0.1944
  H  H85  1  0.297000  0.060400  0.221200  1.0  0.1059
  H  H86  1  0.359800  0.089400  0.158400  1.0  0.1056
  H  H87  1  0.366400  0.161800  0.236300  1.0  0.1029
  H  H88  1  0.580000  0.059600  0.262400  1.0  0.1059
  H  H89  1  0.538400  0.160600  0.262600  1.0  0.0914
  H  H90  1  0.532900  0.089100  0.184400  1.0  0.0952
  H  H91  1  0.949900  0.564100  0.201800  1.0  0.1507
  H  H92  1  0.016300  0.569300  0.274400  1.0  0.1828
  H  H93  1  0.939600  0.703000  0.278800  1.0  0.1062
  H  H94  1  0.910600  0.640200  0.341600  1.0  0.1037
  H  H95  1  0.838200  0.633600  0.263700  1.0  0.1068
  H  H96  1  0.940400  0.420000  0.237600  1.0  0.1022
  H  H97  1  0.839400  0.461600  0.237400  1.0  0.0887
  H  H98  1  0.910900  0.467100  0.315600  1.0  0.0953
  C  C99  1  0.920000  0.267800  0.883800  1.0  -0.1041
  C  C100  1  0.876100  0.351100  0.878500  1.0  -0.052
  C  C101  1  0.774300  0.343100  0.860300  1.0  -0.0138
  C  C102  1  0.716500  0.250900  0.843700  1.0  -0.1338
  C  C103  1  0.761100  0.167300  0.846700  1.0  -0.0369
  C  C104  1  0.863100  0.175300  0.868600  1.0  -0.0239
  C  C105  1  0.030400  0.273800  0.902700  1.0  0.6824
  C  C106  1  0.606800  0.244200  0.820800  1.0  0.6666
  C  C107  1  0.162300  0.915700  0.756000  1.0  -0.0371
  C  C108  1  0.143100  0.012300  0.763800  1.0  -0.1355
  C  C109  1  0.046900  0.030500  0.757800  1.0  -0.028
  C  C110  1  0.228700  0.094900  0.778000  1.0  0.7062
  C  C111  1  0.434600  0.064400  0.978100  1.0  -0.1386
  C  C112  1  0.533900  0.086100  0.976500  1.0  -0.0417
  C  C113  1  0.401400  0.977800  0.002600  1.0  -0.0367
  C  C114  1  0.364700  0.135700  0.956000  1.0  0.6895
  C  C115  1  0.336500  0.213100  0.610400  1.0  0.2513
  C  C116  1  0.408200  0.343400  0.585400  1.0  0.2506
  C  C117  1  0.372700  0.542700  0.856900  1.0  0.1183
  C  C118  1  0.302600  0.500000  0.897000  1.0  0.133
  C  C119  1  0.245700  0.557100  0.938700  1.0  -0.1458
  C  C120  1  0.259100  0.656300  0.937000  1.0  -0.0581
  C  C121  1  0.326700  0.699300  0.895800  1.0  -0.0922
  C  C122  1  0.386800  0.646000  0.854900  1.0  -0.1306
  C  C123  1  0.732200  0.080000  0.616200  1.0  -0.1062
  C  C124  1  0.648900  0.123900  0.621500  1.0  -0.0483
  C  C125  1  0.656900  0.225700  0.639700  1.0  -0.0155
  C  C126  1  0.749100  0.283500  0.656300  1.0  -0.135
  C  C127  1  0.832700  0.238900  0.653300  1.0  -0.0369
  C  C128  1  0.824700  0.136900  0.631400  1.0  -0.0213
  C  C129  1  0.726200  0.969600  0.597300  1.0  0.6799
  C  C130  1  0.755800  0.393200  0.679200  1.0  0.67
  C  C131  1  0.084300  0.837700  0.744000  1.0  -0.036
  C  C132  1  0.987700  0.856900  0.736200  1.0  -0.1365
  C  C133  1  0.969500  0.953100  0.742200  1.0  -0.026
  C  C134  1  0.905100  0.771300  0.722000  1.0  0.7062
  C  C135  1  0.935600  0.565400  0.521900  1.0  -0.1403
  C  C136  1  0.913900  0.466100  0.523500  1.0  -0.0406
  C  C137  1  0.022200  0.598600  0.497400  1.0  -0.0401
  C  C138  1  0.864300  0.635300  0.544000  1.0  0.6879
  C  C139  1  0.786900  0.663500  0.889600  1.0  0.2511
  C  C140  1  0.656600  0.591800  0.914600  1.0  0.2523
  C  C141  1  0.457300  0.627300  0.643100  1.0  0.1209
  C  C142  1  0.500000  0.697400  0.603000  1.0  0.1326
  C  C143  1  0.442900  0.754300  0.561300  1.0  -0.1482
  C  C144  1  0.343700  0.740900  0.563000  1.0  -0.0583
  C  C145  1  0.300700  0.673300  0.604200  1.0  -0.0967
  C  C146  1  0.354000  0.613200  0.645100  1.0  -0.1299
  C  C147  1  0.080000  0.732200  0.116200  1.0  -0.1079
  C  C148  1  0.123900  0.648900  0.121500  1.0  -0.0503
  C  C149  1  0.225700  0.656900  0.139700  1.0  -0.0146
  C  C150  1  0.283500  0.749100  0.156300  1.0  -0.1329
  C  C151  1  0.238900  0.832700  0.153300  1.0  -0.0365
  C  C152  1  0.136900  0.824700  0.131400  1.0  -0.0192
  C  C153  1  0.969600  0.726200  0.097300  1.0  0.6783
  C  C154  1  0.393200  0.755800  0.179200  1.0  0.668
  C  C155  1  0.837700  0.084300  0.244000  1.0  -0.0378
  C  C156  1  0.856900  0.987700  0.236200  1.0  -0.1344
  C  C157  1  0.953100  0.969500  0.242200  1.0  -0.0274
  C  C158  1  0.771300  0.905100  0.222000  1.0  0.7062
  C  C159  1  0.565400  0.935600  0.021900  1.0  -0.139
  C  C160  1  0.466100  0.913900  0.023500  1.0  -0.0408
  C  C161  1  0.598600  0.022200  0.997400  1.0  -0.0404
  C  C162  1  0.635300  0.864300  0.044000  1.0  0.6892
  C  C163  1  0.663500  0.786900  0.389600  1.0  0.2496
  C  C164  1  0.591800  0.656600  0.414600  1.0  0.2511
  C  C165  1  0.627300  0.457300  0.143100  1.0  0.1187
  C  C166  1  0.697400  0.500000  0.103000  1.0  0.1323
  C  C167  1  0.754300  0.442900  0.061300  1.0  -0.1461
  C  C168  1  0.740900  0.343700  0.063000  1.0  -0.0588
  C  C169  1  0.673300  0.300700  0.104200  1.0  -0.0943
  C  C170  1  0.613200  0.354000  0.145100  1.0  -0.1291
  C  C171  1  0.267800  0.920000  0.383800  1.0  -0.104
  C  C172  1  0.351100  0.876100  0.378500  1.0  -0.0505
  C  C173  1  0.343100  0.774300  0.360300  1.0  -0.0163
  C  C174  1  0.250900  0.716500  0.343700  1.0  -0.1356
  C  C175  1  0.167300  0.761100  0.346700  1.0  -0.037
  C  C176  1  0.175300  0.863100  0.368600  1.0  -0.0211
  C  C177  1  0.273800  0.030400  0.402700  1.0  0.6807
  C  C178  1  0.244200  0.606800  0.320800  1.0  0.6702
  C  C179  1  0.915700  0.162300  0.256000  1.0  -0.0372
  C  C180  1  0.012300  0.143100  0.263800  1.0  -0.1384
  C  C181  1  0.030500  0.046900  0.257800  1.0  -0.026
  C  C182  1  0.094900  0.228700  0.278000  1.0  0.7054
  C  C183  1  0.064400  0.434600  0.478100  1.0  -0.1391
  C  C184  1  0.086100  0.533900  0.476500  1.0  -0.0428
  C  C185  1  0.977800  0.401400  0.502600  1.0  -0.0388
  C  C186  1  0.135700  0.364700  0.456000  1.0  0.6893
  C  C187  1  0.213100  0.336500  0.110400  1.0  0.2517
  C  C188  1  0.343400  0.408200  0.085400  1.0  0.2525
  C  C189  1  0.542700  0.372700  0.356900  1.0  0.1187
  C  C190  1  0.500000  0.302600  0.397000  1.0  0.1331
  C  C191  1  0.557100  0.245700  0.438700  1.0  -0.149
  C  C192  1  0.656300  0.259100  0.437000  1.0  -0.0582
  C  C193  1  0.699300  0.326700  0.395800  1.0  -0.0951
  C  C194  1  0.646000  0.386800  0.354900  1.0  -0.1326
  C  C195  1  0.641200  0.906400  0.787100  1.0  -0.1797
  C  C196  1  0.470800  0.907400  0.761500  1.0  -0.1729
  C  C197  1  0.093600  0.358800  0.712900  1.0  -0.1808
  C  C198  1  0.092600  0.529200  0.738500  1.0  -0.1665
  C  C199  1  0.358800  0.093600  0.212900  1.0  -0.1821
  C  C200  1  0.529200  0.092600  0.238500  1.0  -0.1682
  C  C201  1  0.906400  0.641200  0.287100  1.0  -0.18
  C  C202  1  0.907400  0.470800  0.261500  1.0  -0.1676
  N  N203  1  0.438800  0.343600  0.659000  1.0  -0.2365
  N  N204  1  0.391000  0.257800  0.676000  1.0  -0.2746
  N  N205  1  0.344300  0.263700  0.551100  1.0  -0.4379
  N  N206  1  0.415900  0.470100  0.822800  1.0  -0.2724
  N  N207  1  0.372800  0.384800  0.841400  1.0  -0.1336
  N  N208  1  0.306100  0.400900  0.885800  1.0  -0.2127
  N  N209  1  0.656400  0.561200  0.841000  1.0  -0.236
  N  N210  1  0.742200  0.609000  0.824000  1.0  -0.2746
  N  N211  1  0.736300  0.655700  0.948900  1.0  -0.4383
  N  N212  1  0.529900  0.584100  0.677200  1.0  -0.2718
  N  N213  1  0.615200  0.627200  0.658600  1.0  -0.1342
  N  N214  1  0.599100  0.693900  0.614200  1.0  -0.2158
  N  N215  1  0.561200  0.656400  0.341000  1.0  -0.2382
  N  N216  1  0.609000  0.742200  0.324000  1.0  -0.2742
  N  N217  1  0.655700  0.736300  0.448900  1.0  -0.4375
  N  N218  1  0.584100  0.529900  0.177200  1.0  -0.2733
  N  N219  1  0.627200  0.615200  0.158600  1.0  -0.1342
  N  N220  1  0.693900  0.599100  0.114200  1.0  -0.2158
  N  N221  1  0.343600  0.438800  0.159000  1.0  -0.2347
  N  N222  1  0.257800  0.391000  0.176000  1.0  -0.2746
  N  N223  1  0.263700  0.344300  0.051100  1.0  -0.4388
  N  N224  1  0.470100  0.415900  0.322800  1.0  -0.2705
  N  N225  1  0.384800  0.372800  0.341400  1.0  -0.1338
  N  N226  1  0.400900  0.306100  0.385800  1.0  -0.2146
  N  N227  1  0.561600  0.952200  0.752600  1.0  -0.0815
  N  N228  1  0.047800  0.438400  0.747400  1.0  -0.0821
  N  N229  1  0.438400  0.047800  0.247400  1.0  -0.0845
  N  N230  1  0.952200  0.561600  0.252600  1.0  -0.0802
  O  O231  1  0.794800  0.933600  0.570800  1.0  -0.6026
  O  O232  1  0.653000  0.918200  0.611400  1.0  -0.5865
  O  O233  1  0.556200  0.159600  0.808000  1.0  -0.6207
  O  O234  1  0.569400  0.322200  0.817000  1.0  -0.6858
  O  O235  1  0.213400  0.183000  0.796800  1.0  -0.7217
  O  O236  1  0.313100  0.072700  0.767300  1.0  -0.6015
  O  O237  1  0.276500  0.118700  0.965600  1.0  -0.6046
  O  O238  1  0.397030  0.210770  0.928800  1.0  -0.6928
  O  O239  1  0.066400  0.205200  0.929200  1.0  -0.6011
  O  O240  1  0.081800  0.347000  0.888600  1.0  -0.5873
  O  O241  1  0.840400  0.443800  0.692000  1.0  -0.6218
  O  O242  1  0.677800  0.430600  0.683000  1.0  -0.6858
  O  O243  1  0.817000  0.786600  0.703200  1.0  -0.7233
  O  O244  1  0.927300  0.686900  0.732700  1.0  -0.6
  O  O245  1  0.881300  0.723500  0.534400  1.0  -0.5981
  O  O246  1  0.789230  0.602970  0.571200  1.0  -0.6933
  O  O247  1  0.205200  0.066400  0.429200  1.0  -0.603
  O  O248  1  0.347000  0.081800  0.388600  1.0  -0.5875
  O  O249  1  0.443800  0.840400  0.192000  1.0  -0.6206
  O  O250  1  0.430600  0.677800  0.183000  1.0  -0.6863
  O  O251  1  0.786600  0.817000  0.203200  1.0  -0.7222
  O  O252  1  0.686900  0.927300  0.232700  1.0  -0.6005
  O  O253  1  0.723500  0.881300  0.034400  1.0  -0.6033
  O  O254  1  0.602970  0.789230  0.071200  1.0  -0.6927
  O  O255  1  0.933600  0.794800  0.070800  1.0  -0.6003
  O  O256  1  0.918200  0.653000  0.111400  1.0  -0.5869
  O  O257  1  0.159600  0.556200  0.308000  1.0  -0.6224
  O  O258  1  0.322200  0.569400  0.317000  1.0  -0.6865
  O  O259  1  0.183000  0.213400  0.296800  1.0  -0.7245
  O  O260  1  0.072700  0.313100  0.267300  1.0  -0.601
  O  O261  1  0.118700  0.276500  0.465600  1.0  -0.5954
  O  O262  1  0.210770  0.397030  0.428800  1.0  -0.6918
