# generated using pymatgen
data_MnH10C14(NO2)2
_symmetry_space_group_name_H-M   'P 1'
_cell_length_a   8.64800000
_cell_length_b   11.66120000
_cell_length_c   18.49300000
_cell_angle_alpha   102.03700000
_cell_angle_beta   90.00000000
_cell_angle_gamma   90.00000000
_symmetry_Int_Tables_number   1
_chemical_formula_structural   MnH10C14(NO2)2
_chemical_formula_sum   'Mn4 H40 C56 N8 O16'
_cell_volume   1823.94182090
_cell_formula_units_Z   4
loop_
 _symmetry_equiv_pos_site_id
 _symmetry_equiv_pos_as_xyz
  1  'x, y, z'
loop_
 _atom_site_type_symbol
 _atom_site_label
 _atom_site_symmetry_multiplicity
 _atom_site_fract_x
 _atom_site_fract_y
 _atom_site_fract_z
 _atom_site_occupancy
 _atom_site_charge
  Mn  Mn1  1  0.793780  0.941630  0.165800  1.0  1.0163
  Mn  Mn2  1  0.293780  0.058370  0.334200  1.0  1.0162
  Mn  Mn3  1  0.206220  0.058370  0.834200  1.0  1.0164
  Mn  Mn4  1  0.706220  0.941630  0.665800  1.0  1.0165
  H  H5  1  0.651000  0.880000  0.886000  1.0  0.091
  H  H6  1  0.908000  0.017000  0.937000  1.0  0.1182
  H  H7  1  0.638000  0.703000  0.096200  1.0  0.0891
  H  H8  1  0.638000  0.509000  0.097600  1.0  0.1377
  H  H9  1  0.970000  0.564000  0.243000  1.0  0.1162
  H  H10  1  0.967000  0.752000  0.240000  1.0  0.0728
  H  H11  1  0.650000  0.128000  0.078000  1.0  0.0969
  H  H12  1  0.645000  0.325000  0.083600  1.0  0.1211
  H  H13  1  0.950000  0.372000  0.249600  1.0  0.1096
  H  H14  1  0.947000  0.175000  0.248000  1.0  0.0827
  H  H15  1  0.151000  0.120000  0.614000  1.0  0.0907
  H  H16  1  0.408000  0.983000  0.563000  1.0  0.1179
  H  H17  1  0.138000  0.297000  0.403800  1.0  0.089
  H  H18  1  0.138000  0.491000  0.402400  1.0  0.1394
  H  H19  1  0.470000  0.436000  0.257000  1.0  0.1155
  H  H20  1  0.467000  0.248000  0.260000  1.0  0.073
  H  H21  1  0.150000  0.872000  0.422000  1.0  0.0962
  H  H22  1  0.145000  0.675000  0.416400  1.0  0.1213
  H  H23  1  0.450000  0.628000  0.250400  1.0  0.1097
  H  H24  1  0.447000  0.825000  0.252000  1.0  0.082
  H  H25  1  0.349000  0.120000  0.114000  1.0  0.0909
  H  H26  1  0.092000  0.983000  0.063000  1.0  0.1175
  H  H27  1  0.362000  0.297000  0.903800  1.0  0.0895
  H  H28  1  0.362000  0.491000  0.902400  1.0  0.1405
  H  H29  1  0.030000  0.436000  0.757000  1.0  0.1166
  H  H30  1  0.033000  0.248000  0.760000  1.0  0.0728
  H  H31  1  0.350000  0.872000  0.922000  1.0  0.0962
  H  H32  1  0.355000  0.675000  0.916400  1.0  0.1221
  H  H33  1  0.050000  0.628000  0.750400  1.0  0.1102
  H  H34  1  0.053000  0.825000  0.752000  1.0  0.0822
  H  H35  1  0.849000  0.880000  0.386000  1.0  0.0912
  H  H36  1  0.592000  0.017000  0.437000  1.0  0.1177
  H  H37  1  0.862000  0.703000  0.596200  1.0  0.0894
  H  H38  1  0.862000  0.509000  0.597600  1.0  0.1378
  H  H39  1  0.530000  0.564000  0.743000  1.0  0.1165
  H  H40  1  0.533000  0.752000  0.740000  1.0  0.0729
  H  H41  1  0.850000  0.128000  0.578000  1.0  0.0969
  H  H42  1  0.855000  0.325000  0.583600  1.0  0.1215
  H  H43  1  0.550000  0.372000  0.749600  1.0  0.1103
  H  H44  1  0.553000  0.175000  0.748000  1.0  0.0827
  C  C45  1  0.695900  0.886300  0.998000  1.0  0.6908
  C  C46  1  0.724200  0.909600  0.923120  1.0  -0.1502
  C  C47  1  0.833000  0.976600  0.904400  1.0  -0.2159
  C  C48  1  0.842800  0.003500  0.828920  1.0  0.7022
  C  C49  1  0.707600  0.672700  0.126900  1.0  0.1578
  C  C50  1  0.702500  0.554700  0.126100  1.0  -0.1824
  C  C51  1  0.801500  0.506500  0.169580  1.0  0.0808
  C  C52  1  0.900500  0.584000  0.213900  1.0  -0.1811
  C  C53  1  0.898700  0.701200  0.211100  1.0  0.1897
  C  C54  1  0.713500  0.182600  0.119300  1.0  0.1443
  C  C55  1  0.709800  0.299900  0.119300  1.0  -0.1851
  C  C56  1  0.800800  0.378600  0.168310  1.0  0.0755
  C  C57  1  0.890700  0.329600  0.215700  1.0  -0.1734
  C  C58  1  0.886900  0.210700  0.213300  1.0  0.1588
  C  C59  1  0.195900  0.113700  0.502000  1.0  0.6924
  C  C60  1  0.224200  0.090400  0.576880  1.0  -0.1511
  C  C61  1  0.333000  0.023400  0.595600  1.0  -0.2157
  C  C62  1  0.342800  0.996500  0.671080  1.0  0.7016
  C  C63  1  0.207600  0.327300  0.373100  1.0  0.158
  C  C64  1  0.202500  0.445300  0.373900  1.0  -0.1815
  C  C65  1  0.301500  0.493500  0.330420  1.0  0.0813
  C  C66  1  0.400500  0.416000  0.286100  1.0  -0.1824
  C  C67  1  0.398700  0.298800  0.288900  1.0  0.1894
  C  C68  1  0.213500  0.817400  0.380700  1.0  0.1465
  C  C69  1  0.209800  0.700100  0.380700  1.0  -0.1858
  C  C70  1  0.300800  0.621400  0.331690  1.0  0.0752
  C  C71  1  0.390700  0.670400  0.284300  1.0  -0.1738
  C  C72  1  0.386900  0.789300  0.286700  1.0  0.1589
  C  C73  1  0.304100  0.113700  0.002000  1.0  0.6917
  C  C74  1  0.275800  0.090400  0.076880  1.0  -0.1506
  C  C75  1  0.167000  0.023400  0.095600  1.0  -0.216
  C  C76  1  0.157200  0.996500  0.171080  1.0  0.7018
  C  C77  1  0.292400  0.327300  0.873100  1.0  0.158
  C  C78  1  0.297500  0.445300  0.873900  1.0  -0.1811
  C  C79  1  0.198500  0.493500  0.830420  1.0  0.082
  C  C80  1  0.099500  0.416000  0.786100  1.0  -0.1812
  C  C81  1  0.101300  0.298800  0.788900  1.0  0.1896
  C  C82  1  0.286500  0.817400  0.880700  1.0  0.1472
  C  C83  1  0.290200  0.700100  0.880700  1.0  -0.1857
  C  C84  1  0.199200  0.621400  0.831690  1.0  0.0749
  C  C85  1  0.109300  0.670400  0.784300  1.0  -0.1738
  C  C86  1  0.113100  0.789300  0.786700  1.0  0.1585
  C  C87  1  0.804100  0.886300  0.498000  1.0  0.6905
  C  C88  1  0.775800  0.909600  0.423120  1.0  -0.1499
  C  C89  1  0.667000  0.976600  0.404400  1.0  -0.2164
  C  C90  1  0.657200  0.003500  0.328920  1.0  0.7021
  C  C91  1  0.792400  0.672700  0.626900  1.0  0.1579
  C  C92  1  0.797500  0.554700  0.626100  1.0  -0.1825
  C  C93  1  0.698500  0.506500  0.669580  1.0  0.0814
  C  C94  1  0.599500  0.584000  0.713900  1.0  -0.1803
  C  C95  1  0.601300  0.701200  0.711100  1.0  0.1895
  C  C96  1  0.786500  0.182600  0.619300  1.0  0.1448
  C  C97  1  0.790200  0.299900  0.619300  1.0  -0.1848
  C  C98  1  0.699200  0.378600  0.668310  1.0  0.0749
  C  C99  1  0.609300  0.329600  0.715700  1.0  -0.174
  C  C100  1  0.613100  0.210700  0.713300  1.0  0.1585
  N  N101  1  0.803400  0.746900  0.168120  1.0  -0.3456
  N  N102  1  0.798900  0.136900  0.166160  1.0  -0.3357
  N  N103  1  0.303400  0.253100  0.331880  1.0  -0.3455
  N  N104  1  0.298900  0.863100  0.333840  1.0  -0.3345
  N  N105  1  0.196600  0.253100  0.831880  1.0  -0.3458
  N  N106  1  0.201100  0.863100  0.833840  1.0  -0.3347
  N  N107  1  0.696600  0.746900  0.668120  1.0  -0.3458
  N  N108  1  0.701100  0.136900  0.666160  1.0  -0.3358
  O  O109  1  0.802500  0.908660  0.046010  1.0  -0.64
  O  O110  1  0.565600  0.845900  0.008910  1.0  -0.6018
  O  O111  1  0.729600  0.975770  0.785890  1.0  -0.6251
  O  O112  1  0.962600  0.052790  0.812150  1.0  -0.6169
  O  O113  1  0.302500  0.091340  0.453990  1.0  -0.6407
  O  O114  1  0.065600  0.154100  0.491090  1.0  -0.6026
  O  O115  1  0.229600  0.024230  0.714110  1.0  -0.6242
  O  O116  1  0.462600  0.947210  0.687850  1.0  -0.6168
  O  O117  1  0.197500  0.091340  0.953990  1.0  -0.6405
  O  O118  1  0.434400  0.154100  0.991090  1.0  -0.6046
  O  O119  1  0.270400  0.024230  0.214110  1.0  -0.6243
  O  O120  1  0.037400  0.947210  0.187850  1.0  -0.6167
  O  O121  1  0.697500  0.908660  0.546010  1.0  -0.6398
  O  O122  1  0.934400  0.845900  0.508910  1.0  -0.6039
  O  O123  1  0.770400  0.975770  0.285890  1.0  -0.6251
  O  O124  1  0.537400  0.052790  0.312150  1.0  -0.6166
