# generated using pymatgen
data_InH28(C5O2)4
_symmetry_space_group_name_H-M   'P 1'
_cell_length_a   12.87080000
_cell_length_b   12.87080000
_cell_length_c   17.24330000
_cell_angle_alpha   90.00000000
_cell_angle_beta   90.00000000
_cell_angle_gamma   120.00000000
_symmetry_Int_Tables_number   1
_chemical_formula_structural   InH28(C5O2)4
_chemical_formula_sum   'In3 H84 C60 O24'
_cell_volume   2473.78584135
_cell_formula_units_Z   3
loop_
 _symmetry_equiv_pos_site_id
 _symmetry_equiv_pos_as_xyz
  1  'x, y, z'
loop_
 _atom_site_type_symbol
 _atom_site_label
 _atom_site_symmetry_multiplicity
 _atom_site_fract_x
 _atom_site_fract_y
 _atom_site_fract_z
 _atom_site_occupancy
 _atom_site_charge
  In  In1  1  0.624700  0.624700  0.000000  1.0  1.4915
  In  In2  1  0.375300  0.000000  0.333333  1.0  1.4952
  In  In3  1  0.000000  0.375300  0.666667  1.0  1.4929
  H  H4  1  0.448000  0.026900  0.069600  1.0  0.1091
  H  H5  1  0.647600  0.160200  0.082000  1.0  0.0982
  H  H6  1  0.666900  0.080300  0.143200  1.0  0.1028
  H  H7  1  0.720500  0.009500  0.049600  1.0  0.0973
  H  H8  1  0.681200  0.073400  0.988200  1.0  0.0999
  H  H9  1  0.539700  0.922600  0.895300  1.0  0.13
  H  H10  1  0.468200  0.970900  0.942000  1.0  0.122
  H  H11  1  0.413200  0.832600  0.929600  1.0  0.1193
  H  H12  1  0.276400  0.777700  0.112400  1.0  0.1278
  H  H13  1  0.307600  0.714800  0.045900  1.0  0.1189
  H  H14  1  0.299000  0.829700  0.028000  1.0  0.1096
  H  H15  1  0.577000  0.860500  0.161900  1.0  0.1297
  H  H16  1  0.475700  0.734900  0.132700  1.0  0.1347
  H  H17  1  0.446400  0.805800  0.194500  1.0  0.1349
  H  H18  1  0.973100  0.421100  0.402930  1.0  0.108
  H  H19  1  0.839800  0.487400  0.415330  1.0  0.1032
  H  H20  1  0.919700  0.586600  0.476530  1.0  0.1031
  H  H21  1  0.990500  0.711000  0.382930  1.0  0.1027
  H  H22  1  0.926600  0.607800  0.321530  1.0  0.0978
  H  H23  1  0.077400  0.617100  0.228630  1.0  0.1301
  H  H24  1  0.029100  0.497300  0.275330  1.0  0.1229
  H  H25  1  0.167400  0.580600  0.262930  1.0  0.1203
  H  H26  1  0.222300  0.498700  0.445730  1.0  0.1272
  H  H27  1  0.285200  0.592800  0.379230  1.0  0.1196
  H  H28  1  0.170300  0.469300  0.361330  1.0  0.1099
  H  H29  1  0.139500  0.716500  0.495230  1.0  0.1285
  H  H30  1  0.265100  0.740800  0.466030  1.0  0.1307
  H  H31  1  0.194200  0.640600  0.527830  1.0  0.1337
  H  H32  1  0.578900  0.552000  0.736270  1.0  0.1098
  H  H33  1  0.512600  0.352400  0.748670  1.0  0.0955
  H  H34  1  0.413400  0.333100  0.809870  1.0  0.104
  H  H35  1  0.289000  0.279500  0.716270  1.0  0.1003
  H  H36  1  0.392200  0.318800  0.654870  1.0  0.0987
  H  H37  1  0.382900  0.460300  0.561970  1.0  0.1306
  H  H38  1  0.502700  0.531800  0.608670  1.0  0.1255
  H  H39  1  0.419400  0.586800  0.596270  1.0  0.1202
  H  H40  1  0.501300  0.723600  0.779070  1.0  0.1265
  H  H41  1  0.407200  0.692400  0.712570  1.0  0.1208
  H  H42  1  0.530700  0.701000  0.694670  1.0  0.1102
  H  H43  1  0.283500  0.423000  0.828570  1.0  0.1317
  H  H44  1  0.259200  0.524300  0.799370  1.0  0.1341
  H  H45  1  0.359400  0.553600  0.861170  1.0  0.134
  H  H46  1  0.026900  0.448000  0.930400  1.0  0.1104
  H  H47  1  0.160200  0.647600  0.918000  1.0  0.0957
  H  H48  1  0.080300  0.666900  0.856800  1.0  0.1038
  H  H49  1  0.009500  0.720500  0.950400  1.0  0.1028
  H  H50  1  0.073400  0.681200  0.011800  1.0  0.0979
  H  H51  1  0.922600  0.539700  0.104700  1.0  0.1315
  H  H52  1  0.970900  0.468200  0.058000  1.0  0.1251
  H  H53  1  0.832600  0.413200  0.070400  1.0  0.1209
  H  H54  1  0.777700  0.276400  0.887600  1.0  0.1262
  H  H55  1  0.714800  0.307600  0.954100  1.0  0.1204
  H  H56  1  0.829700  0.299000  0.972000  1.0  0.1104
  H  H57  1  0.860500  0.577000  0.838100  1.0  0.13
  H  H58  1  0.734900  0.475700  0.867300  1.0  0.1342
  H  H59  1  0.805800  0.446400  0.805500  1.0  0.1338
  H  H60  1  0.421100  0.973100  0.597070  1.0  0.1105
  H  H61  1  0.487400  0.839800  0.584670  1.0  0.0967
  H  H62  1  0.586600  0.919700  0.523470  1.0  0.1029
  H  H63  1  0.711000  0.990500  0.617070  1.0  0.0969
  H  H64  1  0.607800  0.926600  0.678470  1.0  0.0993
  H  H65  1  0.617100  0.077400  0.771370  1.0  0.1311
  H  H66  1  0.497300  0.029100  0.724670  1.0  0.1235
  H  H67  1  0.580600  0.167400  0.737070  1.0  0.1205
  H  H68  1  0.498700  0.222300  0.554270  1.0  0.1267
  H  H69  1  0.592800  0.285200  0.620770  1.0  0.1206
  H  H70  1  0.469300  0.170300  0.638670  1.0  0.1092
  H  H71  1  0.716500  0.139500  0.504770  1.0  0.1292
  H  H72  1  0.740800  0.265100  0.533970  1.0  0.1325
  H  H73  1  0.640600  0.194200  0.472170  1.0  0.1351
  H  H74  1  0.552000  0.578900  0.263730  1.0  0.111
  H  H75  1  0.352400  0.512600  0.251330  1.0  0.1017
  H  H76  1  0.333100  0.413400  0.190130  1.0  0.1022
  H  H77  1  0.279500  0.289000  0.283730  1.0  0.099
  H  H78  1  0.318800  0.392200  0.345130  1.0  0.0974
  H  H79  1  0.460300  0.382900  0.438030  1.0  0.132
  H  H80  1  0.531800  0.502700  0.391330  1.0  0.1229
  H  H81  1  0.586800  0.419400  0.403730  1.0  0.1198
  H  H82  1  0.723600  0.501300  0.220930  1.0  0.1271
  H  H83  1  0.692400  0.407200  0.287430  1.0  0.1206
  H  H84  1  0.701000  0.530700  0.305330  1.0  0.1101
  H  H85  1  0.423000  0.283500  0.171430  1.0  0.129
  H  H86  1  0.524300  0.259200  0.200630  1.0  0.1305
  H  H87  1  0.553600  0.359400  0.138830  1.0  0.1332
  C  C88  1  0.544600  0.899600  0.012400  1.0  0.0388
  C  C89  1  0.463100  0.873800  0.085100  1.0  0.1598
  C  C90  1  0.488700  0.001300  0.106500  1.0  -0.1587
  C  C91  1  0.625400  0.078600  0.095800  1.0  -0.1004
  C  C92  1  0.655100  0.021600  0.033400  1.0  -0.1671
  C  C93  1  0.486100  0.907100  0.938000  1.0  -0.3425
  C  C94  1  0.322300  0.790600  0.065900  1.0  -0.3643
  C  C95  1  0.493300  0.813200  0.149400  1.0  -0.364
  C  C96  1  0.574600  0.799500  0.001300  1.0  0.6324
  C  C97  1  0.446000  0.004500  0.189300  1.0  0.6505
  C  C98  1  0.100400  0.645000  0.345730  1.0  0.0403
  C  C99  1  0.126200  0.589300  0.418430  1.0  0.1598
  C  C100  1  0.998700  0.487400  0.439830  1.0  -0.1505
  C  C101  1  0.921400  0.546800  0.429130  1.0  -0.0952
  C  C102  1  0.978400  0.633500  0.366730  1.0  -0.1658
  C  C103  1  0.092900  0.579000  0.271330  1.0  -0.3417
  C  C104  1  0.209400  0.531700  0.399230  1.0  -0.362
  C  C105  1  0.186800  0.680100  0.482730  1.0  -0.3614
  C  C106  1  0.200500  0.775100  0.334630  1.0  0.6311
  C  C107  1  0.995500  0.441500  0.522630  1.0  0.6519
  C  C108  1  0.355000  0.455400  0.679070  1.0  0.0388
  C  C109  1  0.410700  0.536900  0.751770  1.0  0.16
  C  C110  1  0.512600  0.511300  0.773170  1.0  -0.1552
  C  C111  1  0.453200  0.374600  0.762470  1.0  -0.1022
  C  C112  1  0.366500  0.344900  0.700070  1.0  -0.1649
  C  C113  1  0.421000  0.513900  0.604670  1.0  -0.3429
  C  C114  1  0.468300  0.677700  0.732570  1.0  -0.3632
  C  C115  1  0.319900  0.506700  0.816070  1.0  -0.3655
  C  C116  1  0.224900  0.425400  0.667970  1.0  0.6282
  C  C117  1  0.558500  0.554000  0.855970  1.0  0.6521
  C  C118  1  0.899600  0.544600  0.987600  1.0  0.0406
  C  C119  1  0.873800  0.463100  0.914900  1.0  0.1608
  C  C120  1  0.001300  0.488700  0.893500  1.0  -0.1545
  C  C121  1  0.078600  0.625400  0.904200  1.0  -0.1037
  C  C122  1  0.021600  0.655100  0.966600  1.0  -0.1661
  C  C123  1  0.907100  0.486100  0.062000  1.0  -0.3436
  C  C124  1  0.790600  0.322300  0.934100  1.0  -0.363
  C  C125  1  0.813200  0.493300  0.850600  1.0  -0.3631
  C  C126  1  0.799500  0.574600  0.998700  1.0  0.6289
  C  C127  1  0.004500  0.446000  0.810700  1.0  0.6533
  C  C128  1  0.645000  0.100400  0.654270  1.0  0.0415
  C  C129  1  0.589300  0.126200  0.581570  1.0  0.1601
  C  C130  1  0.487400  0.998700  0.560170  1.0  -0.1574
  C  C131  1  0.546800  0.921400  0.570870  1.0  -0.1004
  C  C132  1  0.633500  0.978400  0.633270  1.0  -0.166
  C  C133  1  0.579000  0.092900  0.728670  1.0  -0.3436
  C  C134  1  0.531700  0.209400  0.600770  1.0  -0.3653
  C  C135  1  0.680100  0.186800  0.517270  1.0  -0.3625
  C  C136  1  0.775100  0.200500  0.665370  1.0  0.6317
  C  C137  1  0.441500  0.995500  0.477370  1.0  0.6522
  C  C138  1  0.455400  0.355000  0.320930  1.0  0.0409
  C  C139  1  0.536900  0.410700  0.248230  1.0  0.1601
  C  C140  1  0.511300  0.512600  0.226830  1.0  -0.1541
  C  C141  1  0.374600  0.453200  0.237530  1.0  -0.0953
  C  C142  1  0.344900  0.366500  0.299930  1.0  -0.1639
  C  C143  1  0.513900  0.421000  0.395330  1.0  -0.3424
  C  C144  1  0.677700  0.468300  0.267430  1.0  -0.3623
  C  C145  1  0.506700  0.319900  0.183930  1.0  -0.3607
  C  C146  1  0.425400  0.224900  0.332030  1.0  0.628
  C  C147  1  0.554000  0.558500  0.144030  1.0  0.6551
  O  O148  1  0.680800  0.819500  0.010500  1.0  -0.6225
  O  O149  1  0.492300  0.696400  0.984900  1.0  -0.5782
  O  O150  1  0.340200  0.983700  0.199500  1.0  -0.5862
  O  O151  1  0.513500  0.024000  0.245600  1.0  -0.5836
  O  O152  1  0.180500  0.861300  0.343830  1.0  -0.6304
  O  O153  1  0.303600  0.795900  0.318230  1.0  -0.577
  O  O154  1  0.016300  0.356500  0.532830  1.0  -0.5913
  O  O155  1  0.976000  0.489500  0.578930  1.0  -0.5824
  O  O156  1  0.138700  0.319200  0.677170  1.0  -0.6312
  O  O157  1  0.204100  0.507700  0.651570  1.0  -0.5765
  O  O158  1  0.643500  0.659800  0.866170  1.0  -0.5912
  O  O159  1  0.510500  0.486500  0.912270  1.0  -0.583
  O  O160  1  0.819500  0.680800  0.989500  1.0  -0.6304
  O  O161  1  0.696400  0.492300  0.015100  1.0  -0.5764
  O  O162  1  0.983700  0.340200  0.800500  1.0  -0.5948
  O  O163  1  0.024000  0.513500  0.754400  1.0  -0.5816
  O  O164  1  0.861300  0.180500  0.656170  1.0  -0.624
  O  O165  1  0.795900  0.303600  0.681770  1.0  -0.5779
  O  O166  1  0.356500  0.016300  0.467170  1.0  -0.5868
  O  O167  1  0.489500  0.976000  0.421070  1.0  -0.583
  O  O168  1  0.319200  0.138700  0.322830  1.0  -0.6307
  O  O169  1  0.507700  0.204100  0.348430  1.0  -0.5774
  O  O170  1  0.659800  0.643500  0.133830  1.0  -0.5906
  O  O171  1  0.486500  0.510500  0.087730  1.0  -0.5819
