# generated using pymatgen
data_K2FeH24C26(NO2)5
_symmetry_space_group_name_H-M   'P 1'
_cell_length_a   12.22340000
_cell_length_b   18.18400000
_cell_length_c   18.25600000
_cell_angle_alpha   103.43800000
_cell_angle_beta   90.00000000
_cell_angle_gamma   90.00000000
_symmetry_Int_Tables_number   1
_chemical_formula_structural   K2FeH24C26(NO2)5
_chemical_formula_sum   'K8 Fe4 H96 C104 N20 O40'
_cell_volume   3946.67301320
_cell_formula_units_Z   4
loop_
 _symmetry_equiv_pos_site_id
 _symmetry_equiv_pos_as_xyz
  1  'x, y, z'
loop_
 _atom_site_type_symbol
 _atom_site_label
 _atom_site_symmetry_multiplicity
 _atom_site_fract_x
 _atom_site_fract_y
 _atom_site_fract_z
 _atom_site_occupancy
 _atom_site_charge
  K  K1  1  0.467280  0.702170  0.860130  1.0  0.9563
  K  K2  1  0.946430  0.898680  0.476350  1.0  0.9484
  K  K3  1  0.967280  0.297830  0.639870  1.0  0.9543
  K  K4  1  0.446430  0.101320  0.023650  1.0  0.9447
  K  K5  1  0.532720  0.297830  0.139870  1.0  0.9524
  K  K6  1  0.053570  0.101320  0.523650  1.0  0.9457
  K  K7  1  0.032720  0.702170  0.360130  1.0  0.9543
  K  K8  1  0.553570  0.898680  0.976350  1.0  0.9491
  Fe  Fe9  1  0.916370  0.733450  0.564670  1.0  1.0541
  Fe  Fe10  1  0.416370  0.266550  0.935330  1.0  1.0574
  Fe  Fe11  1  0.083630  0.266550  0.435330  1.0  1.057
  Fe  Fe12  1  0.583630  0.733450  0.064670  1.0  1.0538
  H  H13  1  0.821500  0.764400  0.763600  1.0  0.2717
  H  H14  1  0.083300  0.701600  0.725300  1.0  0.331
  H  H15  1  0.864700  0.587400  0.672300  1.0  0.3426
  H  H16  1  0.960300  0.764500  0.869200  1.0  0.0958
  H  H17  1  0.918900  0.711800  0.922300  1.0  0.0886
  H  H18  1  0.739400  0.716300  0.877500  1.0  0.0912
  H  H19  1  0.783600  0.800000  0.912500  1.0  0.0725
  H  H20  1  0.525300  0.887900  0.738500  1.0  0.1077
  H  H21  1  0.508300  0.925600  0.627000  1.0  0.1102
  H  H22  1  0.639000  0.889200  0.530100  1.0  0.1146
  H  H23  1  0.058000  0.582000  0.786400  1.0  0.0859
  H  H24  1  0.043700  0.614000  0.875100  1.0  0.0799
  H  H25  1  0.124700  0.729300  0.866600  1.0  0.0878
  H  H26  1  0.206200  0.660300  0.835200  1.0  0.088
  H  H27  1  0.396200  0.774700  0.652600  1.0  0.1003
  H  H28  1  0.395900  0.812100  0.539900  1.0  0.096
  H  H29  1  0.234000  0.813800  0.472200  1.0  0.1196
  H  H30  1  0.778100  0.618600  0.807300  1.0  0.0769
  H  H31  1  0.852700  0.584200  0.863100  1.0  0.0865
  H  H32  1  0.937900  0.502900  0.759800  1.0  0.0838
  H  H33  1  0.808400  0.489300  0.757300  1.0  0.0849
  H  H34  1  0.845500  0.391400  0.482900  1.0  0.1012
  H  H35  1  0.856700  0.415600  0.362300  1.0  0.0893
  H  H36  1  0.881400  0.536700  0.347800  1.0  0.1116
  H  H37  1  0.321500  0.235600  0.736400  1.0  0.2705
  H  H38  1  0.583300  0.298400  0.774700  1.0  0.3309
  H  H39  1  0.364700  0.412600  0.827700  1.0  0.3428
  H  H40  1  0.460300  0.235500  0.630800  1.0  0.0973
  H  H41  1  0.418900  0.288200  0.577700  1.0  0.0907
  H  H42  1  0.239400  0.283700  0.622500  1.0  0.0906
  H  H43  1  0.283600  0.200000  0.587500  1.0  0.0726
  H  H44  1  0.025300  0.112100  0.761500  1.0  0.1074
  H  H45  1  0.008300  0.074400  0.873000  1.0  0.1103
  H  H46  1  0.139000  0.110800  0.969900  1.0  0.1144
  H  H47  1  0.558000  0.418000  0.713600  1.0  0.0838
  H  H48  1  0.543700  0.386000  0.624900  1.0  0.0812
  H  H49  1  0.624700  0.270700  0.633400  1.0  0.0887
  H  H50  1  0.706200  0.339700  0.664800  1.0  0.0876
  H  H51  1  0.896200  0.225300  0.847400  1.0  0.0995
  H  H52  1  0.895900  0.187900  0.960100  1.0  0.0964
  H  H53  1  0.734000  0.186200  0.027800  1.0  0.119
  H  H54  1  0.278100  0.381400  0.692700  1.0  0.0777
  H  H55  1  0.352700  0.415800  0.636900  1.0  0.087
  H  H56  1  0.437900  0.497100  0.740200  1.0  0.0839
  H  H57  1  0.308400  0.510700  0.742700  1.0  0.085
  H  H58  1  0.345500  0.608600  0.017100  1.0  0.1015
  H  H59  1  0.356700  0.584400  0.137700  1.0  0.0893
  H  H60  1  0.381400  0.463300  0.152200  1.0  0.1111
  H  H61  1  0.178500  0.235600  0.236400  1.0  0.2709
  H  H62  1  0.916700  0.298400  0.274700  1.0  0.3296
  H  H63  1  0.135300  0.412600  0.327700  1.0  0.3409
  H  H64  1  0.039700  0.235500  0.130800  1.0  0.0974
  H  H65  1  0.081100  0.288200  0.077700  1.0  0.0905
  H  H66  1  0.260600  0.283700  0.122500  1.0  0.0895
  H  H67  1  0.216400  0.200000  0.087500  1.0  0.0725
  H  H68  1  0.474700  0.112100  0.261500  1.0  0.1072
  H  H69  1  0.491700  0.074400  0.373000  1.0  0.1099
  H  H70  1  0.361000  0.110800  0.469900  1.0  0.1147
  H  H71  1  0.942000  0.418000  0.213600  1.0  0.0855
  H  H72  1  0.956300  0.386000  0.124900  1.0  0.081
  H  H73  1  0.875300  0.270700  0.133400  1.0  0.089
  H  H74  1  0.793800  0.339700  0.164800  1.0  0.0865
  H  H75  1  0.603800  0.225300  0.347400  1.0  0.0997
  H  H76  1  0.604100  0.187900  0.460100  1.0  0.0963
  H  H77  1  0.766000  0.186200  0.527800  1.0  0.119
  H  H78  1  0.221900  0.381400  0.192700  1.0  0.0763
  H  H79  1  0.147300  0.415800  0.136900  1.0  0.0866
  H  H80  1  0.062100  0.497100  0.240200  1.0  0.0845
  H  H81  1  0.191600  0.510700  0.242700  1.0  0.0848
  H  H82  1  0.154500  0.608600  0.517100  1.0  0.1015
  H  H83  1  0.143300  0.584400  0.637700  1.0  0.0885
  H  H84  1  0.118600  0.463300  0.652200  1.0  0.1112
  H  H85  1  0.678500  0.764400  0.263600  1.0  0.2724
  H  H86  1  0.416700  0.701600  0.225300  1.0  0.3295
  H  H87  1  0.635300  0.587400  0.172300  1.0  0.3402
  H  H88  1  0.539700  0.764500  0.369200  1.0  0.096
  H  H89  1  0.581100  0.711800  0.422300  1.0  0.0886
  H  H90  1  0.760600  0.716300  0.377500  1.0  0.0905
  H  H91  1  0.716400  0.800000  0.412500  1.0  0.0729
  H  H92  1  0.974700  0.887900  0.238500  1.0  0.1077
  H  H93  1  0.991700  0.925600  0.127000  1.0  0.1096
  H  H94  1  0.861000  0.889200  0.030100  1.0  0.1147
  H  H95  1  0.442000  0.582000  0.286400  1.0  0.0871
  H  H96  1  0.456300  0.614000  0.375100  1.0  0.0799
  H  H97  1  0.375300  0.729300  0.366600  1.0  0.0887
  H  H98  1  0.293800  0.660300  0.335200  1.0  0.0873
  H  H99  1  0.103800  0.774700  0.152600  1.0  0.1
  H  H100  1  0.104100  0.812100  0.039900  1.0  0.0962
  H  H101  1  0.266000  0.813800  0.972200  1.0  0.1193
  H  H102  1  0.721900  0.618600  0.307300  1.0  0.0759
  H  H103  1  0.647300  0.584200  0.363100  1.0  0.0865
  H  H104  1  0.562100  0.502900  0.259800  1.0  0.0844
  H  H105  1  0.691600  0.489300  0.257300  1.0  0.085
  H  H106  1  0.654500  0.391400  0.982900  1.0  0.1007
  H  H107  1  0.643300  0.415600  0.862300  1.0  0.0884
  H  H108  1  0.618600  0.536700  0.847800  1.0  0.1122
  C  C109  1  0.907800  0.724100  0.872700  1.0  -0.0283
  C  C110  1  0.793100  0.754900  0.870600  1.0  0.0253
  C  C111  1  0.679200  0.810300  0.787200  1.0  0.5355
  C  C112  1  0.670000  0.831200  0.714500  1.0  -0.1967
  C  C113  1  0.580000  0.873900  0.700900  1.0  -0.0395
  C  C114  1  0.569300  0.895700  0.634300  1.0  -0.0978
  C  C115  1  0.647600  0.874400  0.576400  1.0  -0.1791
  C  C116  1  0.735900  0.832300  0.587800  1.0  0.2627
  C  C117  1  0.748700  0.811200  0.657200  1.0  0.3035
  C  C118  1  0.043600  0.628300  0.826000  1.0  0.0027
  C  C119  1  0.136200  0.683700  0.825600  1.0  -0.0041
  C  C120  1  0.235300  0.731300  0.728900  1.0  0.5191
  C  C121  1  0.232700  0.751700  0.654800  1.0  -0.1756
  C  C122  1  0.329600  0.774600  0.625800  1.0  -0.0572
  C  C123  1  0.329300  0.797000  0.558800  1.0  -0.1242
  C  C124  1  0.232800  0.797800  0.518200  1.0  -0.1666
  C  C125  1  0.135800  0.775600  0.544900  1.0  0.2438
  C  C126  1  0.135900  0.750300  0.613200  1.0  0.2551
  C  C127  1  0.851300  0.597400  0.813400  1.0  0.0112
  C  C128  1  0.866500  0.525900  0.752700  1.0  0.0113
  C  C129  1  0.856500  0.500700  0.540200  1.0  0.0387
  C  C130  1  0.853100  0.441900  0.477500  1.0  -0.0964
  C  C131  1  0.860900  0.456300  0.405500  1.0  -0.0967
  C  C132  1  0.874300  0.527900  0.396800  1.0  -0.175
  C  C133  1  0.854900  0.483700  0.617400  1.0  0.5201
  C  C134  1  0.877600  0.589000  0.460300  1.0  0.5097
  C  C135  1  0.407800  0.275900  0.627300  1.0  -0.03
  C  C136  1  0.293100  0.245100  0.629400  1.0  0.0253
  C  C137  1  0.179200  0.189700  0.712800  1.0  0.5358
  C  C138  1  0.170000  0.168800  0.785500  1.0  -0.198
  C  C139  1  0.080000  0.126100  0.799100  1.0  -0.0378
  C  C140  1  0.069300  0.104300  0.865700  1.0  -0.0976
  C  C141  1  0.147600  0.125600  0.923600  1.0  -0.1775
  C  C142  1  0.235900  0.167700  0.912200  1.0  0.263
  C  C143  1  0.248700  0.188800  0.842800  1.0  0.3027
  C  C144  1  0.543600  0.371700  0.674000  1.0  0.0011
  C  C145  1  0.636200  0.316300  0.674400  1.0  -0.0046
  C  C146  1  0.735300  0.268700  0.771100  1.0  0.5196
  C  C147  1  0.732700  0.248300  0.845200  1.0  -0.1766
  C  C148  1  0.829600  0.225400  0.874200  1.0  -0.0568
  C  C149  1  0.829300  0.203000  0.941200  1.0  -0.1238
  C  C150  1  0.732800  0.202200  0.981800  1.0  -0.1672
  C  C151  1  0.635800  0.224400  0.955100  1.0  0.2409
  C  C152  1  0.635900  0.249700  0.886800  1.0  0.2557
  C  C153  1  0.351300  0.402600  0.686600  1.0  0.0113
  C  C154  1  0.366500  0.474100  0.747300  1.0  0.0107
  C  C155  1  0.356500  0.499300  0.959800  1.0  0.0378
  C  C156  1  0.353100  0.558100  0.022500  1.0  -0.0972
  C  C157  1  0.360900  0.543700  0.094500  1.0  -0.0967
  C  C158  1  0.374300  0.472100  0.103200  1.0  -0.1762
  C  C159  1  0.354900  0.516300  0.882600  1.0  0.5202
  C  C160  1  0.377600  0.411000  0.039700  1.0  0.5096
  C  C161  1  0.092200  0.275900  0.127300  1.0  -0.0296
  C  C162  1  0.206900  0.245100  0.129400  1.0  0.0239
  C  C163  1  0.320800  0.189700  0.212800  1.0  0.538
  C  C164  1  0.330000  0.168800  0.285500  1.0  -0.1994
  C  C165  1  0.420000  0.126100  0.299100  1.0  -0.0391
  C  C166  1  0.430700  0.104300  0.365700  1.0  -0.0976
  C  C167  1  0.352400  0.125600  0.423600  1.0  -0.1776
  C  C168  1  0.264100  0.167700  0.412200  1.0  0.264
  C  C169  1  0.251300  0.188800  0.342800  1.0  0.303
  C  C170  1  0.956400  0.371700  0.174000  1.0  0.0034
  C  C171  1  0.863800  0.316300  0.174400  1.0  -0.0053
  C  C172  1  0.764700  0.268700  0.271100  1.0  0.5184
  C  C173  1  0.767300  0.248300  0.345200  1.0  -0.1763
  C  C174  1  0.670400  0.225400  0.374200  1.0  -0.0565
  C  C175  1  0.670700  0.203000  0.441200  1.0  -0.1237
  C  C176  1  0.767200  0.202200  0.481800  1.0  -0.1668
  C  C177  1  0.864200  0.224400  0.455100  1.0  0.2436
  C  C178  1  0.864100  0.249700  0.386800  1.0  0.2547
  C  C179  1  0.148700  0.402600  0.186600  1.0  0.0097
  C  C180  1  0.133500  0.474100  0.247300  1.0  0.0105
  C  C181  1  0.143500  0.499300  0.459800  1.0  0.0363
  C  C182  1  0.146900  0.558100  0.522500  1.0  -0.0954
  C  C183  1  0.139100  0.543700  0.594500  1.0  -0.0975
  C  C184  1  0.125700  0.472100  0.603200  1.0  -0.1765
  C  C185  1  0.145100  0.516300  0.382600  1.0  0.522
  C  C186  1  0.122400  0.411000  0.539700  1.0  0.5106
  C  C187  1  0.592200  0.724100  0.372700  1.0  -0.0293
  C  C188  1  0.706900  0.754900  0.370600  1.0  0.025
  C  C189  1  0.820800  0.810300  0.287200  1.0  0.5373
  C  C190  1  0.830000  0.831200  0.214500  1.0  -0.1979
  C  C191  1  0.920000  0.873900  0.200900  1.0  -0.0395
  C  C192  1  0.930700  0.895700  0.134300  1.0  -0.0971
  C  C193  1  0.852400  0.874400  0.076400  1.0  -0.1791
  C  C194  1  0.764100  0.832300  0.087800  1.0  0.264
  C  C195  1  0.751300  0.811200  0.157200  1.0  0.3037
  C  C196  1  0.456400  0.628300  0.326000  1.0  0.0041
  C  C197  1  0.363800  0.683700  0.325600  1.0  -0.0063
  C  C198  1  0.264700  0.731300  0.228900  1.0  0.5187
  C  C199  1  0.267300  0.751700  0.154800  1.0  -0.1751
  C  C200  1  0.170400  0.774600  0.125800  1.0  -0.0572
  C  C201  1  0.170700  0.797000  0.058800  1.0  -0.1243
  C  C202  1  0.267200  0.797800  0.018200  1.0  -0.1663
  C  C203  1  0.364200  0.775600  0.044900  1.0  0.2458
  C  C204  1  0.364100  0.750300  0.113200  1.0  0.2544
  C  C205  1  0.648700  0.597400  0.313400  1.0  0.0092
  C  C206  1  0.633500  0.525900  0.252700  1.0  0.0108
  C  C207  1  0.643500  0.500700  0.040200  1.0  0.0365
  C  C208  1  0.646900  0.441900  0.977500  1.0  -0.0955
  C  C209  1  0.639100  0.456300  0.905500  1.0  -0.0979
  C  C210  1  0.625700  0.527900  0.896800  1.0  -0.1753
  C  C211  1  0.645100  0.483700  0.117400  1.0  0.5235
  C  C212  1  0.622400  0.589000  0.960300  1.0  0.5101
  N  N213  1  0.934300  0.656500  0.813400  1.0  -0.2928
  N  N214  1  0.772100  0.775200  0.799600  1.0  -0.38
  N  N215  1  0.142300  0.705500  0.753600  1.0  -0.3892
  N  N216  1  0.862300  0.540600  0.677600  1.0  -0.3805
  N  N217  1  0.865000  0.572300  0.529800  1.0  0.0761
  N  N218  1  0.434300  0.343500  0.686600  1.0  -0.2925
  N  N219  1  0.272100  0.224800  0.700400  1.0  -0.3808
  N  N220  1  0.642300  0.294500  0.746400  1.0  -0.39
  N  N221  1  0.362300  0.459400  0.822400  1.0  -0.3802
  N  N222  1  0.365000  0.427700  0.970200  1.0  0.0761
  N  N223  1  0.065700  0.343500  0.186600  1.0  -0.2922
  N  N224  1  0.227900  0.224800  0.200400  1.0  -0.3811
  N  N225  1  0.857700  0.294500  0.246400  1.0  -0.389
  N  N226  1  0.137700  0.459400  0.322400  1.0  -0.382
  N  N227  1  0.135000  0.427700  0.470200  1.0  0.0752
  N  N228  1  0.565700  0.656500  0.313400  1.0  -0.2927
  N  N229  1  0.727900  0.775200  0.299600  1.0  -0.3803
  N  N230  1  0.357700  0.705500  0.253600  1.0  -0.3879
  N  N231  1  0.637700  0.540600  0.177600  1.0  -0.3825
  N  N232  1  0.635000  0.572300  0.029800  1.0  0.074
  O  O233  1  0.838300  0.771900  0.662800  1.0  -0.6013
  O  O234  1  0.814500  0.807100  0.536600  1.0  -0.6419
  O  O235  1  0.606700  0.824100  0.836700  1.0  -0.6399
  O  O236  1  0.040400  0.725300  0.632700  1.0  -0.6008
  O  O237  1  0.037500  0.775300  0.511900  1.0  -0.7459
  O  O238  1  0.320400  0.737300  0.767400  1.0  -0.6799
  O  O239  1  0.863200  0.633500  0.587800  1.0  -0.6123
  O  O240  1  0.892200  0.658600  0.460300  1.0  -0.6418
  O  O241  1  0.849000  0.417200  0.621000  1.0  -0.61
  O  O242  1  0.083400  0.976900  0.579800  1.0  -0.5313
  O  O243  1  0.338300  0.228100  0.837200  1.0  -0.6014
  O  O244  1  0.314500  0.192900  0.963400  1.0  -0.6391
  O  O245  1  0.106700  0.175900  0.663300  1.0  -0.638
  O  O246  1  0.540400  0.274700  0.867300  1.0  -0.5981
  O  O247  1  0.537500  0.224700  0.988100  1.0  -0.7463
  O  O248  1  0.820400  0.262700  0.732600  1.0  -0.6807
  O  O249  1  0.363200  0.366500  0.912200  1.0  -0.613
  O  O250  1  0.392200  0.341400  0.039700  1.0  -0.6418
  O  O251  1  0.349000  0.582800  0.879000  1.0  -0.6096
  O  O252  1  0.583400  0.023100  0.920200  1.0  -0.5314
  O  O253  1  0.161700  0.228100  0.337200  1.0  -0.603
  O  O254  1  0.185500  0.192900  0.463400  1.0  -0.6402
  O  O255  1  0.393300  0.175900  0.163300  1.0  -0.6406
  O  O256  1  0.959600  0.274700  0.367300  1.0  -0.5968
  O  O257  1  0.962500  0.224700  0.488100  1.0  -0.7448
  O  O258  1  0.679600  0.262700  0.232600  1.0  -0.6842
  O  O259  1  0.136800  0.366500  0.412200  1.0  -0.6103
  O  O260  1  0.107800  0.341400  0.539700  1.0  -0.6413
  O  O261  1  0.151000  0.582800  0.379000  1.0  -0.6089
  O  O262  1  0.916600  0.023100  0.420200  1.0  -0.5308
  O  O263  1  0.661700  0.771900  0.162800  1.0  -0.6029
  O  O264  1  0.685500  0.807100  0.036600  1.0  -0.6439
  O  O265  1  0.893300  0.824100  0.336700  1.0  -0.641
  O  O266  1  0.459600  0.725300  0.132700  1.0  -0.5991
  O  O267  1  0.462500  0.775300  0.011900  1.0  -0.7448
  O  O268  1  0.179600  0.737300  0.267400  1.0  -0.684
  O  O269  1  0.636800  0.633500  0.087800  1.0  -0.6109
  O  O270  1  0.607800  0.658600  0.960300  1.0  -0.6416
  O  O271  1  0.651000  0.417200  0.121000  1.0  -0.6098
  O  O272  1  0.416600  0.976900  0.079800  1.0  -0.5306
