# generated using pymatgen
data_MgH4C4O5
_symmetry_space_group_name_H-M   'P 1'
_cell_length_a   7.94300000
_cell_length_b   7.94300000
_cell_length_c   12.81250000
_cell_angle_alpha   90.00000000
_cell_angle_beta   90.00000000
_cell_angle_gamma   90.00000000
_symmetry_Int_Tables_number   1
_chemical_formula_structural   MgH4C4O5
_chemical_formula_sum   'Mg4 H16 C16 O20'
_cell_volume   808.35662781
_cell_formula_units_Z   4
loop_
 _symmetry_equiv_pos_site_id
 _symmetry_equiv_pos_as_xyz
  1  'x, y, z'
loop_
 _atom_site_type_symbol
 _atom_site_label
 _atom_site_symmetry_multiplicity
 _atom_site_fract_x
 _atom_site_fract_y
 _atom_site_fract_z
 _atom_site_occupancy
 _atom_site_charge
  Mg  Mg1  1  0.469530  0.117940  0.787000  1.0  1.5517
  Mg  Mg2  1  0.530470  0.882060  0.287000  1.0  1.5533
  Mg  Mg3  1  0.882060  0.469530  0.037000  1.0  1.5555
  Mg  Mg4  1  0.117940  0.530470  0.537000  1.0  1.5549
  H  H5  1  0.405500  0.073700  0.979600  1.0  0.4163
  H  H6  1  0.297900  0.840900  0.995200  1.0  0.0923
  H  H7  1  0.617600  0.740900  0.914900  1.0  0.1454
  H  H8  1  0.483300  0.606400  0.947300  1.0  0.1502
  H  H9  1  0.594500  0.926300  0.479600  1.0  0.4183
  H  H10  1  0.702100  0.159100  0.495200  1.0  0.0887
  H  H11  1  0.382400  0.259100  0.414900  1.0  0.145
  H  H12  1  0.516700  0.393600  0.447300  1.0  0.1471
  H  H13  1  0.926300  0.405500  0.229600  1.0  0.4162
  H  H14  1  0.159100  0.297900  0.245200  1.0  0.09
  H  H15  1  0.259100  0.617600  0.164900  1.0  0.1443
  H  H16  1  0.393600  0.483300  0.197300  1.0  0.1412
  H  H17  1  0.073700  0.594500  0.729600  1.0  0.4186
  H  H18  1  0.840900  0.702100  0.745200  1.0  0.0891
  H  H19  1  0.740900  0.382400  0.664900  1.0  0.1447
  H  H20  1  0.606400  0.516700  0.697300  1.0  0.153
  C  C21  1  0.300000  0.803700  0.835100  1.0  0.6349
  C  C22  1  0.382400  0.847000  0.939600  1.0  0.1461
  C  C23  1  0.524700  0.718800  0.962100  1.0  -0.4434
  C  C24  1  0.589500  0.723400  0.072500  1.0  0.8564
  C  C25  1  0.700000  0.196300  0.335100  1.0  0.6341
  C  C26  1  0.617600  0.153000  0.439600  1.0  0.1478
  C  C27  1  0.475300  0.281200  0.462100  1.0  -0.4438
  C  C28  1  0.410500  0.276600  0.572500  1.0  0.8584
  C  C29  1  0.196300  0.300000  0.085100  1.0  0.6324
  C  C30  1  0.153000  0.382400  0.189600  1.0  0.1444
  C  C31  1  0.281200  0.524700  0.212100  1.0  -0.4446
  C  C32  1  0.276600  0.589500  0.322500  1.0  0.8561
  C  C33  1  0.803700  0.700000  0.585100  1.0  0.6326
  C  C34  1  0.847000  0.617600  0.689600  1.0  0.1471
  C  C35  1  0.718800  0.475300  0.712100  1.0  -0.4445
  C  C36  1  0.723400  0.410500  0.822500  1.0  0.8549
  O  O37  1  0.331500  0.896600  0.757700  1.0  -0.7413
  O  O38  1  0.210600  0.674200  0.833200  1.0  -0.6011
  O  O39  1  0.699900  0.618100  0.099300  1.0  -0.7795
  O  O40  1  0.525200  0.828700  0.134100  1.0  -0.7336
  O  O41  1  0.450400  0.015100  0.934900  1.0  -0.6918
  O  O42  1  0.668500  0.103400  0.257700  1.0  -0.7386
  O  O43  1  0.789400  0.325800  0.333200  1.0  -0.6015
  O  O44  1  0.300100  0.381900  0.599300  1.0  -0.7808
  O  O45  1  0.474800  0.171300  0.634100  1.0  -0.7312
  O  O46  1  0.549600  0.984900  0.434900  1.0  -0.6927
  O  O47  1  0.103400  0.331500  0.007700  1.0  -0.7392
  O  O48  1  0.325800  0.210600  0.083200  1.0  -0.6001
  O  O49  1  0.381900  0.699900  0.349300  1.0  -0.788
  O  O50  1  0.171300  0.525200  0.384100  1.0  -0.7293
  O  O51  1  0.984900  0.450400  0.184900  1.0  -0.6901
  O  O52  1  0.896600  0.668500  0.507700  1.0  -0.7394
  O  O53  1  0.674200  0.789400  0.583200  1.0  -0.6
  O  O54  1  0.618100  0.300100  0.849300  1.0  -0.7835
  O  O55  1  0.828700  0.474800  0.884100  1.0  -0.7301
  O  O56  1  0.015100  0.549600  0.684900  1.0  -0.6928
