# generated using pymatgen
data_CuH15C23N3O4
_symmetry_space_group_name_H-M   'P 1'
_cell_length_a   27.57900000
_cell_length_b   10.15400000
_cell_length_c   20.35000000
_cell_angle_alpha   90.00000000
_cell_angle_beta   127.33400000
_cell_angle_gamma   90.00000000
_symmetry_Int_Tables_number   1
_chemical_formula_structural   CuH15C23N3O4
_chemical_formula_sum   'Cu8 H120 C184 N24 O32'
_cell_volume   4531.15945774
_cell_formula_units_Z   8
loop_
 _symmetry_equiv_pos_site_id
 _symmetry_equiv_pos_as_xyz
  1  'x, y, z'
loop_
 _atom_site_type_symbol
 _atom_site_label
 _atom_site_symmetry_multiplicity
 _atom_site_fract_x
 _atom_site_fract_y
 _atom_site_fract_z
 _atom_site_occupancy
 _atom_site_charge
  Cu  Cu1  1  0.160500  0.741100  0.265500  1.0  0.6982
  Cu  Cu2  1  0.660500  0.241100  0.265500  1.0  0.6982
  Cu  Cu3  1  0.160500  0.258900  0.765500  1.0  0.698
  Cu  Cu4  1  0.660500  0.758900  0.765500  1.0  0.698
  Cu  Cu5  1  0.839500  0.741100  0.234500  1.0  0.6978
  Cu  Cu6  1  0.339500  0.241100  0.234500  1.0  0.6978
  Cu  Cu7  1  0.839500  0.258900  0.734500  1.0  0.6975
  Cu  Cu8  1  0.339500  0.758900  0.734500  1.0  0.6975
  H  H9  1  0.068700  0.595600  0.112400  1.0  0.0721
  H  H10  1  0.967100  0.588200  0.008600  1.0  0.1229
  H  H11  1  0.943700  0.857700  0.128700  1.0  0.1172
  H  H12  1  0.046900  0.859300  0.228800  1.0  0.0802
  H  H13  1  0.880800  0.680900  0.893100  1.0  0.1266
  H  H14  1  0.777800  0.691100  0.788200  1.0  0.0809
  H  H15  1  0.745800  0.795100  0.942800  1.0  0.0835
  H  H16  1  0.846600  0.780300  0.051600  1.0  0.12
  H  H17  1  0.208200  0.422400  0.687900  1.0  0.0768
  H  H18  1  0.130200  0.079900  0.626200  1.0  0.0831
  H  H19  1  0.157900  0.235900  0.266700  1.0  0.0969
  H  H20  1  0.164800  0.049700  0.444900  1.0  0.1072
  H  H21  1  0.166000  0.444300  0.439600  1.0  0.1062
  H  H22  1  0.125700  0.075700  0.511100  1.0  0.1128
  H  H23  1  0.205700  0.428400  0.574100  1.0  0.1063
  H  H24  1  0.568700  0.095600  0.112400  1.0  0.0721
  H  H25  1  0.467100  0.088200  0.008600  1.0  0.1229
  H  H26  1  0.443700  0.357700  0.128700  1.0  0.1172
  H  H27  1  0.546900  0.359300  0.228800  1.0  0.0802
  H  H28  1  0.380800  0.180900  0.893100  1.0  0.1266
  H  H29  1  0.277800  0.191100  0.788200  1.0  0.0809
  H  H30  1  0.245800  0.295100  0.942800  1.0  0.0835
  H  H31  1  0.346600  0.280300  0.051600  1.0  0.12
  H  H32  1  0.708200  0.922400  0.687900  1.0  0.0768
  H  H33  1  0.630200  0.579900  0.626200  1.0  0.0831
  H  H34  1  0.657900  0.735900  0.266700  1.0  0.0969
  H  H35  1  0.664800  0.549700  0.444900  1.0  0.1072
  H  H36  1  0.666000  0.944300  0.439600  1.0  0.1062
  H  H37  1  0.625700  0.575700  0.511100  1.0  0.1128
  H  H38  1  0.705700  0.928400  0.574100  1.0  0.1063
  H  H39  1  0.068700  0.404400  0.612400  1.0  0.0722
  H  H40  1  0.967100  0.411800  0.508600  1.0  0.1229
  H  H41  1  0.943700  0.142300  0.628700  1.0  0.1171
  H  H42  1  0.046900  0.140700  0.728800  1.0  0.0804
  H  H43  1  0.880800  0.319100  0.393100  1.0  0.1266
  H  H44  1  0.777800  0.308900  0.288200  1.0  0.0809
  H  H45  1  0.745800  0.204900  0.442800  1.0  0.0837
  H  H46  1  0.846600  0.219700  0.551600  1.0  0.12
  H  H47  1  0.208200  0.577600  0.187900  1.0  0.0773
  H  H48  1  0.130200  0.920100  0.126200  1.0  0.0836
  H  H49  1  0.157900  0.764100  0.766700  1.0  0.0969
  H  H50  1  0.164800  0.950300  0.944900  1.0  0.1072
  H  H51  1  0.166000  0.555700  0.939600  1.0  0.1065
  H  H52  1  0.125700  0.924300  0.011100  1.0  0.1131
  H  H53  1  0.205700  0.571600  0.074100  1.0  0.1061
  H  H54  1  0.568700  0.904400  0.612400  1.0  0.0722
  H  H55  1  0.467100  0.911800  0.508600  1.0  0.1229
  H  H56  1  0.443700  0.642300  0.628700  1.0  0.1171
  H  H57  1  0.546900  0.640700  0.728800  1.0  0.0804
  H  H58  1  0.380800  0.819100  0.393100  1.0  0.1266
  H  H59  1  0.277800  0.808900  0.288200  1.0  0.0809
  H  H60  1  0.245800  0.704900  0.442800  1.0  0.0837
  H  H61  1  0.346600  0.719700  0.551600  1.0  0.12
  H  H62  1  0.708200  0.077600  0.187900  1.0  0.0772
  H  H63  1  0.630200  0.420100  0.126200  1.0  0.0836
  H  H64  1  0.657900  0.264100  0.766700  1.0  0.0969
  H  H65  1  0.664800  0.450300  0.944900  1.0  0.1072
  H  H66  1  0.666000  0.055700  0.939600  1.0  0.1065
  H  H67  1  0.625700  0.424300  0.011100  1.0  0.1131
  H  H68  1  0.705700  0.071600  0.074100  1.0  0.1061
  H  H69  1  0.931300  0.595600  0.387600  1.0  0.0725
  H  H70  1  0.032900  0.588200  0.491400  1.0  0.1227
  H  H71  1  0.056300  0.857700  0.371300  1.0  0.1178
  H  H72  1  0.953100  0.859300  0.271200  1.0  0.0811
  H  H73  1  0.119200  0.680900  0.606900  1.0  0.1269
  H  H74  1  0.222200  0.691100  0.711800  1.0  0.08
  H  H75  1  0.254200  0.795100  0.557200  1.0  0.0839
  H  H76  1  0.153400  0.780300  0.448400  1.0  0.1201
  H  H77  1  0.791800  0.422400  0.812100  1.0  0.0769
  H  H78  1  0.869800  0.079900  0.873800  1.0  0.0826
  H  H79  1  0.842100  0.235900  0.233300  1.0  0.0964
  H  H80  1  0.835200  0.049700  0.055100  1.0  0.1067
  H  H81  1  0.834000  0.444300  0.060400  1.0  0.1053
  H  H82  1  0.874300  0.075700  0.988900  1.0  0.1127
  H  H83  1  0.794300  0.428400  0.925900  1.0  0.1058
  H  H84  1  0.431300  0.095600  0.387600  1.0  0.0725
  H  H85  1  0.532900  0.088200  0.491400  1.0  0.1227
  H  H86  1  0.556300  0.357700  0.371300  1.0  0.1178
  H  H87  1  0.453100  0.359300  0.271200  1.0  0.0811
  H  H88  1  0.619200  0.180900  0.606900  1.0  0.1269
  H  H89  1  0.722200  0.191100  0.711800  1.0  0.08
  H  H90  1  0.754200  0.295100  0.557200  1.0  0.0839
  H  H91  1  0.653400  0.280300  0.448400  1.0  0.1201
  H  H92  1  0.291800  0.922400  0.812100  1.0  0.0769
  H  H93  1  0.369800  0.579900  0.873800  1.0  0.0826
  H  H94  1  0.342100  0.735900  0.233300  1.0  0.0964
  H  H95  1  0.335200  0.549700  0.055100  1.0  0.1067
  H  H96  1  0.334000  0.944300  0.060400  1.0  0.1053
  H  H97  1  0.374300  0.575700  0.988900  1.0  0.1127
  H  H98  1  0.294300  0.928400  0.925900  1.0  0.1058
  H  H99  1  0.931300  0.404400  0.887600  1.0  0.0721
  H  H100  1  0.032900  0.411800  0.991400  1.0  0.122
  H  H101  1  0.056300  0.142300  0.871300  1.0  0.1174
  H  H102  1  0.953100  0.140700  0.771200  1.0  0.0806
  H  H103  1  0.119200  0.319100  0.106900  1.0  0.1268
  H  H104  1  0.222200  0.308900  0.211800  1.0  0.08
  H  H105  1  0.254200  0.204900  0.057200  1.0  0.0836
  H  H106  1  0.153400  0.219700  0.948400  1.0  0.1201
  H  H107  1  0.791800  0.577600  0.312100  1.0  0.0767
  H  H108  1  0.869800  0.920100  0.373800  1.0  0.083
  H  H109  1  0.842100  0.764100  0.733300  1.0  0.0966
  H  H110  1  0.835200  0.950300  0.555100  1.0  0.1069
  H  H111  1  0.834000  0.555700  0.560400  1.0  0.1053
  H  H112  1  0.874300  0.924300  0.488900  1.0  0.1127
  H  H113  1  0.794300  0.571600  0.425900  1.0  0.1057
  H  H114  1  0.431300  0.904400  0.887600  1.0  0.0721
  H  H115  1  0.532900  0.911800  0.991400  1.0  0.122
  H  H116  1  0.556300  0.642300  0.871300  1.0  0.1174
  H  H117  1  0.453100  0.640700  0.771200  1.0  0.0806
  H  H118  1  0.619200  0.819100  0.106900  1.0  0.1268
  H  H119  1  0.722200  0.808900  0.211800  1.0  0.08
  H  H120  1  0.754200  0.704900  0.057200  1.0  0.0836
  H  H121  1  0.653400  0.719700  0.948400  1.0  0.1201
  H  H122  1  0.291800  0.077600  0.312100  1.0  0.0767
  H  H123  1  0.369800  0.420100  0.373800  1.0  0.083
  H  H124  1  0.342100  0.264100  0.733300  1.0  0.0966
  H  H125  1  0.335200  0.450300  0.555100  1.0  0.1069
  H  H126  1  0.334000  0.055700  0.560400  1.0  0.1053
  H  H127  1  0.374300  0.424300  0.488900  1.0  0.1127
  H  H128  1  0.294300  0.071600  0.425900  1.0  0.1057
  C  C129  1  0.043300  0.651600  0.115200  1.0  0.1889
  C  C130  1  0.982000  0.646000  0.052400  1.0  -0.2283
  C  C131  1  0.942500  0.726100  0.054000  1.0  0.1
  C  C132  1  0.968400  0.804600  0.122900  1.0  -0.1987
  C  C133  1  0.030600  0.804800  0.183200  1.0  0.1785
  C  C134  1  0.876400  0.729900  0.985200  1.0  0.0797
  C  C135  1  0.854200  0.703800  0.904800  1.0  -0.1791
  C  C136  1  0.792000  0.712000  0.841700  1.0  0.1708
  C  C137  1  0.773400  0.771900  0.932700  1.0  0.1678
  C  C138  1  0.833900  0.763600  0.998400  1.0  -0.2034
  C  C139  1  0.155800  0.992100  0.310500  1.0  0.6599
  C  C140  1  0.191200  0.351500  0.651500  1.0  0.1676
  C  C141  1  0.145600  0.151300  0.615700  1.0  0.1826
  C  C142  1  0.160000  0.483900  0.304800  1.0  0.6809
  C  C143  1  0.161100  0.359400  0.346100  1.0  -0.1446
  C  C144  1  0.159200  0.238900  0.313400  1.0  0.0198
  C  C145  1  0.159200  0.122900  0.348500  1.0  -0.1595
  C  C146  1  0.163300  0.127700  0.419700  1.0  -0.0792
  C  C147  1  0.165000  0.248100  0.454000  1.0  -0.012
  C  C148  1  0.164300  0.363400  0.416800  1.0  -0.0369
  C  C149  1  0.143300  0.147700  0.546400  1.0  -0.1712
  C  C150  1  0.166800  0.250600  0.528500  1.0  0.1083
  C  C151  1  0.190300  0.355200  0.583400  1.0  -0.1871
  C  C152  1  0.543300  0.151600  0.115200  1.0  0.1889
  C  C153  1  0.482000  0.146000  0.052400  1.0  -0.2283
  C  C154  1  0.442500  0.226100  0.054000  1.0  0.1
  C  C155  1  0.468400  0.304600  0.122900  1.0  -0.1987
  C  C156  1  0.530600  0.304800  0.183200  1.0  0.1785
  C  C157  1  0.376400  0.229900  0.985200  1.0  0.0797
  C  C158  1  0.354200  0.203800  0.904800  1.0  -0.1791
  C  C159  1  0.292000  0.212000  0.841700  1.0  0.1708
  C  C160  1  0.273400  0.271900  0.932700  1.0  0.1678
  C  C161  1  0.333900  0.263600  0.998400  1.0  -0.2034
  C  C162  1  0.655800  0.492100  0.310500  1.0  0.6599
  C  C163  1  0.691200  0.851500  0.651500  1.0  0.1676
  C  C164  1  0.645600  0.651300  0.615700  1.0  0.1826
  C  C165  1  0.660000  0.983900  0.304800  1.0  0.6809
  C  C166  1  0.661100  0.859400  0.346100  1.0  -0.1446
  C  C167  1  0.659200  0.738900  0.313400  1.0  0.0198
  C  C168  1  0.659200  0.622900  0.348500  1.0  -0.1595
  C  C169  1  0.663300  0.627700  0.419700  1.0  -0.0792
  C  C170  1  0.665000  0.748100  0.454000  1.0  -0.012
  C  C171  1  0.664300  0.863400  0.416800  1.0  -0.0369
  C  C172  1  0.643300  0.647700  0.546400  1.0  -0.1712
  C  C173  1  0.666800  0.750600  0.528500  1.0  0.1083
  C  C174  1  0.690300  0.855200  0.583400  1.0  -0.1871
  C  C175  1  0.043300  0.348400  0.615200  1.0  0.1894
  C  C176  1  0.982000  0.354000  0.552400  1.0  -0.2276
  C  C177  1  0.942500  0.273900  0.554000  1.0  0.0999
  C  C178  1  0.968400  0.195400  0.622900  1.0  -0.1995
  C  C179  1  0.030600  0.195200  0.683200  1.0  0.1791
  C  C180  1  0.876400  0.270100  0.485200  1.0  0.0797
  C  C181  1  0.854200  0.296200  0.404800  1.0  -0.1794
  C  C182  1  0.792000  0.288000  0.341700  1.0  0.1706
  C  C183  1  0.773400  0.228100  0.432700  1.0  0.1684
  C  C184  1  0.833900  0.236400  0.498400  1.0  -0.2036
  C  C185  1  0.155800  0.007900  0.810500  1.0  0.6605
  C  C186  1  0.191200  0.648500  0.151500  1.0  0.1671
  C  C187  1  0.145600  0.848700  0.115700  1.0  0.1829
  C  C188  1  0.160000  0.516100  0.804800  1.0  0.6809
  C  C189  1  0.161100  0.640600  0.846100  1.0  -0.1454
  C  C190  1  0.159200  0.761100  0.813400  1.0  0.0199
  C  C191  1  0.159200  0.877100  0.848500  1.0  -0.1586
  C  C192  1  0.163300  0.872300  0.919700  1.0  -0.0799
  C  C193  1  0.165000  0.751900  0.954000  1.0  -0.0124
  C  C194  1  0.164300  0.636600  0.916800  1.0  -0.0357
  C  C195  1  0.143300  0.852300  0.046400  1.0  -0.171
  C  C196  1  0.166800  0.749400  0.028500  1.0  0.1083
  C  C197  1  0.190300  0.644800  0.083400  1.0  -0.187
  C  C198  1  0.543300  0.848400  0.615200  1.0  0.1894
  C  C199  1  0.482000  0.854000  0.552400  1.0  -0.2276
  C  C200  1  0.442500  0.773900  0.554000  1.0  0.0999
  C  C201  1  0.468400  0.695400  0.622900  1.0  -0.1995
  C  C202  1  0.530600  0.695200  0.683200  1.0  0.1791
  C  C203  1  0.376400  0.770100  0.485200  1.0  0.0797
  C  C204  1  0.354200  0.796200  0.404800  1.0  -0.1794
  C  C205  1  0.292000  0.788000  0.341700  1.0  0.1706
  C  C206  1  0.273400  0.728100  0.432700  1.0  0.1684
  C  C207  1  0.333900  0.736400  0.498400  1.0  -0.2036
  C  C208  1  0.655800  0.507900  0.810500  1.0  0.6605
  C  C209  1  0.691200  0.148500  0.151500  1.0  0.1671
  C  C210  1  0.645600  0.348700  0.115700  1.0  0.1829
  C  C211  1  0.660000  0.016100  0.804800  1.0  0.6809
  C  C212  1  0.661100  0.140600  0.846100  1.0  -0.1454
  C  C213  1  0.659200  0.261100  0.813400  1.0  0.0199
  C  C214  1  0.659200  0.377100  0.848500  1.0  -0.1586
  C  C215  1  0.663300  0.372300  0.919700  1.0  -0.0799
  C  C216  1  0.665000  0.251900  0.954000  1.0  -0.0124
  C  C217  1  0.664300  0.136600  0.916800  1.0  -0.0357
  C  C218  1  0.643300  0.352300  0.046400  1.0  -0.171
  C  C219  1  0.666800  0.249400  0.028500  1.0  0.1083
  C  C220  1  0.690300  0.144800  0.083400  1.0  -0.187
  C  C221  1  0.956700  0.651600  0.384800  1.0  0.1892
  C  C222  1  0.018000  0.646000  0.447600  1.0  -0.2285
  C  C223  1  0.057500  0.726100  0.446000  1.0  0.1002
  C  C224  1  0.031600  0.804600  0.377100  1.0  -0.1989
  C  C225  1  0.969400  0.804800  0.316800  1.0  0.178
  C  C226  1  0.123600  0.729900  0.514800  1.0  0.0793
  C  C227  1  0.145800  0.703800  0.595200  1.0  -0.1778
  C  C228  1  0.208000  0.712000  0.658300  1.0  0.1713
  C  C229  1  0.226600  0.771900  0.567300  1.0  0.1674
  C  C230  1  0.166100  0.763600  0.501600  1.0  -0.2031
  C  C231  1  0.844200  0.992100  0.189500  1.0  0.6599
  C  C232  1  0.808800  0.351500  0.848500  1.0  0.1681
  C  C233  1  0.854400  0.151300  0.884300  1.0  0.1821
  C  C234  1  0.840000  0.483900  0.195200  1.0  0.6805
  C  C235  1  0.838900  0.359400  0.153900  1.0  -0.1436
  C  C236  1  0.840800  0.238900  0.186600  1.0  0.0183
  C  C237  1  0.840800  0.122900  0.151500  1.0  -0.1608
  C  C238  1  0.836700  0.127700  0.080300  1.0  -0.0775
  C  C239  1  0.835000  0.248100  0.046000  1.0  -0.0115
  C  C240  1  0.835700  0.363400  0.083200  1.0  -0.0373
  C  C241  1  0.856700  0.147700  0.953600  1.0  -0.17
  C  C242  1  0.833200  0.250600  0.971500  1.0  0.1071
  C  C243  1  0.809700  0.355200  0.916600  1.0  -0.1869
  C  C244  1  0.456700  0.151600  0.384800  1.0  0.1892
  C  C245  1  0.518000  0.146000  0.447600  1.0  -0.2285
  C  C246  1  0.557500  0.226100  0.446000  1.0  0.1002
  C  C247  1  0.531600  0.304600  0.377100  1.0  -0.1989
  C  C248  1  0.469400  0.304800  0.316800  1.0  0.178
  C  C249  1  0.623600  0.229900  0.514800  1.0  0.0793
  C  C250  1  0.645800  0.203800  0.595200  1.0  -0.1778
  C  C251  1  0.708000  0.212000  0.658300  1.0  0.1713
  C  C252  1  0.726600  0.271900  0.567300  1.0  0.1674
  C  C253  1  0.666100  0.263600  0.501600  1.0  -0.2031
  C  C254  1  0.344200  0.492100  0.189500  1.0  0.6599
  C  C255  1  0.308800  0.851500  0.848500  1.0  0.1681
  C  C256  1  0.354400  0.651300  0.884300  1.0  0.1821
  C  C257  1  0.340000  0.983900  0.195200  1.0  0.6805
  C  C258  1  0.338900  0.859400  0.153900  1.0  -0.1436
  C  C259  1  0.340800  0.738900  0.186600  1.0  0.0183
  C  C260  1  0.340800  0.622900  0.151500  1.0  -0.1608
  C  C261  1  0.336700  0.627700  0.080300  1.0  -0.0775
  C  C262  1  0.335000  0.748100  0.046000  1.0  -0.0115
  C  C263  1  0.335700  0.863400  0.083200  1.0  -0.0373
  C  C264  1  0.356700  0.647700  0.953600  1.0  -0.17
  C  C265  1  0.333200  0.750600  0.971500  1.0  0.1071
  C  C266  1  0.309700  0.855200  0.916600  1.0  -0.1869
  C  C267  1  0.956700  0.348400  0.884800  1.0  0.1894
  C  C268  1  0.018000  0.354000  0.947600  1.0  -0.2285
  C  C269  1  0.057500  0.273900  0.946000  1.0  0.1001
  C  C270  1  0.031600  0.195400  0.877100  1.0  -0.1996
  C  C271  1  0.969400  0.195200  0.816800  1.0  0.1779
  C  C272  1  0.123600  0.270100  0.014800  1.0  0.0793
  C  C273  1  0.145800  0.296200  0.095200  1.0  -0.1778
  C  C274  1  0.208000  0.288000  0.158300  1.0  0.1714
  C  C275  1  0.226600  0.228100  0.067300  1.0  0.1676
  C  C276  1  0.166100  0.236400  0.001600  1.0  -0.2033
  C  C277  1  0.844200  0.007900  0.689500  1.0  0.66
  C  C278  1  0.808800  0.648500  0.348500  1.0  0.1677
  C  C279  1  0.854400  0.848700  0.384300  1.0  0.1824
  C  C280  1  0.840000  0.516100  0.695200  1.0  0.6808
  C  C281  1  0.838900  0.640600  0.653900  1.0  -0.1431
  C  C282  1  0.840800  0.761100  0.686600  1.0  0.0182
  C  C283  1  0.840800  0.877100  0.651500  1.0  -0.1594
  C  C284  1  0.836700  0.872300  0.580300  1.0  -0.0791
  C  C285  1  0.835000  0.751900  0.546000  1.0  -0.0114
  C  C286  1  0.835700  0.636600  0.583200  1.0  -0.0365
  C  C287  1  0.856700  0.852300  0.453600  1.0  -0.1704
  C  C288  1  0.833200  0.749400  0.471500  1.0  0.107
  C  C289  1  0.809700  0.644800  0.416600  1.0  -0.1869
  C  C290  1  0.456700  0.848400  0.884800  1.0  0.1894
  C  C291  1  0.518000  0.854000  0.947600  1.0  -0.2285
  C  C292  1  0.557500  0.773900  0.946000  1.0  0.1001
  C  C293  1  0.531600  0.695400  0.877100  1.0  -0.1996
  C  C294  1  0.469400  0.695200  0.816800  1.0  0.1779
  C  C295  1  0.623600  0.770100  0.014800  1.0  0.0793
  C  C296  1  0.645800  0.796200  0.095200  1.0  -0.1778
  C  C297  1  0.708000  0.788000  0.158300  1.0  0.1714
  C  C298  1  0.726600  0.728100  0.067300  1.0  0.1676
  C  C299  1  0.666100  0.736400  0.001600  1.0  -0.2033
  C  C300  1  0.344200  0.507900  0.689500  1.0  0.66
  C  C301  1  0.308800  0.148500  0.348500  1.0  0.1677
  C  C302  1  0.354400  0.348700  0.384300  1.0  0.1824
  C  C303  1  0.340000  0.016100  0.695200  1.0  0.6808
  C  C304  1  0.338900  0.140600  0.653900  1.0  -0.1431
  C  C305  1  0.340800  0.261100  0.686600  1.0  0.0182
  C  C306  1  0.340800  0.377100  0.651500  1.0  -0.1594
  C  C307  1  0.336700  0.372300  0.580300  1.0  -0.0791
  C  C308  1  0.335000  0.251900  0.546000  1.0  -0.0114
  C  C309  1  0.335700  0.136600  0.583200  1.0  -0.0365
  C  C310  1  0.356700  0.352300  0.453600  1.0  -0.1704
  C  C311  1  0.333200  0.249400  0.471500  1.0  0.107
  C  C312  1  0.309700  0.144800  0.416600  1.0  -0.1869
  N  N313  1  0.068530  0.730700  0.179100  1.0  -0.3
  N  N314  1  0.168880  0.251600  0.668500  1.0  -0.312
  N  N315  1  0.751880  0.748400  0.854300  1.0  -0.3195
  N  N316  1  0.568530  0.230700  0.179100  1.0  -0.3
  N  N317  1  0.668880  0.751600  0.668500  1.0  -0.312
  N  N318  1  0.251880  0.248400  0.854300  1.0  -0.3195
  N  N319  1  0.068530  0.269300  0.679100  1.0  -0.3
  N  N320  1  0.168880  0.748400  0.168500  1.0  -0.3129
  N  N321  1  0.751880  0.251600  0.354300  1.0  -0.3198
  N  N322  1  0.568530  0.769300  0.679100  1.0  -0.3
  N  N323  1  0.668880  0.248400  0.168500  1.0  -0.3129
  N  N324  1  0.251880  0.751600  0.354300  1.0  -0.3198
  N  N325  1  0.931470  0.730700  0.320900  1.0  -0.2998
  N  N326  1  0.831120  0.251600  0.831500  1.0  -0.3126
  N  N327  1  0.248120  0.748400  0.645700  1.0  -0.3192
  N  N328  1  0.431470  0.230700  0.320900  1.0  -0.2998
  N  N329  1  0.331120  0.751600  0.831500  1.0  -0.3126
  N  N330  1  0.748120  0.248400  0.645700  1.0  -0.3192
  N  N331  1  0.931470  0.269300  0.820900  1.0  -0.2999
  N  N332  1  0.831120  0.748400  0.331500  1.0  -0.3132
  N  N333  1  0.248120  0.251600  0.145700  1.0  -0.319
  N  N334  1  0.431470  0.769300  0.820900  1.0  -0.2999
  N  N335  1  0.331120  0.248400  0.331500  1.0  -0.3132
  N  N336  1  0.748120  0.751600  0.145700  1.0  -0.319
  O  O337  1  0.155470  0.592000  0.330800  1.0  -0.5871
  O  O338  1  0.162500  0.474000  0.245900  1.0  -0.5904
  O  O339  1  0.154100  0.889700  0.341300  1.0  -0.565
  O  O340  1  0.154800  0.993200  0.248700  1.0  -0.6206
  O  O341  1  0.655470  0.092000  0.330800  1.0  -0.5871
  O  O342  1  0.662500  0.974000  0.245900  1.0  -0.5904
  O  O343  1  0.654100  0.389700  0.341300  1.0  -0.565
  O  O344  1  0.654800  0.493200  0.248700  1.0  -0.6206
  O  O345  1  0.155470  0.408000  0.830800  1.0  -0.5868
  O  O346  1  0.162500  0.526000  0.745900  1.0  -0.5903
  O  O347  1  0.154100  0.110300  0.841300  1.0  -0.5662
  O  O348  1  0.154800  0.006800  0.748700  1.0  -0.6211
  O  O349  1  0.655470  0.908000  0.830800  1.0  -0.5868
  O  O350  1  0.662500  0.026000  0.745900  1.0  -0.5903
  O  O351  1  0.654100  0.610300  0.841300  1.0  -0.5662
  O  O352  1  0.654800  0.506800  0.748700  1.0  -0.6211
  O  O353  1  0.844530  0.592000  0.169200  1.0  -0.5859
  O  O354  1  0.837500  0.474000  0.254100  1.0  -0.5892
  O  O355  1  0.845900  0.889700  0.158700  1.0  -0.5657
  O  O356  1  0.845200  0.993200  0.251300  1.0  -0.6217
  O  O357  1  0.344530  0.092000  0.169200  1.0  -0.5859
  O  O358  1  0.337500  0.974000  0.254100  1.0  -0.5892
  O  O359  1  0.345900  0.389700  0.158700  1.0  -0.5657
  O  O360  1  0.345200  0.493200  0.251300  1.0  -0.6217
  O  O361  1  0.844530  0.408000  0.669200  1.0  -0.5865
  O  O362  1  0.837500  0.526000  0.754100  1.0  -0.5896
  O  O363  1  0.845900  0.110300  0.658700  1.0  -0.5662
  O  O364  1  0.845200  0.006800  0.751300  1.0  -0.6214
  O  O365  1  0.344530  0.908000  0.669200  1.0  -0.5865
  O  O366  1  0.337500  0.026000  0.754100  1.0  -0.5896
  O  O367  1  0.345900  0.610300  0.658700  1.0  -0.5662
  O  O368  1  0.345200  0.506800  0.751300  1.0  -0.6214
