# generated using pymatgen
data_GaH5C8O5
_symmetry_space_group_name_H-M   'P 1'
_cell_length_a   17.41000000
_cell_length_b   6.74440000
_cell_length_c   12.16460000
_cell_angle_alpha   90.00000000
_cell_angle_beta   90.00000000
_cell_angle_gamma   90.00000000
_symmetry_Int_Tables_number   1
_chemical_formula_structural   GaH5C8O5
_chemical_formula_sum   'Ga4 H20 C32 O20'
_cell_volume   1428.36738066
_cell_formula_units_Z   4
loop_
 _symmetry_equiv_pos_site_id
 _symmetry_equiv_pos_as_xyz
  1  'x, y, z'
loop_
 _atom_site_type_symbol
 _atom_site_label
 _atom_site_symmetry_multiplicity
 _atom_site_fract_x
 _atom_site_fract_y
 _atom_site_fract_z
 _atom_site_occupancy
 _atom_site_charge
  Ga  Ga1  1  0.000000  0.000000  0.000000  1.0  1.5802
  Ga  Ga2  1  0.500000  0.000000  0.500000  1.0  1.5802
  Ga  Ga3  1  0.000000  0.500000  0.000000  1.0  1.5802
  Ga  Ga4  1  0.500000  0.500000  0.500000  1.0  1.5802
  H  H5  1  0.296500  0.047600  0.681800  1.0  0.1178
  H  H6  1  0.182800  0.047500  0.780200  1.0  0.1147
  H  H7  1  0.203500  0.952400  0.181800  1.0  0.1175
  H  H8  1  0.317200  0.952500  0.280200  1.0  0.1146
  H  H9  1  0.703500  0.547600  0.318200  1.0  0.1175
  H  H10  1  0.817200  0.547500  0.219800  1.0  0.115
  H  H11  1  0.796500  0.452400  0.818200  1.0  0.1174
  H  H12  1  0.682800  0.452500  0.719800  1.0  0.115
  H  H13  1  0.703500  0.952400  0.318200  1.0  0.1172
  H  H14  1  0.817200  0.952500  0.219800  1.0  0.1152
  H  H15  1  0.796500  0.047600  0.818200  1.0  0.1175
  H  H16  1  0.682800  0.047500  0.719800  1.0  0.1153
  H  H17  1  0.296500  0.452400  0.681800  1.0  0.1177
  H  H18  1  0.182800  0.452500  0.780200  1.0  0.1146
  H  H19  1  0.203500  0.547600  0.181800  1.0  0.1179
  H  H20  1  0.317200  0.547500  0.280200  1.0  0.1145
  H  H21  1  0.018000  0.750000  0.114000  1.0  0.4075
  H  H22  1  0.482000  0.250000  0.614000  1.0  0.4068
  H  H23  1  0.982000  0.250000  0.886000  1.0  0.4086
  H  H24  1  0.518000  0.750000  0.386000  1.0  0.4091
  C  C25  1  0.273750  0.928100  0.701700  1.0  -0.0354
  C  C26  1  0.205710  0.928000  0.760600  1.0  -0.0394
  C  C27  1  0.226250  0.071900  0.201700  1.0  -0.0363
  C  C28  1  0.294290  0.072000  0.260600  1.0  -0.0392
  C  C29  1  0.726250  0.428100  0.298300  1.0  -0.0351
  C  C30  1  0.794290  0.428000  0.239400  1.0  -0.0394
  C  C31  1  0.773750  0.571900  0.798300  1.0  -0.0353
  C  C32  1  0.705710  0.572000  0.739400  1.0  -0.0398
  C  C33  1  0.726250  0.071900  0.298300  1.0  -0.0357
  C  C34  1  0.794290  0.072000  0.239400  1.0  -0.0391
  C  C35  1  0.773750  0.928100  0.798300  1.0  -0.0351
  C  C36  1  0.705710  0.928000  0.739400  1.0  -0.0395
  C  C37  1  0.273750  0.571900  0.701700  1.0  -0.0358
  C  C38  1  0.205710  0.572000  0.760600  1.0  -0.0396
  C  C39  1  0.226250  0.428100  0.201700  1.0  -0.0354
  C  C40  1  0.294290  0.428000  0.260600  1.0  -0.0394
  C  C41  1  0.382880  0.750000  0.611200  1.0  0.7275
  C  C42  1  0.307960  0.750000  0.672400  1.0  -0.1339
  C  C43  1  0.171690  0.750000  0.790300  1.0  -0.1235
  C  C44  1  0.100460  0.750000  0.860000  1.0  0.7356
  C  C45  1  0.117120  0.250000  0.111200  1.0  0.7291
  C  C46  1  0.192040  0.250000  0.172400  1.0  -0.135
  C  C47  1  0.328310  0.250000  0.290300  1.0  -0.1233
  C  C48  1  0.399540  0.250000  0.360000  1.0  0.7355
  C  C49  1  0.617120  0.250000  0.388800  1.0  0.7302
  C  C50  1  0.692040  0.250000  0.327600  1.0  -0.1344
  C  C51  1  0.828310  0.250000  0.209700  1.0  -0.1228
  C  C52  1  0.899540  0.250000  0.140000  1.0  0.7361
  C  C53  1  0.882880  0.750000  0.888800  1.0  0.7283
  C  C54  1  0.807960  0.750000  0.827600  1.0  -0.1335
  C  C55  1  0.671690  0.750000  0.709700  1.0  -0.1232
  C  C56  1  0.600460  0.750000  0.640000  1.0  0.7359
  O  O57  1  0.073870  0.916920  0.886100  1.0  -0.6208
  O  O58  1  0.410900  0.916800  0.588810  1.0  -0.6411
  O  O59  1  0.426130  0.083080  0.386100  1.0  -0.621
  O  O60  1  0.089100  0.083200  0.088810  1.0  -0.6391
  O  O61  1  0.926130  0.416920  0.113900  1.0  -0.6207
  O  O62  1  0.589100  0.416800  0.411190  1.0  -0.6401
  O  O63  1  0.573870  0.583080  0.613900  1.0  -0.6208
  O  O64  1  0.910900  0.583200  0.911190  1.0  -0.6399
  O  O65  1  0.926130  0.083080  0.113900  1.0  -0.6208
  O  O66  1  0.589100  0.083200  0.411190  1.0  -0.639
  O  O67  1  0.573870  0.916920  0.613900  1.0  -0.6204
  O  O68  1  0.910900  0.916800  0.911190  1.0  -0.6412
  O  O69  1  0.073870  0.583080  0.886100  1.0  -0.6214
  O  O70  1  0.410900  0.583200  0.588810  1.0  -0.6398
  O  O71  1  0.426130  0.416920  0.386100  1.0  -0.6209
  O  O72  1  0.089100  0.416800  0.088810  1.0  -0.6404
  O  O73  1  0.005630  0.750000  0.071300  1.0  -0.9897
  O  O74  1  0.494370  0.250000  0.571300  1.0  -0.9892
  O  O75  1  0.994370  0.250000  0.928700  1.0  -0.9873
  O  O76  1  0.505630  0.750000  0.428700  1.0  -0.9878
