# generated using pymatgen
data_InH40C24NO8
_symmetry_space_group_name_H-M   'P 1'
_cell_length_a   12.99130000
_cell_length_b   12.99130000
_cell_length_c   17.39110000
_cell_angle_alpha   90.00000000
_cell_angle_beta   90.00000000
_cell_angle_gamma   120.00000000
_symmetry_Int_Tables_number   1
_chemical_formula_structural   InH40C24NO8
_chemical_formula_sum   'In3 H120 C72 N3 O24'
_cell_volume   2541.92602493
_cell_formula_units_Z   3
loop_
 _symmetry_equiv_pos_site_id
 _symmetry_equiv_pos_as_xyz
  1  'x, y, z'
loop_
 _atom_site_type_symbol
 _atom_site_label
 _atom_site_symmetry_multiplicity
 _atom_site_fract_x
 _atom_site_fract_y
 _atom_site_fract_z
 _atom_site_occupancy
 _atom_site_charge
  In  In1  1  0.377100  0.000000  0.500000  1.0  1.5214
  In  In2  1  0.622900  0.622900  0.833330  1.0  1.5212
  In  In3  1  0.000000  0.377100  0.166670  1.0  1.5201
  H  H4  1  0.563100  0.575700  0.569600  1.0  0.1
  H  H5  1  0.340900  0.423500  0.641400  1.0  0.0816
  H  H6  1  0.367700  0.520200  0.577400  1.0  0.0878
  H  H7  1  0.330900  0.391900  0.487600  1.0  0.0694
  H  H8  1  0.289500  0.293100  0.550900  1.0  0.0598
  H  H9  1  0.452300  0.375700  0.398100  1.0  0.1081
  H  H10  1  0.582400  0.421300  0.427100  1.0  0.1113
  H  H11  1  0.520600  0.496600  0.442600  1.0  0.113
  H  H12  1  0.717900  0.490200  0.613400  1.0  0.1132
  H  H13  1  0.695300  0.513800  0.528300  1.0  0.0944
  H  H14  1  0.680600  0.390400  0.551200  1.0  0.1281
  H  H15  1  0.573100  0.366100  0.689700  1.0  0.133
  H  H16  1  0.533700  0.264200  0.628800  1.0  0.1194
  H  H17  1  0.439800  0.293000  0.663900  1.0  0.1126
  H  H18  1  0.012600  0.436900  0.902930  1.0  0.1001
  H  H19  1  0.082600  0.659100  0.974730  1.0  0.0813
  H  H20  1  0.152500  0.632300  0.910730  1.0  0.0819
  H  H21  1  0.061000  0.669100  0.820930  1.0  0.0696
  H  H22  1  0.003600  0.710500  0.884230  1.0  0.0592
  H  H23  1  0.923400  0.547700  0.731430  1.0  0.108
  H  H24  1  0.838900  0.417600  0.760430  1.0  0.1107
  H  H25  1  0.976000  0.479400  0.775930  1.0  0.1154
  H  H26  1  0.772300  0.282100  0.946730  1.0  0.1124
  H  H27  1  0.818500  0.304700  0.861630  1.0  0.0944
  H  H28  1  0.709800  0.319400  0.884530  1.0  0.1323
  H  H29  1  0.793000  0.426900  0.023030  1.0  0.1337
  H  H30  1  0.730500  0.466300  0.962130  1.0  0.1238
  H  H31  1  0.853200  0.560200  0.997230  1.0  0.1109
  H  H32  1  0.424300  0.987400  0.236270  1.0  0.1005
  H  H33  1  0.576500  0.917400  0.308070  1.0  0.0805
  H  H34  1  0.479800  0.847500  0.244070  1.0  0.0823
  H  H35  1  0.608100  0.939000  0.154270  1.0  0.0695
  H  H36  1  0.706900  0.996400  0.217570  1.0  0.0523
  H  H37  1  0.624300  0.076600  0.064770  1.0  0.107
  H  H38  1  0.578700  0.161100  0.093770  1.0  0.1114
  H  H39  1  0.503400  0.024000  0.109270  1.0  0.1136
  H  H40  1  0.509800  0.227700  0.280070  1.0  0.1119
  H  H41  1  0.486200  0.181500  0.194970  1.0  0.0918
  H  H42  1  0.609600  0.290200  0.217870  1.0  0.1263
  H  H43  1  0.633900  0.207000  0.356370  1.0  0.1331
  H  H44  1  0.735800  0.269500  0.295470  1.0  0.1196
  H  H45  1  0.707000  0.146800  0.330570  1.0  0.1136
  H  H46  1  0.987400  0.424300  0.430400  1.0  0.0995
  H  H47  1  0.917400  0.576500  0.358600  1.0  0.0785
  H  H48  1  0.847500  0.479800  0.422600  1.0  0.0883
  H  H49  1  0.939000  0.608100  0.512400  1.0  0.0681
  H  H50  1  0.996400  0.706900  0.449100  1.0  0.0596
  H  H51  1  0.076600  0.624300  0.601900  1.0  0.1087
  H  H52  1  0.161100  0.578700  0.572900  1.0  0.1115
  H  H53  1  0.024000  0.503400  0.557400  1.0  0.113
  H  H54  1  0.227700  0.509800  0.386600  1.0  0.1131
  H  H55  1  0.181500  0.486200  0.471700  1.0  0.0954
  H  H56  1  0.290200  0.609600  0.448800  1.0  0.1279
  H  H57  1  0.207000  0.633900  0.310300  1.0  0.1312
  H  H58  1  0.269500  0.735800  0.371200  1.0  0.1192
  H  H59  1  0.146800  0.707000  0.336100  1.0  0.1106
  H  H60  1  0.575700  0.563100  0.097070  1.0  0.0998
  H  H61  1  0.423500  0.340900  0.025270  1.0  0.0801
  H  H62  1  0.520200  0.367700  0.089270  1.0  0.0812
  H  H63  1  0.391900  0.330900  0.179070  1.0  0.0683
  H  H64  1  0.293100  0.289500  0.115770  1.0  0.062
  H  H65  1  0.375700  0.452300  0.268570  1.0  0.1086
  H  H66  1  0.421300  0.582400  0.239570  1.0  0.1103
  H  H67  1  0.496600  0.520600  0.224070  1.0  0.1149
  H  H68  1  0.490200  0.717900  0.053270  1.0  0.1128
  H  H69  1  0.513800  0.695300  0.138370  1.0  0.0928
  H  H70  1  0.390400  0.680600  0.115470  1.0  0.1317
  H  H71  1  0.366100  0.573100  0.976970  1.0  0.1329
  H  H72  1  0.264200  0.533700  0.037870  1.0  0.1229
  H  H73  1  0.293000  0.439800  0.002770  1.0  0.1117
  H  H74  1  0.436900  0.012600  0.763730  1.0  0.0992
  H  H75  1  0.659100  0.082600  0.691930  1.0  0.0795
  H  H76  1  0.632300  0.152500  0.755930  1.0  0.0843
  H  H77  1  0.669100  0.061000  0.845730  1.0  0.0672
  H  H78  1  0.710500  0.003600  0.782430  1.0  0.0531
  H  H79  1  0.547700  0.923400  0.935230  1.0  0.1082
  H  H80  1  0.417600  0.838900  0.906230  1.0  0.1111
  H  H81  1  0.479400  0.976000  0.890730  1.0  0.1141
  H  H82  1  0.282100  0.772300  0.719930  1.0  0.1107
  H  H83  1  0.304700  0.818500  0.805030  1.0  0.092
  H  H84  1  0.319400  0.709800  0.782130  1.0  0.1294
  H  H85  1  0.426900  0.793000  0.643630  1.0  0.1322
  H  H86  1  0.466300  0.730500  0.704530  1.0  0.1207
  H  H87  1  0.560200  0.853200  0.669430  1.0  0.1138
  H  H88  1  0.989400  0.831600  0.782600  1.0  0.1343
  H  H89  1  0.068400  0.970200  0.788200  1.0  0.1263
  H  H90  1  0.120400  0.895400  0.751900  1.0  0.1284
  H  H91  1  0.065300  0.021200  0.578700  1.0  0.1031
  H  H92  1  0.160700  0.009400  0.627100  1.0  0.1487
  H  H93  1  0.107200  0.086100  0.658200  1.0  0.1106
  H  H94  1  0.010600  0.842200  0.550730  1.0  0.1375
  H  H95  1  0.931600  0.901800  0.545130  1.0  0.1301
  H  H96  1  0.879600  0.775000  0.581430  1.0  0.1257
  H  H97  1  0.934700  0.955900  0.754630  1.0  0.1005
  H  H98  1  0.839300  0.848700  0.706230  1.0  0.1388
  H  H99  1  0.892800  0.978900  0.675130  1.0  0.1109
  H  H100  1  0.842200  0.010600  0.115930  1.0  0.1357
  H  H101  1  0.901800  0.931600  0.121530  1.0  0.1294
  H  H102  1  0.775000  0.879600  0.085230  1.0  0.1273
  H  H103  1  0.955900  0.934700  0.912030  1.0  0.1035
  H  H104  1  0.848700  0.839300  0.960430  1.0  0.1442
  H  H105  1  0.978900  0.892800  0.991530  1.0  0.1103
  H  H106  1  0.831600  0.989400  0.884070  1.0  0.1337
  H  H107  1  0.970200  0.068400  0.878470  1.0  0.1289
  H  H108  1  0.895400  0.120400  0.914770  1.0  0.1276
  H  H109  1  0.021200  0.065300  0.087970  1.0  0.1034
  H  H110  1  0.009400  0.160700  0.039570  1.0  0.1413
  H  H111  1  0.086100  0.107200  0.008470  1.0  0.1108
  H  H112  1  0.168400  0.157800  0.449270  1.0  0.1383
  H  H113  1  0.029800  0.098200  0.454870  1.0  0.1298
  H  H114  1  0.104600  0.225000  0.418570  1.0  0.1274
  H  H115  1  0.978800  0.044100  0.245370  1.0  0.103
  H  H116  1  0.990600  0.151300  0.293770  1.0  0.1426
  H  H117  1  0.913900  0.021100  0.324870  1.0  0.1116
  H  H118  1  0.157800  0.168400  0.217400  1.0  0.1341
  H  H119  1  0.098200  0.029800  0.211800  1.0  0.1279
  H  H120  1  0.225000  0.104600  0.248100  1.0  0.129
  H  H121  1  0.044100  0.978800  0.421300  1.0  0.1025
  H  H122  1  0.151300  0.990600  0.372900  1.0  0.1486
  H  H123  1  0.021100  0.913900  0.341800  1.0  0.1104
  C  C124  1  0.459300  0.351700  0.515100  1.0  -0.0286
  C  C125  1  0.544200  0.410400  0.586500  1.0  0.2204
  C  C126  1  0.520900  0.511600  0.607000  1.0  -0.223
  C  C127  1  0.384900  0.459200  0.594500  1.0  -0.0999
  C  C128  1  0.355600  0.368200  0.533800  1.0  -0.135
  C  C129  1  0.508200  0.417500  0.438500  1.0  -0.3328
  C  C130  1  0.670500  0.455100  0.568200  1.0  -0.4014
  C  C131  1  0.520700  0.326400  0.647300  1.0  -0.408
  C  C132  1  0.428900  0.223300  0.503700  1.0  0.6188
  C  C133  1  0.564500  0.562400  0.686700  1.0  0.6856
  C  C134  1  0.892400  0.540700  0.848430  1.0  -0.029
  C  C135  1  0.866200  0.455800  0.919830  1.0  0.2207
  C  C136  1  0.990700  0.479100  0.940330  1.0  -0.2251
  C  C137  1  0.074300  0.615100  0.927830  1.0  -0.1027
  C  C138  1  0.012600  0.644400  0.867130  1.0  -0.1372
  C  C139  1  0.909300  0.491800  0.771830  1.0  -0.3343
  C  C140  1  0.784600  0.329500  0.901530  1.0  -0.3997
  C  C141  1  0.805700  0.479300  0.980630  1.0  -0.4126
  C  C142  1  0.794400  0.571100  0.837030  1.0  0.6181
  C  C143  1  0.997900  0.435500  0.020030  1.0  0.6857
  C  C144  1  0.648300  0.107600  0.181770  1.0  -0.028
  C  C145  1  0.589600  0.133800  0.253170  1.0  0.2204
  C  C146  1  0.488400  0.009300  0.273670  1.0  -0.2277
  C  C147  1  0.540800  0.925700  0.261170  1.0  -0.1003
  C  C148  1  0.631800  0.987400  0.200470  1.0  -0.1387
  C  C149  1  0.582500  0.090700  0.105170  1.0  -0.3331
  C  C150  1  0.544900  0.215400  0.234870  1.0  -0.4031
  C  C151  1  0.673600  0.194300  0.313970  1.0  -0.4123
  C  C152  1  0.776700  0.205600  0.170370  1.0  0.6168
  C  C153  1  0.437600  0.002100  0.353370  1.0  0.6851
  C  C154  1  0.107600  0.648300  0.484900  1.0  -0.0296
  C  C155  1  0.133800  0.589600  0.413500  1.0  0.2212
  C  C156  1  0.009300  0.488400  0.393000  1.0  -0.2215
  C  C157  1  0.925700  0.540800  0.405500  1.0  -0.099
  C  C158  1  0.987400  0.631800  0.466200  1.0  -0.1357
  C  C159  1  0.090700  0.582500  0.561500  1.0  -0.3319
  C  C160  1  0.215400  0.544900  0.431800  1.0  -0.4016
  C  C161  1  0.194300  0.673600  0.352700  1.0  -0.4077
  C  C162  1  0.205600  0.776700  0.496300  1.0  0.6198
  C  C163  1  0.002100  0.437600  0.313300  1.0  0.6868
  C  C164  1  0.351700  0.459300  0.151570  1.0  -0.0295
  C  C165  1  0.410400  0.544200  0.080170  1.0  0.221
  C  C166  1  0.511600  0.520900  0.059670  1.0  -0.225
  C  C167  1  0.459200  0.384900  0.072170  1.0  -0.1028
  C  C168  1  0.368200  0.355600  0.132870  1.0  -0.1374
  C  C169  1  0.417500  0.508200  0.228170  1.0  -0.333
  C  C170  1  0.455100  0.670500  0.098470  1.0  -0.4001
  C  C171  1  0.326400  0.520700  0.019370  1.0  -0.4125
  C  C172  1  0.223300  0.428900  0.162970  1.0  0.6168
  C  C173  1  0.562400  0.564500  0.979970  1.0  0.6864
  C  C174  1  0.540700  0.892400  0.818230  1.0  -0.0287
  C  C175  1  0.455800  0.866200  0.746830  1.0  0.2217
  C  C176  1  0.479100  0.990700  0.726330  1.0  -0.2279
  C  C177  1  0.615100  0.074300  0.738830  1.0  -0.1019
  C  C178  1  0.644400  0.012600  0.799530  1.0  -0.1386
  C  C179  1  0.491800  0.909300  0.894830  1.0  -0.3331
  C  C180  1  0.329500  0.784600  0.765130  1.0  -0.4036
  C  C181  1  0.479300  0.805700  0.686030  1.0  -0.4115
  C  C182  1  0.571100  0.794400  0.829630  1.0  0.6154
  C  C183  1  0.435500  0.997900  0.646630  1.0  0.6866
  C  C184  1  0.050000  0.901000  0.757600  1.0  -0.1816
  C  C185  1  0.090400  0.016000  0.629800  1.0  -0.2721
  C  C186  1  0.950000  0.851000  0.575730  1.0  -0.1757
  C  C187  1  0.909600  0.925600  0.703530  1.0  -0.2753
  C  C188  1  0.851000  0.950000  0.090930  1.0  -0.1782
  C  C189  1  0.925600  0.909600  0.963130  1.0  -0.2716
  C  C190  1  0.901000  0.050000  0.909070  1.0  -0.1653
  C  C191  1  0.016000  0.090400  0.036870  1.0  -0.2731
  C  C192  1  0.099000  0.149000  0.424270  1.0  -0.17
  C  C193  1  0.984000  0.074400  0.296470  1.0  -0.2753
  C  C194  1  0.149000  0.099000  0.242400  1.0  -0.1711
  C  C195  1  0.074400  0.984000  0.370200  1.0  -0.2727
  N  N196  1  0.000000  0.915900  0.666667  1.0  0.1478
  N  N197  1  0.915900  0.000000  0.000000  1.0  0.1365
  N  N198  1  0.084100  0.084100  0.333333  1.0  0.1476
  O  O199  1  0.324500  0.138000  0.514300  1.0  -0.6179
  O  O200  1  0.511600  0.203000  0.487100  1.0  -0.5779
  O  O201  1  0.497100  0.515700  0.743300  1.0  -0.605
  O  O202  1  0.667300  0.643700  0.697900  1.0  -0.6468
  O  O203  1  0.813500  0.675500  0.847630  1.0  -0.6186
  O  O204  1  0.691400  0.488400  0.820430  1.0  -0.5781
  O  O205  1  0.018600  0.502900  0.076630  1.0  -0.6039
  O  O206  1  0.976400  0.332700  0.031230  1.0  -0.6457
  O  O207  1  0.862000  0.186500  0.180970  1.0  -0.6173
  O  O208  1  0.797000  0.308600  0.153770  1.0  -0.5771
  O  O209  1  0.484300  0.981400  0.409970  1.0  -0.605
  O  O210  1  0.356300  0.023600  0.364570  1.0  -0.6469
  O  O211  1  0.186500  0.862000  0.485700  1.0  -0.6184
  O  O212  1  0.308600  0.797000  0.512900  1.0  -0.5771
  O  O213  1  0.981400  0.484300  0.256700  1.0  -0.6047
  O  O214  1  0.023600  0.356300  0.302100  1.0  -0.6465
  O  O215  1  0.138000  0.324500  0.152370  1.0  -0.6176
  O  O216  1  0.203000  0.511600  0.179570  1.0  -0.579
  O  O217  1  0.515700  0.497100  0.923370  1.0  -0.6038
  O  O218  1  0.643700  0.667300  0.968770  1.0  -0.6447
  O  O219  1  0.675500  0.813500  0.819030  1.0  -0.6175
  O  O220  1  0.488400  0.691400  0.846230  1.0  -0.5804
  O  O221  1  0.502900  0.018600  0.590030  1.0  -0.6036
  O  O222  1  0.332700  0.976400  0.635430  1.0  -0.6469
