# generated using pymatgen
data_La2H12(C4O5)3
_symmetry_space_group_name_H-M   'P 1'
_cell_length_a   9.52280000
_cell_length_b   9.52280000
_cell_length_c   17.47000000
_cell_angle_alpha   90.00000000
_cell_angle_beta   90.00000000
_cell_angle_gamma   120.00000000
_symmetry_Int_Tables_number   1
_chemical_formula_structural   La2H12(C4O5)3
_chemical_formula_sum   'La4 H24 C24 O30'
_cell_volume   1371.99605694
_cell_formula_units_Z   2
loop_
 _symmetry_equiv_pos_site_id
 _symmetry_equiv_pos_as_xyz
  1  'x, y, z'
loop_
 _atom_site_type_symbol
 _atom_site_label
 _atom_site_symmetry_multiplicity
 _atom_site_fract_x
 _atom_site_fract_y
 _atom_site_fract_z
 _atom_site_occupancy
 _atom_site_charge
  La  La1  1  0.333333  0.666667  0.750000  1.0  2.2648
  La  La2  1  0.666667  0.333333  0.250000  1.0  2.2648
  La  La3  1  0.000000  0.000000  0.000000  1.0  2.0531
  La  La4  1  0.000000  0.000000  0.500000  1.0  2.0531
  H  H5  1  0.503000  0.670300  0.975700  1.0  0.0917
  H  H6  1  0.575300  0.595300  0.918600  1.0  0.1082
  H  H7  1  0.167300  0.497000  0.975700  1.0  0.0927
  H  H8  1  0.020000  0.424700  0.918600  1.0  0.1085
  H  H9  1  0.329700  0.832700  0.975700  1.0  0.0934
  H  H10  1  0.404700  0.980000  0.918600  1.0  0.1086
  H  H11  1  0.503000  0.670300  0.524300  1.0  0.0918
  H  H12  1  0.575300  0.595300  0.581400  1.0  0.109
  H  H13  1  0.167300  0.497000  0.524300  1.0  0.0931
  H  H14  1  0.020000  0.424700  0.581400  1.0  0.1096
  H  H15  1  0.329700  0.832700  0.524300  1.0  0.093
  H  H16  1  0.404700  0.980000  0.581400  1.0  0.1089
  H  H17  1  0.832700  0.329700  0.024300  1.0  0.0918
  H  H18  1  0.980000  0.404700  0.081400  1.0  0.1084
  H  H19  1  0.670300  0.503000  0.024300  1.0  0.0931
  H  H20  1  0.595300  0.575300  0.081400  1.0  0.1094
  H  H21  1  0.497000  0.167300  0.024300  1.0  0.0931
  H  H22  1  0.424700  0.020000  0.081400  1.0  0.109
  H  H23  1  0.832700  0.329700  0.475700  1.0  0.0916
  H  H24  1  0.980000  0.404700  0.418600  1.0  0.1081
  H  H25  1  0.670300  0.503000  0.475700  1.0  0.0936
  H  H26  1  0.595300  0.575300  0.418600  1.0  0.1084
  H  H27  1  0.497000  0.167300  0.475700  1.0  0.0926
  H  H28  1  0.424700  0.020000  0.418600  1.0  0.1081
  C  C29  1  0.650300  0.833300  0.894700  1.0  0.762
  C  C30  1  0.599800  0.691400  0.947900  1.0  -0.0829
  C  C31  1  0.183000  0.349700  0.894700  1.0  0.7616
  C  C32  1  0.091600  0.400200  0.947900  1.0  -0.0815
  C  C33  1  0.166700  0.817000  0.894700  1.0  0.7634
  C  C34  1  0.308600  0.908400  0.947900  1.0  -0.082
  C  C35  1  0.650300  0.833300  0.605300  1.0  0.763
  C  C36  1  0.599800  0.691400  0.552100  1.0  -0.083
  C  C37  1  0.183000  0.349700  0.605300  1.0  0.7642
  C  C38  1  0.091600  0.400200  0.552100  1.0  -0.0814
  C  C39  1  0.166700  0.817000  0.605300  1.0  0.7638
  C  C40  1  0.308600  0.908400  0.552100  1.0  -0.0824
  C  C41  1  0.817000  0.166700  0.105300  1.0  0.763
  C  C42  1  0.908400  0.308600  0.052100  1.0  -0.0822
  C  C43  1  0.833300  0.650300  0.105300  1.0  0.7636
  C  C44  1  0.691400  0.599800  0.052100  1.0  -0.0818
  C  C45  1  0.349700  0.183000  0.105300  1.0  0.7641
  C  C46  1  0.400200  0.091600  0.052100  1.0  -0.0822
  C  C47  1  0.817000  0.166700  0.394700  1.0  0.761
  C  C48  1  0.908400  0.308600  0.447900  1.0  -0.0825
  C  C49  1  0.833300  0.650300  0.394700  1.0  0.7623
  C  C50  1  0.691400  0.599800  0.447900  1.0  -0.0817
  C  C51  1  0.349700  0.183000  0.394700  1.0  0.7633
  C  C52  1  0.400200  0.091600  0.447900  1.0  -0.0815
  O  O53  1  0.549100  0.822600  0.845100  1.0  -0.7701
  O  O54  1  0.786500  0.959000  0.904300  1.0  -0.6602
  O  O55  1  0.273500  0.450900  0.845100  1.0  -0.7702
  O  O56  1  0.172500  0.213500  0.904300  1.0  -0.6611
  O  O57  1  0.177400  0.726500  0.845100  1.0  -0.7753
  O  O58  1  0.041000  0.827500  0.904300  1.0  -0.6623
  O  O59  1  0.549100  0.822600  0.654900  1.0  -0.7715
  O  O60  1  0.786500  0.959000  0.595700  1.0  -0.6611
  O  O61  1  0.273500  0.450900  0.654900  1.0  -0.7706
  O  O62  1  0.172500  0.213500  0.595700  1.0  -0.6624
  O  O63  1  0.177400  0.726500  0.654900  1.0  -0.7766
  O  O64  1  0.041000  0.827500  0.595700  1.0  -0.6643
  O  O65  1  0.726500  0.177400  0.154900  1.0  -0.7713
  O  O66  1  0.827500  0.041000  0.095700  1.0  -0.6611
  O  O67  1  0.822600  0.549100  0.154900  1.0  -0.7717
  O  O68  1  0.959000  0.786500  0.095700  1.0  -0.6617
  O  O69  1  0.450900  0.273500  0.154900  1.0  -0.7768
  O  O70  1  0.213500  0.172500  0.095700  1.0  -0.6635
  O  O71  1  0.726500  0.177400  0.345100  1.0  -0.7701
  O  O72  1  0.827500  0.041000  0.404300  1.0  -0.6599
  O  O73  1  0.822600  0.549100  0.345100  1.0  -0.7717
  O  O74  1  0.959000  0.786500  0.404300  1.0  -0.661
  O  O75  1  0.450900  0.273500  0.345100  1.0  -0.7751
  O  O76  1  0.213500  0.172500  0.404300  1.0  -0.6614
  O  O77  1  0.727200  0.727200  0.000000  1.0  -0.3358
  O  O78  1  0.000000  0.272800  0.000000  1.0  -0.3367
  O  O79  1  0.272800  0.000000  0.000000  1.0  -0.3329
  O  O80  1  0.727200  0.727200  0.500000  1.0  -0.3358
  O  O81  1  0.000000  0.272800  0.500000  1.0  -0.3367
  O  O82  1  0.272800  0.000000  0.500000  1.0  -0.3329
