# generated using pymatgen
data_Zn5(PO4)4
_symmetry_space_group_name_H-M   'P 1'
_cell_length_a   15.93460000
_cell_length_b   7.40390000
_cell_length_c   16.20920000
_cell_angle_alpha   90.00000000
_cell_angle_beta   111.88500000
_cell_angle_gamma   90.00000000
_symmetry_Int_Tables_number   1
_chemical_formula_structural   Zn5(PO4)4
_chemical_formula_sum   'Zn20 P16 O64'
_cell_volume   1774.51762929
_cell_formula_units_Z   4
loop_
 _symmetry_equiv_pos_site_id
 _symmetry_equiv_pos_as_xyz
  1  'x, y, z'
loop_
 _atom_site_type_symbol
 _atom_site_label
 _atom_site_symmetry_multiplicity
 _atom_site_fract_x
 _atom_site_fract_y
 _atom_site_fract_z
 _atom_site_occupancy
 _atom_site_charge
  Zn  Zn1  1  0.382390  0.569500  0.499100  1.0  0.9895
  Zn  Zn2  1  0.271520  0.023300  0.653190  1.0  1.0926
  Zn  Zn3  1  0.244940  0.074100  0.872770  1.0  1.1274
  Zn  Zn4  1  0.401920  0.014000  0.531710  1.0  1.072
  Zn  Zn5  1  0.959240  0.147400  0.711480  1.0  1.1431
  Zn  Zn6  1  0.117610  0.069500  0.000900  1.0  0.9917
  Zn  Zn7  1  0.228480  0.523300  0.846810  1.0  1.092
  Zn  Zn8  1  0.255060  0.574100  0.627230  1.0  1.1266
  Zn  Zn9  1  0.098080  0.514000  0.968290  1.0  1.071
  Zn  Zn10  1  0.540760  0.647400  0.788520  1.0  1.1455
  Zn  Zn11  1  0.617610  0.430500  0.500900  1.0  0.9917
  Zn  Zn12  1  0.728480  0.976700  0.346810  1.0  1.0922
  Zn  Zn13  1  0.755060  0.925900  0.127230  1.0  1.1265
  Zn  Zn14  1  0.598080  0.986000  0.468290  1.0  1.0712
  Zn  Zn15  1  0.040760  0.852600  0.288520  1.0  1.144
  Zn  Zn16  1  0.882390  0.930500  0.999100  1.0  0.9904
  Zn  Zn17  1  0.771520  0.476700  0.153190  1.0  1.0926
  Zn  Zn18  1  0.744940  0.425900  0.372770  1.0  1.1272
  Zn  Zn19  1  0.901920  0.486000  0.031710  1.0  1.0722
  Zn  Zn20  1  0.459240  0.352600  0.211480  1.0  1.1426
  P  P21  1  0.137000  0.276600  0.690000  1.0  1.8178
  P  P22  1  0.416600  0.318700  0.666300  1.0  1.8412
  P  P23  1  0.433900  0.249200  0.389300  1.0  1.9684
  P  P24  1  0.218900  0.832300  0.468300  1.0  1.8021
  P  P25  1  0.363000  0.776600  0.810000  1.0  1.8217
  P  P26  1  0.083400  0.818700  0.833700  1.0  1.8385
  P  P27  1  0.066100  0.749200  0.110700  1.0  1.9737
  P  P28  1  0.281100  0.332300  0.031700  1.0  1.8032
  P  P29  1  0.863000  0.723400  0.310000  1.0  1.8216
  P  P30  1  0.583400  0.681300  0.333700  1.0  1.8386
  P  P31  1  0.566100  0.750800  0.610700  1.0  1.9733
  P  P32  1  0.781100  0.167700  0.531700  1.0  1.8034
  P  P33  1  0.637000  0.223400  0.190000  1.0  1.8178
  P  P34  1  0.916600  0.181300  0.166300  1.0  1.8416
  P  P35  1  0.933900  0.250800  0.889300  1.0  1.9683
  P  P36  1  0.718900  0.667700  0.968300  1.0  1.8019
  O  O37  1  0.410600  0.436600  0.412300  1.0  -0.8164
  O  O38  1  0.281100  0.728100  0.432900  1.0  -0.7455
  O  O39  1  0.357100  0.465900  0.601100  1.0  -0.9161
  O  O40  1  0.463700  0.777800  0.560000  1.0  -0.9109
  O  O41  1  0.356800  0.215200  0.703600  1.0  -0.7705
  O  O42  1  0.156000  0.096400  0.653700  1.0  -0.7522
  O  O43  1  0.191800  0.282000  0.791900  1.0  -0.9062
  O  O44  1  0.277800  0.981000  0.533700  1.0  -0.92
  O  O45  1  0.165000  0.438500  0.648900  1.0  -0.8335
  O  O46  1  0.180500  0.710200  0.522300  1.0  -0.7379
  O  O47  1  0.459200  0.199800  0.616300  1.0  -0.7707
  O  O48  1  0.383400  0.099500  0.414400  1.0  -0.7429
  O  O49  1  0.411000  0.236400  0.289500  1.0  -0.7596
  O  O50  1  0.036300  0.295200  0.671800  1.0  -0.7367
  O  O51  1  0.491300  0.410200  0.742200  1.0  -0.8039
  O  O52  1  0.143600  0.926400  0.394200  1.0  -0.7365
  O  O53  1  0.089400  0.936600  0.087700  1.0  -0.8161
  O  O54  1  0.218900  0.228100  0.067100  1.0  -0.7458
  O  O55  1  0.142900  0.965900  0.898900  1.0  -0.9164
  O  O56  1  0.036300  0.277800  0.940000  1.0  -0.9122
  O  O57  1  0.143200  0.715200  0.796400  1.0  -0.7717
  O  O58  1  0.344000  0.596400  0.846300  1.0  -0.7519
  O  O59  1  0.308200  0.782000  0.708100  1.0  -0.9071
  O  O60  1  0.222200  0.481000  0.966300  1.0  -0.9188
  O  O61  1  0.335000  0.938500  0.851100  1.0  -0.8349
  O  O62  1  0.319500  0.210200  0.977700  1.0  -0.7374
  O  O63  1  0.040800  0.699800  0.883700  1.0  -0.7714
  O  O64  1  0.116600  0.599500  0.085600  1.0  -0.7421
  O  O65  1  0.089000  0.736400  0.210500  1.0  -0.7578
  O  O66  1  0.463700  0.795200  0.828200  1.0  -0.7354
  O  O67  1  0.008700  0.910200  0.757800  1.0  -0.8058
  O  O68  1  0.356400  0.426400  0.105800  1.0  -0.7361
  O  O69  1  0.589400  0.563400  0.587700  1.0  -0.8157
  O  O70  1  0.718900  0.271900  0.567100  1.0  -0.7454
  O  O71  1  0.642900  0.534100  0.398900  1.0  -0.9165
  O  O72  1  0.536300  0.222200  0.440000  1.0  -0.9134
  O  O73  1  0.643200  0.784800  0.296400  1.0  -0.7712
  O  O74  1  0.844000  0.903600  0.346300  1.0  -0.751
  O  O75  1  0.808200  0.718000  0.208100  1.0  -0.9057
  O  O76  1  0.722200  0.019000  0.466300  1.0  -0.9179
  O  O77  1  0.835000  0.561500  0.351100  1.0  -0.8346
  O  O78  1  0.819500  0.289800  0.477700  1.0  -0.7376
  O  O79  1  0.540800  0.800200  0.383700  1.0  -0.771
  O  O80  1  0.616600  0.900500  0.585600  1.0  -0.7414
  O  O81  1  0.589000  0.763600  0.710500  1.0  -0.7577
  O  O82  1  0.963700  0.704800  0.328200  1.0  -0.7355
  O  O83  1  0.508700  0.589800  0.257800  1.0  -0.8043
  O  O84  1  0.856400  0.073600  0.605800  1.0  -0.7377
  O  O85  1  0.910600  0.063400  0.912300  1.0  -0.8161
  O  O86  1  0.781100  0.771900  0.932900  1.0  -0.7459
  O  O87  1  0.857100  0.034100  0.101100  1.0  -0.9165
  O  O88  1  0.963700  0.722200  0.060000  1.0  -0.912
  O  O89  1  0.856800  0.284800  0.203600  1.0  -0.7705
  O  O90  1  0.656000  0.403600  0.153700  1.0  -0.7509
  O  O91  1  0.691800  0.218000  0.291900  1.0  -0.9078
  O  O92  1  0.777800  0.519000  0.033700  1.0  -0.9187
  O  O93  1  0.665000  0.061500  0.148900  1.0  -0.8339
  O  O94  1  0.680500  0.789800  0.022300  1.0  -0.7371
  O  O95  1  0.959200  0.300200  0.116300  1.0  -0.7704
  O  O96  1  0.883400  0.400500  0.914400  1.0  -0.7417
  O  O97  1  0.911000  0.263600  0.789500  1.0  -0.759
  O  O98  1  0.536300  0.204800  0.171800  1.0  -0.7367
  O  O99  1  0.991300  0.089800  0.242200  1.0  -0.8034
  O  O100  1  0.643600  0.573600  0.894200  1.0  -0.7375
