# generated using pymatgen
data_FeH4Pt(C4N3)2
_symmetry_space_group_name_H-M   'P 1'
_cell_length_a   14.19500000
_cell_length_b   14.64400000
_cell_length_c   29.17500000
_cell_angle_alpha   90.00000000
_cell_angle_beta   90.00000000
_cell_angle_gamma   90.00000000
_symmetry_Int_Tables_number   1
_chemical_formula_structural   FeH4Pt(C4N3)2
_chemical_formula_sum   'Fe16 H64 Pt16 C128 N96'
_cell_volume   6064.65334650
_cell_formula_units_Z   16
loop_
 _symmetry_equiv_pos_site_id
 _symmetry_equiv_pos_as_xyz
  1  'x, y, z'
loop_
 _atom_site_type_symbol
 _atom_site_label
 _atom_site_symmetry_multiplicity
 _atom_site_fract_x
 _atom_site_fract_y
 _atom_site_fract_z
 _atom_site_occupancy
 _atom_site_charge
  Fe  Fe1  1  0.250000  0.250000  0.500000  1.0  0.9041
  Fe  Fe2  1  0.250000  0.750000  0.000000  1.0  0.9041
  Fe  Fe3  1  0.750000  0.750000  0.500000  1.0  0.9041
  Fe  Fe4  1  0.750000  0.250000  0.000000  1.0  0.9041
  Fe  Fe5  1  0.750000  0.250000  0.500000  1.0  0.9041
  Fe  Fe6  1  0.750000  0.750000  0.000000  1.0  0.9041
  Fe  Fe7  1  0.250000  0.250000  0.000000  1.0  0.9041
  Fe  Fe8  1  0.250000  0.750000  0.500000  1.0  0.9041
  Fe  Fe9  1  0.250000  0.250000  0.250000  1.0  0.9391
  Fe  Fe10  1  0.750000  0.750000  0.250000  1.0  0.9391
  Fe  Fe11  1  0.750000  0.250000  0.750000  1.0  0.9391
  Fe  Fe12  1  0.250000  0.750000  0.750000  1.0  0.9391
  Fe  Fe13  1  0.750000  0.750000  0.750000  1.0  0.9391
  Fe  Fe14  1  0.750000  0.250000  0.250000  1.0  0.9391
  Fe  Fe15  1  0.250000  0.750000  0.250000  1.0  0.9391
  Fe  Fe16  1  0.250000  0.250000  0.750000  1.0  0.9391
  H  H17  1  0.080300  0.118200  0.263300  1.0  0.0712
  H  H18  1  0.080300  0.618200  0.763300  1.0  0.0712
  H  H19  1  0.580300  0.118200  0.763300  1.0  0.0712
  H  H20  1  0.580300  0.618200  0.263300  1.0  0.0712
  H  H21  1  0.919700  0.881800  0.263300  1.0  0.0715
  H  H22  1  0.919700  0.381800  0.763300  1.0  0.0715
  H  H23  1  0.419700  0.881800  0.763300  1.0  0.0715
  H  H24  1  0.419700  0.381800  0.263300  1.0  0.0715
  H  H25  1  0.919700  0.118200  0.736700  1.0  0.0711
  H  H26  1  0.919700  0.618200  0.236700  1.0  0.0711
  H  H27  1  0.419700  0.118200  0.236700  1.0  0.0711
  H  H28  1  0.419700  0.618200  0.736700  1.0  0.0711
  H  H29  1  0.080300  0.881800  0.736700  1.0  0.0709
  H  H30  1  0.080300  0.381800  0.236700  1.0  0.0709
  H  H31  1  0.580300  0.881800  0.236700  1.0  0.0709
  H  H32  1  0.580300  0.381800  0.736700  1.0  0.0709
  H  H33  1  0.919700  0.881800  0.736700  1.0  0.0712
  H  H34  1  0.919700  0.381800  0.236700  1.0  0.0712
  H  H35  1  0.419700  0.881800  0.236700  1.0  0.0712
  H  H36  1  0.419700  0.381800  0.736700  1.0  0.0712
  H  H37  1  0.080300  0.118200  0.736700  1.0  0.0709
  H  H38  1  0.080300  0.618200  0.236700  1.0  0.0709
  H  H39  1  0.580300  0.118200  0.236700  1.0  0.0709
  H  H40  1  0.580300  0.618200  0.736700  1.0  0.0709
  H  H41  1  0.080300  0.881800  0.263300  1.0  0.0703
  H  H42  1  0.080300  0.381800  0.763300  1.0  0.0703
  H  H43  1  0.580300  0.881800  0.763300  1.0  0.0703
  H  H44  1  0.580300  0.381800  0.263300  1.0  0.0703
  H  H45  1  0.919700  0.118200  0.263300  1.0  0.0706
  H  H46  1  0.919700  0.618200  0.763300  1.0  0.0706
  H  H47  1  0.419700  0.118200  0.763300  1.0  0.0706
  H  H48  1  0.419700  0.618200  0.263300  1.0  0.0706
  H  H49  1  0.081000  0.110000  0.500000  1.0  0.0604
  H  H50  1  0.081300  0.378000  0.500000  1.0  0.0657
  H  H51  1  0.081000  0.610000  0.000000  1.0  0.0604
  H  H52  1  0.081300  0.878000  0.000000  1.0  0.0657
  H  H53  1  0.581000  0.110000  0.000000  1.0  0.0604
  H  H54  1  0.581300  0.378000  0.000000  1.0  0.0657
  H  H55  1  0.581000  0.610000  0.500000  1.0  0.0604
  H  H56  1  0.581300  0.878000  0.500000  1.0  0.0657
  H  H57  1  0.919000  0.890000  0.500000  1.0  0.0606
  H  H58  1  0.918700  0.622000  0.500000  1.0  0.0655
  H  H59  1  0.919000  0.390000  0.000000  1.0  0.0606
  H  H60  1  0.918700  0.122000  0.000000  1.0  0.0655
  H  H61  1  0.419000  0.890000  0.000000  1.0  0.0606
  H  H62  1  0.418700  0.622000  0.000000  1.0  0.0655
  H  H63  1  0.419000  0.390000  0.500000  1.0  0.0606
  H  H64  1  0.418700  0.122000  0.500000  1.0  0.0655
  H  H65  1  0.919000  0.110000  0.500000  1.0  0.0605
  H  H66  1  0.918700  0.378000  0.500000  1.0  0.0658
  H  H67  1  0.919000  0.610000  0.000000  1.0  0.0605
  H  H68  1  0.918700  0.878000  0.000000  1.0  0.0658
  H  H69  1  0.419000  0.110000  0.000000  1.0  0.0605
  H  H70  1  0.418700  0.378000  0.000000  1.0  0.0658
  H  H71  1  0.419000  0.610000  0.500000  1.0  0.0605
  H  H72  1  0.418700  0.878000  0.500000  1.0  0.0658
  H  H73  1  0.081000  0.890000  0.500000  1.0  0.0603
  H  H74  1  0.081300  0.622000  0.500000  1.0  0.0658
  H  H75  1  0.081000  0.390000  0.000000  1.0  0.0603
  H  H76  1  0.081300  0.122000  0.000000  1.0  0.0658
  H  H77  1  0.581000  0.890000  0.000000  1.0  0.0603
  H  H78  1  0.581300  0.622000  0.000000  1.0  0.0658
  H  H79  1  0.581000  0.390000  0.500000  1.0  0.0603
  H  H80  1  0.581300  0.122000  0.500000  1.0  0.0658
  Pt  Pt81  1  0.269500  0.000000  0.374970  1.0  0.1118
  Pt  Pt82  1  0.269500  0.500000  0.874970  1.0  0.1118
  Pt  Pt83  1  0.769500  0.000000  0.874970  1.0  0.1118
  Pt  Pt84  1  0.769500  0.500000  0.374970  1.0  0.1118
  Pt  Pt85  1  0.730500  0.000000  0.374970  1.0  0.1117
  Pt  Pt86  1  0.730500  0.500000  0.874970  1.0  0.1117
  Pt  Pt87  1  0.230500  0.000000  0.874970  1.0  0.1117
  Pt  Pt88  1  0.230500  0.500000  0.374970  1.0  0.1117
  Pt  Pt89  1  0.730500  0.000000  0.625030  1.0  0.112
  Pt  Pt90  1  0.730500  0.500000  0.125030  1.0  0.112
  Pt  Pt91  1  0.230500  0.000000  0.125030  1.0  0.112
  Pt  Pt92  1  0.230500  0.500000  0.625030  1.0  0.112
  Pt  Pt93  1  0.269500  0.000000  0.625030  1.0  0.1121
  Pt  Pt94  1  0.269500  0.500000  0.125030  1.0  0.1121
  Pt  Pt95  1  0.769500  0.000000  0.125030  1.0  0.1121
  Pt  Pt96  1  0.769500  0.500000  0.625030  1.0  0.1121
  C  C97  1  0.266500  0.095900  0.423600  1.0  0.1125
  C  C98  1  0.265400  0.095500  0.326300  1.0  0.1056
  C  C99  1  0.048300  0.174000  0.257600  1.0  0.106
  C  C100  1  0.266500  0.595900  0.923600  1.0  0.1125
  C  C101  1  0.265400  0.595500  0.826300  1.0  0.1056
  C  C102  1  0.048300  0.674000  0.757600  1.0  0.106
  C  C103  1  0.766500  0.095900  0.923600  1.0  0.1125
  C  C104  1  0.765400  0.095500  0.826300  1.0  0.1056
  C  C105  1  0.548300  0.174000  0.757600  1.0  0.106
  C  C106  1  0.766500  0.595900  0.423600  1.0  0.1125
  C  C107  1  0.765400  0.595500  0.326300  1.0  0.1056
  C  C108  1  0.548300  0.674000  0.257600  1.0  0.1061
  C  C109  1  0.733500  0.904100  0.423600  1.0  0.1124
  C  C110  1  0.734600  0.904500  0.326300  1.0  0.1049
  C  C111  1  0.951700  0.826000  0.257600  1.0  0.1046
  C  C112  1  0.733500  0.404100  0.923600  1.0  0.1124
  C  C113  1  0.734600  0.404500  0.826300  1.0  0.1049
  C  C114  1  0.951700  0.326000  0.757600  1.0  0.1046
  C  C115  1  0.233500  0.904100  0.923600  1.0  0.1124
  C  C116  1  0.234600  0.904500  0.826300  1.0  0.1049
  C  C117  1  0.451700  0.826000  0.757600  1.0  0.1046
  C  C118  1  0.233500  0.404100  0.423600  1.0  0.1124
  C  C119  1  0.234600  0.404500  0.326300  1.0  0.1049
  C  C120  1  0.451700  0.326000  0.257600  1.0  0.1046
  C  C121  1  0.733500  0.095900  0.576400  1.0  0.112
  C  C122  1  0.734600  0.095500  0.673700  1.0  0.1061
  C  C123  1  0.951700  0.174000  0.742400  1.0  0.1051
  C  C124  1  0.733500  0.595900  0.076400  1.0  0.112
  C  C125  1  0.734600  0.595500  0.173700  1.0  0.1061
  C  C126  1  0.951700  0.674000  0.242400  1.0  0.1051
  C  C127  1  0.233500  0.095900  0.076400  1.0  0.112
  C  C128  1  0.234600  0.095500  0.173700  1.0  0.1061
  C  C129  1  0.451700  0.174000  0.242400  1.0  0.1051
  C  C130  1  0.233500  0.595900  0.576400  1.0  0.112
  C  C131  1  0.234600  0.595500  0.673700  1.0  0.1061
  C  C132  1  0.451700  0.674000  0.742400  1.0  0.1051
  C  C133  1  0.266500  0.904100  0.576400  1.0  0.1109
  C  C134  1  0.265400  0.904500  0.673700  1.0  0.1078
  C  C135  1  0.048300  0.826000  0.742400  1.0  0.106
  C  C136  1  0.266500  0.404100  0.076400  1.0  0.1109
  C  C137  1  0.265400  0.404500  0.173700  1.0  0.1078
  C  C138  1  0.048300  0.326000  0.242400  1.0  0.106
  C  C139  1  0.766500  0.904100  0.076400  1.0  0.1109
  C  C140  1  0.765400  0.904500  0.173700  1.0  0.1078
  C  C141  1  0.548300  0.826000  0.242400  1.0  0.106
  C  C142  1  0.766500  0.404100  0.576400  1.0  0.1109
  C  C143  1  0.765400  0.404500  0.673700  1.0  0.1078
  C  C144  1  0.548300  0.326000  0.742400  1.0  0.106
  C  C145  1  0.733500  0.904100  0.576400  1.0  0.111
  C  C146  1  0.734600  0.904500  0.673700  1.0  0.1071
  C  C147  1  0.951700  0.826000  0.742400  1.0  0.1051
  C  C148  1  0.733500  0.404100  0.076400  1.0  0.111
  C  C149  1  0.734600  0.404500  0.173700  1.0  0.1071
  C  C150  1  0.951700  0.326000  0.242400  1.0  0.1051
  C  C151  1  0.233500  0.904100  0.076400  1.0  0.111
  C  C152  1  0.234600  0.904500  0.173700  1.0  0.1071
  C  C153  1  0.451700  0.826000  0.242400  1.0  0.1051
  C  C154  1  0.233500  0.404100  0.576400  1.0  0.111
  C  C155  1  0.234600  0.404500  0.673700  1.0  0.1071
  C  C156  1  0.451700  0.326000  0.742400  1.0  0.1051
  C  C157  1  0.266500  0.095900  0.576400  1.0  0.112
  C  C158  1  0.265400  0.095500  0.673700  1.0  0.1077
  C  C159  1  0.048300  0.174000  0.742400  1.0  0.1061
  C  C160  1  0.266500  0.595900  0.076400  1.0  0.112
  C  C161  1  0.265400  0.595500  0.173700  1.0  0.1077
  C  C162  1  0.048300  0.674000  0.242400  1.0  0.1061
  C  C163  1  0.766500  0.095900  0.076400  1.0  0.112
  C  C164  1  0.765400  0.095500  0.173700  1.0  0.1077
  C  C165  1  0.548300  0.174000  0.242400  1.0  0.1061
  C  C166  1  0.766500  0.595900  0.576400  1.0  0.112
  C  C167  1  0.765400  0.595500  0.673700  1.0  0.1077
  C  C168  1  0.548300  0.674000  0.742400  1.0  0.106
  C  C169  1  0.266500  0.904100  0.423600  1.0  0.1122
  C  C170  1  0.265400  0.904500  0.326300  1.0  0.1061
  C  C171  1  0.048300  0.826000  0.257600  1.0  0.1053
  C  C172  1  0.266500  0.404100  0.923600  1.0  0.1122
  C  C173  1  0.265400  0.404500  0.826300  1.0  0.1061
  C  C174  1  0.048300  0.326000  0.757600  1.0  0.1053
  C  C175  1  0.766500  0.904100  0.923600  1.0  0.1122
  C  C176  1  0.765400  0.904500  0.826300  1.0  0.1061
  C  C177  1  0.548300  0.826000  0.757600  1.0  0.1053
  C  C178  1  0.766500  0.404100  0.423600  1.0  0.1122
  C  C179  1  0.765400  0.404500  0.326300  1.0  0.1061
  C  C180  1  0.548300  0.326000  0.257600  1.0  0.1053
  C  C181  1  0.733500  0.095900  0.423600  1.0  0.1127
  C  C182  1  0.734600  0.095500  0.326300  1.0  0.1052
  C  C183  1  0.951700  0.174000  0.257600  1.0  0.1052
  C  C184  1  0.733500  0.595900  0.923600  1.0  0.1127
  C  C185  1  0.734600  0.595500  0.826300  1.0  0.1052
  C  C186  1  0.951700  0.674000  0.757600  1.0  0.1052
  C  C187  1  0.233500  0.095900  0.923600  1.0  0.1127
  C  C188  1  0.234600  0.095500  0.826300  1.0  0.1052
  C  C189  1  0.451700  0.174000  0.757600  1.0  0.1052
  C  C190  1  0.233500  0.595900  0.423600  1.0  0.1127
  C  C191  1  0.234600  0.595500  0.326300  1.0  0.1052
  C  C192  1  0.451700  0.674000  0.257600  1.0  0.1052
  C  C193  1  0.049400  0.167200  0.500000  1.0  0.1009
  C  C194  1  0.049500  0.320900  0.500000  1.0  0.1192
  C  C195  1  0.049400  0.667200  0.000000  1.0  0.1009
  C  C196  1  0.049500  0.820900  0.000000  1.0  0.1192
  C  C197  1  0.549400  0.167200  0.000000  1.0  0.1009
  C  C198  1  0.549500  0.320900  0.000000  1.0  0.1192
  C  C199  1  0.549400  0.667200  0.500000  1.0  0.1009
  C  C200  1  0.549500  0.820900  0.500000  1.0  0.1192
  C  C201  1  0.950600  0.832800  0.500000  1.0  0.1004
  C  C202  1  0.950500  0.679100  0.500000  1.0  0.1186
  C  C203  1  0.950600  0.332800  0.000000  1.0  0.1004
  C  C204  1  0.950500  0.179100  0.000000  1.0  0.1186
  C  C205  1  0.450600  0.832800  0.000000  1.0  0.1004
  C  C206  1  0.450500  0.679100  0.000000  1.0  0.1186
  C  C207  1  0.450600  0.332800  0.500000  1.0  0.1004
  C  C208  1  0.450500  0.179100  0.500000  1.0  0.1186
  C  C209  1  0.950600  0.167200  0.500000  1.0  0.1004
  C  C210  1  0.950500  0.320900  0.500000  1.0  0.1191
  C  C211  1  0.950600  0.667200  0.000000  1.0  0.1004
  C  C212  1  0.950500  0.820900  0.000000  1.0  0.1191
  C  C213  1  0.450600  0.167200  0.000000  1.0  0.1004
  C  C214  1  0.450500  0.320900  0.000000  1.0  0.1191
  C  C215  1  0.450600  0.667200  0.500000  1.0  0.1004
  C  C216  1  0.450500  0.820900  0.500000  1.0  0.1191
  C  C217  1  0.049400  0.832800  0.500000  1.0  0.101
  C  C218  1  0.049500  0.679100  0.500000  1.0  0.119
  C  C219  1  0.049400  0.332800  0.000000  1.0  0.101
  C  C220  1  0.049500  0.179100  0.000000  1.0  0.119
  C  C221  1  0.549400  0.832800  0.000000  1.0  0.101
  C  C222  1  0.549500  0.679100  0.000000  1.0  0.119
  C  C223  1  0.549400  0.332800  0.500000  1.0  0.101
  C  C224  1  0.549500  0.179100  0.500000  1.0  0.119
  N  N225  1  0.259700  0.151300  0.451200  1.0  -0.3788
  N  N226  1  0.257100  0.149700  0.298600  1.0  -0.3763
  N  N227  1  0.259700  0.651300  0.951200  1.0  -0.3788
  N  N228  1  0.257100  0.649700  0.798600  1.0  -0.3763
  N  N229  1  0.759700  0.151300  0.951200  1.0  -0.3788
  N  N230  1  0.757100  0.149700  0.798600  1.0  -0.3763
  N  N231  1  0.759700  0.651300  0.451200  1.0  -0.3788
  N  N232  1  0.757100  0.649700  0.298600  1.0  -0.3763
  N  N233  1  0.740300  0.848700  0.451200  1.0  -0.3776
  N  N234  1  0.742900  0.850300  0.298600  1.0  -0.3761
  N  N235  1  0.740300  0.348700  0.951200  1.0  -0.3776
  N  N236  1  0.742900  0.350300  0.798600  1.0  -0.3761
  N  N237  1  0.240300  0.848700  0.951200  1.0  -0.3776
  N  N238  1  0.242900  0.850300  0.798600  1.0  -0.3761
  N  N239  1  0.240300  0.348700  0.451200  1.0  -0.3776
  N  N240  1  0.242900  0.350300  0.298600  1.0  -0.3761
  N  N241  1  0.740300  0.151300  0.548800  1.0  -0.3792
  N  N242  1  0.742900  0.149700  0.701400  1.0  -0.3754
  N  N243  1  0.740300  0.651300  0.048800  1.0  -0.3792
  N  N244  1  0.742900  0.649700  0.201400  1.0  -0.3754
  N  N245  1  0.240300  0.151300  0.048800  1.0  -0.3792
  N  N246  1  0.242900  0.149700  0.201400  1.0  -0.3754
  N  N247  1  0.240300  0.651300  0.548800  1.0  -0.3792
  N  N248  1  0.242900  0.649700  0.701400  1.0  -0.3754
  N  N249  1  0.259700  0.848700  0.548800  1.0  -0.3788
  N  N250  1  0.257100  0.850300  0.701400  1.0  -0.3753
  N  N251  1  0.259700  0.348700  0.048800  1.0  -0.3788
  N  N252  1  0.257100  0.350300  0.201400  1.0  -0.3753
  N  N253  1  0.759700  0.848700  0.048800  1.0  -0.3788
  N  N254  1  0.757100  0.850300  0.201400  1.0  -0.3753
  N  N255  1  0.759700  0.348700  0.548800  1.0  -0.3788
  N  N256  1  0.757100  0.350300  0.701400  1.0  -0.3753
  N  N257  1  0.740300  0.848700  0.548800  1.0  -0.3786
  N  N258  1  0.742900  0.850300  0.701400  1.0  -0.3753
  N  N259  1  0.740300  0.348700  0.048800  1.0  -0.3786
  N  N260  1  0.742900  0.350300  0.201400  1.0  -0.3753
  N  N261  1  0.240300  0.848700  0.048800  1.0  -0.3786
  N  N262  1  0.242900  0.850300  0.201400  1.0  -0.3753
  N  N263  1  0.240300  0.348700  0.548800  1.0  -0.3786
  N  N264  1  0.242900  0.350300  0.701400  1.0  -0.3753
  N  N265  1  0.259700  0.151300  0.548800  1.0  -0.3797
  N  N266  1  0.257100  0.149700  0.701400  1.0  -0.3755
  N  N267  1  0.259700  0.651300  0.048800  1.0  -0.3797
  N  N268  1  0.257100  0.649700  0.201400  1.0  -0.3755
  N  N269  1  0.759700  0.151300  0.048800  1.0  -0.3797
  N  N270  1  0.757100  0.149700  0.201400  1.0  -0.3755
  N  N271  1  0.759700  0.651300  0.548800  1.0  -0.3797
  N  N272  1  0.757100  0.649700  0.701400  1.0  -0.3755
  N  N273  1  0.259700  0.848700  0.451200  1.0  -0.3776
  N  N274  1  0.257100  0.850300  0.298600  1.0  -0.3762
  N  N275  1  0.259700  0.348700  0.951200  1.0  -0.3776
  N  N276  1  0.257100  0.350300  0.798600  1.0  -0.3762
  N  N277  1  0.759700  0.848700  0.951200  1.0  -0.3776
  N  N278  1  0.757100  0.850300  0.798600  1.0  -0.3762
  N  N279  1  0.759700  0.348700  0.451200  1.0  -0.3776
  N  N280  1  0.757100  0.350300  0.298600  1.0  -0.3762
  N  N281  1  0.740300  0.151300  0.451200  1.0  -0.3783
  N  N282  1  0.742900  0.149700  0.298600  1.0  -0.3763
  N  N283  1  0.740300  0.651300  0.951200  1.0  -0.3783
  N  N284  1  0.742900  0.649700  0.798600  1.0  -0.3763
  N  N285  1  0.240300  0.151300  0.951200  1.0  -0.3783
  N  N286  1  0.242900  0.149700  0.798600  1.0  -0.3763
  N  N287  1  0.240300  0.651300  0.451200  1.0  -0.3783
  N  N288  1  0.242900  0.649700  0.298600  1.0  -0.3763
  N  N289  1  0.102100  0.243700  0.500000  1.0  -0.3546
  N  N290  1  0.102100  0.743700  0.000000  1.0  -0.3546
  N  N291  1  0.602100  0.243700  0.000000  1.0  -0.3546
  N  N292  1  0.602100  0.743700  0.500000  1.0  -0.3546
  N  N293  1  0.897900  0.756300  0.500000  1.0  -0.355
  N  N294  1  0.897900  0.256300  0.000000  1.0  -0.355
  N  N295  1  0.397900  0.756300  0.000000  1.0  -0.355
  N  N296  1  0.397900  0.256300  0.500000  1.0  -0.355
  N  N297  1  0.897900  0.243700  0.500000  1.0  -0.3551
  N  N298  1  0.897900  0.743700  0.000000  1.0  -0.3551
  N  N299  1  0.397900  0.243700  0.000000  1.0  -0.3551
  N  N300  1  0.397900  0.743700  0.500000  1.0  -0.3551
  N  N301  1  0.102100  0.756300  0.500000  1.0  -0.3546
  N  N302  1  0.102100  0.256300  0.000000  1.0  -0.3546
  N  N303  1  0.602100  0.756300  0.000000  1.0  -0.3546
  N  N304  1  0.602100  0.256300  0.500000  1.0  -0.3546
  N  N305  1  0.099900  0.250000  0.250000  1.0  -0.3041
  N  N306  1  0.599900  0.250000  0.750000  1.0  -0.3041
  N  N307  1  0.900100  0.750000  0.250000  1.0  -0.306
  N  N308  1  0.400100  0.750000  0.750000  1.0  -0.306
  N  N309  1  0.400100  0.250000  0.250000  1.0  -0.306
  N  N310  1  0.900100  0.250000  0.750000  1.0  -0.306
  N  N311  1  0.099900  0.750000  0.750000  1.0  -0.3041
  N  N312  1  0.599900  0.750000  0.250000  1.0  -0.3041
  N  N313  1  0.900100  0.750000  0.750000  1.0  -0.306
  N  N314  1  0.900100  0.250000  0.250000  1.0  -0.306
  N  N315  1  0.400100  0.750000  0.250000  1.0  -0.306
  N  N316  1  0.099900  0.250000  0.750000  1.0  -0.3041
  N  N317  1  0.599900  0.250000  0.250000  1.0  -0.3041
  N  N318  1  0.099900  0.750000  0.250000  1.0  -0.3041
  N  N319  1  0.599900  0.750000  0.750000  1.0  -0.3041
  N  N320  1  0.400100  0.250000  0.750000  1.0  -0.306
