# generated using pymatgen
data_AlH3C4O5
_symmetry_space_group_name_H-M   'P 1'
_cell_length_a   6.84190000
_cell_length_b   12.08770000
_cell_length_c   14.20700000
_cell_angle_alpha   90.00000000
_cell_angle_beta   122.54700000
_cell_angle_gamma   90.00000000
_symmetry_Int_Tables_number   1
_chemical_formula_structural   AlH3C4O5
_chemical_formula_sum   'Al4 H12 C16 O20'
_cell_volume   990.43231858
_cell_formula_units_Z   4
loop_
 _symmetry_equiv_pos_site_id
 _symmetry_equiv_pos_as_xyz
  1  'x, y, z'
loop_
 _atom_site_type_symbol
 _atom_site_label
 _atom_site_symmetry_multiplicity
 _atom_site_fract_x
 _atom_site_fract_y
 _atom_site_fract_z
 _atom_site_occupancy
 _atom_site_charge
  Al  Al1  1  0.500000  0.500000  0.000000  1.0  1.6764
  Al  Al2  1  0.500000  0.000000  0.500000  1.0  1.6748
  Al  Al3  1  0.000000  0.500000  0.000000  1.0  1.6843
  Al  Al4  1  0.000000  0.000000  0.500000  1.0  1.6855
  H  H5  1  0.729680  0.232170  0.243060  1.0  0.0783
  H  H6  1  0.277720  0.257870  0.251620  1.0  0.0724
  H  H7  1  0.922950  0.525580  0.130660  1.0  0.2644
  H  H8  1  0.270320  0.732170  0.256940  1.0  0.0778
  H  H9  1  0.722280  0.757870  0.248380  1.0  0.074
  H  H10  1  0.077050  0.025580  0.369340  1.0  0.2663
  H  H11  1  0.270320  0.767830  0.756940  1.0  0.0781
  H  H12  1  0.722280  0.742130  0.748380  1.0  0.0739
  H  H13  1  0.077050  0.474420  0.869340  1.0  0.2661
  H  H14  1  0.729680  0.267830  0.743060  1.0  0.0781
  H  H15  1  0.277720  0.242130  0.751620  1.0  0.0725
  H  H16  1  0.922950  0.974420  0.630660  1.0  0.2645
  C  C17  1  0.429770  0.346990  0.133820  1.0  0.646
  C  C18  1  0.554440  0.264960  0.222030  1.0  -0.0462
  C  C19  1  0.455780  0.227920  0.273810  1.0  -0.0603
  C  C20  1  0.578690  0.140990  0.360400  1.0  0.7026
  C  C21  1  0.570230  0.846990  0.366180  1.0  0.6447
  C  C22  1  0.445560  0.764960  0.277970  1.0  -0.047
  C  C23  1  0.544220  0.727920  0.226190  1.0  -0.0589
  C  C24  1  0.421310  0.640990  0.139600  1.0  0.7034
  C  C25  1  0.570230  0.653010  0.866180  1.0  0.6439
  C  C26  1  0.445560  0.735040  0.777970  1.0  -0.0472
  C  C27  1  0.544220  0.772080  0.726190  1.0  -0.0586
  C  C28  1  0.421310  0.859010  0.639600  1.0  0.7034
  C  C29  1  0.429770  0.153010  0.633820  1.0  0.6454
  C  C30  1  0.554440  0.235040  0.722030  1.0  -0.0462
  C  C31  1  0.455780  0.272080  0.773810  1.0  -0.0603
  C  C32  1  0.578690  0.359010  0.860400  1.0  0.7025
  O  O33  1  0.247050  0.400150  0.115910  1.0  -0.6648
  O  O34  1  0.538440  0.368770  0.084380  1.0  -0.6283
  O  O35  1  0.450600  0.093300  0.379670  1.0  -0.6502
  O  O36  1  0.782760  0.113340  0.399420  1.0  -0.652
  O  O37  1  0.819880  0.482690  0.059850  1.0  -0.7455
  O  O38  1  0.752950  0.900150  0.384090  1.0  -0.6657
  O  O39  1  0.461560  0.868770  0.415620  1.0  -0.627
  O  O40  1  0.549400  0.593300  0.120330  1.0  -0.6499
  O  O41  1  0.217240  0.613340  0.100580  1.0  -0.651
  O  O42  1  0.180120  0.982690  0.440150  1.0  -0.7429
  O  O43  1  0.752950  0.599850  0.884090  1.0  -0.6653
  O  O44  1  0.461560  0.631230  0.915620  1.0  -0.6258
  O  O45  1  0.549400  0.906700  0.620330  1.0  -0.6501
  O  O46  1  0.217240  0.886660  0.600580  1.0  -0.6516
  O  O47  1  0.180120  0.517310  0.940150  1.0  -0.7436
  O  O48  1  0.247050  0.099850  0.615910  1.0  -0.6645
  O  O49  1  0.538440  0.131230  0.584380  1.0  -0.6269
  O  O50  1  0.450600  0.406700  0.879670  1.0  -0.6503
  O  O51  1  0.782760  0.386660  0.899420  1.0  -0.6525
  O  O52  1  0.819880  0.017310  0.559850  1.0  -0.7463
