# generated using pymatgen
data_CdH13C14(NO)3
_symmetry_space_group_name_H-M   'P 1'
_cell_length_a   11.56930000
_cell_length_b   11.56930000
_cell_length_c   56.23500000
_cell_angle_alpha   90.00000000
_cell_angle_beta   90.00000000
_cell_angle_gamma   120.00000000
_symmetry_Int_Tables_number   1
_chemical_formula_structural   CdH13C14(NO)3
_chemical_formula_sum   'Cd12 H156 C168 N36 O36'
_cell_volume   6518.55743922
_cell_formula_units_Z   12
loop_
 _symmetry_equiv_pos_site_id
 _symmetry_equiv_pos_as_xyz
  1  'x, y, z'
loop_
 _atom_site_type_symbol
 _atom_site_label
 _atom_site_symmetry_multiplicity
 _atom_site_fract_x
 _atom_site_fract_y
 _atom_site_fract_z
 _atom_site_occupancy
 _atom_site_charge
  Cd  Cd1  1  0.923500  0.286810  0.532160  1.0  0.9292
  Cd  Cd2  1  0.713190  0.636690  0.865500  1.0  0.9303
  Cd  Cd3  1  0.363310  0.076500  0.198830  1.0  0.9298
  Cd  Cd4  1  0.076500  0.713190  0.032160  1.0  0.9273
  Cd  Cd5  1  0.286810  0.363310  0.365500  1.0  0.9315
  Cd  Cd6  1  0.636690  0.923500  0.698830  1.0  0.9304
  Cd  Cd7  1  0.286810  0.923500  0.801170  1.0  0.9305
  Cd  Cd8  1  0.636690  0.713190  0.467840  1.0  0.9284
  Cd  Cd9  1  0.076500  0.363310  0.134500  1.0  0.9307
  Cd  Cd10  1  0.713190  0.076500  0.301170  1.0  0.9306
  Cd  Cd11  1  0.363310  0.286810  0.967840  1.0  0.9291
  Cd  Cd12  1  0.923500  0.636690  0.634500  1.0  0.932
  H  H13  1  0.051700  0.437600  0.512700  1.0  0.3328
  H  H14  1  0.003400  0.550100  0.517600  1.0  0.4012
  H  H15  1  0.501000  0.608000  0.594300  1.0  0.2612
  H  H16  1  0.223400  0.410900  0.535100  1.0  0.062
  H  H17  1  0.410000  0.529600  0.558300  1.0  0.1021
  H  H18  1  0.164900  0.451100  0.615100  1.0  0.0981
  H  H19  1  0.986500  0.338500  0.589900  1.0  0.0613
  H  H20  1  0.353100  0.706300  0.673500  1.0  0.0566
  H  H21  1  0.273600  0.587400  0.638800  1.0  0.1182
  H  H22  1  0.657200  0.717500  0.619500  1.0  0.1073
  H  H23  1  0.723400  0.827000  0.655200  1.0  0.0679
  H  H24  1  0.479000  0.102400  0.553100  1.0  0.0855
  H  H25  1  0.276200  0.069300  0.568000  1.0  0.0972
  H  H26  1  0.562400  0.614100  0.846030  1.0  0.3319
  H  H27  1  0.449900  0.453300  0.850930  1.0  0.4024
  H  H28  1  0.392000  0.893000  0.927630  1.0  0.26
  H  H29  1  0.589100  0.812500  0.868430  1.0  0.0619
  H  H30  1  0.470400  0.880400  0.891630  1.0  0.1035
  H  H31  1  0.548900  0.713800  0.948430  1.0  0.0976
  H  H32  1  0.661500  0.648000  0.923230  1.0  0.0614
  H  H33  1  0.293700  0.646800  0.006830  1.0  0.0582
  H  H34  1  0.412600  0.686200  0.972130  1.0  0.1207
  H  H35  1  0.282500  0.939700  0.952830  1.0  0.1067
  H  H36  1  0.173000  0.896400  0.988530  1.0  0.0678
  H  H37  1  0.897600  0.376600  0.886430  1.0  0.0852
  H  H38  1  0.930700  0.206900  0.901330  1.0  0.0972
  H  H39  1  0.385900  0.948300  0.179370  1.0  0.3346
  H  H40  1  0.546700  0.996600  0.184270  1.0  0.4012
  H  H41  1  0.107000  0.499000  0.260970  1.0  0.2592
  H  H42  1  0.187500  0.776600  0.201770  1.0  0.0606
  H  H43  1  0.119600  0.590000  0.224970  1.0  0.1025
  H  H44  1  0.286200  0.835100  0.281770  1.0  0.0992
  H  H45  1  0.352000  0.013500  0.256570  1.0  0.0616
  H  H46  1  0.353200  0.646900  0.340170  1.0  0.0582
  H  H47  1  0.313800  0.726400  0.305470  1.0  0.1196
  H  H48  1  0.060300  0.342800  0.286170  1.0  0.1069
  H  H49  1  0.103600  0.276600  0.321870  1.0  0.0668
  H  H50  1  0.623400  0.521000  0.219770  1.0  0.0847
  H  H51  1  0.793100  0.723800  0.234670  1.0  0.0985
  H  H52  1  0.948300  0.562400  0.012700  1.0  0.3324
  H  H53  1  0.996600  0.449900  0.017600  1.0  0.4012
  H  H54  1  0.499000  0.392000  0.094300  1.0  0.261
  H  H55  1  0.776600  0.589100  0.035100  1.0  0.0621
  H  H56  1  0.590000  0.470400  0.058300  1.0  0.1029
  H  H57  1  0.835100  0.548900  0.115100  1.0  0.0981
  H  H58  1  0.013500  0.661500  0.089900  1.0  0.0598
  H  H59  1  0.646900  0.293700  0.173500  1.0  0.0565
  H  H60  1  0.726400  0.412600  0.138800  1.0  0.1203
  H  H61  1  0.342800  0.282500  0.119500  1.0  0.1062
  H  H62  1  0.276600  0.173000  0.155200  1.0  0.0676
  H  H63  1  0.521000  0.897600  0.053100  1.0  0.0849
  H  H64  1  0.723800  0.930700  0.068000  1.0  0.0968
  H  H65  1  0.437600  0.385900  0.346030  1.0  0.333
  H  H66  1  0.550100  0.546700  0.350930  1.0  0.4012
  H  H67  1  0.608000  0.107000  0.427630  1.0  0.2595
  H  H68  1  0.410900  0.187500  0.368430  1.0  0.0615
  H  H69  1  0.529600  0.119600  0.391630  1.0  0.1028
  H  H70  1  0.451100  0.286200  0.448430  1.0  0.0983
  H  H71  1  0.338500  0.352000  0.423230  1.0  0.0617
  H  H72  1  0.706300  0.353200  0.506830  1.0  0.0581
  H  H73  1  0.587400  0.313800  0.472130  1.0  0.1186
  H  H74  1  0.717500  0.060300  0.452830  1.0  0.1074
  H  H75  1  0.827000  0.103600  0.488530  1.0  0.068
  H  H76  1  0.102400  0.623400  0.386430  1.0  0.0855
  H  H77  1  0.069300  0.793100  0.401330  1.0  0.0982
  H  H78  1  0.614100  0.051700  0.679370  1.0  0.334
  H  H79  1  0.453300  0.003400  0.684270  1.0  0.402
  H  H80  1  0.893000  0.501000  0.760970  1.0  0.2589
  H  H81  1  0.812500  0.223400  0.701770  1.0  0.0617
  H  H82  1  0.880400  0.410000  0.724970  1.0  0.103
  H  H83  1  0.713800  0.164900  0.781770  1.0  0.0975
  H  H84  1  0.648000  0.986500  0.756570  1.0  0.0609
  H  H85  1  0.646800  0.353100  0.840170  1.0  0.0586
  H  H86  1  0.686200  0.273600  0.805470  1.0  0.1183
  H  H87  1  0.939700  0.657200  0.786170  1.0  0.1078
  H  H88  1  0.896400  0.723400  0.821870  1.0  0.0667
  H  H89  1  0.376600  0.479000  0.719770  1.0  0.0846
  H  H90  1  0.206900  0.276200  0.734670  1.0  0.0982
  H  H91  1  0.437600  0.051700  0.820630  1.0  0.3338
  H  H92  1  0.550100  0.003400  0.815730  1.0  0.4011
  H  H93  1  0.608000  0.501000  0.739030  1.0  0.2585
  H  H94  1  0.410900  0.223400  0.798230  1.0  0.0612
  H  H95  1  0.529600  0.410000  0.775030  1.0  0.1027
  H  H96  1  0.451100  0.164900  0.718230  1.0  0.0978
  H  H97  1  0.338500  0.986500  0.743430  1.0  0.061
  H  H98  1  0.706300  0.353100  0.659830  1.0  0.0585
  H  H99  1  0.587400  0.273600  0.694530  1.0  0.1193
  H  H100  1  0.717500  0.657200  0.713830  1.0  0.1073
  H  H101  1  0.827000  0.723400  0.678130  1.0  0.0673
  H  H102  1  0.102400  0.479000  0.780230  1.0  0.0851
  H  H103  1  0.069300  0.276200  0.765330  1.0  0.0959
  H  H104  1  0.614100  0.562400  0.487300  1.0  0.3318
  H  H105  1  0.453300  0.449900  0.482400  1.0  0.4006
  H  H106  1  0.893000  0.392000  0.405700  1.0  0.2621
  H  H107  1  0.812500  0.589100  0.464900  1.0  0.062
  H  H108  1  0.880400  0.470400  0.441700  1.0  0.1021
  H  H109  1  0.713800  0.548900  0.384900  1.0  0.0965
  H  H110  1  0.648000  0.661500  0.410100  1.0  0.0607
  H  H111  1  0.646800  0.293700  0.326500  1.0  0.0565
  H  H112  1  0.686200  0.412600  0.361200  1.0  0.1207
  H  H113  1  0.939700  0.282500  0.380500  1.0  0.1074
  H  H114  1  0.896400  0.173000  0.344800  1.0  0.0681
  H  H115  1  0.376600  0.897600  0.446900  1.0  0.0859
  H  H116  1  0.206900  0.930700  0.432000  1.0  0.0945
  H  H117  1  0.948300  0.385900  0.153970  1.0  0.3319
  H  H118  1  0.996600  0.546700  0.149070  1.0  0.402
  H  H119  1  0.499000  0.107000  0.072370  1.0  0.2604
  H  H120  1  0.776600  0.187500  0.131570  1.0  0.0614
  H  H121  1  0.590000  0.119600  0.108370  1.0  0.1027
  H  H122  1  0.835100  0.286200  0.051570  1.0  0.0963
  H  H123  1  0.013500  0.352000  0.076770  1.0  0.0609
  H  H124  1  0.646900  0.353200  0.993170  1.0  0.0581
  H  H125  1  0.726400  0.313800  0.027870  1.0  0.1202
  H  H126  1  0.342800  0.060300  0.047170  1.0  0.1072
  H  H127  1  0.276600  0.103600  0.011470  1.0  0.0684
  H  H128  1  0.521000  0.623400  0.113570  1.0  0.086
  H  H129  1  0.723800  0.793100  0.098670  1.0  0.0952
  H  H130  1  0.562400  0.948300  0.320630  1.0  0.334
  H  H131  1  0.449900  0.996600  0.315730  1.0  0.4013
  H  H132  1  0.392000  0.499000  0.239030  1.0  0.2598
  H  H133  1  0.589100  0.776600  0.298230  1.0  0.0615
  H  H134  1  0.470400  0.590000  0.275030  1.0  0.1022
  H  H135  1  0.548900  0.835100  0.218230  1.0  0.0966
  H  H136  1  0.661500  0.013500  0.243430  1.0  0.0601
  H  H137  1  0.293700  0.646900  0.159830  1.0  0.0584
  H  H138  1  0.412600  0.726400  0.194530  1.0  0.1202
  H  H139  1  0.282500  0.342800  0.213830  1.0  0.108
  H  H140  1  0.173000  0.276600  0.178130  1.0  0.0669
  H  H141  1  0.897600  0.521000  0.280230  1.0  0.0852
  H  H142  1  0.930700  0.723800  0.265330  1.0  0.0962
  H  H143  1  0.385900  0.437600  0.987300  1.0  0.3325
  H  H144  1  0.546700  0.550100  0.982400  1.0  0.4017
  H  H145  1  0.107000  0.608000  0.905700  1.0  0.2607
  H  H146  1  0.187500  0.410900  0.964900  1.0  0.0623
  H  H147  1  0.119600  0.529600  0.941700  1.0  0.1026
  H  H148  1  0.286200  0.451100  0.884900  1.0  0.0966
  H  H149  1  0.352000  0.338500  0.910100  1.0  0.06
  H  H150  1  0.353200  0.706300  0.826500  1.0  0.0568
  H  H151  1  0.313800  0.587400  0.861200  1.0  0.1196
  H  H152  1  0.060300  0.717500  0.880500  1.0  0.1067
  H  H153  1  0.103600  0.827000  0.844800  1.0  0.0681
  H  H154  1  0.623400  0.102400  0.946900  1.0  0.0857
  H  H155  1  0.793100  0.069300  0.932000  1.0  0.0946
  H  H156  1  0.051700  0.614100  0.653970  1.0  0.3321
  H  H157  1  0.003400  0.453300  0.649070  1.0  0.4015
  H  H158  1  0.501000  0.893000  0.572370  1.0  0.2597
  H  H159  1  0.223400  0.812500  0.631570  1.0  0.0618
  H  H160  1  0.410000  0.880400  0.608370  1.0  0.1031
  H  H161  1  0.164900  0.713800  0.551570  1.0  0.0973
  H  H162  1  0.986500  0.648000  0.576770  1.0  0.0617
  H  H163  1  0.353100  0.646800  0.493170  1.0  0.058
  H  H164  1  0.273600  0.686200  0.527870  1.0  0.1202
  H  H165  1  0.657200  0.939700  0.547170  1.0  0.1072
  H  H166  1  0.723400  0.896400  0.511470  1.0  0.0684
  H  H167  1  0.479000  0.376600  0.613570  1.0  0.0858
  H  H168  1  0.276200  0.206900  0.598670  1.0  0.096
  C  C169  1  0.211700  0.420700  0.551560  1.0  0.1368
  C  C170  1  0.323800  0.492300  0.565260  1.0  -0.2817
  C  C171  1  0.310000  0.510100  0.589700  1.0  0.227
  C  C172  1  0.180100  0.446800  0.598560  1.0  -0.2315
  C  C173  1  0.074000  0.378200  0.583420  1.0  0.1507
  C  C174  1  0.415500  0.707900  0.662330  1.0  0.1557
  C  C175  1  0.367000  0.638000  0.641550  1.0  -0.2384
  C  C176  1  0.457000  0.641800  0.624350  1.0  0.2342
  C  C177  1  0.592100  0.713700  0.630280  1.0  -0.2416
  C  C178  1  0.630700  0.778800  0.651680  1.0  0.1553
  C  C179  1  0.727000  0.284500  0.562230  1.0  0.6621
  C  C180  1  0.600100  0.258900  0.574010  1.0  -0.0851
  C  C181  1  0.479300  0.158700  0.565370  1.0  -0.0689
  C  C182  1  0.358000  0.138200  0.574250  1.0  -0.1377
  C  C183  1  0.579300  0.791000  0.884890  1.0  0.1374
  C  C184  1  0.507700  0.831500  0.898590  1.0  -0.2829
  C  C185  1  0.489900  0.799900  0.923030  1.0  0.2272
  C  C186  1  0.553200  0.733300  0.931890  1.0  -0.2286
  C  C187  1  0.621800  0.695800  0.916750  1.0  0.1498
  C  C188  1  0.292100  0.707600  0.995660  1.0  0.1558
  C  C189  1  0.362000  0.729000  0.974880  1.0  -0.2407
  C  C190  1  0.358200  0.815200  0.957680  1.0  0.2346
  C  C191  1  0.286300  0.878400  0.963610  1.0  -0.2428
  C  C192  1  0.221200  0.851900  0.985010  1.0  0.1556
  C  C193  1  0.715500  0.442500  0.895560  1.0  0.6635
  C  C194  1  0.741100  0.341200  0.907340  1.0  -0.0857
  C  C195  1  0.841300  0.320600  0.898700  1.0  -0.0683
  C  C196  1  0.861800  0.219800  0.907580  1.0  -0.1364
  C  C197  1  0.209000  0.788300  0.218230  1.0  0.1356
  C  C198  1  0.168500  0.676200  0.231930  1.0  -0.2752
  C  C199  1  0.200100  0.690000  0.256370  1.0  0.2259
  C  C200  1  0.266700  0.819900  0.265230  1.0  -0.2298
  C  C201  1  0.304200  0.926000  0.250090  1.0  0.1496
  C  C202  1  0.292400  0.584500  0.329000  1.0  0.1556
  C  C203  1  0.271000  0.633000  0.308220  1.0  -0.2415
  C  C204  1  0.184800  0.543000  0.291020  1.0  0.2358
  C  C205  1  0.121600  0.407900  0.296950  1.0  -0.2409
  C  C206  1  0.148100  0.369300  0.318350  1.0  0.152
  C  C207  1  0.557500  0.273000  0.228900  1.0  0.6651
  C  C208  1  0.658800  0.399900  0.240680  1.0  -0.0851
  C  C209  1  0.679400  0.520700  0.232040  1.0  -0.0678
  C  C210  1  0.780200  0.642000  0.240920  1.0  -0.1387
  C  C211  1  0.788300  0.579300  0.051560  1.0  0.1385
  C  C212  1  0.676200  0.507700  0.065260  1.0  -0.2838
  C  C213  1  0.690000  0.489900  0.089700  1.0  0.2257
  C  C214  1  0.819900  0.553200  0.098560  1.0  -0.2318
  C  C215  1  0.926000  0.621800  0.083420  1.0  0.1493
  C  C216  1  0.584500  0.292100  0.162330  1.0  0.1558
  C  C217  1  0.633000  0.362000  0.141550  1.0  -0.2389
  C  C218  1  0.543000  0.358200  0.124350  1.0  0.2338
  C  C219  1  0.407900  0.286300  0.130280  1.0  -0.2424
  C  C220  1  0.369300  0.221200  0.151680  1.0  0.1552
  C  C221  1  0.273000  0.715500  0.062230  1.0  0.6609
  C  C222  1  0.399900  0.741100  0.074010  1.0  -0.0856
  C  C223  1  0.520700  0.841300  0.065370  1.0  -0.0696
  C  C224  1  0.642000  0.861800  0.074250  1.0  -0.1371
  C  C225  1  0.420700  0.209000  0.384890  1.0  0.1361
  C  C226  1  0.492300  0.168500  0.398590  1.0  -0.2804
  C  C227  1  0.510100  0.200100  0.423030  1.0  0.2264
  C  C228  1  0.446800  0.266700  0.431890  1.0  -0.2293
  C  C229  1  0.378200  0.304200  0.416750  1.0  0.1505
  C  C230  1  0.707900  0.292400  0.495660  1.0  0.1556
  C  C231  1  0.638000  0.271000  0.474880  1.0  -0.2404
  C  C232  1  0.641800  0.184800  0.457680  1.0  0.2338
  C  C233  1  0.713700  0.121600  0.463610  1.0  -0.242
  C  C234  1  0.778800  0.148100  0.485010  1.0  0.1555
  C  C235  1  0.284500  0.557500  0.395560  1.0  0.6631
  C  C236  1  0.258900  0.658800  0.407340  1.0  -0.0852
  C  C237  1  0.158700  0.679400  0.398700  1.0  -0.068
  C  C238  1  0.138200  0.780200  0.407580  1.0  -0.1372
  C  C239  1  0.791000  0.211700  0.718230  1.0  0.1372
  C  C240  1  0.831500  0.323800  0.731930  1.0  -0.2767
  C  C241  1  0.799900  0.310000  0.756370  1.0  0.2268
  C  C242  1  0.733300  0.180100  0.765230  1.0  -0.2296
  C  C243  1  0.695800  0.074000  0.750090  1.0  0.1495
  C  C244  1  0.707600  0.415500  0.829000  1.0  0.1556
  C  C245  1  0.729000  0.367000  0.808220  1.0  -0.2408
  C  C246  1  0.815200  0.457000  0.791020  1.0  0.2353
  C  C247  1  0.878400  0.592100  0.796950  1.0  -0.2389
  C  C248  1  0.851900  0.630700  0.818350  1.0  0.1533
  C  C249  1  0.442500  0.727000  0.728900  1.0  0.6648
  C  C250  1  0.341200  0.600100  0.740680  1.0  -0.0853
  C  C251  1  0.320600  0.479300  0.732040  1.0  -0.0693
  C  C252  1  0.219800  0.358000  0.740920  1.0  -0.1402
  C  C253  1  0.420700  0.211700  0.781770  1.0  0.1364
  C  C254  1  0.492300  0.323800  0.768070  1.0  -0.2761
  C  C255  1  0.510100  0.310000  0.743630  1.0  0.2264
  C  C256  1  0.446800  0.180100  0.734770  1.0  -0.2281
  C  C257  1  0.378200  0.074000  0.749910  1.0  0.1485
  C  C258  1  0.707900  0.415500  0.671000  1.0  0.156
  C  C259  1  0.638000  0.367000  0.691780  1.0  -0.2416
  C  C260  1  0.641800  0.457000  0.708980  1.0  0.2367
  C  C261  1  0.713700  0.592100  0.703050  1.0  -0.2414
  C  C262  1  0.778800  0.630700  0.681650  1.0  0.1532
  C  C263  1  0.284500  0.727000  0.771100  1.0  0.6635
  C  C264  1  0.258900  0.600100  0.759320  1.0  -0.0848
  C  C265  1  0.158700  0.479300  0.767960  1.0  -0.0692
  C  C266  1  0.138200  0.358000  0.759080  1.0  -0.1399
  C  C267  1  0.791000  0.579300  0.448440  1.0  0.1367
  C  C268  1  0.831500  0.507700  0.434740  1.0  -0.2835
  C  C269  1  0.799900  0.489900  0.410300  1.0  0.2269
  C  C270  1  0.733300  0.553200  0.401440  1.0  -0.2329
  C  C271  1  0.695800  0.621800  0.416580  1.0  0.1499
  C  C272  1  0.707600  0.292100  0.337670  1.0  0.1557
  C  C273  1  0.729000  0.362000  0.358450  1.0  -0.2401
  C  C274  1  0.815200  0.358200  0.375650  1.0  0.2346
  C  C275  1  0.878400  0.286300  0.369720  1.0  -0.2416
  C  C276  1  0.851900  0.221200  0.348320  1.0  0.1536
  C  C277  1  0.442500  0.715500  0.437770  1.0  0.6612
  C  C278  1  0.341200  0.741100  0.425990  1.0  -0.0851
  C  C279  1  0.320600  0.841300  0.434630  1.0  -0.0707
  C  C280  1  0.219800  0.861800  0.425750  1.0  -0.1382
  C  C281  1  0.788300  0.209000  0.115110  1.0  0.1373
  C  C282  1  0.676200  0.168500  0.101410  1.0  -0.2834
  C  C283  1  0.690000  0.200100  0.076970  1.0  0.2269
  C  C284  1  0.819900  0.266700  0.068110  1.0  -0.2289
  C  C285  1  0.926000  0.304200  0.083250  1.0  0.1506
  C  C286  1  0.584500  0.292400  0.004340  1.0  0.1552
  C  C287  1  0.633000  0.271000  0.025120  1.0  -0.242
  C  C288  1  0.543000  0.184800  0.042320  1.0  0.235
  C  C289  1  0.407900  0.121600  0.036390  1.0  -0.2427
  C  C290  1  0.369300  0.148100  0.014990  1.0  0.1552
  C  C291  1  0.273000  0.557500  0.104440  1.0  0.6623
  C  C292  1  0.399900  0.658800  0.092660  1.0  -0.0857
  C  C293  1  0.520700  0.679400  0.101300  1.0  -0.07
  C  C294  1  0.642000  0.780200  0.092420  1.0  -0.1365
  C  C295  1  0.579300  0.788300  0.281770  1.0  0.1362
  C  C296  1  0.507700  0.676200  0.268070  1.0  -0.2774
  C  C297  1  0.489900  0.690000  0.243630  1.0  0.2262
  C  C298  1  0.553200  0.819900  0.234770  1.0  -0.2303
  C  C299  1  0.621800  0.926000  0.249910  1.0  0.1508
  C  C300  1  0.292100  0.584500  0.171000  1.0  0.1552
  C  C301  1  0.362000  0.633000  0.191780  1.0  -0.2425
  C  C302  1  0.358200  0.543000  0.208980  1.0  0.2354
  C  C303  1  0.286300  0.407900  0.203050  1.0  -0.2385
  C  C304  1  0.221200  0.369300  0.181650  1.0  0.1526
  C  C305  1  0.715500  0.273000  0.271100  1.0  0.6641
  C  C306  1  0.741100  0.399900  0.259320  1.0  -0.0853
  C  C307  1  0.841300  0.520700  0.267960  1.0  -0.0709
  C  C308  1  0.861800  0.642000  0.259080  1.0  -0.1387
  C  C309  1  0.209000  0.420700  0.948440  1.0  0.1377
  C  C310  1  0.168500  0.492300  0.934740  1.0  -0.2829
  C  C311  1  0.200100  0.510100  0.910300  1.0  0.2263
  C  C312  1  0.266700  0.446800  0.901440  1.0  -0.2299
  C  C313  1  0.304200  0.378200  0.916580  1.0  0.1491
  C  C314  1  0.292400  0.707900  0.837670  1.0  0.1551
  C  C315  1  0.271000  0.638000  0.858450  1.0  -0.2397
  C  C316  1  0.184800  0.641800  0.875650  1.0  0.2348
  C  C317  1  0.121600  0.713700  0.869720  1.0  -0.2413
  C  C318  1  0.148100  0.778800  0.848320  1.0  0.1555
  C  C319  1  0.557500  0.284500  0.937770  1.0  0.6596
  C  C320  1  0.658800  0.258900  0.925990  1.0  -0.0852
  C  C321  1  0.679400  0.158700  0.934630  1.0  -0.071
  C  C322  1  0.780200  0.138200  0.925750  1.0  -0.1366
  C  C323  1  0.211700  0.791000  0.615110  1.0  0.1364
  C  C324  1  0.323800  0.831500  0.601410  1.0  -0.2795
  C  C325  1  0.310000  0.799900  0.576970  1.0  0.2266
  C  C326  1  0.180100  0.733300  0.568110  1.0  -0.2292
  C  C327  1  0.074000  0.695800  0.583250  1.0  0.1501
  C  C328  1  0.415500  0.707600  0.504340  1.0  0.1563
  C  C329  1  0.367000  0.729000  0.525120  1.0  -0.2419
  C  C330  1  0.457000  0.815200  0.542320  1.0  0.2349
  C  C331  1  0.592100  0.878400  0.536390  1.0  -0.2416
  C  C332  1  0.630700  0.851900  0.514990  1.0  0.1556
  C  C333  1  0.727000  0.442500  0.604440  1.0  0.6621
  C  C334  1  0.600100  0.341200  0.592660  1.0  -0.0848
  C  C335  1  0.479300  0.320600  0.601300  1.0  -0.0695
  C  C336  1  0.358000  0.219800  0.592420  1.0  -0.1375
  N  N337  1  0.087200  0.364100  0.559970  1.0  -0.386
  N  N338  1  0.427300  0.586500  0.601730  1.0  -0.3513
  N  N339  1  0.545800  0.778500  0.667900  1.0  -0.3568
  N  N340  1  0.635900  0.723100  0.893300  1.0  -0.3857
  N  N341  1  0.413500  0.840800  0.935060  1.0  -0.3495
  N  N342  1  0.221500  0.767300  0.001230  1.0  -0.3523
  N  N343  1  0.276900  0.912800  0.226640  1.0  -0.3853
  N  N344  1  0.159200  0.572700  0.268400  1.0  -0.3512
  N  N345  1  0.232700  0.454200  0.334570  1.0  -0.3558
  N  N346  1  0.912800  0.635900  0.059970  1.0  -0.3863
  N  N347  1  0.572700  0.413500  0.101730  1.0  -0.3486
  N  N348  1  0.454200  0.221500  0.167900  1.0  -0.3565
  N  N349  1  0.364100  0.276900  0.393300  1.0  -0.386
  N  N350  1  0.586500  0.159200  0.435060  1.0  -0.3501
  N  N351  1  0.778500  0.232700  0.501230  1.0  -0.352
  N  N352  1  0.723100  0.087200  0.726640  1.0  -0.3871
  N  N353  1  0.840800  0.427300  0.768400  1.0  -0.3512
  N  N354  1  0.767300  0.545800  0.834570  1.0  -0.3556
  N  N355  1  0.364100  0.087200  0.773360  1.0  -0.3883
  N  N356  1  0.586500  0.427300  0.731600  1.0  -0.3521
  N  N357  1  0.778500  0.545800  0.665430  1.0  -0.3574
  N  N358  1  0.723100  0.635900  0.440030  1.0  -0.386
  N  N359  1  0.840800  0.413500  0.398270  1.0  -0.3514
  N  N360  1  0.767300  0.221500  0.332100  1.0  -0.3589
  N  N361  1  0.912800  0.276900  0.106700  1.0  -0.3864
  N  N362  1  0.572700  0.159200  0.064940  1.0  -0.3495
  N  N363  1  0.454200  0.232700  0.998770  1.0  -0.3536
  N  N364  1  0.635900  0.912800  0.273360  1.0  -0.3883
  N  N365  1  0.413500  0.572700  0.231600  1.0  -0.3509
  N  N366  1  0.221500  0.454200  0.165430  1.0  -0.3584
  N  N367  1  0.276900  0.364100  0.940030  1.0  -0.3837
  N  N368  1  0.159200  0.586500  0.898270  1.0  -0.3489
  N  N369  1  0.232700  0.778500  0.832100  1.0  -0.3583
  N  N370  1  0.087200  0.723100  0.606700  1.0  -0.3862
  N  N371  1  0.427300  0.840800  0.564940  1.0  -0.3507
  N  N372  1  0.545800  0.767300  0.498770  1.0  -0.3544
  O  O373  1  0.749500  0.187800  0.560490  1.0  -0.6487
  O  O374  1  0.801000  0.395800  0.553220  1.0  -0.6231
  O  O375  1  0.042000  0.504700  0.515170  1.0  -0.8532
  O  O376  1  0.812200  0.561700  0.893820  1.0  -0.6473
  O  O377  1  0.604200  0.405200  0.886550  1.0  -0.6238
  O  O378  1  0.495300  0.537300  0.848500  1.0  -0.8533
  O  O379  1  0.438300  0.250500  0.227160  1.0  -0.6502
  O  O380  1  0.594800  0.199000  0.219890  1.0  -0.6217
  O  O381  1  0.462700  0.958000  0.181840  1.0  -0.8521
  O  O382  1  0.250500  0.812200  0.060490  1.0  -0.6491
  O  O383  1  0.199000  0.604200  0.053220  1.0  -0.6245
  O  O384  1  0.958000  0.495300  0.015170  1.0  -0.8534
  O  O385  1  0.187800  0.438300  0.393820  1.0  -0.6471
  O  O386  1  0.395800  0.594800  0.386550  1.0  -0.6218
  O  O387  1  0.504700  0.462700  0.348500  1.0  -0.8539
  O  O388  1  0.561700  0.749500  0.727160  1.0  -0.6502
  O  O389  1  0.405200  0.801000  0.719890  1.0  -0.622
  O  O390  1  0.537300  0.042000  0.681840  1.0  -0.852
  O  O391  1  0.187800  0.749500  0.772840  1.0  -0.6503
  O  O392  1  0.395800  0.801000  0.780110  1.0  -0.6217
  O  O393  1  0.504700  0.042000  0.818160  1.0  -0.854
  O  O394  1  0.561700  0.812200  0.439510  1.0  -0.6489
  O  O395  1  0.405200  0.604200  0.446780  1.0  -0.6226
  O  O396  1  0.537300  0.495300  0.484830  1.0  -0.8543
  O  O397  1  0.250500  0.438300  0.106180  1.0  -0.6477
  O  O398  1  0.199000  0.594800  0.113450  1.0  -0.623
  O  O399  1  0.958000  0.462700  0.151500  1.0  -0.8534
  O  O400  1  0.812200  0.250500  0.272840  1.0  -0.6506
  O  O401  1  0.604200  0.199000  0.280110  1.0  -0.6215
  O  O402  1  0.495300  0.958000  0.318160  1.0  -0.8525
  O  O403  1  0.438300  0.187800  0.939510  1.0  -0.6492
  O  O404  1  0.594800  0.395800  0.946780  1.0  -0.6236
  O  O405  1  0.462700  0.504700  0.984830  1.0  -0.8533
  O  O406  1  0.749500  0.561700  0.606180  1.0  -0.6471
  O  O407  1  0.801000  0.405200  0.613450  1.0  -0.6219
  O  O408  1  0.042000  0.537300  0.651500  1.0  -0.854
