# generated using pymatgen
data_FeH4Pt(C4N3)2
_symmetry_space_group_name_H-M   'P 1'
_cell_length_a   14.65200000
_cell_length_b   14.89400000
_cell_length_c   29.73600000
_cell_angle_alpha   90.00000000
_cell_angle_beta   90.00000000
_cell_angle_gamma   90.00000000
_symmetry_Int_Tables_number   1
_chemical_formula_structural   FeH4Pt(C4N3)2
_chemical_formula_sum   'Fe16 H64 Pt16 C128 N96'
_cell_volume   6489.19474157
_cell_formula_units_Z   16
loop_
 _symmetry_equiv_pos_site_id
 _symmetry_equiv_pos_as_xyz
  1  'x, y, z'
loop_
 _atom_site_type_symbol
 _atom_site_label
 _atom_site_symmetry_multiplicity
 _atom_site_fract_x
 _atom_site_fract_y
 _atom_site_fract_z
 _atom_site_occupancy
 _atom_site_charge
  Fe  Fe1  1  0.250000  0.250000  0.500000  1.0  0.5242
  Fe  Fe2  1  0.250000  0.750000  0.000000  1.0  0.5242
  Fe  Fe3  1  0.750000  0.750000  0.500000  1.0  0.5242
  Fe  Fe4  1  0.750000  0.250000  0.000000  1.0  0.5242
  Fe  Fe5  1  0.750000  0.250000  0.500000  1.0  0.5242
  Fe  Fe6  1  0.750000  0.750000  0.000000  1.0  0.5242
  Fe  Fe7  1  0.250000  0.250000  0.000000  1.0  0.5242
  Fe  Fe8  1  0.250000  0.750000  0.500000  1.0  0.5242
  Fe  Fe9  1  0.250000  0.250000  0.250000  1.0  0.6316
  Fe  Fe10  1  0.750000  0.750000  0.250000  1.0  0.6316
  Fe  Fe11  1  0.750000  0.250000  0.750000  1.0  0.6316
  Fe  Fe12  1  0.250000  0.750000  0.750000  1.0  0.6316
  Fe  Fe13  1  0.750000  0.750000  0.750000  1.0  0.6316
  Fe  Fe14  1  0.750000  0.250000  0.250000  1.0  0.6316
  Fe  Fe15  1  0.250000  0.750000  0.250000  1.0  0.6316
  Fe  Fe16  1  0.250000  0.250000  0.750000  1.0  0.6316
  H  H17  1  0.077400  0.378500  0.237600  1.0  0.0853
  H  H18  1  0.077400  0.878500  0.737600  1.0  0.0853
  H  H19  1  0.577400  0.378500  0.737600  1.0  0.0853
  H  H20  1  0.577400  0.878500  0.237600  1.0  0.0853
  H  H21  1  0.922600  0.621500  0.237600  1.0  0.0853
  H  H22  1  0.922600  0.121500  0.737600  1.0  0.0853
  H  H23  1  0.422600  0.621500  0.737600  1.0  0.0853
  H  H24  1  0.422600  0.121500  0.237600  1.0  0.0853
  H  H25  1  0.922600  0.378500  0.762400  1.0  0.0852
  H  H26  1  0.922600  0.878500  0.262400  1.0  0.0852
  H  H27  1  0.422600  0.378500  0.262400  1.0  0.0852
  H  H28  1  0.422600  0.878500  0.762400  1.0  0.0852
  H  H29  1  0.077400  0.621500  0.762400  1.0  0.0851
  H  H30  1  0.077400  0.121500  0.262400  1.0  0.0851
  H  H31  1  0.577400  0.621500  0.262400  1.0  0.0851
  H  H32  1  0.577400  0.121500  0.762400  1.0  0.0851
  H  H33  1  0.922600  0.621500  0.762400  1.0  0.0853
  H  H34  1  0.922600  0.121500  0.262400  1.0  0.0853
  H  H35  1  0.422600  0.621500  0.262400  1.0  0.0853
  H  H36  1  0.422600  0.121500  0.762400  1.0  0.0853
  H  H37  1  0.077400  0.378500  0.762400  1.0  0.085
  H  H38  1  0.077400  0.878500  0.262400  1.0  0.085
  H  H39  1  0.577400  0.378500  0.262400  1.0  0.085
  H  H40  1  0.577400  0.878500  0.762400  1.0  0.085
  H  H41  1  0.077400  0.621500  0.237600  1.0  0.0851
  H  H42  1  0.077400  0.121500  0.737600  1.0  0.0851
  H  H43  1  0.577400  0.621500  0.737600  1.0  0.0851
  H  H44  1  0.577400  0.121500  0.237600  1.0  0.0851
  H  H45  1  0.922600  0.378500  0.237600  1.0  0.0854
  H  H46  1  0.922600  0.878500  0.737600  1.0  0.0854
  H  H47  1  0.422600  0.378500  0.737600  1.0  0.0854
  H  H48  1  0.422600  0.878500  0.237600  1.0  0.0854
  H  H49  1  0.079300  0.114600  0.500000  1.0  0.082
  H  H50  1  0.079300  0.372700  0.500000  1.0  0.0867
  H  H51  1  0.079300  0.614600  0.000000  1.0  0.082
  H  H52  1  0.079300  0.872700  0.000000  1.0  0.0867
  H  H53  1  0.579300  0.114600  0.000000  1.0  0.082
  H  H54  1  0.579300  0.372700  0.000000  1.0  0.0867
  H  H55  1  0.579300  0.614600  0.500000  1.0  0.082
  H  H56  1  0.579300  0.872700  0.500000  1.0  0.0867
  H  H57  1  0.920700  0.885400  0.500000  1.0  0.0817
  H  H58  1  0.920700  0.627300  0.500000  1.0  0.0863
  H  H59  1  0.920700  0.385400  0.000000  1.0  0.0817
  H  H60  1  0.920700  0.127300  0.000000  1.0  0.0863
  H  H61  1  0.420700  0.885400  0.000000  1.0  0.0817
  H  H62  1  0.420700  0.627300  0.000000  1.0  0.0863
  H  H63  1  0.420700  0.385400  0.500000  1.0  0.0817
  H  H64  1  0.420700  0.127300  0.500000  1.0  0.0863
  H  H65  1  0.920700  0.114600  0.500000  1.0  0.0819
  H  H66  1  0.920700  0.372700  0.500000  1.0  0.0861
  H  H67  1  0.920700  0.614600  0.000000  1.0  0.0819
  H  H68  1  0.920700  0.872700  0.000000  1.0  0.0861
  H  H69  1  0.420700  0.114600  0.000000  1.0  0.0819
  H  H70  1  0.420700  0.372700  0.000000  1.0  0.0861
  H  H71  1  0.420700  0.614600  0.500000  1.0  0.0819
  H  H72  1  0.420700  0.872700  0.500000  1.0  0.0861
  H  H73  1  0.079300  0.885400  0.500000  1.0  0.0816
  H  H74  1  0.079300  0.627300  0.500000  1.0  0.0852
  H  H75  1  0.079300  0.385400  0.000000  1.0  0.0816
  H  H76  1  0.079300  0.127300  0.000000  1.0  0.0852
  H  H77  1  0.579300  0.885400  0.000000  1.0  0.0816
  H  H78  1  0.579300  0.627300  0.000000  1.0  0.0852
  H  H79  1  0.579300  0.385400  0.500000  1.0  0.0816
  H  H80  1  0.579300  0.127300  0.500000  1.0  0.0852
  Pt  Pt81  1  0.266940  0.000000  0.374990  1.0  0.1086
  Pt  Pt82  1  0.266940  0.500000  0.874990  1.0  0.1086
  Pt  Pt83  1  0.766940  0.000000  0.874990  1.0  0.1086
  Pt  Pt84  1  0.766940  0.500000  0.374990  1.0  0.1086
  Pt  Pt85  1  0.733060  0.000000  0.374990  1.0  0.1088
  Pt  Pt86  1  0.733060  0.500000  0.874990  1.0  0.1088
  Pt  Pt87  1  0.233060  0.000000  0.874990  1.0  0.1088
  Pt  Pt88  1  0.233060  0.500000  0.374990  1.0  0.1088
  Pt  Pt89  1  0.733060  0.000000  0.625010  1.0  0.109
  Pt  Pt90  1  0.733060  0.500000  0.125010  1.0  0.109
  Pt  Pt91  1  0.233060  0.000000  0.125010  1.0  0.109
  Pt  Pt92  1  0.233060  0.500000  0.625010  1.0  0.109
  Pt  Pt93  1  0.266940  0.000000  0.625010  1.0  0.1089
  Pt  Pt94  1  0.266940  0.500000  0.125010  1.0  0.1089
  Pt  Pt95  1  0.766940  0.000000  0.125010  1.0  0.1089
  Pt  Pt96  1  0.766940  0.500000  0.625010  1.0  0.1089
  C  C97  1  0.264300  0.094100  0.422450  1.0  0.1325
  C  C98  1  0.263500  0.093600  0.327400  1.0  0.1405
  C  C99  1  0.046600  0.324200  0.242800  1.0  0.125
  C  C100  1  0.264300  0.594100  0.922450  1.0  0.1325
  C  C101  1  0.263500  0.593600  0.827400  1.0  0.1405
  C  C102  1  0.046600  0.824200  0.742800  1.0  0.125
  C  C103  1  0.764300  0.094100  0.922450  1.0  0.1325
  C  C104  1  0.763500  0.093600  0.827400  1.0  0.1405
  C  C105  1  0.546600  0.324200  0.742800  1.0  0.125
  C  C106  1  0.764300  0.594100  0.422450  1.0  0.1325
  C  C107  1  0.763500  0.593600  0.327400  1.0  0.1405
  C  C108  1  0.546600  0.824200  0.242800  1.0  0.125
  C  C109  1  0.735700  0.905900  0.422450  1.0  0.1335
  C  C110  1  0.736500  0.906400  0.327400  1.0  0.1401
  C  C111  1  0.953400  0.675800  0.242800  1.0  0.124
  C  C112  1  0.735700  0.405900  0.922450  1.0  0.1335
  C  C113  1  0.736500  0.406400  0.827400  1.0  0.1401
  C  C114  1  0.953400  0.175800  0.742800  1.0  0.124
  C  C115  1  0.235700  0.905900  0.922450  1.0  0.1335
  C  C116  1  0.236500  0.906400  0.827400  1.0  0.1401
  C  C117  1  0.453400  0.675800  0.742800  1.0  0.124
  C  C118  1  0.235700  0.405900  0.422450  1.0  0.1335
  C  C119  1  0.236500  0.406400  0.327400  1.0  0.1401
  C  C120  1  0.453400  0.175800  0.242800  1.0  0.124
  C  C121  1  0.735700  0.094100  0.577550  1.0  0.1323
  C  C122  1  0.736500  0.093600  0.672600  1.0  0.1428
  C  C123  1  0.953400  0.324200  0.757200  1.0  0.1236
  C  C124  1  0.735700  0.594100  0.077550  1.0  0.1323
  C  C125  1  0.736500  0.593600  0.172600  1.0  0.1428
  C  C126  1  0.953400  0.824200  0.257200  1.0  0.1236
  C  C127  1  0.235700  0.094100  0.077550  1.0  0.1323
  C  C128  1  0.236500  0.093600  0.172600  1.0  0.1428
  C  C129  1  0.453400  0.324200  0.257200  1.0  0.1236
  C  C130  1  0.235700  0.594100  0.577550  1.0  0.1323
  C  C131  1  0.236500  0.593600  0.672600  1.0  0.1428
  C  C132  1  0.453400  0.824200  0.757200  1.0  0.1236
  C  C133  1  0.264300  0.905900  0.577550  1.0  0.1318
  C  C134  1  0.263500  0.906400  0.672600  1.0  0.1441
  C  C135  1  0.046600  0.675800  0.757200  1.0  0.1252
  C  C136  1  0.264300  0.405900  0.077550  1.0  0.1318
  C  C137  1  0.263500  0.406400  0.172600  1.0  0.1441
  C  C138  1  0.046600  0.175800  0.257200  1.0  0.1252
  C  C139  1  0.764300  0.905900  0.077550  1.0  0.1318
  C  C140  1  0.763500  0.906400  0.172600  1.0  0.1441
  C  C141  1  0.546600  0.675800  0.257200  1.0  0.1252
  C  C142  1  0.764300  0.405900  0.577550  1.0  0.1318
  C  C143  1  0.763500  0.406400  0.672600  1.0  0.1441
  C  C144  1  0.546600  0.175800  0.757200  1.0  0.1252
  C  C145  1  0.735700  0.905900  0.577550  1.0  0.1321
  C  C146  1  0.736500  0.906400  0.672600  1.0  0.1438
  C  C147  1  0.953400  0.675800  0.757200  1.0  0.1242
  C  C148  1  0.735700  0.405900  0.077550  1.0  0.1321
  C  C149  1  0.736500  0.406400  0.172600  1.0  0.1438
  C  C150  1  0.953400  0.175800  0.257200  1.0  0.1242
  C  C151  1  0.235700  0.905900  0.077550  1.0  0.1321
  C  C152  1  0.236500  0.906400  0.172600  1.0  0.1438
  C  C153  1  0.453400  0.675800  0.257200  1.0  0.1242
  C  C154  1  0.235700  0.405900  0.577550  1.0  0.1321
  C  C155  1  0.236500  0.406400  0.672600  1.0  0.1438
  C  C156  1  0.453400  0.175800  0.757200  1.0  0.1242
  C  C157  1  0.264300  0.094100  0.577550  1.0  0.132
  C  C158  1  0.263500  0.093600  0.672600  1.0  0.1432
  C  C159  1  0.046600  0.324200  0.757200  1.0  0.1248
  C  C160  1  0.264300  0.594100  0.077550  1.0  0.132
  C  C161  1  0.263500  0.593600  0.172600  1.0  0.1432
  C  C162  1  0.046600  0.824200  0.257200  1.0  0.1248
  C  C163  1  0.764300  0.094100  0.077550  1.0  0.132
  C  C164  1  0.763500  0.093600  0.172600  1.0  0.1432
  C  C165  1  0.546600  0.324200  0.257200  1.0  0.1248
  C  C166  1  0.764300  0.594100  0.577550  1.0  0.132
  C  C167  1  0.763500  0.593600  0.672600  1.0  0.1432
  C  C168  1  0.546600  0.824200  0.757200  1.0  0.1248
  C  C169  1  0.264300  0.905900  0.422450  1.0  0.1328
  C  C170  1  0.263500  0.906400  0.327400  1.0  0.1408
  C  C171  1  0.046600  0.675800  0.242800  1.0  0.125
  C  C172  1  0.264300  0.405900  0.922450  1.0  0.1328
  C  C173  1  0.263500  0.406400  0.827400  1.0  0.1408
  C  C174  1  0.046600  0.175800  0.742800  1.0  0.125
  C  C175  1  0.764300  0.905900  0.922450  1.0  0.1328
  C  C176  1  0.763500  0.906400  0.827400  1.0  0.1408
  C  C177  1  0.546600  0.675800  0.742800  1.0  0.125
  C  C178  1  0.764300  0.405900  0.422450  1.0  0.1328
  C  C179  1  0.763500  0.406400  0.327400  1.0  0.1408
  C  C180  1  0.546600  0.175800  0.242800  1.0  0.125
  C  C181  1  0.735700  0.094100  0.422450  1.0  0.1332
  C  C182  1  0.736500  0.093600  0.327400  1.0  0.14
  C  C183  1  0.953400  0.324200  0.242800  1.0  0.1237
  C  C184  1  0.735700  0.594100  0.922450  1.0  0.1332
  C  C185  1  0.736500  0.593600  0.827400  1.0  0.14
  C  C186  1  0.953400  0.824200  0.742800  1.0  0.1237
  C  C187  1  0.235700  0.094100  0.922450  1.0  0.1332
  C  C188  1  0.236500  0.093600  0.827400  1.0  0.14
  C  C189  1  0.453400  0.324200  0.742800  1.0  0.1237
  C  C190  1  0.235700  0.594100  0.422450  1.0  0.1332
  C  C191  1  0.236500  0.593600  0.327400  1.0  0.14
  C  C192  1  0.453400  0.824200  0.242800  1.0  0.1237
  C  C193  1  0.048200  0.169800  0.500000  1.0  0.1093
  C  C194  1  0.048200  0.317500  0.500000  1.0  0.1336
  C  C195  1  0.048200  0.669800  0.000000  1.0  0.1093
  C  C196  1  0.048200  0.817500  0.000000  1.0  0.1336
  C  C197  1  0.548200  0.169800  0.000000  1.0  0.1093
  C  C198  1  0.548200  0.317500  0.000000  1.0  0.1336
  C  C199  1  0.548200  0.669800  0.500000  1.0  0.1093
  C  C200  1  0.548200  0.817500  0.500000  1.0  0.1336
  C  C201  1  0.951800  0.830200  0.500000  1.0  0.1101
  C  C202  1  0.951800  0.682500  0.500000  1.0  0.1328
  C  C203  1  0.951800  0.330200  0.000000  1.0  0.1101
  C  C204  1  0.951800  0.182500  0.000000  1.0  0.1328
  C  C205  1  0.451800  0.830200  0.000000  1.0  0.1101
  C  C206  1  0.451800  0.682500  0.000000  1.0  0.1328
  C  C207  1  0.451800  0.330200  0.500000  1.0  0.1101
  C  C208  1  0.451800  0.182500  0.500000  1.0  0.1328
  C  C209  1  0.951800  0.169800  0.500000  1.0  0.1097
  C  C210  1  0.951800  0.317500  0.500000  1.0  0.1339
  C  C211  1  0.951800  0.669800  0.000000  1.0  0.1097
  C  C212  1  0.951800  0.817500  0.000000  1.0  0.1339
  C  C213  1  0.451800  0.169800  0.000000  1.0  0.1097
  C  C214  1  0.451800  0.317500  0.000000  1.0  0.1339
  C  C215  1  0.451800  0.669800  0.500000  1.0  0.1097
  C  C216  1  0.451800  0.817500  0.500000  1.0  0.1339
  C  C217  1  0.048200  0.830200  0.500000  1.0  0.1096
  C  C218  1  0.048200  0.682500  0.500000  1.0  0.1327
  C  C219  1  0.048200  0.330200  0.000000  1.0  0.1096
  C  C220  1  0.048200  0.182500  0.000000  1.0  0.1327
  C  C221  1  0.548200  0.830200  0.000000  1.0  0.1096
  C  C222  1  0.548200  0.682500  0.000000  1.0  0.1327
  C  C223  1  0.548200  0.330200  0.500000  1.0  0.1096
  C  C224  1  0.548200  0.182500  0.500000  1.0  0.1327
  N  N225  1  0.257200  0.147400  0.300080  1.0  -0.3524
  N  N226  1  0.258800  0.147700  0.450000  1.0  -0.3699
  N  N227  1  0.257200  0.647400  0.800080  1.0  -0.3524
  N  N228  1  0.258800  0.647700  0.950000  1.0  -0.3699
  N  N229  1  0.757200  0.147400  0.800080  1.0  -0.3524
  N  N230  1  0.758800  0.147700  0.950000  1.0  -0.3699
  N  N231  1  0.757200  0.647400  0.300080  1.0  -0.3524
  N  N232  1  0.758800  0.647700  0.450000  1.0  -0.3699
  N  N233  1  0.742800  0.852600  0.300080  1.0  -0.3526
  N  N234  1  0.741200  0.852300  0.450000  1.0  -0.3693
  N  N235  1  0.742800  0.352600  0.800080  1.0  -0.3526
  N  N236  1  0.741200  0.352300  0.950000  1.0  -0.3693
  N  N237  1  0.242800  0.852600  0.800080  1.0  -0.3526
  N  N238  1  0.241200  0.852300  0.950000  1.0  -0.3693
  N  N239  1  0.242800  0.352600  0.300080  1.0  -0.3526
  N  N240  1  0.241200  0.352300  0.450000  1.0  -0.3693
  N  N241  1  0.742800  0.147400  0.699920  1.0  -0.3516
  N  N242  1  0.741200  0.147700  0.550000  1.0  -0.3701
  N  N243  1  0.742800  0.647400  0.199920  1.0  -0.3516
  N  N244  1  0.741200  0.647700  0.050000  1.0  -0.37
  N  N245  1  0.242800  0.147400  0.199920  1.0  -0.3516
  N  N246  1  0.241200  0.147700  0.050000  1.0  -0.3701
  N  N247  1  0.242800  0.647400  0.699920  1.0  -0.3516
  N  N248  1  0.241200  0.647700  0.550000  1.0  -0.3701
  N  N249  1  0.257200  0.852600  0.699920  1.0  -0.3522
  N  N250  1  0.258800  0.852300  0.550000  1.0  -0.3695
  N  N251  1  0.257200  0.352600  0.199920  1.0  -0.3522
  N  N252  1  0.258800  0.352300  0.050000  1.0  -0.3695
  N  N253  1  0.757200  0.852600  0.199920  1.0  -0.3522
  N  N254  1  0.758800  0.852300  0.050000  1.0  -0.3695
  N  N255  1  0.757200  0.352600  0.699920  1.0  -0.3522
  N  N256  1  0.758800  0.352300  0.550000  1.0  -0.3695
  N  N257  1  0.742800  0.852600  0.699920  1.0  -0.3521
  N  N258  1  0.741200  0.852300  0.550000  1.0  -0.3697
  N  N259  1  0.742800  0.352600  0.199920  1.0  -0.3521
  N  N260  1  0.741200  0.352300  0.050000  1.0  -0.3697
  N  N261  1  0.242800  0.852600  0.199920  1.0  -0.3521
  N  N262  1  0.241200  0.852300  0.050000  1.0  -0.3697
  N  N263  1  0.242800  0.352600  0.699920  1.0  -0.3521
  N  N264  1  0.241200  0.352300  0.550000  1.0  -0.3697
  N  N265  1  0.257200  0.147400  0.699920  1.0  -0.3519
  N  N266  1  0.258800  0.147700  0.550000  1.0  -0.3702
  N  N267  1  0.257200  0.647400  0.199920  1.0  -0.3519
  N  N268  1  0.258800  0.647700  0.050000  1.0  -0.3702
  N  N269  1  0.757200  0.147400  0.199920  1.0  -0.3519
  N  N270  1  0.758800  0.147700  0.050000  1.0  -0.3702
  N  N271  1  0.757200  0.647400  0.699920  1.0  -0.3519
  N  N272  1  0.758800  0.647700  0.550000  1.0  -0.3702
  N  N273  1  0.257200  0.852600  0.300080  1.0  -0.3527
  N  N274  1  0.258800  0.852300  0.450000  1.0  -0.3693
  N  N275  1  0.257200  0.352600  0.800080  1.0  -0.3527
  N  N276  1  0.258800  0.352300  0.950000  1.0  -0.3693
  N  N277  1  0.757200  0.852600  0.800080  1.0  -0.3527
  N  N278  1  0.758800  0.852300  0.950000  1.0  -0.3693
  N  N279  1  0.757200  0.352600  0.300080  1.0  -0.3527
  N  N280  1  0.758800  0.352300  0.450000  1.0  -0.3693
  N  N281  1  0.742800  0.147400  0.300080  1.0  -0.3521
  N  N282  1  0.741200  0.147700  0.450000  1.0  -0.3698
  N  N283  1  0.742800  0.647400  0.800080  1.0  -0.3521
  N  N284  1  0.741200  0.647700  0.950000  1.0  -0.3698
  N  N285  1  0.242800  0.147400  0.800080  1.0  -0.3521
  N  N286  1  0.241200  0.147700  0.950000  1.0  -0.3698
  N  N287  1  0.242800  0.647400  0.300080  1.0  -0.3521
  N  N288  1  0.241200  0.647700  0.450000  1.0  -0.3698
  N  N289  1  0.095100  0.243800  0.500000  1.0  -0.3123
  N  N290  1  0.095100  0.743800  0.000000  1.0  -0.3123
  N  N291  1  0.595100  0.243800  0.000000  1.0  -0.3123
  N  N292  1  0.595100  0.743800  0.500000  1.0  -0.3123
  N  N293  1  0.904900  0.756200  0.500000  1.0  -0.3138
  N  N294  1  0.904900  0.256200  0.000000  1.0  -0.3138
  N  N295  1  0.404900  0.756200  0.000000  1.0  -0.3138
  N  N296  1  0.404900  0.256200  0.500000  1.0  -0.3138
  N  N297  1  0.904900  0.243800  0.500000  1.0  -0.317
  N  N298  1  0.904900  0.743800  0.000000  1.0  -0.317
  N  N299  1  0.404900  0.243800  0.000000  1.0  -0.317
  N  N300  1  0.404900  0.743800  0.500000  1.0  -0.317
  N  N301  1  0.095100  0.756200  0.500000  1.0  -0.316
  N  N302  1  0.095100  0.256200  0.000000  1.0  -0.316
  N  N303  1  0.595100  0.756200  0.000000  1.0  -0.316
  N  N304  1  0.595100  0.256200  0.500000  1.0  -0.316
  N  N305  1  0.095600  0.250000  0.250000  1.0  -0.3056
  N  N306  1  0.595600  0.250000  0.750000  1.0  -0.3056
  N  N307  1  0.904400  0.750000  0.250000  1.0  -0.3056
  N  N308  1  0.404400  0.750000  0.750000  1.0  -0.3056
  N  N309  1  0.404400  0.250000  0.250000  1.0  -0.3056
  N  N310  1  0.904400  0.250000  0.750000  1.0  -0.3056
  N  N311  1  0.095600  0.750000  0.750000  1.0  -0.3056
  N  N312  1  0.595600  0.750000  0.250000  1.0  -0.3056
  N  N313  1  0.904400  0.750000  0.750000  1.0  -0.3086
  N  N314  1  0.904400  0.250000  0.250000  1.0  -0.3086
  N  N315  1  0.404400  0.750000  0.250000  1.0  -0.3086
  N  N316  1  0.095600  0.250000  0.750000  1.0  -0.3088
  N  N317  1  0.595600  0.250000  0.250000  1.0  -0.3088
  N  N318  1  0.095600  0.750000  0.250000  1.0  -0.3088
  N  N319  1  0.595600  0.750000  0.750000  1.0  -0.3088
  N  N320  1  0.404400  0.250000  0.750000  1.0  -0.3086
