# generated using pymatgen
data_ZnH4(C2O)6
_symmetry_space_group_name_H-M   'P 1'
_cell_length_a   12.47520000
_cell_length_b   15.37630000
_cell_length_c   17.95510000
_cell_angle_alpha   69.51700000
_cell_angle_beta   75.56500000
_cell_angle_gamma   86.28400000
_symmetry_Int_Tables_number   1
_chemical_formula_structural   ZnH4(C2O)6
_chemical_formula_sum   'Zn6 H24 C72 O36'
_cell_volume   3123.62593640
_cell_formula_units_Z   6
loop_
 _symmetry_equiv_pos_site_id
 _symmetry_equiv_pos_as_xyz
  1  'x, y, z'
loop_
 _atom_site_type_symbol
 _atom_site_label
 _atom_site_symmetry_multiplicity
 _atom_site_fract_x
 _atom_site_fract_y
 _atom_site_fract_z
 _atom_site_occupancy
 _atom_site_charge
  Zn  Zn1  1  0.006270  0.238680  0.348080  1.0  1.0893
  Zn  Zn2  1  0.127370  0.413990  0.167990  1.0  1.1182
  Zn  Zn3  1  0.822170  0.961570  0.188560  1.0  1.0665
  Zn  Zn4  1  0.993730  0.761320  0.651920  1.0  1.0893
  Zn  Zn5  1  0.872630  0.586010  0.832010  1.0  1.1181
  Zn  Zn6  1  0.177830  0.038430  0.811440  1.0  1.0685
  H  H7  1  0.254800  0.981000  0.425600  1.0  0.1308
  H  H8  1  0.736600  0.183300  0.251500  1.0  0.1304
  H  H9  1  0.459800  0.312200  0.173600  1.0  0.1269
  H  H10  1  0.425700  0.991600  0.309500  1.0  0.1234
  H  H11  1  0.616000  0.317700  0.054200  1.0  0.1303
  H  H12  1  0.922200  0.385900  0.057900  1.0  0.1298
  H  H13  1  0.958800  0.925100  0.397200  1.0  0.1297
  H  H14  1  0.171200  0.114000  0.209900  1.0  0.1381
  H  H15  1  0.989800  0.627300  0.235000  1.0  0.1393
  H  H16  1  0.684900  0.696300  0.337500  1.0  0.1235
  H  H17  1  0.775300  0.426700  0.410400  1.0  0.1354
  H  H18  1  0.338000  0.563500  0.464000  1.0  0.1357
  H  H19  1  0.745200  0.019000  0.574400  1.0  0.1309
  H  H20  1  0.263400  0.816700  0.748500  1.0  0.1303
  H  H21  1  0.540200  0.687800  0.826400  1.0  0.1276
  H  H22  1  0.574300  0.008400  0.690500  1.0  0.1221
  H  H23  1  0.384000  0.682300  0.945800  1.0  0.1298
  H  H24  1  0.077800  0.614100  0.942100  1.0  0.1302
  H  H25  1  0.041200  0.074900  0.602800  1.0  0.1308
  H  H26  1  0.828800  0.886000  0.790100  1.0  0.1393
  H  H27  1  0.010200  0.372700  0.765000  1.0  0.139
  H  H28  1  0.315100  0.303700  0.662500  1.0  0.1233
  H  H29  1  0.224700  0.573300  0.589600  1.0  0.1351
  H  H30  1  0.662000  0.436500  0.536000  1.0  0.1356
  C  C31  1  0.348600  0.204700  0.239700  1.0  -0.05
  C  C32  1  0.202700  0.993400  0.392800  1.0  -0.0628
  C  C33  1  0.842100  0.281800  0.161600  1.0  -0.0981
  C  C34  1  0.228300  0.058900  0.314500  1.0  0.0388
  C  C35  1  0.337000  0.109300  0.279700  1.0  0.0017
  C  C36  1  0.659100  0.244300  0.159200  1.0  0.059
  C  C37  1  0.744900  0.229500  0.198700  1.0  -0.0345
  C  C38  1  0.453400  0.246800  0.200800  1.0  -0.058
  C  C39  1  0.053600  0.019400  0.295300  1.0  -0.1298
  C  C40  1  0.548300  0.194400  0.201200  1.0  0.007
  C  C41  1  0.931400  0.276100  0.205200  1.0  0.7232
  C  C42  1  0.100400  0.945000  0.423900  1.0  -0.132
  C  C43  1  0.432600  0.056700  0.281100  1.0  -0.1109
  C  C44  1  0.537700  0.097000  0.242200  1.0  -0.0607
  C  C45  1  0.975600  0.443300  0.308400  1.0  0.7334
  C  C46  1  0.250100  0.266500  0.239500  1.0  0.7468
  C  C47  1  0.631000  0.033400  0.239500  1.0  0.7065
  C  C48  1  0.674300  0.308800  0.081300  1.0  -0.0797
  C  C49  1  0.856000  0.349000  0.082700  1.0  0.0153
  C  C50  1  0.027900  0.958200  0.375700  1.0  0.025
  C  C51  1  0.771800  0.361600  0.040800  1.0  -0.1234
  C  C52  1  0.078400  0.873700  0.508300  1.0  0.7046
  C  C53  1  0.895800  0.517300  0.320900  1.0  -0.1039
  C  C54  1  0.153700  0.071000  0.264400  1.0  -0.0438
  C  C55  1  0.786500  0.434200  0.957800  1.0  0.6958
  C  C56  1  0.505200  0.564700  0.424900  1.0  -0.0529
  C  C57  1  0.982400  0.028500  0.236900  1.0  0.7328
  C  C58  1  0.920300  0.609500  0.273300  1.0  -0.049
  C  C59  1  0.842000  0.675700  0.282300  1.0  -0.1295
  C  C60  1  0.603500  0.529600  0.443100  1.0  0.028
  C  C61  1  0.738700  0.650200  0.334700  1.0  -0.0161
  C  C62  1  0.791400  0.490000  0.377300  1.0  -0.0454
  C  C63  1  0.711900  0.558100  0.383500  1.0  0.0021
  C  C64  1  0.870300  0.776900  0.233300  1.0  0.6567
  C  C65  1  0.403600  0.537000  0.479400  1.0  -0.1033
  C  C66  1  0.482700  0.641900  0.349100  1.0  0.6901
  C  C67  1  0.651400  0.795300  0.760300  1.0  -0.0496
  C  C68  1  0.797300  0.006600  0.607200  1.0  -0.0625
  C  C69  1  0.157900  0.718200  0.838400  1.0  -0.0974
  C  C70  1  0.771700  0.941100  0.685500  1.0  0.0398
  C  C71  1  0.663000  0.890700  0.720300  1.0  0.0017
  C  C72  1  0.340900  0.755700  0.840800  1.0  0.0598
  C  C73  1  0.255100  0.770500  0.801300  1.0  -0.0343
  C  C74  1  0.546600  0.753200  0.799200  1.0  -0.0567
  C  C75  1  0.946400  0.980600  0.704700  1.0  -0.1305
  C  C76  1  0.451700  0.805600  0.798800  1.0  0.0073
  C  C77  1  0.068600  0.723900  0.794800  1.0  0.7246
  C  C78  1  0.899600  0.055000  0.576100  1.0  -0.1314
  C  C79  1  0.567400  0.943300  0.718900  1.0  -0.1129
  C  C80  1  0.462300  0.903000  0.757800  1.0  -0.0594
  C  C81  1  0.024400  0.556700  0.691600  1.0  0.7341
  C  C82  1  0.749900  0.733500  0.760500  1.0  0.7465
  C  C83  1  0.369000  0.966600  0.760500  1.0  0.7096
  C  C84  1  0.325700  0.691200  0.918700  1.0  -0.0796
  C  C85  1  0.144000  0.651000  0.917300  1.0  0.0169
  C  C86  1  0.972100  0.041800  0.624300  1.0  0.0257
  C  C87  1  0.228200  0.638400  0.959200  1.0  -0.1243
  C  C88  1  0.921600  0.126300  0.491700  1.0  0.7019
  C  C89  1  0.104200  0.482700  0.679100  1.0  -0.1047
  C  C90  1  0.846300  0.929000  0.735600  1.0  -0.0434
  C  C91  1  0.213500  0.565800  0.042200  1.0  0.6959
  C  C92  1  0.494800  0.435300  0.575100  1.0  -0.0495
  C  C93  1  0.017600  0.971500  0.763100  1.0  0.7337
  C  C94  1  0.079700  0.390500  0.726700  1.0  -0.0494
  C  C95  1  0.158000  0.324300  0.717700  1.0  -0.1289
  C  C96  1  0.396500  0.470400  0.556900  1.0  0.0291
  C  C97  1  0.261300  0.349800  0.665300  1.0  -0.0164
  C  C98  1  0.208600  0.510000  0.622700  1.0  -0.0457
  C  C99  1  0.288100  0.441900  0.616500  1.0  0.0019
  C  C100  1  0.129700  0.223100  0.766700  1.0  0.6572
  C  C101  1  0.596400  0.463000  0.520600  1.0  -0.1023
  C  C102  1  0.517300  0.358100  0.650900  1.0  0.6892
  O  O103  1  0.170100  0.246600  0.300700  1.0  -0.658
  O  O104  1  0.257000  0.340100  0.175990  1.0  -0.5977
  O  O105  1  0.012300  0.332700  0.168300  1.0  -0.636
  O  O106  1  0.861400  0.496600  0.939600  1.0  -0.5808
  O  O107  1  0.981300  0.845800  0.543200  1.0  -0.5603
  O  O108  1  0.921100  0.220000  0.276300  1.0  -0.565
  O  O109  1  0.699400  0.045800  0.170500  1.0  -0.559
  O  O110  1  0.158300  0.842200  0.540400  1.0  -0.6161
  O  O111  1  0.730500  0.433100  0.911800  1.0  -0.3898
  O  O112  1  0.786200  0.827800  0.224400  1.0  -0.5538
  O  O113  1  0.640800  0.969400  0.303400  1.0  -0.5542
  O  O114  1  0.893800  0.981500  0.266000  1.0  -0.5647
  O  O115  1  0.952500  0.360100  0.356900  1.0  -0.6214
  O  O116  1  0.062000  0.469000  0.251200  1.0  -0.6004
  O  O117  1  0.968800  0.802900  0.208800  1.0  -0.4469
  O  O118  1  0.016900  0.077700  0.163800  1.0  -0.494
  O  O119  1  0.522100  0.627000  0.282100  1.0  -0.4888
  O  O120  1  0.429200  0.716900  0.349900  1.0  -0.4454
  O  O121  1  0.829900  0.753400  0.699300  1.0  -0.6582
  O  O122  1  0.743000  0.659900  0.824010  1.0  -0.5983
  O  O123  1  0.987700  0.667300  0.831700  1.0  -0.6354
  O  O124  1  0.138600  0.503400  0.060400  1.0  -0.581
  O  O125  1  0.018700  0.154200  0.456800  1.0  -0.5612
  O  O126  1  0.078900  0.780000  0.723700  1.0  -0.5658
  O  O127  1  0.300600  0.954200  0.829500  1.0  -0.5594
  O  O128  1  0.841700  0.157800  0.459600  1.0  -0.6173
  O  O129  1  0.269500  0.566900  0.088200  1.0  -0.3922
  O  O130  1  0.213800  0.172200  0.775600  1.0  -0.5545
  O  O131  1  0.359200  0.030600  0.696600  1.0  -0.5544
  O  O132  1  0.106200  0.018500  0.734000  1.0  -0.5667
  O  O133  1  0.047500  0.639900  0.643100  1.0  -0.6191
  O  O134  1  0.938000  0.531000  0.748800  1.0  -0.6016
  O  O135  1  0.031200  0.197100  0.791200  1.0  -0.4471
  O  O136  1  0.983100  0.922300  0.836200  1.0  -0.4971
  O  O137  1  0.477900  0.373000  0.717900  1.0  -0.4896
  O  O138  1  0.570800  0.283100  0.650100  1.0  -0.4452
