# generated using pymatgen
data_ZnH4(C2O)6
_symmetry_space_group_name_H-M   'P 1'
_cell_length_a   9.51370000
_cell_length_b   16.11340000
_cell_length_c   27.58450000
_cell_angle_alpha   91.80200000
_cell_angle_beta   91.48900000
_cell_angle_gamma   94.44100000
_symmetry_Int_Tables_number   1
_chemical_formula_structural   ZnH4(C2O)6
_chemical_formula_sum   'Zn8 H32 C96 O48'
_cell_volume   4212.15504259
_cell_formula_units_Z   8
loop_
 _symmetry_equiv_pos_site_id
 _symmetry_equiv_pos_as_xyz
  1  'x, y, z'
loop_
 _atom_site_type_symbol
 _atom_site_label
 _atom_site_symmetry_multiplicity
 _atom_site_fract_x
 _atom_site_fract_y
 _atom_site_fract_z
 _atom_site_occupancy
 _atom_site_charge
  Zn  Zn1  1  0.971610  0.013310  0.151630  1.0  1.0272
  Zn  Zn2  1  0.378930  0.461710  0.030750  1.0  1.0426
  Zn  Zn3  1  0.125250  0.046500  0.474070  1.0  1.0604
  Zn  Zn4  1  0.527230  0.532360  0.344590  1.0  1.047
  Zn  Zn5  1  0.028390  0.986690  0.848370  1.0  1.0264
  Zn  Zn6  1  0.621070  0.538290  0.969250  1.0  1.0412
  Zn  Zn7  1  0.874750  0.953500  0.525930  1.0  1.0606
  Zn  Zn8  1  0.472770  0.467640  0.655410  1.0  1.0497
  H  H9  1  0.163200  0.860000  0.363900  1.0  0.1335
  H  H10  1  0.086700  0.859800  0.257300  1.0  0.1257
  H  H11  1  0.716300  0.398900  0.233700  1.0  0.1205
  H  H12  1  0.796800  0.130800  0.278700  1.0  0.1307
  H  H13  1  0.557000  0.083300  0.457800  1.0  0.1223
  H  H14  1  0.038900  0.297300  0.166000  1.0  0.1257
  H  H15  1  0.865300  0.163500  0.368400  1.0  0.1275
  H  H16  1  0.946000  0.429900  0.048500  1.0  0.1242
  H  H17  1  0.802900  0.749700  0.416400  1.0  0.1334
  H  H18  1  0.348300  0.675000  0.128800  1.0  0.1343
  H  H19  1  0.681600  0.769800  0.053600  1.0  0.1321
  H  H20  1  0.639200  0.359100  0.141900  1.0  0.1296
  H  H21  1  0.451400  0.690800  0.229900  1.0  0.1337
  H  H22  1  0.556300  0.893000  0.174100  1.0  0.1255
  H  H23  1  0.469000  0.233800  0.347500  1.0  0.134
  H  H24  1  0.977900  0.651600  0.297500  1.0  0.131
  H  H25  1  0.836800  0.140000  0.636100  1.0  0.134
  H  H26  1  0.913300  0.140200  0.742700  1.0  0.1268
  H  H27  1  0.283700  0.601100  0.766300  1.0  0.121
  H  H28  1  0.203200  0.869200  0.721300  1.0  0.1299
  H  H29  1  0.443000  0.916700  0.542200  1.0  0.1222
  H  H30  1  0.961100  0.702700  0.834000  1.0  0.1252
  H  H31  1  0.134700  0.836500  0.631600  1.0  0.1275
  H  H32  1  0.054000  0.570100  0.951500  1.0  0.1246
  H  H33  1  0.197100  0.250300  0.583600  1.0  0.1337
  H  H34  1  0.651700  0.325000  0.871200  1.0  0.1342
  H  H35  1  0.318400  0.230200  0.946400  1.0  0.1323
  H  H36  1  0.360800  0.640900  0.858100  1.0  0.1285
  H  H37  1  0.548600  0.309200  0.770100  1.0  0.1337
  H  H38  1  0.443700  0.107000  0.825900  1.0  0.1257
  H  H39  1  0.531000  0.766200  0.652500  1.0  0.1332
  H  H40  1  0.022100  0.348400  0.702500  1.0  0.1313
  C  C41  1  0.089750  0.816440  0.362120  1.0  -0.0573
  C  C42  1  0.815200  0.209800  0.223080  1.0  -0.0732
  C  C43  1  0.870200  0.146200  0.189010  1.0  0.672
  C  C44  1  0.160900  0.824900  0.251390  1.0  -0.0753
  C  C45  1  0.832100  0.075200  0.448020  1.0  0.7404
  C  C46  1  0.731300  0.343800  0.242810  1.0  -0.0636
  C  C47  1  0.643800  0.383200  0.323760  1.0  0.6999
  C  C48  1  0.779400  0.185500  0.269440  1.0  -0.0843
  C  C49  1  0.834100  0.324500  0.161450  1.0  0.0598
  C  C50  1  0.337900  0.153500  0.419340  1.0  0.6687
  C  C51  1  0.727200  0.119100  0.418750  1.0  -0.1217
  C  C52  1  0.587400  0.115400  0.431100  1.0  0.0149
  C  C53  1  0.300300  0.715100  0.277620  1.0  -0.0524
  C  C54  1  0.719200  0.237400  0.302680  1.0  -0.0066
  C  C55  1  0.236900  0.835900  0.209640  1.0  -0.1002
  C  C56  1  0.169300  0.366200  0.091270  1.0  0.6771
  C  C57  1  0.972800  0.324300  0.146920  1.0  -0.0205
  C  C58  1  0.790600  0.290900  0.209320  1.0  0.0229
  C  C59  1  0.346300  0.783800  0.201190  1.0  0.0193
  C  C60  1  0.347700  0.656900  0.315640  1.0  0.7202
  C  C61  1  0.510000  0.712200  0.086130  1.0  -0.108
  C  C62  1  0.086900  0.755800  0.325190  1.0  0.0524
  C  C63  1  0.670900  0.439610  0.059460  1.0  0.7192
  C  C64  1  0.769600  0.162000  0.377610  1.0  -0.0459
  C  C65  1  0.693100  0.319300  0.289080  1.0  -0.0536
  C  C66  1  0.764700  0.901900  0.110100  1.0  0.6838
  C  C67  1  0.016500  0.363300  0.104740  1.0  -0.1591
  C  C68  1  0.777100  0.399400  0.089870  1.0  -0.1185
  C  C69  1  0.489900  0.158000  0.404950  1.0  -0.1406
  C  C70  1  0.187800  0.765500  0.285020  1.0  0.0281
  C  C71  1  0.917300  0.401800  0.076770  1.0  0.0147
  C  C72  1  0.673400  0.202600  0.350020  1.0  0.0488
  C  C73  1  0.875500  0.751100  0.393370  1.0  0.0339
  C  C74  1  0.421000  0.717800  0.124600  1.0  -0.0791
  C  C75  1  0.620200  0.773900  0.080040  1.0  0.033
  C  C76  1  0.734900  0.360600  0.132670  1.0  -0.0794
  C  C77  1  0.496700  0.635300  0.053440  1.0  0.7324
  C  C78  1  0.991100  0.881500  0.436120  1.0  0.7511
  C  C79  1  0.984500  0.813600  0.396790  1.0  -0.1363
  C  C80  1  0.376300  0.725100  0.235530  1.0  -0.0656
  C  C81  1  0.638400  0.841600  0.113380  1.0  -0.1691
  C  C82  1  0.545000  0.846800  0.151700  1.0  -0.0126
  C  C83  1  0.533900  0.203000  0.364750  1.0  0.0065
  C  C84  1  0.979200  0.693400  0.322650  1.0  -0.0833
  C  C85  1  0.749300  0.626300  0.348670  1.0  0.6951
  C  C86  1  0.872600  0.690500  0.356150  1.0  -0.133
  C  C87  1  0.436800  0.785900  0.157510  1.0  0.0741
  C  C88  1  0.191600  0.899400  0.174700  1.0  0.6931
  C  C89  1  0.910250  0.183560  0.637880  1.0  -0.0576
  C  C90  1  0.184800  0.790200  0.776920  1.0  -0.071
  C  C91  1  0.129800  0.853800  0.810990  1.0  0.6717
  C  C92  1  0.839100  0.175100  0.748610  1.0  -0.0746
  C  C93  1  0.167900  0.924800  0.551980  1.0  0.7406
  C  C94  1  0.268700  0.656200  0.757190  1.0  -0.0635
  C  C95  1  0.356200  0.616800  0.676240  1.0  0.7027
  C  C96  1  0.220600  0.814500  0.730560  1.0  -0.0868
  C  C97  1  0.165900  0.675500  0.838550  1.0  0.0604
  C  C98  1  0.662100  0.846500  0.580660  1.0  0.6666
  C  C99  1  0.272800  0.880900  0.581250  1.0  -0.1213
  C  C100  1  0.412600  0.884600  0.568900  1.0  0.0143
  C  C101  1  0.699700  0.284900  0.722380  1.0  -0.0518
  C  C102  1  0.280800  0.762600  0.697320  1.0  -0.0067
  C  C103  1  0.763100  0.164100  0.790360  1.0  -0.1002
  C  C104  1  0.830700  0.633800  0.908730  1.0  0.6765
  C  C105  1  0.027200  0.675700  0.853080  1.0  -0.0211
  C  C106  1  0.209400  0.709100  0.790680  1.0  0.0229
  C  C107  1  0.653700  0.216200  0.798810  1.0  0.0195
  C  C108  1  0.652300  0.343100  0.684360  1.0  0.7205
  C  C109  1  0.490000  0.287800  0.913870  1.0  -0.1081
  C  C110  1  0.913100  0.244200  0.674810  1.0  0.0532
  C  C111  1  0.329100  0.560390  0.940540  1.0  0.7189
  C  C112  1  0.230400  0.838000  0.622390  1.0  -0.0465
  C  C113  1  0.306900  0.680700  0.710920  1.0  -0.0532
  C  C114  1  0.235300  0.098100  0.889900  1.0  0.6828
  C  C115  1  0.983500  0.636700  0.895260  1.0  -0.1591
  C  C116  1  0.222900  0.600600  0.910130  1.0  -0.1186
  C  C117  1  0.510100  0.842000  0.595050  1.0  -0.1407
  C  C118  1  0.812200  0.234500  0.714980  1.0  0.029
  C  C119  1  0.082700  0.598200  0.923230  1.0  0.0145
  C  C120  1  0.326600  0.797400  0.649980  1.0  0.0486
  C  C121  1  0.124500  0.248900  0.606630  1.0  0.0344
  C  C122  1  0.579000  0.282200  0.875400  1.0  -0.0795
  C  C123  1  0.379800  0.226100  0.919960  1.0  0.0314
  C  C124  1  0.265100  0.639400  0.867330  1.0  -0.0794
  C  C125  1  0.503300  0.364700  0.946560  1.0  0.7328
  C  C126  1  0.008900  0.118500  0.563880  1.0  0.7505
  C  C127  1  0.015500  0.186400  0.603210  1.0  -0.1347
  C  C128  1  0.623700  0.274900  0.764470  1.0  -0.0651
  C  C129  1  0.361600  0.158400  0.886620  1.0  -0.1693
  C  C130  1  0.455000  0.153200  0.848300  1.0  -0.0122
  C  C131  1  0.466100  0.797000  0.635250  1.0  0.0077
  C  C132  1  0.020800  0.306600  0.677350  1.0  -0.0842
  C  C133  1  0.250700  0.373700  0.651330  1.0  0.6937
  C  C134  1  0.127400  0.309500  0.643850  1.0  -0.1335
  C  C135  1  0.563200  0.214100  0.842490  1.0  0.0739
  C  C136  1  0.808400  0.100600  0.825300  1.0  0.6935
  O  O137  1  0.404300  0.592450  0.300590  1.0  -0.5585
  O  O138  1  0.301400  0.094790  0.446890  1.0  -0.5933
  O  O139  1  0.575800  0.634570  0.017180  1.0  -0.6074
  O  O140  1  0.946300  0.093130  0.207710  1.0  -0.5507
  O  O141  1  0.201900  0.416080  0.057590  1.0  -0.5929
  O  O142  1  0.543200  0.428240  0.071270  1.0  -0.5594
  O  O143  1  0.409900  0.577620  0.064780  1.0  -0.5728
  O  O144  1  0.103600  0.948030  0.191520  1.0  -0.5917
  O  O145  1  0.549400  0.427080  0.306860  1.0  -0.5775
  O  O146  1  0.696800  0.391430  0.365340  1.0  -0.4816
  O  O147  1  0.842200  0.144320  0.144630  1.0  -0.5028
  O  O148  1  0.715400  0.480340  0.024280  1.0  -0.5915
  O  O149  1  0.260500  0.206710  0.404030  1.0  -0.433
  O  O150  1  0.907400  0.870550  0.469770  1.0  -0.5954
  O  O151  1  0.783770  0.025650  0.477530  1.0  -0.5807
  O  O152  1  0.791820  0.948790  0.147840  1.0  -0.5638
  O  O153  1  0.958530  0.091790  0.439890  1.0  -0.5792
  O  O154  1  0.663070  0.615600  0.383210  1.0  -0.5836
  O  O155  1  0.238040  0.901370  0.133010  1.0  -0.4476
  O  O156  1  0.838050  0.903730  0.073290  1.0  -0.4333
  O  O157  1  0.731900  0.587130  0.309550  1.0  -0.53
  O  O158  1  0.330700  0.676350  0.358900  1.0  -0.4722
  O  O159  1  0.249900  0.322190  0.113220  1.0  -0.4813
  O  O160  1  0.078900  0.940300  0.432180  1.0  -0.5815
  O  O161  1  0.595700  0.407550  0.699410  1.0  -0.5589
  O  O162  1  0.698600  0.905210  0.553110  1.0  -0.5929
  O  O163  1  0.424200  0.365430  0.982820  1.0  -0.6072
  O  O164  1  0.053700  0.906870  0.792290  1.0  -0.5519
  O  O165  1  0.798100  0.583920  0.942410  1.0  -0.5938
  O  O166  1  0.456800  0.571760  0.928730  1.0  -0.5589
  O  O167  1  0.590100  0.422380  0.935220  1.0  -0.5723
  O  O168  1  0.896400  0.051970  0.808480  1.0  -0.5903
  O  O169  1  0.450600  0.572920  0.693140  1.0  -0.5741
  O  O170  1  0.303200  0.608570  0.634660  1.0  -0.4836
  O  O171  1  0.157800  0.855680  0.855370  1.0  -0.5032
  O  O172  1  0.284600  0.519660  0.975720  1.0  -0.5918
  O  O173  1  0.739500  0.793290  0.595970  1.0  -0.4318
  O  O174  1  0.092600  0.129450  0.530230  1.0  -0.5965
  O  O175  1  0.216230  0.974350  0.522470  1.0  -0.5804
  O  O176  1  0.208180  0.051210  0.852160  1.0  -0.5626
  O  O177  1  0.041470  0.908210  0.560110  1.0  -0.5783
  O  O178  1  0.336930  0.384400  0.616790  1.0  -0.5867
  O  O179  1  0.761960  0.098630  0.866990  1.0  -0.4484
  O  O180  1  0.161950  0.096270  0.926710  1.0  -0.4377
  O  O181  1  0.268100  0.412870  0.690450  1.0  -0.5305
  O  O182  1  0.669300  0.323650  0.641100  1.0  -0.4692
  O  O183  1  0.750100  0.677810  0.886780  1.0  -0.4839
  O  O184  1  0.921100  0.059700  0.567820  1.0  -0.5805
