# generated using pymatgen
data_CdNiH12(C4N3)2
_symmetry_space_group_name_H-M   'P 1'
_cell_length_a   9.77400000
_cell_length_b   13.91800000
_cell_length_c   7.71500000
_cell_angle_alpha   90.41000000
_cell_angle_beta   90.43000000
_cell_angle_gamma   93.18000000
_symmetry_Int_Tables_number   1
_chemical_formula_structural   CdNiH12(C4N3)2
_chemical_formula_sum   'Cd2 Ni2 H24 C16 N12'
_cell_volume   1047.83072682
_cell_formula_units_Z   2
loop_
 _symmetry_equiv_pos_site_id
 _symmetry_equiv_pos_as_xyz
  1  'x, y, z'
loop_
 _atom_site_type_symbol
 _atom_site_label
 _atom_site_symmetry_multiplicity
 _atom_site_fract_x
 _atom_site_fract_y
 _atom_site_fract_z
 _atom_site_occupancy
 _atom_site_charge
  Cd  Cd1  1  0.095210  0.264370  0.503490  1.0  0.9547
  Cd  Cd2  1  0.904790  0.735630  0.496510  1.0  0.9543
  Ni  Ni3  1  0.000000  0.000000  0.000000  1.0  0.0613
  Ni  Ni4  1  0.000000  0.500000  0.000000  1.0  0.3273
  H  H5  1  0.339690  0.212270  0.353180  1.0  0.223
  H  H6  1  0.345590  0.185170  0.575200  1.0  0.1988
  H  H7  1  0.401570  0.348820  0.640850  1.0  0.0708
  H  H8  1  0.394140  0.376720  0.419250  1.0  0.0955
  H  H9  1  0.582760  0.271220  0.364480  1.0  0.0731
  H  H10  1  0.591260  0.246000  0.587110  1.0  0.0726
  H  H11  1  0.660140  0.406610  0.654230  1.0  0.0827
  H  H12  1  0.629850  0.442890  0.440220  1.0  0.101
  H  H13  1  0.876270  0.431650  0.526350  1.0  0.1041
  H  H14  1  0.824160  0.368980  0.336360  1.0  0.0988
  H  H15  1  0.806820  0.223140  0.487410  1.0  0.1874
  H  H16  1  0.845330  0.283310  0.684370  1.0  0.19
  H  H17  1  0.660310  0.787730  0.646820  1.0  0.2267
  H  H18  1  0.654410  0.814830  0.424800  1.0  0.1979
  H  H19  1  0.598430  0.651180  0.359150  1.0  0.0675
  H  H20  1  0.605860  0.623280  0.580750  1.0  0.0947
  H  H21  1  0.417240  0.728780  0.635520  1.0  0.0748
  H  H22  1  0.408740  0.754000  0.412890  1.0  0.0719
  H  H23  1  0.339860  0.593390  0.345770  1.0  0.0826
  H  H24  1  0.370150  0.557110  0.559780  1.0  0.0983
  H  H25  1  0.123730  0.568350  0.473650  1.0  0.1048
  H  H26  1  0.175840  0.631020  0.663640  1.0  0.0977
  H  H27  1  0.193180  0.776860  0.512590  1.0  0.1837
  H  H28  1  0.154670  0.716690  0.315630  1.0  0.1907
  C  C29  1  0.029000  0.092300  0.173000  1.0  0.1384
  C  C30  1  0.073000  0.425900  0.173000  1.0  0.1222
  C  C31  1  0.083000  0.428600  0.831000  1.0  0.1245
  C  C32  1  0.043000  0.091500  0.831000  1.0  0.1206
  C  C33  1  0.418000  0.320400  0.513000  1.0  0.04
  C  C34  1  0.568000  0.299000  0.494000  1.0  -0.1042
  C  C35  1  0.664000  0.385600  0.522000  1.0  -0.1283
  C  C36  1  0.814000  0.371000  0.480000  1.0  0.0164
  C  C37  1  0.971000  0.907700  0.827000  1.0  0.1387
  C  C38  1  0.927000  0.574100  0.827000  1.0  0.1198
  C  C39  1  0.917000  0.571400  0.169000  1.0  0.1235
  C  C40  1  0.957000  0.908500  0.169000  1.0  0.1205
  C  C41  1  0.582000  0.679600  0.487000  1.0  0.0419
  C  C42  1  0.432000  0.701000  0.506000  1.0  -0.104
  C  C43  1  0.336000  0.614400  0.478000  1.0  -0.128
  C  C44  1  0.186000  0.629000  0.520000  1.0  0.0137
  N  N45  1  0.048000  0.147900  0.279000  1.0  -0.4279
  N  N46  1  0.115000  0.379900  0.283000  1.0  -0.4716
  N  N47  1  0.130000  0.384000  0.724000  1.0  -0.474
  N  N48  1  0.069000  0.147200  0.726000  1.0  -0.4323
  N  N49  1  0.322100  0.238600  0.485000  1.0  -0.6204
  N  N50  1  0.864000  0.286100  0.539000  1.0  -0.5402
  N  N51  1  0.952000  0.852100  0.721000  1.0  -0.4279
  N  N52  1  0.885000  0.620100  0.717000  1.0  -0.4722
  N  N53  1  0.870000  0.616000  0.276000  1.0  -0.4758
  N  N54  1  0.931000  0.852800  0.274000  1.0  -0.4345
  N  N55  1  0.677900  0.761400  0.515000  1.0  -0.6237
  N  N56  1  0.136000  0.713900  0.461000  1.0  -0.5418
