# generated using pymatgen
data_KCr(CN)6
_symmetry_space_group_name_H-M   'P 1'
_cell_length_a   15.27300000
_cell_length_b   8.88100000
_cell_length_c   15.39000000
_cell_angle_alpha   90.00000000
_cell_angle_beta   109.92000000
_cell_angle_gamma   90.00000000
_symmetry_Int_Tables_number   1
_chemical_formula_structural   KCr(CN)6
_chemical_formula_sum   'K4 Cr4 C24 N24'
_cell_volume   1962.59589693
_cell_formula_units_Z   4
loop_
 _symmetry_equiv_pos_site_id
 _symmetry_equiv_pos_as_xyz
  1  'x, y, z'
loop_
 _atom_site_type_symbol
 _atom_site_label
 _atom_site_symmetry_multiplicity
 _atom_site_fract_x
 _atom_site_fract_y
 _atom_site_fract_z
 _atom_site_occupancy
 _atom_site_charge
  K  K1  1  0.500000  0.748940  0.250000  1.0  0.9892
  K  K2  1  0.000000  0.751060  0.750000  1.0  0.9878
  K  K3  1  0.000000  0.248940  0.250000  1.0  0.9892
  K  K4  1  0.500000  0.251060  0.750000  1.0  0.9878
  Cr  Cr5  1  0.250000  0.250000  0.000000  1.0  0.4571
  Cr  Cr6  1  0.750000  0.250000  0.500000  1.0  0.4571
  Cr  Cr7  1  0.750000  0.750000  0.000000  1.0  0.4571
  Cr  Cr8  1  0.250000  0.750000  0.500000  1.0  0.4571
  C  C9  1  0.176490  0.235570  0.092500  1.0  0.2403
  C  C10  1  0.168370  0.074920  0.922780  1.0  0.2321
  C  C11  1  0.345330  0.092490  0.080280  1.0  0.2421
  C  C12  1  0.823510  0.235570  0.407500  1.0  0.2396
  C  C13  1  0.831630  0.074920  0.577220  1.0  0.2331
  C  C14  1  0.654670  0.092490  0.419720  1.0  0.2401
  C  C15  1  0.323510  0.264430  0.907500  1.0  0.2418
  C  C16  1  0.331630  0.425080  0.077220  1.0  0.2292
  C  C17  1  0.154670  0.407510  0.919720  1.0  0.2391
  C  C18  1  0.676490  0.264430  0.592500  1.0  0.2427
  C  C19  1  0.668370  0.425080  0.422780  1.0  0.2286
  C  C20  1  0.845330  0.407510  0.580280  1.0  0.2401
  C  C21  1  0.676490  0.735570  0.092500  1.0  0.2403
  C  C22  1  0.668370  0.574920  0.922780  1.0  0.2321
  C  C23  1  0.845330  0.592490  0.080280  1.0  0.2421
  C  C24  1  0.323510  0.735570  0.407500  1.0  0.2396
  C  C25  1  0.331630  0.574920  0.577220  1.0  0.2331
  C  C26  1  0.154670  0.592490  0.419720  1.0  0.2401
  C  C27  1  0.823510  0.764430  0.907500  1.0  0.2418
  C  C28  1  0.831630  0.925080  0.077220  1.0  0.2292
  C  C29  1  0.654670  0.907510  0.919720  1.0  0.2391
  C  C30  1  0.176490  0.764430  0.592500  1.0  0.2427
  C  C31  1  0.168370  0.925080  0.422780  1.0  0.2286
  C  C32  1  0.345330  0.907510  0.580280  1.0  0.2401
  N  N33  1  0.135390  0.227200  0.142500  1.0  -0.4912
  N  N34  1  0.122880  0.979440  0.879960  1.0  -0.4684
  N  N35  1  0.395910  0.004460  0.124920  1.0  -0.4701
  N  N36  1  0.864610  0.227200  0.357500  1.0  -0.4929
  N  N37  1  0.877120  0.979440  0.620040  1.0  -0.4688
  N  N38  1  0.604090  0.004460  0.375080  1.0  -0.4685
  N  N39  1  0.364610  0.272800  0.857500  1.0  -0.4929
  N  N40  1  0.377120  0.520560  0.120040  1.0  -0.4745
  N  N41  1  0.104090  0.495540  0.875080  1.0  -0.4727
  N  N42  1  0.635390  0.272800  0.642500  1.0  -0.4914
  N  N43  1  0.622880  0.520560  0.379960  1.0  -0.4742
  N  N44  1  0.895910  0.495540  0.624920  1.0  -0.4743
  N  N45  1  0.635390  0.727200  0.142500  1.0  -0.4912
  N  N46  1  0.622880  0.479440  0.879960  1.0  -0.4684
  N  N47  1  0.895910  0.504460  0.124920  1.0  -0.4701
  N  N48  1  0.364610  0.727200  0.357500  1.0  -0.4929
  N  N49  1  0.377120  0.479440  0.620040  1.0  -0.4688
  N  N50  1  0.104090  0.504460  0.375080  1.0  -0.4685
  N  N51  1  0.864610  0.772800  0.857500  1.0  -0.4929
  N  N52  1  0.877120  0.020560  0.120040  1.0  -0.4745
  N  N53  1  0.604090  0.995540  0.875080  1.0  -0.4727
  N  N54  1  0.135390  0.772800  0.642500  1.0  -0.4914
  N  N55  1  0.122880  0.020560  0.379960  1.0  -0.4742
  N  N56  1  0.395910  0.995540  0.624920  1.0  -0.4743
