# generated using pymatgen
data_Mn6H48C96(N8Cl)5
_symmetry_space_group_name_H-M   'P 1'
_cell_length_a   20.31570000
_cell_length_b   20.31570000
_cell_length_c   19.91800000
_cell_angle_alpha   90.00000000
_cell_angle_beta   90.00000000
_cell_angle_gamma   90.00000000
_symmetry_Int_Tables_number   1
_chemical_formula_structural   Mn6H48C96(N8Cl)5
_chemical_formula_sum   'Mn6 H48 C96 N40 Cl5'
_cell_volume   8220.70966115
_cell_formula_units_Z   1
loop_
 _symmetry_equiv_pos_site_id
 _symmetry_equiv_pos_as_xyz
  1  'x, y, z'
loop_
 _atom_site_type_symbol
 _atom_site_label
 _atom_site_symmetry_multiplicity
 _atom_site_fract_x
 _atom_site_fract_y
 _atom_site_fract_z
 _atom_site_occupancy
 _atom_site_charge
  Mn  Mn1  1  0.000000  0.500000  0.500000  1.0  0.9783
  Mn  Mn2  1  0.500000  0.000000  0.500000  1.0  0.9783
  Mn  Mn3  1  0.094270  0.094270  0.000000  1.0  1.014
  Mn  Mn4  1  0.905730  0.905730  0.000000  1.0  1.0138
  Mn  Mn5  1  0.905730  0.094270  0.000000  1.0  1.0142
  Mn  Mn6  1  0.094270  0.905730  0.000000  1.0  1.014
  H  H7  1  0.901500  0.322600  0.317500  1.0  0.1236
  H  H8  1  0.903300  0.249700  0.226600  1.0  0.1017
  H  H9  1  0.098500  0.677400  0.317500  1.0  0.1231
  H  H10  1  0.096700  0.750300  0.226600  1.0  0.1011
  H  H11  1  0.677400  0.901500  0.317500  1.0  0.1229
  H  H12  1  0.750300  0.903300  0.226600  1.0  0.0994
  H  H13  1  0.322600  0.098500  0.317500  1.0  0.1235
  H  H14  1  0.249700  0.096700  0.226600  1.0  0.0992
  H  H15  1  0.098500  0.322600  0.682500  1.0  0.1237
  H  H16  1  0.096700  0.249700  0.773400  1.0  0.101
  H  H17  1  0.901500  0.677400  0.682500  1.0  0.1241
  H  H18  1  0.903300  0.750300  0.773400  1.0  0.1013
  H  H19  1  0.322600  0.901500  0.682500  1.0  0.124
  H  H20  1  0.249700  0.903300  0.773400  1.0  0.0991
  H  H21  1  0.677400  0.098500  0.682500  1.0  0.124
  H  H22  1  0.750300  0.096700  0.773400  1.0  0.0989
  H  H23  1  0.098500  0.677400  0.682500  1.0  0.1236
  H  H24  1  0.096700  0.750300  0.773400  1.0  0.1008
  H  H25  1  0.901500  0.322600  0.682500  1.0  0.1242
  H  H26  1  0.903300  0.249700  0.773400  1.0  0.1017
  H  H27  1  0.322600  0.098500  0.682500  1.0  0.1244
  H  H28  1  0.249700  0.096700  0.773400  1.0  0.0988
  H  H29  1  0.677400  0.901500  0.682500  1.0  0.1235
  H  H30  1  0.750300  0.903300  0.773400  1.0  0.0994
  H  H31  1  0.901500  0.677400  0.317500  1.0  0.1235
  H  H32  1  0.903300  0.750300  0.226600  1.0  0.1016
  H  H33  1  0.098500  0.322600  0.317500  1.0  0.1232
  H  H34  1  0.096700  0.249700  0.226600  1.0  0.1012
  H  H35  1  0.677400  0.098500  0.317500  1.0  0.1229
  H  H36  1  0.750300  0.096700  0.226600  1.0  0.0989
  H  H37  1  0.322600  0.901500  0.317500  1.0  0.1234
  H  H38  1  0.249700  0.903300  0.226600  1.0  0.0992
  H  H39  1  0.000000  0.255900  0.439800  1.0  0.1084
  H  H40  1  0.000000  0.440600  0.252800  1.0  0.1197
  H  H41  1  0.000000  0.744100  0.439800  1.0  0.1076
  H  H42  1  0.000000  0.559400  0.252800  1.0  0.1195
  H  H43  1  0.744100  0.000000  0.439800  1.0  0.1082
  H  H44  1  0.559400  0.000000  0.252800  1.0  0.1197
  H  H45  1  0.255900  0.000000  0.439800  1.0  0.1091
  H  H46  1  0.440600  0.000000  0.252800  1.0  0.1202
  H  H47  1  0.000000  0.255900  0.560200  1.0  0.1081
  H  H48  1  0.000000  0.440600  0.747200  1.0  0.1198
  H  H49  1  0.000000  0.744100  0.560200  1.0  0.1068
  H  H50  1  0.000000  0.559400  0.747200  1.0  0.1196
  H  H51  1  0.255900  0.000000  0.560200  1.0  0.1086
  H  H52  1  0.440600  0.000000  0.747200  1.0  0.12
  H  H53  1  0.744100  0.000000  0.560200  1.0  0.108
  H  H54  1  0.559400  0.000000  0.747200  1.0  0.1197
  C  C55  1  0.941200  0.308700  0.299200  1.0  -0.2306
  C  C56  1  0.942900  0.264700  0.244500  1.0  -0.0422
  C  C57  1  0.058800  0.691300  0.299200  1.0  -0.2286
  C  C58  1  0.057100  0.735300  0.244500  1.0  -0.0421
  C  C59  1  0.691300  0.941200  0.299200  1.0  -0.2269
  C  C60  1  0.735300  0.942900  0.244500  1.0  -0.0435
  C  C61  1  0.308700  0.058800  0.299200  1.0  -0.2256
  C  C62  1  0.264700  0.057100  0.244500  1.0  -0.0435
  C  C63  1  0.058800  0.308700  0.700800  1.0  -0.229
  C  C64  1  0.057100  0.264700  0.755500  1.0  -0.0418
  C  C65  1  0.941200  0.691300  0.700800  1.0  -0.2296
  C  C66  1  0.942900  0.735300  0.755500  1.0  -0.0425
  C  C67  1  0.308700  0.941200  0.700800  1.0  -0.2258
  C  C68  1  0.264700  0.942900  0.755500  1.0  -0.0421
  C  C69  1  0.691300  0.058800  0.700800  1.0  -0.2262
  C  C70  1  0.735300  0.057100  0.755500  1.0  -0.044
  C  C71  1  0.058800  0.691300  0.700800  1.0  -0.2294
  C  C72  1  0.057100  0.735300  0.755500  1.0  -0.0468
  C  C73  1  0.941200  0.308700  0.700800  1.0  -0.2299
  C  C74  1  0.942900  0.264700  0.755500  1.0  -0.0467
  C  C75  1  0.308700  0.058800  0.700800  1.0  -0.2251
  C  C76  1  0.264700  0.057100  0.755500  1.0  -0.0487
  C  C77  1  0.691300  0.941200  0.700800  1.0  -0.2264
  C  C78  1  0.735300  0.942900  0.755500  1.0  -0.0479
  C  C79  1  0.941200  0.691300  0.299200  1.0  -0.2303
  C  C80  1  0.942900  0.735300  0.244500  1.0  -0.0473
  C  C81  1  0.058800  0.308700  0.299200  1.0  -0.2283
  C  C82  1  0.057100  0.264700  0.244500  1.0  -0.0471
  C  C83  1  0.691300  0.058800  0.299200  1.0  -0.2264
  C  C84  1  0.735300  0.057100  0.244500  1.0  -0.0489
  C  C85  1  0.308700  0.941200  0.299200  1.0  -0.2262
  C  C86  1  0.264700  0.942900  0.244500  1.0  -0.0473
  C  C87  1  0.000000  0.360200  0.444700  1.0  0.2214
  C  C88  1  0.000000  0.379700  0.379500  1.0  -0.0009
  C  C89  1  0.000000  0.447400  0.358200  1.0  0.1463
  C  C90  1  0.000000  0.293000  0.467200  1.0  -0.1569
  C  C91  1  0.000000  0.467800  0.290400  1.0  -0.1594
  C  C92  1  0.000000  0.330400  0.324700  1.0  0.1102
  C  C93  1  0.000000  0.243400  0.217100  1.0  -0.0389
  C  C94  1  0.000000  0.200100  0.157600  1.0  0.3626
  C  C95  1  0.000000  0.639800  0.444700  1.0  0.2206
  C  C96  1  0.000000  0.620300  0.379500  1.0  -0.0011
  C  C97  1  0.000000  0.552600  0.358200  1.0  0.146
  C  C98  1  0.000000  0.707000  0.467200  1.0  -0.1573
  C  C99  1  0.000000  0.532200  0.290400  1.0  -0.1593
  C  C100  1  0.000000  0.669600  0.324700  1.0  0.1101
  C  C101  1  0.000000  0.756600  0.217100  1.0  -0.0385
  C  C102  1  0.000000  0.799900  0.157600  1.0  0.3619
  C  C103  1  0.639800  0.000000  0.444700  1.0  0.2218
  C  C104  1  0.620300  0.000000  0.379500  1.0  -0.0003
  C  C105  1  0.552600  0.000000  0.358200  1.0  0.1457
  C  C106  1  0.707000  0.000000  0.467200  1.0  -0.1556
  C  C107  1  0.532200  0.000000  0.290400  1.0  -0.1593
  C  C108  1  0.669600  0.000000  0.324700  1.0  0.1098
  C  C109  1  0.756600  0.000000  0.217100  1.0  -0.0394
  C  C110  1  0.799900  0.000000  0.157600  1.0  0.3627
  C  C111  1  0.360200  0.000000  0.444700  1.0  0.2203
  C  C112  1  0.379700  0.000000  0.379500  1.0  -0.0012
  C  C113  1  0.447400  0.000000  0.358200  1.0  0.1457
  C  C114  1  0.293000  0.000000  0.467200  1.0  -0.1536
  C  C115  1  0.467800  0.000000  0.290400  1.0  -0.1599
  C  C116  1  0.330400  0.000000  0.324700  1.0  0.1091
  C  C117  1  0.243400  0.000000  0.217100  1.0  -0.0414
  C  C118  1  0.200100  0.000000  0.157600  1.0  0.3615
  C  C119  1  0.000000  0.360200  0.555300  1.0  0.2214
  C  C120  1  0.000000  0.379700  0.620500  1.0  -0.0002
  C  C121  1  0.000000  0.447400  0.641800  1.0  0.1471
  C  C122  1  0.000000  0.293000  0.532800  1.0  -0.1568
  C  C123  1  0.000000  0.467800  0.709600  1.0  -0.1608
  C  C124  1  0.000000  0.330400  0.675300  1.0  0.1105
  C  C125  1  0.000000  0.243400  0.782900  1.0  -0.0384
  C  C126  1  0.000000  0.200100  0.842400  1.0  0.3627
  C  C127  1  0.000000  0.639800  0.555300  1.0  0.2208
  C  C128  1  0.000000  0.620300  0.620500  1.0  -0.0003
  C  C129  1  0.000000  0.552600  0.641800  1.0  0.1471
  C  C130  1  0.000000  0.707000  0.532800  1.0  -0.157
  C  C131  1  0.000000  0.532200  0.709600  1.0  -0.1611
  C  C132  1  0.000000  0.669600  0.675300  1.0  0.1105
  C  C133  1  0.000000  0.756600  0.782900  1.0  -0.0386
  C  C134  1  0.000000  0.799900  0.842400  1.0  0.3621
  C  C135  1  0.360200  0.000000  0.555300  1.0  0.2203
  C  C136  1  0.379700  0.000000  0.620500  1.0  -0.0005
  C  C137  1  0.447400  0.000000  0.641800  1.0  0.1466
  C  C138  1  0.293000  0.000000  0.532800  1.0  -0.1541
  C  C139  1  0.467800  0.000000  0.709600  1.0  -0.1621
  C  C140  1  0.330400  0.000000  0.675300  1.0  0.1094
  C  C141  1  0.243400  0.000000  0.782900  1.0  -0.0412
  C  C142  1  0.200100  0.000000  0.842400  1.0  0.3618
  C  C143  1  0.639800  0.000000  0.555300  1.0  0.2218
  C  C144  1  0.620300  0.000000  0.620500  1.0  0.0004
  C  C145  1  0.552600  0.000000  0.641800  1.0  0.1467
  C  C146  1  0.707000  0.000000  0.532800  1.0  -0.1543
  C  C147  1  0.532200  0.000000  0.709600  1.0  -0.1609
  C  C148  1  0.669600  0.000000  0.675300  1.0  0.1101
  C  C149  1  0.756600  0.000000  0.782900  1.0  -0.0399
  C  C150  1  0.799900  0.000000  0.842400  1.0  0.3628
  N  N151  1  0.054690  0.179320  0.127650  1.0  -0.3291
  N  N152  1  0.031920  0.143040  0.077260  1.0  -0.0149
  N  N153  1  0.945310  0.820680  0.127650  1.0  -0.33
  N  N154  1  0.968080  0.856960  0.077260  1.0  -0.0145
  N  N155  1  0.820680  0.054690  0.127650  1.0  -0.3349
  N  N156  1  0.856960  0.031920  0.077260  1.0  -0.0169
  N  N157  1  0.179320  0.945310  0.127650  1.0  -0.3316
  N  N158  1  0.143040  0.968080  0.077260  1.0  -0.0149
  N  N159  1  0.945310  0.179320  0.872350  1.0  -0.3297
  N  N160  1  0.968080  0.143040  0.922740  1.0  -0.0158
  N  N161  1  0.054690  0.820680  0.872350  1.0  -0.3298
  N  N162  1  0.031920  0.856960  0.922740  1.0  -0.0153
  N  N163  1  0.179320  0.054690  0.872350  1.0  -0.3348
  N  N164  1  0.143040  0.031920  0.922740  1.0  -0.0162
  N  N165  1  0.820680  0.945310  0.872350  1.0  -0.3314
  N  N166  1  0.856960  0.968080  0.922740  1.0  -0.0166
  N  N167  1  0.945310  0.820680  0.872350  1.0  -0.3306
  N  N168  1  0.968080  0.856960  0.922740  1.0  -0.0154
  N  N169  1  0.054690  0.179320  0.872350  1.0  -0.3298
  N  N170  1  0.031920  0.143040  0.922740  1.0  -0.0156
  N  N171  1  0.179320  0.945310  0.872350  1.0  -0.3321
  N  N172  1  0.143040  0.968080  0.922740  1.0  -0.0159
  N  N173  1  0.820680  0.054690  0.872350  1.0  -0.3356
  N  N174  1  0.856960  0.031920  0.922740  1.0  -0.0174
  N  N175  1  0.054690  0.820680  0.127650  1.0  -0.3297
  N  N176  1  0.031920  0.856960  0.077260  1.0  -0.0153
  N  N177  1  0.945310  0.179320  0.127650  1.0  -0.3296
  N  N178  1  0.968080  0.143040  0.077260  1.0  -0.0144
  N  N179  1  0.820680  0.945310  0.127650  1.0  -0.3316
  N  N180  1  0.856960  0.968080  0.077260  1.0  -0.0162
  N  N181  1  0.179320  0.054690  0.127650  1.0  -0.335
  N  N182  1  0.143040  0.031920  0.077260  1.0  -0.0153
  N  N183  1  0.000000  0.401600  0.500000  1.0  -0.3753
  N  N184  1  0.000000  0.598400  0.500000  1.0  -0.3768
  N  N185  1  0.598400  0.000000  0.500000  1.0  -0.3778
  N  N186  1  0.401600  0.000000  0.500000  1.0  -0.3772
  N  N187  1  0.000000  0.500000  0.400200  1.0  -0.4291
  N  N188  1  0.500000  0.000000  0.400200  1.0  -0.4291
  N  N189  1  0.000000  0.500000  0.599800  1.0  -0.4284
  N  N190  1  0.500000  0.000000  0.599800  1.0  -0.4284
  Cl  Cl191  1  0.000000  0.000000  0.000000  1.0  -0.2356
  Cl  Cl192  1  0.125800  0.500000  0.500000  1.0  -0.4768
  Cl  Cl193  1  0.874200  0.500000  0.500000  1.0  -0.477
  Cl  Cl194  1  0.500000  0.125800  0.500000  1.0  -0.4752
  Cl  Cl195  1  0.500000  0.874200  0.500000  1.0  -0.4758
