# generated using pymatgen
data_EuH9(C3O)8
_symmetry_space_group_name_H-M   'P 1'
_cell_length_a   10.21870000
_cell_length_b   11.51760000
_cell_length_c   16.31270000
_cell_angle_alpha   82.71000000
_cell_angle_beta   75.91100000
_cell_angle_gamma   77.54200000
_symmetry_Int_Tables_number   1
_chemical_formula_structural   EuH9(C3O)8
_chemical_formula_sum   'Eu2 H18 C48 O16'
_cell_volume   1812.70611640
_cell_formula_units_Z   2
loop_
 _symmetry_equiv_pos_site_id
 _symmetry_equiv_pos_as_xyz
  1  'x, y, z'
loop_
 _atom_site_type_symbol
 _atom_site_label
 _atom_site_symmetry_multiplicity
 _atom_site_fract_x
 _atom_site_fract_y
 _atom_site_fract_z
 _atom_site_occupancy
 _atom_site_charge
  Eu  Eu1  1  0.338500  0.129770  0.478410  1.0  2.1522
  Eu  Eu2  1  0.661500  0.870230  0.521590  1.0  2.145
  H  H3  1  0.376600  0.986400  0.227600  1.0  0.1153
  H  H4  1  0.563800  0.742700  0.061800  1.0  0.1081
  H  H5  1  0.694000  0.735300  0.273400  1.0  0.1242
  H  H6  1  0.715300  0.529000  0.250600  1.0  0.1086
  H  H7  1  0.683400  0.312500  0.277200  1.0  0.1214
  H  H8  1  0.887100  0.092500  0.435200  1.0  0.109
  H  H9  1  0.075600  0.316100  0.262500  1.0  0.1245
  H  H10  1  0.070500  0.239800  0.125200  1.0  0.1182
  H  H11  1  0.782800  0.773700  0.002100  1.0  0.1031
  H  H12  1  0.623400  0.013600  0.772400  1.0  0.1155
  H  H13  1  0.436200  0.257300  0.938200  1.0  0.1077
  H  H14  1  0.306000  0.264700  0.726600  1.0  0.1243
  H  H15  1  0.284700  0.471000  0.749400  1.0  0.1091
  H  H16  1  0.316600  0.687500  0.722800  1.0  0.1217
  H  H17  1  0.112900  0.907500  0.564800  1.0  0.1088
  H  H18  1  0.924400  0.683900  0.737500  1.0  0.1236
  H  H19  1  0.929500  0.760200  0.874800  1.0  0.1179
  H  H20  1  0.217200  0.226300  0.997900  1.0  0.1028
  C  C21  1  0.514300  0.910100  0.350300  1.0  0.7978
  C  C22  1  0.531300  0.867200  0.266000  1.0  -0.1788
  C  C23  1  0.443700  0.919700  0.211800  1.0  -0.0274
  C  C24  1  0.455200  0.874600  0.135800  1.0  -0.1631
  C  C25  1  0.557600  0.775100  0.112300  1.0  -0.0423
  C  C26  1  0.648000  0.724800  0.160900  1.0  0.0659
  C  C27  1  0.633600  0.770500  0.239000  1.0  -0.0387
  C  C28  1  0.759900  0.617700  0.137000  1.0  -0.0359
  C  C29  1  0.849000  0.609600  0.057300  1.0  -0.0082
  C  C30  1  0.953200  0.505900  0.040900  1.0  0.0416
  C  C31  1  0.965300  0.409100  0.104800  1.0  0.0652
  C  C32  1  0.876100  0.422100  0.185000  1.0  -0.0476
  C  C33  1  0.775900  0.523500  0.197900  1.0  -0.1013
  C  C34  1  0.880600  0.326300  0.256600  1.0  0.0735
  C  C35  1  0.764000  0.282900  0.296000  1.0  -0.041
  C  C36  1  0.763300  0.194400  0.364500  1.0  -0.1333
  C  C37  1  0.884200  0.152700  0.391500  1.0  -1e-04
  C  C38  1  0.000300  0.198700  0.355200  1.0  -0.1381
  C  C39  1  0.996900  0.285300  0.287400  1.0  -0.0605
  C  C40  1  0.633200  0.155800  0.405100  1.0  0.7543
  C  C41  1  0.124700  0.164400  0.391900  1.0  0.726
  C  C42  1  0.065300  0.304300  0.084800  1.0  -0.1132
  C  C43  1  0.847200  0.703600  0.991700  1.0  -0.1339
  C  C44  1  0.357600  0.929600  0.082900  1.0  0.6878
  C  C45  1  0.485700  0.089900  0.649700  1.0  0.7954
  C  C46  1  0.468700  0.132800  0.734000  1.0  -0.1768
  C  C47  1  0.556300  0.080300  0.788200  1.0  -0.0266
  C  C48  1  0.544800  0.125400  0.864200  1.0  -0.1646
  C  C49  1  0.442400  0.224900  0.887700  1.0  -0.044
  C  C50  1  0.352000  0.275200  0.839100  1.0  0.0665
  C  C51  1  0.366400  0.229500  0.761000  1.0  -0.0386
  C  C52  1  0.240100  0.382300  0.863000  1.0  -0.0364
  C  C53  1  0.151000  0.390400  0.942700  1.0  -0.0084
  C  C54  1  0.046800  0.494100  0.959100  1.0  0.0415
  C  C55  1  0.034700  0.590900  0.895200  1.0  0.065
  C  C56  1  0.123900  0.577900  0.815000  1.0  -0.047
  C  C57  1  0.224100  0.476500  0.802100  1.0  -0.1008
  C  C58  1  0.119400  0.673700  0.743400  1.0  0.0733
  C  C59  1  0.236000  0.717100  0.704000  1.0  -0.0398
  C  C60  1  0.236700  0.805600  0.635500  1.0  -0.133
  C  C61  1  0.115800  0.847300  0.608500  1.0  0.0017
  C  C62  1  0.999700  0.801300  0.644800  1.0  -0.1374
  C  C63  1  0.003100  0.714700  0.712600  1.0  -0.0589
  C  C64  1  0.366800  0.844200  0.594900  1.0  0.7539
  C  C65  1  0.875300  0.835600  0.608100  1.0  0.7263
  C  C66  1  0.934700  0.695700  0.915200  1.0  -0.1142
  C  C67  1  0.152800  0.296400  0.008300  1.0  -0.1312
  C  C68  1  0.642400  0.070400  0.917100  1.0  0.6894
  O  O69  1  0.430500  0.004800  0.366900  1.0  -0.6916
  O  O70  1  0.586800  0.849600  0.398400  1.0  -0.7788
  O  O71  1  0.268300  0.017400  0.100200  1.0  -0.449
  O  O72  1  0.372100  0.878600  0.013400  1.0  -0.4241
  O  O73  1  0.524000  0.216800  0.393000  1.0  -0.6874
  O  O74  1  0.636000  0.062100  0.453200  1.0  -0.8072
  O  O75  1  0.137300  0.074800  0.442200  1.0  -0.6241
  O  O76  1  0.213500  0.230500  0.372200  1.0  -0.6681
  O  O77  1  0.569500  0.995200  0.633100  1.0  -0.6922
  O  O78  1  0.413200  0.150400  0.601600  1.0  -0.7784
  O  O79  1  0.731700  0.982600  0.899800  1.0  -0.4497
  O  O80  1  0.627900  0.121400  0.986600  1.0  -0.4252
  O  O81  1  0.476000  0.783200  0.607000  1.0  -0.6859
  O  O82  1  0.364000  0.937900  0.546800  1.0  -0.8073
  O  O83  1  0.862700  0.925200  0.557800  1.0  -0.6266
  O  O84  1  0.786500  0.769500  0.627800  1.0  -0.6693
