# generated using pymatgen
data_Er3P2H4C11O30
_symmetry_space_group_name_H-M   'P 1'
_cell_length_a   8.51460000
_cell_length_b   16.20490000
_cell_length_c   28.54700000
_cell_angle_alpha   90.00000000
_cell_angle_beta   96.21200000
_cell_angle_gamma   90.00000000
_symmetry_Int_Tables_number   1
_chemical_formula_structural   Er3P2H4C11O30
_chemical_formula_sum   'Er12 P8 H16 C44 O120'
_cell_volume   3915.73711839
_cell_formula_units_Z   4
loop_
 _symmetry_equiv_pos_site_id
 _symmetry_equiv_pos_as_xyz
  1  'x, y, z'
loop_
 _atom_site_type_symbol
 _atom_site_label
 _atom_site_symmetry_multiplicity
 _atom_site_fract_x
 _atom_site_fract_y
 _atom_site_fract_z
 _atom_site_occupancy
 _atom_site_charge
  Er  Er1  1  0.821050  0.287640  0.332100  1.0  1.3757
  Er  Er2  1  0.190010  0.173340  0.171270  1.0  1.3927
  Er  Er3  1  0.451210  0.191530  0.496080  1.0  1.3943
  Er  Er4  1  0.178950  0.787640  0.167900  1.0  1.3751
  Er  Er5  1  0.809990  0.673340  0.328730  1.0  1.3906
  Er  Er6  1  0.548790  0.691530  0.003920  1.0  1.3947
  Er  Er7  1  0.178950  0.712360  0.667900  1.0  1.3719
  Er  Er8  1  0.809990  0.826660  0.828730  1.0  1.3928
  Er  Er9  1  0.548790  0.808470  0.503920  1.0  1.3924
  Er  Er10  1  0.821050  0.212360  0.832100  1.0  1.3726
  Er  Er11  1  0.190010  0.326660  0.671270  1.0  1.3893
  Er  Er12  1  0.451210  0.308470  0.996080  1.0  1.3947
  P  P13  1  0.080460  0.268700  0.437040  1.0  1.8306
  P  P14  1  0.566570  0.251430  0.225420  1.0  1.8485
  P  P15  1  0.919540  0.768700  0.062960  1.0  1.8301
  P  P16  1  0.433430  0.751430  0.274580  1.0  1.8498
  P  P17  1  0.919540  0.731300  0.562960  1.0  1.8305
  P  P18  1  0.433430  0.748570  0.774580  1.0  1.8505
  P  P19  1  0.080460  0.231300  0.937040  1.0  1.8307
  P  P20  1  0.566570  0.248570  0.725420  1.0  1.8495
  H  H21  1  0.933800  0.273500  0.497900  1.0  0.5189
  H  H22  1  0.104300  0.400800  0.418300  1.0  0.3382
  H  H23  1  0.670400  0.233200  0.168400  1.0  0.3937
  H  H24  1  0.413300  0.338200  0.192500  1.0  0.2733
  H  H25  1  0.066200  0.773500  0.002100  1.0  0.5199
  H  H26  1  0.895700  0.900800  0.081700  1.0  0.338
  H  H27  1  0.329600  0.733200  0.331600  1.0  0.3936
  H  H28  1  0.586700  0.838200  0.307500  1.0  0.2725
  H  H29  1  0.066200  0.726500  0.502100  1.0  0.5187
  H  H30  1  0.895700  0.599200  0.581700  1.0  0.3359
  H  H31  1  0.329600  0.766800  0.831600  1.0  0.3931
  H  H32  1  0.586700  0.661800  0.807500  1.0  0.2719
  H  H33  1  0.933800  0.226500  0.997900  1.0  0.5184
  H  H34  1  0.104300  0.099200  0.918300  1.0  0.3351
  H  H35  1  0.670400  0.266800  0.668400  1.0  0.3936
  H  H36  1  0.413300  0.161800  0.692500  1.0  0.2722
  C  C37  1  0.034200  0.273600  0.248990  1.0  0.634
  C  C38  1  0.002700  0.183100  0.261600  1.0  0.6027
  C  C39  1  0.633200  0.190700  0.404300  1.0  0.6375
  C  C40  1  0.604600  0.282000  0.414670  1.0  0.6268
  C  C41  1  0.748100  0.480300  0.316100  1.0  0.6266
  C  C42  1  0.897100  0.482800  0.349900  1.0  0.6594
  C  C43  1  0.332600  0.199400  0.075500  1.0  0.6731
  C  C44  1  0.315700  0.288000  0.093080  1.0  0.676
  C  C45  1  0.911900  0.225400  0.087700  1.0  0.7592
  C  C46  1  0.733200  0.246200  0.076300  1.0  0.7726
  C  C47  1  0.579200  0.007300  0.514750  1.0  0.6486
  C  C48  1  0.965800  0.773600  0.251010  1.0  0.6348
  C  C49  1  0.997300  0.683100  0.238400  1.0  0.6005
  C  C50  1  0.366800  0.690700  0.095700  1.0  0.6397
  C  C51  1  0.395400  0.782000  0.085330  1.0  0.6268
  C  C52  1  0.251900  0.980300  0.183900  1.0  0.6267
  C  C53  1  0.102900  0.982800  0.150100  1.0  0.6592
  C  C54  1  0.667400  0.699400  0.424500  1.0  0.673
  C  C55  1  0.684300  0.788000  0.406920  1.0  0.6755
  C  C56  1  0.088100  0.725400  0.412300  1.0  0.7602
  C  C57  1  0.266800  0.746200  0.423700  1.0  0.7721
  C  C58  1  0.420800  0.507300  0.985250  1.0  0.6483
  C  C59  1  0.965800  0.726400  0.751010  1.0  0.6339
  C  C60  1  0.997300  0.816900  0.738400  1.0  0.6031
  C  C61  1  0.366800  0.809300  0.595700  1.0  0.6394
  C  C62  1  0.395400  0.718000  0.585330  1.0  0.6267
  C  C63  1  0.251900  0.519700  0.683900  1.0  0.6266
  C  C64  1  0.102900  0.517200  0.650100  1.0  0.6588
  C  C65  1  0.667400  0.800600  0.924500  1.0  0.6739
  C  C66  1  0.684300  0.712000  0.906920  1.0  0.673
  C  C67  1  0.088100  0.774600  0.912300  1.0  0.7605
  C  C68  1  0.266800  0.753800  0.923700  1.0  0.7721
  C  C69  1  0.420800  0.992700  0.485250  1.0  0.6482
  C  C70  1  0.034200  0.226400  0.748990  1.0  0.6333
  C  C71  1  0.002700  0.316900  0.761600  1.0  0.6024
  C  C72  1  0.633200  0.309300  0.904300  1.0  0.6401
  C  C73  1  0.604600  0.218000  0.914670  1.0  0.6262
  C  C74  1  0.748100  0.019700  0.816100  1.0  0.6265
  C  C75  1  0.897100  0.017200  0.849900  1.0  0.6591
  C  C76  1  0.332600  0.300600  0.575500  1.0  0.6754
  C  C77  1  0.315700  0.212000  0.593080  1.0  0.6741
  C  C78  1  0.911900  0.274600  0.587700  1.0  0.7595
  C  C79  1  0.733200  0.253800  0.576300  1.0  0.7725
  C  C80  1  0.579200  0.492700  0.014750  1.0  0.6488
  O  O81  1  0.931900  0.261300  0.464200  1.0  -0.4942
  O  O82  1  0.137900  0.361700  0.441800  1.0  -0.4775
  O  O83  1  0.211700  0.214700  0.458760  1.0  -0.812
  O  O84  1  0.026400  0.250200  0.386370  1.0  -0.779
  O  O85  1  0.119100  0.286600  0.216840  1.0  -0.5367
  O  O86  1  0.059600  0.128600  0.236510  1.0  -0.5141
  O  O87  1  0.973000  0.328000  0.272930  1.0  -0.5399
  O  O88  1  0.926400  0.170000  0.295830  1.0  -0.4608
  O  O89  1  0.578300  0.138300  0.432040  1.0  -0.4957
  O  O90  1  0.520200  0.298400  0.446750  1.0  -0.5423
  O  O91  1  0.705900  0.173800  0.370270  1.0  -0.4705
  O  O92  1  0.668300  0.332500  0.390010  1.0  -0.5396
  O  O93  1  0.953900  0.414100  0.363990  1.0  -0.53
  O  O94  1  0.696300  0.411500  0.301360  1.0  -0.5391
  O  O95  1  0.953900  0.553000  0.361190  1.0  -0.5086
  O  O96  1  0.684200  0.548300  0.304170  1.0  -0.5334
  O  O97  1  0.425300  0.197900  0.213180  1.0  -0.7517
  O  O98  1  0.620500  0.254700  0.276510  1.0  -0.7934
  O  O99  1  0.711700  0.224800  0.199630  1.0  -0.5283
  O  O100  1  0.522300  0.342100  0.207310  1.0  -0.4907
  O  O101  1  0.375700  0.190500  0.035490  1.0  -0.5036
  O  O102  1  0.341500  0.345200  0.065220  1.0  -0.5173
  O  O103  1  0.307300  0.142300  0.103910  1.0  -0.5268
  O  O104  1  0.277600  0.296600  0.134070  1.0  -0.5512
  O  O105  1  0.649400  0.249100  0.109010  1.0  -0.5383
  O  O106  1  0.958900  0.217100  0.130720  1.0  -0.5975
  O  O107  1  0.686800  0.259900  0.033600  1.0  -0.5776
  O  O108  1  0.993900  0.221200  0.054750  1.0  -0.5153
  O  O109  1  0.614400  0.077400  0.528690  1.0  -0.4875
  O  O110  1  0.663200  0.943100  0.522800  1.0  -0.5272
  O  O111  1  0.068100  0.761300  0.035800  1.0  -0.4911
  O  O112  1  0.862100  0.861700  0.058200  1.0  -0.478
  O  O113  1  0.788300  0.714700  0.041240  1.0  -0.8111
  O  O114  1  0.973600  0.750200  0.113630  1.0  -0.7768
  O  O115  1  0.880900  0.786600  0.283160  1.0  -0.537
  O  O116  1  0.940400  0.628600  0.263490  1.0  -0.5138
  O  O117  1  0.027000  0.828000  0.227070  1.0  -0.5392
  O  O118  1  0.073600  0.670000  0.204170  1.0  -0.4613
  O  O119  1  0.421700  0.638300  0.067960  1.0  -0.4972
  O  O120  1  0.479800  0.798400  0.053250  1.0  -0.5432
  O  O121  1  0.294100  0.673800  0.129730  1.0  -0.469
  O  O122  1  0.331700  0.832500  0.109990  1.0  -0.5395
  O  O123  1  0.046100  0.914100  0.136010  1.0  -0.5297
  O  O124  1  0.303700  0.911500  0.198640  1.0  -0.5384
  O  O125  1  0.046100  0.053000  0.138810  1.0  -0.5093
  O  O126  1  0.315800  0.048300  0.195830  1.0  -0.5335
  O  O127  1  0.574700  0.697900  0.286820  1.0  -0.7523
  O  O128  1  0.379500  0.754700  0.223490  1.0  -0.7959
  O  O129  1  0.288300  0.724800  0.300370  1.0  -0.5297
  O  O130  1  0.477700  0.842100  0.292690  1.0  -0.4917
  O  O131  1  0.624300  0.690500  0.464510  1.0  -0.501
  O  O132  1  0.658500  0.845200  0.434780  1.0  -0.5174
  O  O133  1  0.692700  0.642300  0.396090  1.0  -0.5259
  O  O134  1  0.722400  0.796600  0.365930  1.0  -0.5513
  O  O135  1  0.350600  0.749100  0.390990  1.0  -0.5363
  O  O136  1  0.041100  0.717100  0.369280  1.0  -0.5966
  O  O137  1  0.313200  0.759900  0.466400  1.0  -0.5771
  O  O138  1  0.006100  0.721200  0.445250  1.0  -0.5154
  O  O139  1  0.385600  0.577400  0.971310  1.0  -0.488
  O  O140  1  0.336800  0.443100  0.977200  1.0  -0.5268
  O  O141  1  0.068100  0.738700  0.535800  1.0  -0.4917
  O  O142  1  0.862100  0.638300  0.558200  1.0  -0.4795
  O  O143  1  0.788300  0.785300  0.541240  1.0  -0.812
  O  O144  1  0.973600  0.749800  0.613630  1.0  -0.7792
  O  O145  1  0.880900  0.713400  0.783160  1.0  -0.5367
  O  O146  1  0.940400  0.871400  0.763490  1.0  -0.5111
  O  O147  1  0.027000  0.672000  0.727070  1.0  -0.5401
  O  O148  1  0.073600  0.830000  0.704170  1.0  -0.4629
  O  O149  1  0.421700  0.861700  0.567960  1.0  -0.4951
  O  O150  1  0.479800  0.701600  0.553250  1.0  -0.5432
  O  O151  1  0.294100  0.826200  0.629730  1.0  -0.47
  O  O152  1  0.331700  0.667500  0.609990  1.0  -0.5393
  O  O153  1  0.046100  0.585900  0.636010  1.0  -0.5293
  O  O154  1  0.303700  0.588500  0.698640  1.0  -0.5372
  O  O155  1  0.046100  0.447000  0.638810  1.0  -0.51
  O  O156  1  0.315800  0.451700  0.695830  1.0  -0.5332
  O  O157  1  0.574700  0.802100  0.786820  1.0  -0.7524
  O  O158  1  0.379500  0.745300  0.723490  1.0  -0.7957
  O  O159  1  0.288300  0.775200  0.800370  1.0  -0.5288
  O  O160  1  0.477700  0.657900  0.792690  1.0  -0.4907
  O  O161  1  0.624300  0.809500  0.964510  1.0  -0.5014
  O  O162  1  0.658500  0.654800  0.934780  1.0  -0.5174
  O  O163  1  0.692700  0.857700  0.896090  1.0  -0.5275
  O  O164  1  0.722400  0.703400  0.865930  1.0  -0.5514
  O  O165  1  0.350600  0.750900  0.890990  1.0  -0.5363
  O  O166  1  0.041100  0.782900  0.869280  1.0  -0.5964
  O  O167  1  0.313200  0.740100  0.966400  1.0  -0.5771
  O  O168  1  0.006100  0.778800  0.945250  1.0  -0.515
  O  O169  1  0.385600  0.922600  0.471310  1.0  -0.4866
  O  O170  1  0.336800  0.056900  0.477200  1.0  -0.5275
  O  O171  1  0.931900  0.238700  0.964200  1.0  -0.4945
  O  O172  1  0.137900  0.138300  0.941800  1.0  -0.479
  O  O173  1  0.211700  0.285300  0.958760  1.0  -0.8124
  O  O174  1  0.026400  0.249800  0.886370  1.0  -0.7805
  O  O175  1  0.119100  0.213400  0.716840  1.0  -0.5378
  O  O176  1  0.059600  0.371400  0.736510  1.0  -0.5111
  O  O177  1  0.973000  0.172000  0.772930  1.0  -0.5411
  O  O178  1  0.926400  0.330000  0.795830  1.0  -0.4614
  O  O179  1  0.578300  0.361700  0.932040  1.0  -0.4953
  O  O180  1  0.520200  0.201600  0.946750  1.0  -0.5421
  O  O181  1  0.705900  0.326200  0.870270  1.0  -0.4716
  O  O182  1  0.668300  0.167500  0.890010  1.0  -0.5385
  O  O183  1  0.953900  0.085900  0.863990  1.0  -0.5296
  O  O184  1  0.696300  0.088500  0.801360  1.0  -0.5384
  O  O185  1  0.953900  0.947000  0.861190  1.0  -0.5105
  O  O186  1  0.684200  0.951700  0.804170  1.0  -0.5337
  O  O187  1  0.425300  0.302100  0.713180  1.0  -0.7518
  O  O188  1  0.620500  0.245300  0.776510  1.0  -0.7938
  O  O189  1  0.711700  0.275200  0.699630  1.0  -0.5286
  O  O190  1  0.522300  0.157900  0.707310  1.0  -0.4897
  O  O191  1  0.375700  0.309500  0.535490  1.0  -0.5028
  O  O192  1  0.341500  0.154800  0.565220  1.0  -0.5171
  O  O193  1  0.307300  0.357700  0.603910  1.0  -0.5268
  O  O194  1  0.277600  0.203400  0.634070  1.0  -0.551
  O  O195  1  0.649400  0.250900  0.609010  1.0  -0.538
  O  O196  1  0.958900  0.282900  0.630720  1.0  -0.5974
  O  O197  1  0.686800  0.240100  0.533600  1.0  -0.5783
  O  O198  1  0.993900  0.278800  0.554750  1.0  -0.5149
  O  O199  1  0.614400  0.422600  0.028690  1.0  -0.4876
  O  O200  1  0.663200  0.556900  0.022800  1.0  -0.5273
