# generated using pymatgen
data_CoH10C17N3O4
_symmetry_space_group_name_H-M   'P 1'
_cell_length_a   19.86000000
_cell_length_b   22.14000000
_cell_length_c   11.68440000
_cell_angle_alpha   90.00000000
_cell_angle_beta   116.31800000
_cell_angle_gamma   90.00000000
_symmetry_Int_Tables_number   1
_chemical_formula_structural   CoH10C17N3O4
_chemical_formula_sum   'Co8 H80 C136 N24 O32'
_cell_volume   4605.10501889
_cell_formula_units_Z   8
loop_
 _symmetry_equiv_pos_site_id
 _symmetry_equiv_pos_as_xyz
  1  'x, y, z'
loop_
 _atom_site_type_symbol
 _atom_site_label
 _atom_site_symmetry_multiplicity
 _atom_site_fract_x
 _atom_site_fract_y
 _atom_site_fract_z
 _atom_site_occupancy
 _atom_site_charge
  Co  Co1  1  0.312890  0.122950  0.613490  1.0  0.8676
  Co  Co2  1  0.812890  0.622950  0.613490  1.0  0.8676
  Co  Co3  1  0.312890  0.877050  0.613490  1.0  0.8675
  Co  Co4  1  0.812890  0.377050  0.613490  1.0  0.8675
  Co  Co5  1  0.687110  0.122950  0.386510  1.0  0.8678
  Co  Co6  1  0.187110  0.622950  0.386510  1.0  0.8678
  Co  Co7  1  0.687110  0.877050  0.386510  1.0  0.868
  Co  Co8  1  0.187110  0.377050  0.386510  1.0  0.868
  H  H9  1  0.880700  0.264200  0.543400  1.0  0.0667
  H  H10  1  0.990100  0.210700  0.620600  1.0  0.1256
  H  H11  1  0.063300  0.309100  0.941600  1.0  0.1264
  H  H12  1  0.952700  0.361900  0.851400  1.0  0.0773
  H  H13  1  0.125600  0.212300  0.684100  1.0  0.1203
  H  H14  1  0.289700  0.138900  0.997500  1.0  0.1186
  H  H15  1  0.373100  0.114500  0.413400  1.0  0.0787
  H  H16  1  0.335700  0.132700  0.201900  1.0  0.1248
  H  H17  1  0.141000  0.193400  0.177600  1.0  0.1213
  H  H18  1  0.183500  0.173000  0.389000  1.0  0.0756
  H  H19  1  0.380700  0.764200  0.543400  1.0  0.0667
  H  H20  1  0.490100  0.710700  0.620600  1.0  0.1256
  H  H21  1  0.563300  0.809100  0.941600  1.0  0.1264
  H  H22  1  0.452700  0.861900  0.851400  1.0  0.0773
  H  H23  1  0.625600  0.712300  0.684100  1.0  0.1203
  H  H24  1  0.789700  0.638900  0.997500  1.0  0.1186
  H  H25  1  0.873100  0.614500  0.413400  1.0  0.0787
  H  H26  1  0.835700  0.632700  0.201900  1.0  0.1248
  H  H27  1  0.641000  0.693400  0.177600  1.0  0.1213
  H  H28  1  0.683500  0.673000  0.389000  1.0  0.0756
  H  H29  1  0.880700  0.735800  0.543400  1.0  0.0674
  H  H30  1  0.990100  0.789300  0.620600  1.0  0.126
  H  H31  1  0.063300  0.690900  0.941600  1.0  0.1267
  H  H32  1  0.952700  0.638100  0.851400  1.0  0.0777
  H  H33  1  0.125600  0.787700  0.684100  1.0  0.1195
  H  H34  1  0.289700  0.861100  0.997500  1.0  0.1175
  H  H35  1  0.373100  0.885500  0.413400  1.0  0.0787
  H  H36  1  0.335700  0.867300  0.201900  1.0  0.1264
  H  H37  1  0.141000  0.806600  0.177600  1.0  0.1201
  H  H38  1  0.183500  0.827000  0.389000  1.0  0.0745
  H  H39  1  0.380700  0.235800  0.543400  1.0  0.0674
  H  H40  1  0.490100  0.289300  0.620600  1.0  0.126
  H  H41  1  0.563300  0.190900  0.941600  1.0  0.1267
  H  H42  1  0.452700  0.138100  0.851400  1.0  0.0777
  H  H43  1  0.625600  0.287700  0.684100  1.0  0.1195
  H  H44  1  0.789700  0.361100  0.997500  1.0  0.1175
  H  H45  1  0.873100  0.385500  0.413400  1.0  0.0787
  H  H46  1  0.835700  0.367300  0.201900  1.0  0.1264
  H  H47  1  0.641000  0.306600  0.177600  1.0  0.1201
  H  H48  1  0.683500  0.327000  0.389000  1.0  0.0745
  H  H49  1  0.119300  0.264200  0.456600  1.0  0.0676
  H  H50  1  0.009900  0.210700  0.379400  1.0  0.1254
  H  H51  1  0.936700  0.309100  0.058400  1.0  0.127
  H  H52  1  0.047300  0.361900  0.148600  1.0  0.077
  H  H53  1  0.874400  0.212300  0.315900  1.0  0.1202
  H  H54  1  0.710300  0.138900  0.002500  1.0  0.1182
  H  H55  1  0.626900  0.114500  0.586600  1.0  0.0786
  H  H56  1  0.664300  0.132700  0.798100  1.0  0.1249
  H  H57  1  0.859000  0.193400  0.822400  1.0  0.1201
  H  H58  1  0.816500  0.173000  0.611000  1.0  0.0753
  H  H59  1  0.619300  0.764200  0.456600  1.0  0.0676
  H  H60  1  0.509900  0.710700  0.379400  1.0  0.1254
  H  H61  1  0.436700  0.809100  0.058400  1.0  0.127
  H  H62  1  0.547300  0.861900  0.148600  1.0  0.077
  H  H63  1  0.374400  0.712300  0.315900  1.0  0.1202
  H  H64  1  0.210300  0.638900  0.002500  1.0  0.1182
  H  H65  1  0.126900  0.614500  0.586600  1.0  0.0786
  H  H66  1  0.164300  0.632700  0.798100  1.0  0.1249
  H  H67  1  0.359000  0.693400  0.822400  1.0  0.1201
  H  H68  1  0.316500  0.673000  0.611000  1.0  0.0753
  H  H69  1  0.119300  0.735800  0.456600  1.0  0.0677
  H  H70  1  0.009900  0.789300  0.379400  1.0  0.1254
  H  H71  1  0.936700  0.690900  0.058400  1.0  0.1267
  H  H72  1  0.047300  0.638100  0.148600  1.0  0.0768
  H  H73  1  0.874400  0.787700  0.315900  1.0  0.1196
  H  H74  1  0.710300  0.861100  0.002500  1.0  0.1175
  H  H75  1  0.626900  0.885500  0.586600  1.0  0.0785
  H  H76  1  0.664300  0.867300  0.798100  1.0  0.1255
  H  H77  1  0.859000  0.806600  0.822400  1.0  0.1195
  H  H78  1  0.816500  0.827000  0.611000  1.0  0.0744
  H  H79  1  0.619300  0.235800  0.456600  1.0  0.0677
  H  H80  1  0.509900  0.289300  0.379400  1.0  0.1254
  H  H81  1  0.436700  0.190900  0.058400  1.0  0.1267
  H  H82  1  0.547300  0.138100  0.148600  1.0  0.0768
  H  H83  1  0.374400  0.287700  0.315900  1.0  0.1196
  H  H84  1  0.210300  0.361100  0.002500  1.0  0.1175
  H  H85  1  0.126900  0.385500  0.586600  1.0  0.0785
  H  H86  1  0.164300  0.367300  0.798100  1.0  0.1255
  H  H87  1  0.359000  0.306600  0.822400  1.0  0.1195
  H  H88  1  0.316500  0.327000  0.611000  1.0  0.0744
  C  C89  1  0.918500  0.274100  0.623500  1.0  0.1788
  C  C90  1  0.983800  0.241100  0.669900  1.0  -0.2201
  C  C91  1  0.040000  0.253400  0.790000  1.0  0.0218
  C  C92  1  0.027300  0.299700  0.859600  1.0  -0.1508
  C  C93  1  0.960500  0.331100  0.804500  1.0  0.1611
  C  C94  1  0.111800  0.220100  0.845300  1.0  0.1928
  C  C95  1  0.147200  0.203600  0.771000  1.0  -0.0884
  C  C96  1  0.215500  0.173930  0.829200  1.0  -0.1309
  C  C97  1  0.244800  0.160110  0.957400  1.0  -0.064
  C  C98  1  0.206000  0.178500  0.025600  1.0  0.2268
  C  C99  1  0.325400  0.130400  0.365000  1.0  0.1725
  C  C100  1  0.303400  0.141300  0.237800  1.0  -0.1777
  C  C101  1  0.233100  0.165130  0.163000  1.0  0.037
  C  C102  1  0.188700  0.177000  0.223300  1.0  -0.1453
  C  C103  1  0.214800  0.164600  0.350900  1.0  0.1796
  C  C104  1  0.256500  0.156890  0.752800  1.0  0.6373
  C  C105  1  0.418500  0.774100  0.623500  1.0  0.1788
  C  C106  1  0.483800  0.741100  0.669900  1.0  -0.2201
  C  C107  1  0.540000  0.753400  0.790000  1.0  0.0218
  C  C108  1  0.527300  0.799700  0.859600  1.0  -0.1508
  C  C109  1  0.460500  0.831100  0.804500  1.0  0.1611
  C  C110  1  0.611800  0.720100  0.845300  1.0  0.1928
  C  C111  1  0.647200  0.703600  0.771000  1.0  -0.0884
  C  C112  1  0.715500  0.673930  0.829200  1.0  -0.1309
  C  C113  1  0.744800  0.660110  0.957400  1.0  -0.064
  C  C114  1  0.706000  0.678500  0.025600  1.0  0.2268
  C  C115  1  0.825400  0.630400  0.365000  1.0  0.1725
  C  C116  1  0.803400  0.641300  0.237800  1.0  -0.1777
  C  C117  1  0.733100  0.665130  0.163000  1.0  0.037
  C  C118  1  0.688700  0.677000  0.223300  1.0  -0.1453
  C  C119  1  0.714800  0.664600  0.350900  1.0  0.1796
  C  C120  1  0.756500  0.656890  0.752800  1.0  0.6373
  C  C121  1  0.918500  0.725900  0.623500  1.0  0.1786
  C  C122  1  0.983800  0.758900  0.669900  1.0  -0.2203
  C  C123  1  0.040000  0.746600  0.790000  1.0  0.0225
  C  C124  1  0.027300  0.700300  0.859600  1.0  -0.1509
  C  C125  1  0.960500  0.668900  0.804500  1.0  0.1606
  C  C126  1  0.111800  0.779900  0.845300  1.0  0.1928
  C  C127  1  0.147200  0.796400  0.771000  1.0  -0.0886
  C  C128  1  0.215500  0.826070  0.829200  1.0  -0.1313
  C  C129  1  0.244800  0.839890  0.957400  1.0  -0.0612
  C  C130  1  0.206000  0.821500  0.025600  1.0  0.2259
  C  C131  1  0.325400  0.869600  0.365000  1.0  0.1728
  C  C132  1  0.303400  0.858700  0.237800  1.0  -0.1774
  C  C133  1  0.233100  0.834870  0.163000  1.0  0.0371
  C  C134  1  0.188700  0.823000  0.223300  1.0  -0.1461
  C  C135  1  0.214800  0.835400  0.350900  1.0  0.1785
  C  C136  1  0.256500  0.843110  0.752800  1.0  0.637
  C  C137  1  0.418500  0.225900  0.623500  1.0  0.1786
  C  C138  1  0.483800  0.258900  0.669900  1.0  -0.2203
  C  C139  1  0.540000  0.246600  0.790000  1.0  0.0225
  C  C140  1  0.527300  0.200300  0.859600  1.0  -0.1509
  C  C141  1  0.460500  0.168900  0.804500  1.0  0.1606
  C  C142  1  0.611800  0.279900  0.845300  1.0  0.1928
  C  C143  1  0.647200  0.296400  0.771000  1.0  -0.0886
  C  C144  1  0.715500  0.326070  0.829200  1.0  -0.1313
  C  C145  1  0.744800  0.339890  0.957400  1.0  -0.0612
  C  C146  1  0.706000  0.321500  0.025600  1.0  0.2259
  C  C147  1  0.825400  0.369600  0.365000  1.0  0.1728
  C  C148  1  0.803400  0.358700  0.237800  1.0  -0.1774
  C  C149  1  0.733100  0.334870  0.163000  1.0  0.0371
  C  C150  1  0.688700  0.323000  0.223300  1.0  -0.1461
  C  C151  1  0.714800  0.335400  0.350900  1.0  0.1785
  C  C152  1  0.756500  0.343110  0.752800  1.0  0.637
  C  C153  1  0.267100  0.000000  0.578600  1.0  0.5879
  C  C154  1  0.353200  0.000000  0.622700  1.0  0.5881
  C  C155  1  0.767100  0.500000  0.578600  1.0  0.5879
  C  C156  1  0.853200  0.500000  0.622700  1.0  0.5881
  C  C157  1  0.081500  0.274100  0.376500  1.0  0.1791
  C  C158  1  0.016200  0.241100  0.330100  1.0  -0.2197
  C  C159  1  0.960000  0.253400  0.210000  1.0  0.0227
  C  C160  1  0.972700  0.299700  0.140400  1.0  -0.1497
  C  C161  1  0.039500  0.331100  0.195500  1.0  0.163
  C  C162  1  0.888200  0.220100  0.154700  1.0  0.1935
  C  C163  1  0.852800  0.203600  0.229000  1.0  -0.0891
  C  C164  1  0.784500  0.173930  0.170800  1.0  -0.1317
  C  C165  1  0.755200  0.160110  0.042600  1.0  -0.0623
  C  C166  1  0.794000  0.178500  0.974400  1.0  0.2265
  C  C167  1  0.674600  0.130400  0.635000  1.0  0.1727
  C  C168  1  0.696600  0.141300  0.762200  1.0  -0.1753
  C  C169  1  0.766900  0.165130  0.837000  1.0  0.0363
  C  C170  1  0.811300  0.177000  0.776700  1.0  -0.1443
  C  C171  1  0.785200  0.164600  0.649100  1.0  0.1789
  C  C172  1  0.743500  0.156890  0.247200  1.0  0.6384
  C  C173  1  0.581500  0.774100  0.376500  1.0  0.1791
  C  C174  1  0.516200  0.741100  0.330100  1.0  -0.2197
  C  C175  1  0.460000  0.753400  0.210000  1.0  0.0227
  C  C176  1  0.472700  0.799700  0.140400  1.0  -0.1497
  C  C177  1  0.539500  0.831100  0.195500  1.0  0.163
  C  C178  1  0.388200  0.720100  0.154700  1.0  0.1935
  C  C179  1  0.352800  0.703600  0.229000  1.0  -0.0891
  C  C180  1  0.284500  0.673930  0.170800  1.0  -0.1317
  C  C181  1  0.255200  0.660110  0.042600  1.0  -0.0623
  C  C182  1  0.294000  0.678500  0.974400  1.0  0.2265
  C  C183  1  0.174600  0.630400  0.635000  1.0  0.1727
  C  C184  1  0.196600  0.641300  0.762200  1.0  -0.1753
  C  C185  1  0.266900  0.665130  0.837000  1.0  0.0363
  C  C186  1  0.311300  0.677000  0.776700  1.0  -0.1443
  C  C187  1  0.285200  0.664600  0.649100  1.0  0.1789
  C  C188  1  0.243500  0.656890  0.247200  1.0  0.6384
  C  C189  1  0.081500  0.725900  0.376500  1.0  0.179
  C  C190  1  0.016200  0.758900  0.330100  1.0  -0.2202
  C  C191  1  0.960000  0.746600  0.210000  1.0  0.0237
  C  C192  1  0.972700  0.700300  0.140400  1.0  -0.1499
  C  C193  1  0.039500  0.668900  0.195500  1.0  0.1617
  C  C194  1  0.888200  0.779900  0.154700  1.0  0.1933
  C  C195  1  0.852800  0.796400  0.229000  1.0  -0.0895
  C  C196  1  0.784500  0.826070  0.170800  1.0  -0.1319
  C  C197  1  0.755200  0.839890  0.042600  1.0  -0.0614
  C  C198  1  0.794000  0.821500  0.974400  1.0  0.2257
  C  C199  1  0.674600  0.869600  0.635000  1.0  0.1718
  C  C200  1  0.696600  0.858700  0.762200  1.0  -0.1778
  C  C201  1  0.766900  0.834870  0.837000  1.0  0.0378
  C  C202  1  0.811300  0.823000  0.776700  1.0  -0.1452
  C  C203  1  0.785200  0.835400  0.649100  1.0  0.178
  C  C204  1  0.743500  0.843110  0.247200  1.0  0.6379
  C  C205  1  0.581500  0.225900  0.376500  1.0  0.179
  C  C206  1  0.516200  0.258900  0.330100  1.0  -0.2202
  C  C207  1  0.460000  0.246600  0.210000  1.0  0.0237
  C  C208  1  0.472700  0.200300  0.140400  1.0  -0.1499
  C  C209  1  0.539500  0.168900  0.195500  1.0  0.1617
  C  C210  1  0.388200  0.279900  0.154700  1.0  0.1933
  C  C211  1  0.352800  0.296400  0.229000  1.0  -0.0895
  C  C212  1  0.284500  0.326070  0.170800  1.0  -0.1319
  C  C213  1  0.255200  0.339890  0.042600  1.0  -0.0614
  C  C214  1  0.294000  0.321500  0.974400  1.0  0.2257
  C  C215  1  0.174600  0.369600  0.635000  1.0  0.1718
  C  C216  1  0.196600  0.358700  0.762200  1.0  -0.1778
  C  C217  1  0.266900  0.334870  0.837000  1.0  0.0378
  C  C218  1  0.311300  0.323000  0.776700  1.0  -0.1452
  C  C219  1  0.285200  0.335400  0.649100  1.0  0.178
  C  C220  1  0.243500  0.343110  0.247200  1.0  0.6379
  C  C221  1  0.732900  0.000000  0.421400  1.0  0.5879
  C  C222  1  0.646800  0.000000  0.377300  1.0  0.5875
  C  C223  1  0.232900  0.500000  0.421400  1.0  0.5879
  C  C224  1  0.146800  0.500000  0.377300  1.0  0.5875
  N  N225  1  0.906330  0.319670  0.687000  1.0  -0.3178
  N  N226  1  0.140700  0.208920  0.970500  1.0  -0.4321
  N  N227  1  0.281600  0.141440  0.422800  1.0  -0.3173
  N  N228  1  0.406330  0.819670  0.687000  1.0  -0.3178
  N  N229  1  0.640700  0.708920  0.970500  1.0  -0.4321
  N  N230  1  0.781600  0.641440  0.422800  1.0  -0.3173
  N  N231  1  0.906330  0.680330  0.687000  1.0  -0.3184
  N  N232  1  0.140700  0.791080  0.970500  1.0  -0.4306
  N  N233  1  0.281600  0.858560  0.422800  1.0  -0.316
  N  N234  1  0.406330  0.180330  0.687000  1.0  -0.3184
  N  N235  1  0.640700  0.291080  0.970500  1.0  -0.4306
  N  N236  1  0.781600  0.358560  0.422800  1.0  -0.316
  N  N237  1  0.093670  0.319670  0.313000  1.0  -0.3168
  N  N238  1  0.859300  0.208920  0.029500  1.0  -0.4292
  N  N239  1  0.718400  0.141440  0.577200  1.0  -0.3197
  N  N240  1  0.593670  0.819670  0.313000  1.0  -0.3168
  N  N241  1  0.359300  0.708920  0.029500  1.0  -0.4292
  N  N242  1  0.218400  0.641440  0.577200  1.0  -0.3197
  N  N243  1  0.093670  0.680330  0.313000  1.0  -0.317
  N  N244  1  0.859300  0.791080  0.029500  1.0  -0.4294
  N  N245  1  0.718400  0.858560  0.577200  1.0  -0.3185
  N  N246  1  0.593670  0.180330  0.313000  1.0  -0.317
  N  N247  1  0.359300  0.291080  0.029500  1.0  -0.4294
  N  N248  1  0.218400  0.358560  0.577200  1.0  -0.3185
  O  O249  1  0.313140  0.123760  0.802400  1.0  -0.5684
  O  O250  1  0.232480  0.175750  0.640400  1.0  -0.5583
  O  O251  1  0.236410  0.050120  0.562900  1.0  -0.5606
  O  O252  1  0.384740  0.050170  0.639300  1.0  -0.5694
  O  O253  1  0.813140  0.623760  0.802400  1.0  -0.5684
  O  O254  1  0.732480  0.675750  0.640400  1.0  -0.5583
  O  O255  1  0.736410  0.550120  0.562900  1.0  -0.5606
  O  O256  1  0.884740  0.550170  0.639300  1.0  -0.5694
  O  O257  1  0.313140  0.876240  0.802400  1.0  -0.5665
  O  O258  1  0.232480  0.824250  0.640400  1.0  -0.5589
  O  O259  1  0.236410  0.949880  0.562900  1.0  -0.5597
  O  O260  1  0.384740  0.949830  0.639300  1.0  -0.5709
  O  O261  1  0.813140  0.376240  0.802400  1.0  -0.5665
  O  O262  1  0.732480  0.324250  0.640400  1.0  -0.5589
  O  O263  1  0.736410  0.449880  0.562900  1.0  -0.5597
  O  O264  1  0.884740  0.449830  0.639300  1.0  -0.5709
  O  O265  1  0.686860  0.123760  0.197600  1.0  -0.5674
  O  O266  1  0.767520  0.175750  0.359600  1.0  -0.5586
  O  O267  1  0.763590  0.050120  0.437100  1.0  -0.5621
  O  O268  1  0.615260  0.050170  0.360700  1.0  -0.5694
  O  O269  1  0.186860  0.623760  0.197600  1.0  -0.5674
  O  O270  1  0.267520  0.675750  0.359600  1.0  -0.5586
  O  O271  1  0.263590  0.550120  0.437100  1.0  -0.5621
  O  O272  1  0.115260  0.550170  0.360700  1.0  -0.5694
  O  O273  1  0.686860  0.876240  0.197600  1.0  -0.5658
  O  O274  1  0.767520  0.824250  0.359600  1.0  -0.5592
  O  O275  1  0.763590  0.949880  0.437100  1.0  -0.5612
  O  O276  1  0.615260  0.949830  0.360700  1.0  -0.571
  O  O277  1  0.186860  0.376240  0.197600  1.0  -0.5658
  O  O278  1  0.267520  0.324250  0.359600  1.0  -0.5592
  O  O279  1  0.263590  0.449880  0.437100  1.0  -0.5612
  O  O280  1  0.115260  0.449830  0.360700  1.0  -0.571
