# generated using pymatgen
data_NiH10C17N3O4
_symmetry_space_group_name_H-M   'P 1'
_cell_length_a   19.67000000
_cell_length_b   22.23900000
_cell_length_c   11.63920000
_cell_angle_alpha   90.00000000
_cell_angle_beta   116.74600000
_cell_angle_gamma   90.00000000
_symmetry_Int_Tables_number   1
_chemical_formula_structural   NiH10C17N3O4
_chemical_formula_sum   'Ni8 H80 C136 N24 O32'
_cell_volume   4546.73083478
_cell_formula_units_Z   8
loop_
 _symmetry_equiv_pos_site_id
 _symmetry_equiv_pos_as_xyz
  1  'x, y, z'
loop_
 _atom_site_type_symbol
 _atom_site_label
 _atom_site_symmetry_multiplicity
 _atom_site_fract_x
 _atom_site_fract_y
 _atom_site_fract_z
 _atom_site_occupancy
 _atom_site_charge
  Ni  Ni1  1  0.189360  0.120400  0.387870  1.0  0.866
  Ni  Ni2  1  0.689360  0.620400  0.387870  1.0  0.866
  Ni  Ni3  1  0.189360  0.879600  0.387870  1.0  0.8661
  Ni  Ni4  1  0.689360  0.379600  0.387870  1.0  0.8661
  Ni  Ni5  1  0.810640  0.120400  0.612130  1.0  0.8664
  Ni  Ni6  1  0.310640  0.620400  0.612130  1.0  0.8664
  Ni  Ni7  1  0.810640  0.879600  0.612130  1.0  0.866
  Ni  Ni8  1  0.310640  0.379600  0.612130  1.0  0.866
  H  H9  1  0.126000  0.111900  0.583400  1.0  0.0793
  H  H10  1  0.161900  0.132900  0.794500  1.0  0.1176
  H  H11  1  0.361500  0.192200  0.825000  1.0  0.1214
  H  H12  1  0.319600  0.169400  0.612300  1.0  0.0766
  H  H13  1  0.211200  0.138400  0.005000  1.0  0.1185
  H  H14  1  0.376800  0.213500  0.319700  1.0  0.1201
  H  H15  1  0.626900  0.265100  0.460800  1.0  0.0826
  H  H16  1  0.514600  0.211800  0.381900  1.0  0.1098
  H  H17  1  0.438000  0.311100  0.060200  1.0  0.1194
  H  H18  1  0.548900  0.365300  0.153100  1.0  0.0804
  H  H19  1  0.626000  0.611900  0.583400  1.0  0.0793
  H  H20  1  0.661900  0.632900  0.794500  1.0  0.1176
  H  H21  1  0.861500  0.692200  0.825000  1.0  0.1214
  H  H22  1  0.819600  0.669400  0.612300  1.0  0.0766
  H  H23  1  0.711200  0.638400  0.005000  1.0  0.1185
  H  H24  1  0.876800  0.713500  0.319700  1.0  0.1201
  H  H25  1  0.126900  0.765100  0.460800  1.0  0.0826
  H  H26  1  0.014600  0.711800  0.381900  1.0  0.1098
  H  H27  1  0.938000  0.811100  0.060200  1.0  0.1194
  H  H28  1  0.048900  0.865300  0.153100  1.0  0.0804
  H  H29  1  0.126000  0.888100  0.583400  1.0  0.0793
  H  H30  1  0.161900  0.867100  0.794500  1.0  0.117
  H  H31  1  0.361500  0.807800  0.825000  1.0  0.1206
  H  H32  1  0.319600  0.830600  0.612300  1.0  0.0759
  H  H33  1  0.211200  0.861600  0.005000  1.0  0.1183
  H  H34  1  0.376800  0.786500  0.319700  1.0  0.12
  H  H35  1  0.626900  0.734900  0.460800  1.0  0.0825
  H  H36  1  0.514600  0.788200  0.381900  1.0  0.1098
  H  H37  1  0.438000  0.688900  0.060200  1.0  0.1192
  H  H38  1  0.548900  0.634700  0.153100  1.0  0.0801
  H  H39  1  0.626000  0.388100  0.583400  1.0  0.0793
  H  H40  1  0.661900  0.367100  0.794500  1.0  0.117
  H  H41  1  0.861500  0.307800  0.825000  1.0  0.1206
  H  H42  1  0.819600  0.330600  0.612300  1.0  0.0759
  H  H43  1  0.711200  0.361600  0.005000  1.0  0.1183
  H  H44  1  0.876800  0.286500  0.319700  1.0  0.12
  H  H45  1  0.126900  0.234900  0.460800  1.0  0.0825
  H  H46  1  0.014600  0.288200  0.381900  1.0  0.1098
  H  H47  1  0.938000  0.188900  0.060200  1.0  0.1192
  H  H48  1  0.048900  0.134700  0.153100  1.0  0.0801
  H  H49  1  0.874000  0.111900  0.416600  1.0  0.0791
  H  H50  1  0.838100  0.132900  0.205500  1.0  0.1179
  H  H51  1  0.638500  0.192200  0.175000  1.0  0.1222
  H  H52  1  0.680400  0.169400  0.387700  1.0  0.0767
  H  H53  1  0.788800  0.138400  0.995000  1.0  0.1193
  H  H54  1  0.623200  0.213500  0.680300  1.0  0.1201
  H  H55  1  0.373100  0.265100  0.539200  1.0  0.0813
  H  H56  1  0.485400  0.211800  0.618100  1.0  0.1097
  H  H57  1  0.562000  0.311100  0.939800  1.0  0.1189
  H  H58  1  0.451100  0.365300  0.846900  1.0  0.08
  H  H59  1  0.374000  0.611900  0.416600  1.0  0.0791
  H  H60  1  0.338100  0.632900  0.205500  1.0  0.1179
  H  H61  1  0.138500  0.692200  0.175000  1.0  0.1222
  H  H62  1  0.180400  0.669400  0.387700  1.0  0.0767
  H  H63  1  0.288800  0.638400  0.995000  1.0  0.1193
  H  H64  1  0.123200  0.713500  0.680300  1.0  0.1201
  H  H65  1  0.873100  0.765100  0.539200  1.0  0.0813
  H  H66  1  0.985400  0.711800  0.618100  1.0  0.1097
  H  H67  1  0.062000  0.811100  0.939800  1.0  0.1189
  H  H68  1  0.951100  0.865300  0.846900  1.0  0.08
  H  H69  1  0.874000  0.888100  0.416600  1.0  0.0794
  H  H70  1  0.838100  0.867100  0.205500  1.0  0.1181
  H  H71  1  0.638500  0.807800  0.175000  1.0  0.1209
  H  H72  1  0.680400  0.830600  0.387700  1.0  0.0763
  H  H73  1  0.788800  0.861600  0.995000  1.0  0.1184
  H  H74  1  0.623200  0.786500  0.680300  1.0  0.1197
  H  H75  1  0.373100  0.734900  0.539200  1.0  0.0817
  H  H76  1  0.485400  0.788200  0.618100  1.0  0.1102
  H  H77  1  0.562000  0.688900  0.939800  1.0  0.1193
  H  H78  1  0.451100  0.634700  0.846900  1.0  0.0804
  H  H79  1  0.374000  0.388100  0.416600  1.0  0.0794
  H  H80  1  0.338100  0.367100  0.205500  1.0  0.1181
  H  H81  1  0.138500  0.307800  0.175000  1.0  0.1209
  H  H82  1  0.180400  0.330600  0.387700  1.0  0.0763
  H  H83  1  0.288800  0.361600  0.995000  1.0  0.1184
  H  H84  1  0.123200  0.286500  0.680300  1.0  0.1197
  H  H85  1  0.873100  0.234900  0.539200  1.0  0.0817
  H  H86  1  0.985400  0.288200  0.618100  1.0  0.1102
  H  H87  1  0.062000  0.188900  0.939800  1.0  0.1193
  H  H88  1  0.951100  0.134700  0.846900  1.0  0.0804
  C  C89  1  0.174000  0.128200  0.632600  1.0  0.1746
  C  C90  1  0.195400  0.140600  0.759900  1.0  -0.1816
  C  C91  1  0.267400  0.164600  0.837500  1.0  -0.0227
  C  C92  1  0.313300  0.175600  0.778400  1.0  -0.1299
  C  C93  1  0.287400  0.161900  0.649700  1.0  0.1707
  C  C94  1  0.294900  0.178800  0.975500  1.0  0.2115
  C  C95  1  0.256300  0.160100  0.045200  1.0  -0.055
  C  C96  1  0.285800  0.174200  0.173900  1.0  -0.1192
  C  C97  1  0.354700  0.204600  0.232300  1.0  -0.112
  C  C98  1  0.390000  0.221300  0.156500  1.0  0.1903
  C  C99  1  0.587800  0.275200  0.380800  1.0  0.149
  C  C100  1  0.520600  0.242300  0.332600  1.0  -0.1469
  C  C101  1  0.462900  0.254600  0.212400  1.0  0.0521
  C  C102  1  0.474800  0.301600  0.142700  1.0  -0.1505
  C  C103  1  0.542100  0.333500  0.198900  1.0  0.1618
  C  C104  1  0.245100  0.155800  0.251200  1.0  0.635
  C  C105  1  0.674000  0.628200  0.632600  1.0  0.1746
  C  C106  1  0.695400  0.640600  0.759900  1.0  -0.1816
  C  C107  1  0.767400  0.664600  0.837500  1.0  -0.0227
  C  C108  1  0.813300  0.675600  0.778400  1.0  -0.1299
  C  C109  1  0.787400  0.661900  0.649700  1.0  0.1707
  C  C110  1  0.794900  0.678800  0.975500  1.0  0.2115
  C  C111  1  0.756300  0.660100  0.045200  1.0  -0.055
  C  C112  1  0.785800  0.674200  0.173900  1.0  -0.1192
  C  C113  1  0.854700  0.704600  0.232300  1.0  -0.112
  C  C114  1  0.890000  0.721300  0.156500  1.0  0.1903
  C  C115  1  0.087800  0.775200  0.380800  1.0  0.149
  C  C116  1  0.020600  0.742300  0.332600  1.0  -0.1469
  C  C117  1  0.962900  0.754600  0.212400  1.0  0.0521
  C  C118  1  0.974800  0.801600  0.142700  1.0  -0.1505
  C  C119  1  0.042100  0.833500  0.198900  1.0  0.1618
  C  C120  1  0.745100  0.655800  0.251200  1.0  0.635
  C  C121  1  0.174000  0.871800  0.632600  1.0  0.1728
  C  C122  1  0.195400  0.859400  0.759900  1.0  -0.1833
  C  C123  1  0.267400  0.835400  0.837500  1.0  -0.0203
  C  C124  1  0.313300  0.824400  0.778400  1.0  -0.1312
  C  C125  1  0.287400  0.838100  0.649700  1.0  0.1699
  C  C126  1  0.294900  0.821200  0.975500  1.0  0.211
  C  C127  1  0.256300  0.839900  0.045200  1.0  -0.0553
  C  C128  1  0.285800  0.825800  0.173900  1.0  -0.119
  C  C129  1  0.354700  0.795400  0.232300  1.0  -0.1128
  C  C130  1  0.390000  0.778700  0.156500  1.0  0.1902
  C  C131  1  0.587800  0.724800  0.380800  1.0  0.149
  C  C132  1  0.520600  0.757700  0.332600  1.0  -0.1471
  C  C133  1  0.462900  0.745400  0.212400  1.0  0.0529
  C  C134  1  0.474800  0.698400  0.142700  1.0  -0.1504
  C  C135  1  0.542100  0.666500  0.198900  1.0  0.1609
  C  C136  1  0.245100  0.844200  0.251200  1.0  0.6344
  C  C137  1  0.674000  0.371800  0.632600  1.0  0.1728
  C  C138  1  0.695400  0.359400  0.759900  1.0  -0.1833
  C  C139  1  0.767400  0.335400  0.837500  1.0  -0.0203
  C  C140  1  0.813300  0.324400  0.778400  1.0  -0.1312
  C  C141  1  0.787400  0.338100  0.649700  1.0  0.1699
  C  C142  1  0.794900  0.321200  0.975500  1.0  0.211
  C  C143  1  0.756300  0.339900  0.045200  1.0  -0.0553
  C  C144  1  0.785800  0.325800  0.173900  1.0  -0.119
  C  C145  1  0.854700  0.295400  0.232300  1.0  -0.1128
  C  C146  1  0.890000  0.278700  0.156500  1.0  0.1902
  C  C147  1  0.087800  0.224800  0.380800  1.0  0.149
  C  C148  1  0.020600  0.257700  0.332600  1.0  -0.1471
  C  C149  1  0.962900  0.245400  0.212400  1.0  0.0529
  C  C150  1  0.974800  0.198400  0.142700  1.0  -0.1504
  C  C151  1  0.042100  0.166500  0.198900  1.0  0.1609
  C  C152  1  0.745100  0.344200  0.251200  1.0  0.6344
  C  C153  1  0.235900  0.000000  0.424900  1.0  0.5887
  C  C154  1  0.148400  0.000000  0.381000  1.0  0.5811
  C  C155  1  0.735900  0.500000  0.424900  1.0  0.5887
  C  C156  1  0.648400  0.500000  0.381000  1.0  0.5811
  C  C157  1  0.826000  0.128200  0.367400  1.0  0.174
  C  C158  1  0.804600  0.140600  0.240100  1.0  -0.1827
  C  C159  1  0.732600  0.164600  0.162500  1.0  -0.0218
  C  C160  1  0.686700  0.175600  0.221600  1.0  -0.1313
  C  C161  1  0.712600  0.161900  0.350300  1.0  0.1701
  C  C162  1  0.705100  0.178800  0.024500  1.0  0.2151
  C  C163  1  0.743700  0.160100  0.954800  1.0  -0.0563
  C  C164  1  0.714200  0.174200  0.826100  1.0  -0.1183
  C  C165  1  0.645300  0.204600  0.767700  1.0  -0.1121
  C  C166  1  0.610000  0.221300  0.843500  1.0  0.1891
  C  C167  1  0.412200  0.275200  0.619200  1.0  0.1487
  C  C168  1  0.479400  0.242300  0.667400  1.0  -0.1474
  C  C169  1  0.537100  0.254600  0.787600  1.0  0.0522
  C  C170  1  0.525200  0.301600  0.857300  1.0  -0.1511
  C  C171  1  0.457900  0.333500  0.801100  1.0  0.1624
  C  C172  1  0.754900  0.155800  0.748800  1.0  0.6335
  C  C173  1  0.326000  0.628200  0.367400  1.0  0.174
  C  C174  1  0.304600  0.640600  0.240100  1.0  -0.1827
  C  C175  1  0.232600  0.664600  0.162500  1.0  -0.0218
  C  C176  1  0.186700  0.675600  0.221600  1.0  -0.1313
  C  C177  1  0.212600  0.661900  0.350300  1.0  0.1701
  C  C178  1  0.205100  0.678800  0.024500  1.0  0.2151
  C  C179  1  0.243700  0.660100  0.954800  1.0  -0.0563
  C  C180  1  0.214200  0.674200  0.826100  1.0  -0.1183
  C  C181  1  0.145300  0.704600  0.767700  1.0  -0.1121
  C  C182  1  0.110000  0.721300  0.843500  1.0  0.1891
  C  C183  1  0.912200  0.775200  0.619200  1.0  0.1487
  C  C184  1  0.979400  0.742300  0.667400  1.0  -0.1474
  C  C185  1  0.037100  0.754600  0.787600  1.0  0.0522
  C  C186  1  0.025200  0.801600  0.857300  1.0  -0.1511
  C  C187  1  0.957900  0.833500  0.801100  1.0  0.1624
  C  C188  1  0.254900  0.655800  0.748800  1.0  0.6335
  C  C189  1  0.826000  0.871800  0.367400  1.0  0.1742
  C  C190  1  0.804600  0.859400  0.240100  1.0  -0.1825
  C  C191  1  0.732600  0.835400  0.162500  1.0  -0.0201
  C  C192  1  0.686700  0.824400  0.221600  1.0  -0.1325
  C  C193  1  0.712600  0.838100  0.350300  1.0  0.1695
  C  C194  1  0.705100  0.821200  0.024500  1.0  0.2141
  C  C195  1  0.743700  0.839900  0.954800  1.0  -0.0551
  C  C196  1  0.714200  0.825800  0.826100  1.0  -0.1182
  C  C197  1  0.645300  0.795400  0.767700  1.0  -0.1141
  C  C198  1  0.610000  0.778700  0.843500  1.0  0.1892
  C  C199  1  0.412200  0.724800  0.619200  1.0  0.1486
  C  C200  1  0.479400  0.757700  0.667400  1.0  -0.1474
  C  C201  1  0.537100  0.745400  0.787600  1.0  0.0523
  C  C202  1  0.525200  0.698400  0.857300  1.0  -0.1508
  C  C203  1  0.457900  0.666500  0.801100  1.0  0.1622
  C  C204  1  0.754900  0.844200  0.748800  1.0  0.6335
  C  C205  1  0.326000  0.371800  0.367400  1.0  0.1742
  C  C206  1  0.304600  0.359400  0.240100  1.0  -0.1825
  C  C207  1  0.232600  0.335400  0.162500  1.0  -0.0201
  C  C208  1  0.186700  0.324400  0.221600  1.0  -0.1325
  C  C209  1  0.212600  0.338100  0.350300  1.0  0.1695
  C  C210  1  0.205100  0.321200  0.024500  1.0  0.2141
  C  C211  1  0.243700  0.339900  0.954800  1.0  -0.0551
  C  C212  1  0.214200  0.325800  0.826100  1.0  -0.1182
  C  C213  1  0.145300  0.295400  0.767700  1.0  -0.1141
  C  C214  1  0.110000  0.278700  0.843500  1.0  0.1892
  C  C215  1  0.912200  0.224800  0.619200  1.0  0.1486
  C  C216  1  0.979400  0.257700  0.667400  1.0  -0.1474
  C  C217  1  0.037100  0.245400  0.787600  1.0  0.0523
  C  C218  1  0.025200  0.198400  0.857300  1.0  -0.1508
  C  C219  1  0.957900  0.166500  0.801100  1.0  0.1622
  C  C220  1  0.254900  0.344200  0.748800  1.0  0.6335
  C  C221  1  0.764100  0.000000  0.575100  1.0  0.5873
  C  C222  1  0.851600  0.000000  0.619000  1.0  0.582
  C  C223  1  0.264100  0.500000  0.575100  1.0  0.5873
  C  C224  1  0.351600  0.500000  0.619000  1.0  0.582
  N  N225  1  0.218800  0.138300  0.575600  1.0  -0.3375
  N  N226  1  0.359600  0.209400  0.030300  1.0  -0.4114
  N  N227  1  0.598100  0.321200  0.315300  1.0  -0.3088
  N  N228  1  0.718800  0.638300  0.575600  1.0  -0.3375
  N  N229  1  0.859600  0.709400  0.030300  1.0  -0.4114
  N  N230  1  0.098100  0.821200  0.315300  1.0  -0.3088
  N  N231  1  0.218800  0.861700  0.575600  1.0  -0.3348
  N  N232  1  0.359600  0.790600  0.030300  1.0  -0.4095
  N  N233  1  0.598100  0.678800  0.315300  1.0  -0.3084
  N  N234  1  0.718800  0.361700  0.575600  1.0  -0.3348
  N  N235  1  0.859600  0.290600  0.030300  1.0  -0.4095
  N  N236  1  0.098100  0.178800  0.315300  1.0  -0.3084
  N  N237  1  0.781200  0.138300  0.424400  1.0  -0.3368
  N  N238  1  0.640400  0.209400  0.969700  1.0  -0.4136
  N  N239  1  0.401900  0.321200  0.684700  1.0  -0.3097
  N  N240  1  0.281200  0.638300  0.424400  1.0  -0.3368
  N  N241  1  0.140400  0.709400  0.969700  1.0  -0.4136
  N  N242  1  0.901900  0.821200  0.684700  1.0  -0.3097
  N  N243  1  0.781200  0.861700  0.424400  1.0  -0.3348
  N  N244  1  0.640400  0.790600  0.969700  1.0  -0.4109
  N  N245  1  0.401900  0.678800  0.684700  1.0  -0.3099
  N  N246  1  0.281200  0.361700  0.424400  1.0  -0.3348
  N  N247  1  0.140400  0.290600  0.969700  1.0  -0.4109
  N  N248  1  0.901900  0.178800  0.684700  1.0  -0.3099
  O  O249  1  0.268000  0.176870  0.363600  1.0  -0.5438
  O  O250  1  0.190400  0.119900  0.203600  1.0  -0.5668
  O  O251  1  0.267340  0.050060  0.440700  1.0  -0.5658
  O  O252  1  0.116380  0.050100  0.364500  1.0  -0.5667
  O  O253  1  0.768000  0.676870  0.363600  1.0  -0.5438
  O  O254  1  0.690400  0.619900  0.203600  1.0  -0.5668
  O  O255  1  0.767340  0.550060  0.440700  1.0  -0.5658
  O  O256  1  0.616380  0.550100  0.364500  1.0  -0.5667
  O  O257  1  0.268000  0.823130  0.363600  1.0  -0.5439
  O  O258  1  0.190400  0.880100  0.203600  1.0  -0.5661
  O  O259  1  0.267340  0.949940  0.440700  1.0  -0.5652
  O  O260  1  0.116380  0.949900  0.364500  1.0  -0.5675
  O  O261  1  0.768000  0.323130  0.363600  1.0  -0.5439
  O  O262  1  0.690400  0.380100  0.203600  1.0  -0.5661
  O  O263  1  0.767340  0.449940  0.440700  1.0  -0.5652
  O  O264  1  0.616380  0.449900  0.364500  1.0  -0.5675
  O  O265  1  0.732000  0.176870  0.636400  1.0  -0.5432
  O  O266  1  0.809600  0.119900  0.796400  1.0  -0.5663
  O  O267  1  0.732660  0.050060  0.559300  1.0  -0.566
  O  O268  1  0.883620  0.050100  0.635500  1.0  -0.5686
  O  O269  1  0.232000  0.676870  0.636400  1.0  -0.5432
  O  O270  1  0.309600  0.619900  0.796400  1.0  -0.5663
  O  O271  1  0.232660  0.550060  0.559300  1.0  -0.566
  O  O272  1  0.383620  0.550100  0.635500  1.0  -0.5686
  O  O273  1  0.732000  0.823130  0.636400  1.0  -0.5424
  O  O274  1  0.809600  0.880100  0.796400  1.0  -0.5648
  O  O275  1  0.732660  0.949940  0.559300  1.0  -0.5651
  O  O276  1  0.883620  0.949900  0.635500  1.0  -0.569
  O  O277  1  0.232000  0.323130  0.636400  1.0  -0.5424
  O  O278  1  0.309600  0.380100  0.796400  1.0  -0.5648
  O  O279  1  0.232660  0.449940  0.559300  1.0  -0.5651
  O  O280  1  0.383620  0.449900  0.635500  1.0  -0.569
