# generated using pymatgen
data_Zn2H4C9O7
_symmetry_space_group_name_H-M   'P 1'
_cell_length_a   9.11900000
_cell_length_b   14.47110000
_cell_length_c   14.73550000
_cell_angle_alpha   90.00000000
_cell_angle_beta   90.00000000
_cell_angle_gamma   107.75200000
_symmetry_Int_Tables_number   1
_chemical_formula_structural   Zn2H4C9O7
_chemical_formula_sum   'Zn8 H16 C36 O28'
_cell_volume   1851.93720021
_cell_formula_units_Z   4
loop_
 _symmetry_equiv_pos_site_id
 _symmetry_equiv_pos_as_xyz
  1  'x, y, z'
loop_
 _atom_site_type_symbol
 _atom_site_label
 _atom_site_symmetry_multiplicity
 _atom_site_fract_x
 _atom_site_fract_y
 _atom_site_fract_z
 _atom_site_occupancy
 _atom_site_charge
  Zn  Zn1  1  0.277240  0.364370  0.349060  1.0  1.1143
  Zn  Zn2  1  0.183110  0.134190  0.252610  1.0  1.0384
  Zn  Zn3  1  0.222760  0.135630  0.849060  1.0  1.1144
  Zn  Zn4  1  0.316890  0.365810  0.752610  1.0  1.0381
  Zn  Zn5  1  0.722760  0.635630  0.650940  1.0  1.1143
  Zn  Zn6  1  0.816890  0.865810  0.747390  1.0  1.0378
  Zn  Zn7  1  0.777240  0.864370  0.150940  1.0  1.114
  Zn  Zn8  1  0.683110  0.634190  0.247390  1.0  1.0381
  H  H9  1  0.858100  0.394500  0.298000  1.0  0.1049
  H  H10  1  0.701300  0.102400  0.277900  1.0  0.1151
  H  H11  1  0.450500  0.106700  0.286100  1.0  0.119
  H  H12  1  0.261100  0.410700  0.553300  1.0  -0.0086
  H  H13  1  0.641900  0.105500  0.798000  1.0  0.1049
  H  H14  1  0.798700  0.397600  0.777900  1.0  0.1158
  H  H15  1  0.049500  0.393300  0.786100  1.0  0.1195
  H  H16  1  0.238900  0.089300  0.053300  1.0  -0.0084
  H  H17  1  0.141900  0.605500  0.702000  1.0  0.1049
  H  H18  1  0.298700  0.897600  0.722100  1.0  0.1151
  H  H19  1  0.549500  0.893300  0.713900  1.0  0.1193
  H  H20  1  0.738900  0.589300  0.446700  1.0  -0.0085
  H  H21  1  0.358100  0.894500  0.202000  1.0  0.1051
  H  H22  1  0.201300  0.602400  0.222100  1.0  0.1146
  H  H23  1  0.950500  0.606700  0.213900  1.0  0.1187
  H  H24  1  0.761100  0.910700  0.946700  1.0  -0.0089
  C  C25  1  0.497800  0.254600  0.295400  1.0  0.4579
  C  C26  1  0.624300  0.341600  0.298500  1.0  -0.3285
  C  C27  1  0.774600  0.336100  0.295200  1.0  0.0014
  C  C28  1  0.806000  0.248400  0.287900  1.0  -0.2209
  C  C29  1  0.682200  0.163000  0.283700  1.0  0.0128
  C  C30  1  0.532500  0.165800  0.288000  1.0  -0.27
  C  C31  1  0.606300  0.441300  0.301200  1.0  0.7371
  C  C32  1  0.967500  0.244900  0.284400  1.0  0.7481
  C  C33  1  0.278200  0.349300  0.549900  1.0  0.6736
  C  C34  1  0.002200  0.245400  0.795400  1.0  0.4576
  C  C35  1  0.875700  0.158400  0.798500  1.0  -0.3278
  C  C36  1  0.725400  0.163900  0.795200  1.0  0.0021
  C  C37  1  0.694000  0.251600  0.787900  1.0  -0.2215
  C  C38  1  0.817800  0.337000  0.783700  1.0  0.0124
  C  C39  1  0.967500  0.334200  0.788000  1.0  -0.2732
  C  C40  1  0.893700  0.058700  0.801200  1.0  0.7381
  C  C41  1  0.532500  0.255100  0.784400  1.0  0.7496
  C  C42  1  0.221800  0.150700  0.049900  1.0  0.6729
  C  C43  1  0.502200  0.745400  0.704600  1.0  0.4573
  C  C44  1  0.375700  0.658400  0.701500  1.0  -0.328
  C  C45  1  0.225400  0.663900  0.704800  1.0  0.0019
  C  C46  1  0.194000  0.751600  0.712100  1.0  -0.2214
  C  C47  1  0.317800  0.837000  0.716300  1.0  0.0122
  C  C48  1  0.467500  0.834200  0.712000  1.0  -0.2724
  C  C49  1  0.393700  0.558700  0.698800  1.0  0.7393
  C  C50  1  0.032500  0.755100  0.715600  1.0  0.7498
  C  C51  1  0.721800  0.650700  0.450100  1.0  0.6737
  C  C52  1  0.997800  0.754600  0.204600  1.0  0.4577
  C  C53  1  0.124300  0.841600  0.201500  1.0  -0.3286
  C  C54  1  0.274600  0.836100  0.204800  1.0  0.0016
  C  C55  1  0.306000  0.748400  0.212100  1.0  -0.2211
  C  C56  1  0.182200  0.663000  0.216300  1.0  0.012
  C  C57  1  0.032500  0.665800  0.212000  1.0  -0.2691
  C  C58  1  0.106300  0.941300  0.198800  1.0  0.7382
  C  C59  1  0.467500  0.744900  0.215600  1.0  0.7483
  C  C60  1  0.778200  0.849300  0.950100  1.0  0.6741
  O  O61  1  0.351800  0.252640  0.296760  1.0  -0.6384
  O  O62  1  0.476100  0.454650  0.309580  1.0  -0.6283
  O  O63  1  0.726200  0.512260  0.293500  1.0  -0.5847
  O  O64  1  0.074300  0.324370  0.290900  1.0  -0.6397
  O  O65  1  0.987500  0.162450  0.276000  1.0  -0.6081
  O  O66  1  0.280400  0.312600  0.473000  1.0  -0.6193
  O  O67  1  0.297100  0.309600  0.622000  1.0  -0.5761
  O  O68  1  0.148200  0.247360  0.796760  1.0  -0.6383
  O  O69  1  0.023900  0.045350  0.809580  1.0  -0.6276
  O  O70  1  0.773800  0.987740  0.793500  1.0  -0.5854
  O  O71  1  0.425700  0.175630  0.790900  1.0  -0.6378
  O  O72  1  0.512500  0.337550  0.776000  1.0  -0.6093
  O  O73  1  0.219600  0.187400  0.973000  1.0  -0.6204
  O  O74  1  0.202900  0.190400  0.122000  1.0  -0.5759
  O  O75  1  0.648200  0.747360  0.703240  1.0  -0.6384
  O  O76  1  0.523900  0.545350  0.690420  1.0  -0.6276
  O  O77  1  0.273800  0.487740  0.706500  1.0  -0.5854
  O  O78  1  0.925700  0.675630  0.709100  1.0  -0.6376
  O  O79  1  0.012500  0.837550  0.724000  1.0  -0.6097
  O  O80  1  0.719600  0.687400  0.527000  1.0  -0.6197
  O  O81  1  0.702900  0.690400  0.378000  1.0  -0.5764
  O  O82  1  0.851800  0.752640  0.203240  1.0  -0.6386
  O  O83  1  0.976100  0.954650  0.190420  1.0  -0.6282
  O  O84  1  0.226200  0.012260  0.206500  1.0  -0.5847
  O  O85  1  0.574300  0.824370  0.209100  1.0  -0.6396
  O  O86  1  0.487500  0.662450  0.224000  1.0  -0.6087
  O  O87  1  0.780400  0.812600  0.027000  1.0  -0.619
  O  O88  1  0.797100  0.809600  0.878000  1.0  -0.5764
