# generated using pymatgen
data_ZnMo3H12C12N6O7
_symmetry_space_group_name_H-M   'P 1'
_cell_length_a   8.18000000
_cell_length_b   8.89000000
_cell_length_c   29.90000000
_cell_angle_alpha   90.00000000
_cell_angle_beta   90.00000000
_cell_angle_gamma   104.06000000
_symmetry_Int_Tables_number   1
_chemical_formula_structural   ZnMo3H12C12N6O7
_chemical_formula_sum   'Zn4 Mo12 H48 C48 N24 O28'
_cell_volume   2109.19496579
_cell_formula_units_Z   4
loop_
 _symmetry_equiv_pos_site_id
 _symmetry_equiv_pos_as_xyz
  1  'x, y, z'
loop_
 _atom_site_type_symbol
 _atom_site_label
 _atom_site_symmetry_multiplicity
 _atom_site_fract_x
 _atom_site_fract_y
 _atom_site_fract_z
 _atom_site_occupancy
 _atom_site_charge
  Zn  Zn1  1  0.940020  0.498960  0.909550  1.0  0.9338
  Zn  Zn2  1  0.559980  0.501040  0.409550  1.0  0.9355
  Zn  Zn3  1  0.059980  0.501040  0.090450  1.0  0.9312
  Zn  Zn4  1  0.440020  0.498960  0.590450  1.0  0.9309
  Mo  Mo5  1  0.756360  0.062360  0.922030  1.0  1.3013
  Mo  Mo6  1  0.954600  0.086810  0.043920  1.0  2.3135
  Mo  Mo7  1  0.551190  0.824870  0.997550  1.0  0.8546
  Mo  Mo8  1  0.743640  0.937640  0.422030  1.0  1.3015
  Mo  Mo9  1  0.545400  0.913190  0.543920  1.0  2.3137
  Mo  Mo10  1  0.948810  0.175130  0.497550  1.0  0.8477
  Mo  Mo11  1  0.243640  0.937640  0.077970  1.0  1.3022
  Mo  Mo12  1  0.045400  0.913190  0.956080  1.0  2.314
  Mo  Mo13  1  0.448810  0.175130  0.002450  1.0  0.8473
  Mo  Mo14  1  0.256360  0.062360  0.577970  1.0  1.3022
  Mo  Mo15  1  0.454600  0.086810  0.456080  1.0  2.3138
  Mo  Mo16  1  0.051190  0.824870  0.502450  1.0  0.8542
  H  H17  1  0.872500  0.425500  0.801400  1.0  0.0787
  H  H18  1  0.785000  0.660000  0.646000  1.0  0.0714
  H  H19  1  0.747200  0.747100  0.870600  1.0  0.0923
  H  H20  1  0.507700  0.728500  0.774800  1.0  0.1046
  H  H21  1  0.577200  0.851700  0.812000  1.0  0.0881
  H  H22  1  0.841200  0.062100  0.794000  1.0  0.0968
  H  H23  1  0.972000  0.233400  0.739700  1.0  0.1083
  H  H24  1  0.724200  0.950500  0.645400  1.0  0.1064
  H  H25  1  0.594500  0.779300  0.699500  1.0  0.0917
  H  H26  1  0.052000  0.275000  0.658700  1.0  0.1157
  H  H27  1  0.940200  0.169300  0.622600  1.0  0.0916
  H  H28  1  0.633900  0.236600  0.611700  1.0  0.0991
  H  H29  1  0.627500  0.574500  0.301400  1.0  0.0781
  H  H30  1  0.715000  0.340000  0.146000  1.0  0.072
  H  H31  1  0.752800  0.252900  0.370600  1.0  0.0928
  H  H32  1  0.992300  0.271500  0.274800  1.0  0.1042
  H  H33  1  0.922800  0.148300  0.312000  1.0  0.0874
  H  H34  1  0.658800  0.937900  0.294000  1.0  0.0966
  H  H35  1  0.528000  0.766600  0.239700  1.0  0.1082
  H  H36  1  0.775800  0.049500  0.145400  1.0  0.1062
  H  H37  1  0.905500  0.220700  0.199500  1.0  0.0925
  H  H38  1  0.448000  0.725000  0.158700  1.0  0.115
  H  H39  1  0.559800  0.830700  0.122600  1.0  0.0909
  H  H40  1  0.866100  0.763400  0.111700  1.0  0.0992
  H  H41  1  0.127500  0.574500  0.198600  1.0  0.0775
  H  H42  1  0.215000  0.340000  0.354000  1.0  0.0721
  H  H43  1  0.252800  0.252900  0.129400  1.0  0.0924
  H  H44  1  0.492300  0.271500  0.225200  1.0  0.1048
  H  H45  1  0.422800  0.148300  0.188000  1.0  0.0866
  H  H46  1  0.158800  0.937900  0.206000  1.0  0.0969
  H  H47  1  0.028000  0.766600  0.260300  1.0  0.108
  H  H48  1  0.275800  0.049500  0.354600  1.0  0.1055
  H  H49  1  0.405500  0.220700  0.300500  1.0  0.0916
  H  H50  1  0.948000  0.725000  0.341300  1.0  0.1158
  H  H51  1  0.059800  0.830700  0.377400  1.0  0.0918
  H  H52  1  0.366100  0.763400  0.388300  1.0  0.0987
  H  H53  1  0.372500  0.425500  0.698600  1.0  0.0785
  H  H54  1  0.285000  0.660000  0.854000  1.0  0.0713
  H  H55  1  0.247200  0.747100  0.629400  1.0  0.092
  H  H56  1  0.007700  0.728500  0.725200  1.0  0.1051
  H  H57  1  0.077200  0.851700  0.688000  1.0  0.0876
  H  H58  1  0.341200  0.062100  0.706000  1.0  0.097
  H  H59  1  0.472000  0.233400  0.760300  1.0  0.1088
  H  H60  1  0.224200  0.950500  0.854600  1.0  0.1057
  H  H61  1  0.094500  0.779300  0.800500  1.0  0.0914
  H  H62  1  0.552000  0.275000  0.841300  1.0  0.1156
  H  H63  1  0.440200  0.169300  0.877400  1.0  0.0918
  H  H64  1  0.133900  0.236600  0.888300  1.0  0.0987
  C  C65  1  0.829400  0.509600  0.809200  1.0  0.2627
  C  C66  1  0.778100  0.554700  0.642400  1.0  0.266
  C  C67  1  0.763300  0.682800  0.847300  1.0  0.1896
  C  C68  1  0.609700  0.792500  0.787800  1.0  -0.0655
  C  C69  1  0.702500  0.902600  0.752800  1.0  0.0414
  C  C70  1  0.816700  0.039100  0.764100  1.0  -0.1078
  C  C71  1  0.895100  0.142400  0.731400  1.0  -0.1067
  C  C72  1  0.859900  0.111200  0.686300  1.0  0.0237
  C  C73  1  0.748000  0.974300  0.675400  1.0  -0.107
  C  C74  1  0.669900  0.871100  0.707900  1.0  -0.1113
  C  C75  1  0.937000  0.224500  0.650500  1.0  -0.0922
  C  C76  1  0.695900  0.328100  0.624500  1.0  0.1487
  C  C77  1  0.670600  0.490400  0.309200  1.0  0.2636
  C  C78  1  0.721900  0.445300  0.142400  1.0  0.2665
  C  C79  1  0.736700  0.317200  0.347300  1.0  0.1892
  C  C80  1  0.890300  0.207500  0.287800  1.0  -0.0671
  C  C81  1  0.797500  0.097400  0.252800  1.0  0.0413
  C  C82  1  0.683300  0.960900  0.264100  1.0  -0.1082
  C  C83  1  0.604900  0.857600  0.231400  1.0  -0.1067
  C  C84  1  0.640100  0.888800  0.186300  1.0  0.0246
  C  C85  1  0.752000  0.025700  0.175400  1.0  -0.1074
  C  C86  1  0.830100  0.128900  0.207900  1.0  -0.1116
  C  C87  1  0.563000  0.775500  0.150500  1.0  -0.091
  C  C88  1  0.804100  0.671900  0.124500  1.0  0.1494
  C  C89  1  0.170600  0.490400  0.190800  1.0  0.2631
  C  C90  1  0.221900  0.445300  0.357600  1.0  0.2668
  C  C91  1  0.236700  0.317200  0.152700  1.0  0.1889
  C  C92  1  0.390300  0.207500  0.212200  1.0  -0.0684
  C  C93  1  0.297500  0.097400  0.247200  1.0  0.0414
  C  C94  1  0.183300  0.960900  0.235900  1.0  -0.1049
  C  C95  1  0.104900  0.857600  0.268600  1.0  -0.1052
  C  C96  1  0.140100  0.888800  0.313700  1.0  0.0248
  C  C97  1  0.252000  0.025700  0.324600  1.0  -0.1078
  C  C98  1  0.330100  0.128900  0.292100  1.0  -0.1117
  C  C99  1  0.063000  0.775500  0.349500  1.0  -0.0917
  C  C100  1  0.304100  0.671900  0.375500  1.0  0.1512
  C  C101  1  0.329400  0.509600  0.690800  1.0  0.2636
  C  C102  1  0.278100  0.554700  0.857600  1.0  0.2656
  C  C103  1  0.263300  0.682800  0.652700  1.0  0.1893
  C  C104  1  0.109700  0.792500  0.712200  1.0  -0.0665
  C  C105  1  0.202500  0.902600  0.747200  1.0  0.0415
  C  C106  1  0.316700  0.039100  0.735900  1.0  -0.1067
  C  C107  1  0.395100  0.142400  0.768600  1.0  -0.1055
  C  C108  1  0.359900  0.111200  0.813700  1.0  0.0241
  C  C109  1  0.248000  0.974300  0.824600  1.0  -0.1076
  C  C110  1  0.169900  0.871100  0.792100  1.0  -0.1122
  C  C111  1  0.437000  0.224500  0.849500  1.0  -0.0917
  C  C112  1  0.195900  0.328100  0.875500  1.0  0.1499
  N  N113  1  0.840300  0.568900  0.851130  1.0  -0.4218
  N  N114  1  0.712300  0.692400  0.805740  1.0  0.1653
  N  N115  1  0.648000  0.458200  0.625000  1.0  -0.4137
  N  N116  1  0.840100  0.342200  0.644020  1.0  0.2108
  N  N117  1  0.752700  0.581000  0.780410  1.0  -0.384
  N  N118  1  0.899400  0.488100  0.654400  1.0  -0.3975
  N  N119  1  0.659700  0.431100  0.351130  1.0  -0.423
  N  N120  1  0.787700  0.307600  0.305740  1.0  0.1653
  N  N121  1  0.852000  0.541800  0.125000  1.0  -0.4156
  N  N122  1  0.659900  0.657800  0.144020  1.0  0.2113
  N  N123  1  0.747300  0.419000  0.280410  1.0  -0.3846
  N  N124  1  0.600600  0.511900  0.154400  1.0  -0.3955
  N  N125  1  0.159700  0.431100  0.148870  1.0  -0.4226
  N  N126  1  0.287700  0.307600  0.194260  1.0  0.1656
  N  N127  1  0.352000  0.541800  0.375000  1.0  -0.4148
  N  N128  1  0.159900  0.657800  0.355980  1.0  0.2104
  N  N129  1  0.247300  0.419000  0.219590  1.0  -0.3863
  N  N130  1  0.100600  0.511900  0.345600  1.0  -0.3951
  N  N131  1  0.340300  0.568900  0.648870  1.0  -0.4237
  N  N132  1  0.212300  0.692400  0.694260  1.0  0.166
  N  N133  1  0.148000  0.458200  0.875000  1.0  -0.4152
  N  N134  1  0.340100  0.342200  0.855980  1.0  0.2102
  N  N135  1  0.252700  0.581000  0.719590  1.0  -0.3854
  N  N136  1  0.399400  0.488100  0.845600  1.0  -0.3978
  O  O137  1  0.966000  0.120400  0.982690  1.0  -0.9061
  O  O138  1  0.746300  0.989400  0.049710  1.0  -0.7598
  O  O139  1  0.746400  0.849800  0.961440  1.0  -0.8492
  O  O140  1  0.810400  0.258200  0.908870  1.0  -0.7449
  O  O141  1  0.595700  0.060600  0.969900  1.0  -0.6782
  O  O142  1  0.965500  0.267200  0.066860  1.0  -0.8653
  O  O143  1  0.952600  0.002500  0.904650  1.0  -0.8483
  O  O144  1  0.534000  0.879600  0.482690  1.0  -0.904
  O  O145  1  0.753700  0.010600  0.549710  1.0  -0.7595
  O  O146  1  0.753600  0.150200  0.461440  1.0  -0.8507
  O  O147  1  0.689600  0.741800  0.408870  1.0  -0.7445
  O  O148  1  0.904300  0.939400  0.469900  1.0  -0.6776
  O  O149  1  0.534500  0.732800  0.566860  1.0  -0.8619
  O  O150  1  0.547400  0.997500  0.404650  1.0  -0.8471
  O  O151  1  0.034000  0.879600  0.017310  1.0  -0.9047
  O  O152  1  0.253700  0.010600  0.950290  1.0  -0.7588
  O  O153  1  0.253600  0.150200  0.038560  1.0  -0.8508
  O  O154  1  0.189600  0.741800  0.091130  1.0  -0.7448
  O  O155  1  0.404300  0.939400  0.030100  1.0  -0.6782
  O  O156  1  0.034500  0.732800  0.933140  1.0  -0.853
  O  O157  1  0.047400  0.997500  0.095350  1.0  -0.8441
  O  O158  1  0.466000  0.120400  0.517310  1.0  -0.9065
  O  O159  1  0.246300  0.989400  0.450290  1.0  -0.7595
  O  O160  1  0.246400  0.849800  0.538560  1.0  -0.8493
  O  O161  1  0.310400  0.258200  0.591130  1.0  -0.7445
  O  O162  1  0.095700  0.060600  0.530100  1.0  -0.6788
  O  O163  1  0.465500  0.267200  0.433140  1.0  -0.8576
  O  O164  1  0.452600  0.002500  0.595350  1.0  -0.8453
