# generated using pymatgen
data_Co6H17C37(N2O13)2
_symmetry_space_group_name_H-M   'P 1'
_cell_length_a   24.27840000
_cell_length_b   13.36840000
_cell_length_c   15.91030000
_cell_angle_alpha   90.00000000
_cell_angle_beta   90.00000000
_cell_angle_gamma   90.00000000
_symmetry_Int_Tables_number   1
_chemical_formula_structural   Co6H17C37(N2O13)2
_chemical_formula_sum   'Co24 H68 C148 N16 O104'
_cell_volume   5163.90046734
_cell_formula_units_Z   4
loop_
 _symmetry_equiv_pos_site_id
 _symmetry_equiv_pos_as_xyz
  1  'x, y, z'
loop_
 _atom_site_type_symbol
 _atom_site_label
 _atom_site_symmetry_multiplicity
 _atom_site_fract_x
 _atom_site_fract_y
 _atom_site_fract_z
 _atom_site_occupancy
 _atom_site_charge
  Co  Co1  1  0.550920  0.354770  0.389270  1.0  1.0128
  Co  Co2  1  0.387200  0.060750  0.613490  1.0  1.0668
  Co  Co3  1  0.462170  0.245860  0.505050  1.0  1.1107
  Co  Co4  1  0.949080  0.645230  0.389270  1.0  1.0158
  Co  Co5  1  0.112800  0.939250  0.613490  1.0  1.07
  Co  Co6  1  0.037830  0.754140  0.505050  1.0  1.1091
  Co  Co7  1  0.949080  0.854770  0.110730  1.0  1.0143
  Co  Co8  1  0.112800  0.560750  0.886510  1.0  1.0705
  Co  Co9  1  0.037830  0.745860  0.994950  1.0  1.1075
  Co  Co10  1  0.550920  0.145230  0.110730  1.0  1.0133
  Co  Co11  1  0.387200  0.439250  0.886510  1.0  1.0695
  Co  Co12  1  0.462170  0.254140  0.994950  1.0  1.1105
  Co  Co13  1  0.449080  0.645230  0.610730  1.0  1.0145
  Co  Co14  1  0.612800  0.939250  0.386510  1.0  1.0726
  Co  Co15  1  0.537830  0.754140  0.494950  1.0  1.1089
  Co  Co16  1  0.050920  0.354770  0.610730  1.0  1.0116
  Co  Co17  1  0.887200  0.060750  0.386510  1.0  1.0682
  Co  Co18  1  0.962170  0.245860  0.494950  1.0  1.1105
  Co  Co19  1  0.050920  0.145230  0.889270  1.0  1.014
  Co  Co20  1  0.887200  0.439250  0.113490  1.0  1.0679
  Co  Co21  1  0.962170  0.254140  0.005050  1.0  1.1109
  Co  Co22  1  0.449080  0.854770  0.889270  1.0  1.0154
  Co  Co23  1  0.612800  0.560750  0.113490  1.0  1.0685
  Co  Co24  1  0.537830  0.745860  0.005050  1.0  1.1076
  H  H25  1  0.501000  0.121600  0.827800  1.0  0.1184
  H  H26  1  0.518600  0.064000  0.442200  1.0  0.0478
  H  H27  1  0.824900  0.143500  0.857800  1.0  0.1338
  H  H28  1  0.776600  0.094300  0.619800  1.0  0.1274
  H  H29  1  0.938000  0.116900  0.674800  1.0  0.1077
  H  H30  1  0.663000  0.119500  0.878000  1.0  0.1334
  H  H31  1  0.610300  0.130800  0.638400  1.0  0.13
  H  H32  1  0.357100  0.331300  0.672000  1.0  0.0356
  H  H33  1  0.999000  0.878400  0.827800  1.0  0.1172
  H  H34  1  0.981400  0.936000  0.442200  1.0  0.0472
  H  H35  1  0.675100  0.856500  0.857800  1.0  0.1326
  H  H36  1  0.723400  0.905700  0.619800  1.0  0.1277
  H  H37  1  0.562000  0.883100  0.674800  1.0  0.1083
  H  H38  1  0.837000  0.880500  0.878000  1.0  0.1333
  H  H39  1  0.889700  0.869200  0.638400  1.0  0.1298
  H  H40  1  0.142900  0.668700  0.672000  1.0  0.0357
  H  H41  1  0.999000  0.621600  0.672200  1.0  0.1171
  H  H42  1  0.981400  0.564000  0.057800  1.0  0.0476
  H  H43  1  0.675100  0.643500  0.642200  1.0  0.1321
  H  H44  1  0.723400  0.594300  0.880200  1.0  0.1288
  H  H45  1  0.562000  0.616900  0.825200  1.0  0.1083
  H  H46  1  0.837000  0.619500  0.622000  1.0  0.1321
  H  H47  1  0.889700  0.630800  0.861600  1.0  0.1296
  H  H48  1  0.142900  0.831300  0.828000  1.0  0.0365
  H  H49  1  0.501000  0.378400  0.672200  1.0  0.1186
  H  H50  1  0.518600  0.436000  0.057800  1.0  0.0478
  H  H51  1  0.824900  0.356500  0.642200  1.0  0.1319
  H  H52  1  0.776600  0.405700  0.880200  1.0  0.128
  H  H53  1  0.938000  0.383100  0.825200  1.0  0.1076
  H  H54  1  0.663000  0.380500  0.622000  1.0  0.1328
  H  H55  1  0.610300  0.369200  0.861600  1.0  0.1294
  H  H56  1  0.357100  0.168700  0.828000  1.0  0.0363
  H  H57  1  0.499000  0.878400  0.172200  1.0  0.1175
  H  H58  1  0.481400  0.936000  0.557800  1.0  0.0474
  H  H59  1  0.175100  0.856500  0.142200  1.0  0.1319
  H  H60  1  0.223400  0.905700  0.380200  1.0  0.1288
  H  H61  1  0.062000  0.883100  0.325200  1.0  0.1083
  H  H62  1  0.337000  0.880500  0.122000  1.0  0.1319
  H  H63  1  0.389700  0.869200  0.361600  1.0  0.1296
  H  H64  1  0.642900  0.668700  0.328000  1.0  0.0365
  H  H65  1  0.001000  0.121600  0.172200  1.0  0.1181
  H  H66  1  0.018600  0.064000  0.557800  1.0  0.0477
  H  H67  1  0.324900  0.143500  0.142200  1.0  0.1319
  H  H68  1  0.276600  0.094300  0.380200  1.0  0.1281
  H  H69  1  0.438000  0.116900  0.325200  1.0  0.1076
  H  H70  1  0.163000  0.119500  0.122000  1.0  0.133
  H  H71  1  0.110300  0.130800  0.361600  1.0  0.1295
  H  H72  1  0.857100  0.331300  0.328000  1.0  0.0362
  H  H73  1  0.001000  0.378400  0.327800  1.0  0.1182
  H  H74  1  0.018600  0.436000  0.942200  1.0  0.0476
  H  H75  1  0.324900  0.356500  0.357800  1.0  0.1339
  H  H76  1  0.276600  0.405700  0.119800  1.0  0.1272
  H  H77  1  0.438000  0.383100  0.174800  1.0  0.1075
  H  H78  1  0.163000  0.380500  0.378000  1.0  0.1333
  H  H79  1  0.110300  0.369200  0.138400  1.0  0.1298
  H  H80  1  0.857100  0.168700  0.172000  1.0  0.0362
  H  H81  1  0.499000  0.621600  0.327800  1.0  0.1172
  H  H82  1  0.481400  0.564000  0.942200  1.0  0.0476
  H  H83  1  0.175100  0.643500  0.357800  1.0  0.1329
  H  H84  1  0.223400  0.594300  0.119800  1.0  0.1278
  H  H85  1  0.062000  0.616900  0.174800  1.0  0.1082
  H  H86  1  0.337000  0.619500  0.378000  1.0  0.1335
  H  H87  1  0.389700  0.630800  0.138400  1.0  0.1301
  H  H88  1  0.642900  0.831300  0.172000  1.0  0.035
  H  H89  1  0.545800  0.250000  0.250000  1.0  0.0724
  H  H90  1  0.954200  0.750000  0.250000  1.0  0.0723
  H  H91  1  0.454200  0.750000  0.750000  1.0  0.0723
  H  H92  1  0.045800  0.250000  0.750000  1.0  0.0724
  C  C93  1  0.792100  0.121700  0.743100  1.0  0.2123
  C  C94  1  0.537300  0.122800  0.808800  1.0  0.0135
  C  C95  1  0.870800  0.088600  0.541600  1.0  0.688
  C  C96  1  0.542200  0.114000  0.423500  1.0  0.6096
  C  C97  1  0.645600  0.124600  0.753300  1.0  0.1803
  C  C98  1  0.833700  0.134300  0.801500  1.0  -0.0692
  C  C99  1  0.888900  0.133100  0.776400  1.0  -0.1441
  C  C100  1  0.804600  0.105300  0.658600  1.0  0.0042
  C  C101  1  0.901400  0.118300  0.692100  1.0  0.0095
  C  C102  1  0.859500  0.105500  0.633200  1.0  -0.1183
  C  C103  1  0.547900  0.124600  0.723400  1.0  -0.1362
  C  C104  1  0.634300  0.121900  0.839200  1.0  -0.0043
  C  C105  1  0.568400  0.129000  0.958100  1.0  0.6726
  C  C106  1  0.602700  0.127200  0.695600  1.0  -0.0964
  C  C107  1  0.580200  0.122800  0.866400  1.0  -0.1211
  C  C108  1  0.933800  0.149600  0.840300  1.0  0.6962
  C  C109  1  0.500800  0.128300  0.662200  1.0  0.7123
  C  C110  1  0.373600  0.283000  0.638300  1.0  0.7003
  C  C111  1  0.707900  0.878300  0.743100  1.0  0.2116
  C  C112  1  0.962700  0.877200  0.808800  1.0  0.0118
  C  C113  1  0.629200  0.911400  0.541600  1.0  0.6875
  C  C114  1  0.957800  0.886000  0.423500  1.0  0.6095
  C  C115  1  0.854400  0.875400  0.753300  1.0  0.1802
  C  C116  1  0.666300  0.865700  0.801500  1.0  -0.068
  C  C117  1  0.611100  0.866900  0.776400  1.0  -0.145
  C  C118  1  0.695400  0.894700  0.658600  1.0  0.0026
  C  C119  1  0.598600  0.881700  0.692100  1.0  0.0098
  C  C120  1  0.640500  0.894500  0.633200  1.0  -0.1196
  C  C121  1  0.952100  0.875400  0.723400  1.0  -0.1369
  C  C122  1  0.865700  0.878100  0.839200  1.0  -0.0045
  C  C123  1  0.931600  0.871000  0.958100  1.0  0.672
  C  C124  1  0.897300  0.872800  0.695600  1.0  -0.0949
  C  C125  1  0.919800  0.877200  0.866400  1.0  -0.1219
  C  C126  1  0.566200  0.850400  0.840300  1.0  0.6958
  C  C127  1  0.999200  0.871700  0.662200  1.0  0.7118
  C  C128  1  0.126400  0.717000  0.638300  1.0  0.7023
  C  C129  1  0.707900  0.621700  0.756900  1.0  0.2129
  C  C130  1  0.962700  0.622800  0.691200  1.0  0.0119
  C  C131  1  0.629200  0.588600  0.958400  1.0  0.6874
  C  C132  1  0.957800  0.614000  0.076500  1.0  0.6099
  C  C133  1  0.854400  0.624600  0.746700  1.0  0.1801
  C  C134  1  0.666300  0.634300  0.698500  1.0  -0.0688
  C  C135  1  0.611100  0.633100  0.723600  1.0  -0.146
  C  C136  1  0.695400  0.605300  0.841400  1.0  0.005
  C  C137  1  0.598600  0.618300  0.807900  1.0  0.0096
  C  C138  1  0.640500  0.605500  0.866800  1.0  -0.1199
  C  C139  1  0.952100  0.624600  0.776600  1.0  -0.1378
  C  C140  1  0.865700  0.621900  0.660800  1.0  -0.0014
  C  C141  1  0.931600  0.629000  0.541900  1.0  0.672
  C  C142  1  0.897300  0.627200  0.804400  1.0  -0.0958
  C  C143  1  0.919800  0.622800  0.633600  1.0  -0.121
  C  C144  1  0.566200  0.649600  0.659700  1.0  0.697
  C  C145  1  0.999200  0.628300  0.837800  1.0  0.7116
  C  C146  1  0.126400  0.783000  0.861700  1.0  0.7025
  C  C147  1  0.792100  0.378300  0.756900  1.0  0.2132
  C  C148  1  0.537300  0.377200  0.691200  1.0  0.0133
  C  C149  1  0.870800  0.411400  0.958400  1.0  0.6865
  C  C150  1  0.542200  0.386000  0.076500  1.0  0.6089
  C  C151  1  0.645600  0.375400  0.746700  1.0  0.1797
  C  C152  1  0.833700  0.365700  0.698500  1.0  -0.0681
  C  C153  1  0.888900  0.366900  0.723600  1.0  -0.1448
  C  C154  1  0.804600  0.394700  0.841400  1.0  0.0047
  C  C155  1  0.901400  0.381700  0.807900  1.0  0.0094
  C  C156  1  0.859500  0.394500  0.866800  1.0  -0.1183
  C  C157  1  0.547900  0.375400  0.776600  1.0  -0.1364
  C  C158  1  0.634300  0.378100  0.660800  1.0  -0.0045
  C  C159  1  0.568400  0.371000  0.541900  1.0  0.6707
  C  C160  1  0.602700  0.372800  0.804400  1.0  -0.0952
  C  C161  1  0.580200  0.377200  0.633600  1.0  -0.1201
  C  C162  1  0.933800  0.350400  0.659700  1.0  0.697
  C  C163  1  0.500800  0.371700  0.837800  1.0  0.7127
  C  C164  1  0.373600  0.217000  0.861700  1.0  0.7004
  C  C165  1  0.207900  0.878300  0.256900  1.0  0.2128
  C  C166  1  0.462700  0.877200  0.191200  1.0  0.0115
  C  C167  1  0.129200  0.911400  0.458400  1.0  0.6877
  C  C168  1  0.457800  0.886000  0.576500  1.0  0.6095
  C  C169  1  0.354400  0.875400  0.246700  1.0  0.18
  C  C170  1  0.166300  0.865700  0.198500  1.0  -0.0692
  C  C171  1  0.111100  0.866900  0.223600  1.0  -0.1455
  C  C172  1  0.195400  0.894700  0.341400  1.0  0.0049
  C  C173  1  0.098600  0.881700  0.307900  1.0  0.0096
  C  C174  1  0.140500  0.894500  0.366800  1.0  -0.1199
  C  C175  1  0.452100  0.875400  0.276600  1.0  -0.1377
  C  C176  1  0.365700  0.878100  0.160800  1.0  -0.0015
  C  C177  1  0.431600  0.871000  0.041900  1.0  0.6725
  C  C178  1  0.397300  0.872800  0.304400  1.0  -0.0959
  C  C179  1  0.419800  0.877200  0.133600  1.0  -0.1205
  C  C180  1  0.066200  0.850400  0.159700  1.0  0.6976
  C  C181  1  0.499200  0.871700  0.337800  1.0  0.7118
  C  C182  1  0.626400  0.717000  0.361700  1.0  0.7023
  C  C183  1  0.292100  0.121700  0.256900  1.0  0.2134
  C  C184  1  0.037300  0.122800  0.191200  1.0  0.0135
  C  C185  1  0.370800  0.088600  0.458400  1.0  0.6862
  C  C186  1  0.042200  0.114000  0.576500  1.0  0.6092
  C  C187  1  0.145600  0.124600  0.246700  1.0  0.1798
  C  C188  1  0.333700  0.134300  0.198500  1.0  -0.0674
  C  C189  1  0.388900  0.133100  0.223600  1.0  -0.1452
  C  C190  1  0.304600  0.105300  0.341400  1.0  0.005
  C  C191  1  0.401400  0.118300  0.307900  1.0  0.0093
  C  C192  1  0.359500  0.105500  0.366800  1.0  -0.1183
  C  C193  1  0.047900  0.124600  0.276600  1.0  -0.1365
  C  C194  1  0.134300  0.121900  0.160800  1.0  -0.0042
  C  C195  1  0.068400  0.129000  0.041900  1.0  0.6712
  C  C196  1  0.102700  0.127200  0.304400  1.0  -0.0953
  C  C197  1  0.080200  0.122800  0.133600  1.0  -0.1207
  C  C198  1  0.433800  0.149600  0.159700  1.0  0.6964
  C  C199  1  0.000800  0.128300  0.337800  1.0  0.7124
  C  C200  1  0.873600  0.283000  0.361700  1.0  0.7007
  C  C201  1  0.292100  0.378300  0.243100  1.0  0.2123
  C  C202  1  0.037300  0.377200  0.308800  1.0  0.0134
  C  C203  1  0.370800  0.411400  0.041600  1.0  0.688
  C  C204  1  0.042200  0.386000  0.923500  1.0  0.6093
  C  C205  1  0.145600  0.375400  0.253300  1.0  0.1802
  C  C206  1  0.333700  0.365700  0.301500  1.0  -0.0689
  C  C207  1  0.388900  0.366900  0.276400  1.0  -0.1442
  C  C208  1  0.304600  0.394700  0.158600  1.0  0.0037
  C  C209  1  0.401400  0.381700  0.192100  1.0  0.0096
  C  C210  1  0.359500  0.394500  0.133200  1.0  -0.1183
  C  C211  1  0.047900  0.375400  0.223400  1.0  -0.1361
  C  C212  1  0.134300  0.378100  0.339200  1.0  -0.0045
  C  C213  1  0.068400  0.371000  0.458100  1.0  0.6712
  C  C214  1  0.102700  0.372800  0.195600  1.0  -0.0967
  C  C215  1  0.080200  0.377200  0.366400  1.0  -0.1216
  C  C216  1  0.433800  0.350400  0.340300  1.0  0.6964
  C  C217  1  0.000800  0.371700  0.162200  1.0  0.7127
  C  C218  1  0.873600  0.217000  0.138300  1.0  0.7
  C  C219  1  0.207900  0.621700  0.243100  1.0  0.2116
  C  C220  1  0.462700  0.622800  0.308800  1.0  0.012
  C  C221  1  0.129200  0.588600  0.041600  1.0  0.6876
  C  C222  1  0.457800  0.614000  0.923500  1.0  0.6098
  C  C223  1  0.354400  0.624600  0.253300  1.0  0.1803
  C  C224  1  0.166300  0.634300  0.301500  1.0  -0.0683
  C  C225  1  0.111100  0.633100  0.276400  1.0  -0.1451
  C  C226  1  0.195400  0.605300  0.158600  1.0  0.0029
  C  C227  1  0.098600  0.618300  0.192100  1.0  0.0097
  C  C228  1  0.140500  0.605500  0.133200  1.0  -0.1196
  C  C229  1  0.452100  0.624600  0.223400  1.0  -0.137
  C  C230  1  0.365700  0.621900  0.339200  1.0  -0.0045
  C  C231  1  0.431600  0.629000  0.458100  1.0  0.6729
  C  C232  1  0.397300  0.627200  0.195600  1.0  -0.0944
  C  C233  1  0.419800  0.622800  0.366400  1.0  -0.1213
  C  C234  1  0.066200  0.649600  0.340300  1.0  0.6959
  C  C235  1  0.499200  0.628300  0.162200  1.0  0.7115
  C  C236  1  0.626400  0.783000  0.138300  1.0  0.7025
  C  C237  1  0.584100  0.250000  0.250000  1.0  0.652
  C  C238  1  0.915900  0.750000  0.250000  1.0  0.6492
  C  C239  1  0.415900  0.750000  0.750000  1.0  0.6492
  C  C240  1  0.084100  0.250000  0.750000  1.0  0.652
  N  N241  1  0.737360  0.123500  0.775200  1.0  -0.1823
  N  N242  1  0.700260  0.125900  0.720100  1.0  -0.1955
  N  N243  1  0.762640  0.876500  0.775200  1.0  -0.1827
  N  N244  1  0.799740  0.874100  0.720100  1.0  -0.1954
  N  N245  1  0.762640  0.623500  0.724800  1.0  -0.1783
  N  N246  1  0.799740  0.625900  0.779900  1.0  -0.1974
  N  N247  1  0.737360  0.376500  0.724800  1.0  -0.1782
  N  N248  1  0.700260  0.374100  0.779900  1.0  -0.1968
  N  N249  1  0.262640  0.876500  0.224800  1.0  -0.1783
  N  N250  1  0.299740  0.874100  0.279900  1.0  -0.1967
  N  N251  1  0.237360  0.123500  0.224800  1.0  -0.1782
  N  N252  1  0.200260  0.125900  0.279900  1.0  -0.1973
  N  N253  1  0.237360  0.376500  0.275200  1.0  -0.1824
  N  N254  1  0.200260  0.374100  0.220100  1.0  -0.1953
  N  N255  1  0.262640  0.623500  0.275200  1.0  -0.1826
  N  N256  1  0.299740  0.625900  0.220100  1.0  -0.1957
  O  O257  1  0.919190  0.179300  0.912300  1.0  -0.5996
  O  O258  1  0.834650  0.051900  0.495600  1.0  -0.562
  O  O259  1  0.509690  0.169700  0.592700  1.0  -0.5854
  O  O260  1  0.917940  0.110300  0.510600  1.0  -0.6434
  O  O261  1  0.606470  0.301200  0.305100  1.0  -0.5982
  O  O262  1  0.413340  0.312600  0.593600  1.0  -0.59
  O  O263  1  0.518700  0.126500  0.984600  1.0  -0.6492
  O  O264  1  0.523620  0.203100  0.421100  1.0  -0.6796
  O  O265  1  0.589380  0.089200  0.402800  1.0  -0.5823
  O  O266  1  0.455970  0.088400  0.685400  1.0  -0.5907
  O  O267  1  0.982750  0.133200  0.817200  1.0  -0.5778
  O  O268  1  0.607370  0.137300  0.009700  1.0  -0.5526
  O  O269  1  0.353810  0.197600  0.642900  1.0  -0.6026
  O  O270  1  0.580810  0.820700  0.912300  1.0  -0.5992
  O  O271  1  0.665350  0.948100  0.495600  1.0  -0.5614
  O  O272  1  0.990310  0.830300  0.592700  1.0  -0.5857
  O  O273  1  0.582060  0.889700  0.510600  1.0  -0.6425
  O  O274  1  0.893530  0.698800  0.305100  1.0  -0.5996
  O  O275  1  0.086660  0.687400  0.593600  1.0  -0.5917
  O  O276  1  0.981300  0.873500  0.984600  1.0  -0.6532
  O  O277  1  0.976380  0.796900  0.421100  1.0  -0.6793
  O  O278  1  0.910620  0.910800  0.402800  1.0  -0.5838
  O  O279  1  0.044030  0.911600  0.685400  1.0  -0.5921
  O  O280  1  0.517250  0.866800  0.817200  1.0  -0.5778
  O  O281  1  0.892630  0.862700  0.009700  1.0  -0.5554
  O  O282  1  0.146190  0.802400  0.642900  1.0  -0.5997
  O  O283  1  0.580810  0.679300  0.587700  1.0  -0.601
  O  O284  1  0.665350  0.551900  0.004400  1.0  -0.562
  O  O285  1  0.990310  0.669700  0.907300  1.0  -0.5869
  O  O286  1  0.582060  0.610300  0.989400  1.0  -0.6418
  O  O287  1  0.893530  0.801200  0.194900  1.0  -0.6003
  O  O288  1  0.086660  0.812600  0.906400  1.0  -0.5914
  O  O289  1  0.981300  0.626500  0.515400  1.0  -0.6514
  O  O290  1  0.976380  0.703100  0.078900  1.0  -0.6801
  O  O291  1  0.910620  0.589200  0.097200  1.0  -0.5834
  O  O292  1  0.044030  0.588400  0.814600  1.0  -0.5923
  O  O293  1  0.517250  0.633200  0.682800  1.0  -0.5786
  O  O294  1  0.892630  0.637300  0.490300  1.0  -0.5532
  O  O295  1  0.146190  0.697600  0.857100  1.0  -0.6004
  O  O296  1  0.919190  0.320700  0.587700  1.0  -0.601
  O  O297  1  0.834650  0.448100  0.004400  1.0  -0.5625
  O  O298  1  0.509690  0.330300  0.907300  1.0  -0.5857
  O  O299  1  0.917940  0.389700  0.989400  1.0  -0.6428
  O  O300  1  0.606470  0.198800  0.194900  1.0  -0.5986
  O  O301  1  0.413340  0.187400  0.906400  1.0  -0.5892
  O  O302  1  0.518700  0.373500  0.515400  1.0  -0.6494
  O  O303  1  0.523620  0.296900  0.078900  1.0  -0.6796
  O  O304  1  0.589380  0.410800  0.097200  1.0  -0.5822
  O  O305  1  0.455970  0.411600  0.814600  1.0  -0.5904
  O  O306  1  0.982750  0.366800  0.682800  1.0  -0.5788
  O  O307  1  0.607370  0.362700  0.490300  1.0  -0.553
  O  O308  1  0.353810  0.302400  0.857100  1.0  -0.6038
  O  O309  1  0.080810  0.820700  0.087700  1.0  -0.6014
  O  O310  1  0.165350  0.948100  0.504400  1.0  -0.5617
  O  O311  1  0.490310  0.830300  0.407300  1.0  -0.5864
  O  O312  1  0.082060  0.889700  0.489400  1.0  -0.6418
  O  O313  1  0.393530  0.698800  0.694900  1.0  -0.6004
  O  O314  1  0.586660  0.687400  0.406400  1.0  -0.592
  O  O315  1  0.481300  0.873500  0.015400  1.0  -0.6528
  O  O316  1  0.476380  0.796900  0.578900  1.0  -0.6791
  O  O317  1  0.410620  0.910800  0.597200  1.0  -0.583
  O  O318  1  0.544030  0.911600  0.314600  1.0  -0.5909
  O  O319  1  0.017250  0.866800  0.182800  1.0  -0.5781
  O  O320  1  0.392630  0.862700  0.990300  1.0  -0.5554
  O  O321  1  0.646190  0.802400  0.357100  1.0  -0.5984
  O  O322  1  0.419190  0.179300  0.087700  1.0  -0.6009
  O  O323  1  0.334650  0.051900  0.504400  1.0  -0.5625
  O  O324  1  0.009690  0.169700  0.407300  1.0  -0.5862
  O  O325  1  0.417940  0.110300  0.489400  1.0  -0.6428
  O  O326  1  0.106470  0.301200  0.694900  1.0  -0.598
  O  O327  1  0.913340  0.312600  0.406400  1.0  -0.5896
  O  O328  1  0.018700  0.126500  0.015400  1.0  -0.6501
  O  O329  1  0.023620  0.203100  0.578900  1.0  -0.6799
  O  O330  1  0.089380  0.089200  0.597200  1.0  -0.5821
  O  O331  1  0.955970  0.088400  0.314600  1.0  -0.5908
  O  O332  1  0.482750  0.133200  0.182800  1.0  -0.5787
  O  O333  1  0.107370  0.137300  0.990300  1.0  -0.5538
  O  O334  1  0.853810  0.197600  0.357100  1.0  -0.601
  O  O335  1  0.419190  0.320700  0.412300  1.0  -0.5996
  O  O336  1  0.334650  0.448100  0.995600  1.0  -0.562
  O  O337  1  0.009690  0.330300  0.092700  1.0  -0.5853
  O  O338  1  0.417940  0.389700  0.010600  1.0  -0.6434
  O  O339  1  0.106470  0.198800  0.805100  1.0  -0.5982
  O  O340  1  0.913340  0.187400  0.093600  1.0  -0.59
  O  O341  1  0.018700  0.373500  0.484600  1.0  -0.6497
  O  O342  1  0.023620  0.296900  0.921100  1.0  -0.6798
  O  O343  1  0.089380  0.410800  0.902800  1.0  -0.583
  O  O344  1  0.955970  0.411600  0.185400  1.0  -0.591
  O  O345  1  0.482750  0.366800  0.317200  1.0  -0.5781
  O  O346  1  0.107370  0.362700  0.509700  1.0  -0.5518
  O  O347  1  0.853810  0.302400  0.142900  1.0  -0.6018
  O  O348  1  0.080810  0.679300  0.412300  1.0  -0.5992
  O  O349  1  0.165350  0.551900  0.995600  1.0  -0.5617
  O  O350  1  0.490310  0.669700  0.092700  1.0  -0.5859
  O  O351  1  0.082060  0.610300  0.010600  1.0  -0.6424
  O  O352  1  0.393530  0.801200  0.805100  1.0  -0.6
  O  O353  1  0.586660  0.812600  0.093600  1.0  -0.5908
  O  O354  1  0.481300  0.626500  0.484600  1.0  -0.6513
  O  O355  1  0.476380  0.703100  0.921100  1.0  -0.68
  O  O356  1  0.410620  0.589200  0.902800  1.0  -0.584
  O  O357  1  0.544030  0.588400  0.185400  1.0  -0.5932
  O  O358  1  0.017250  0.633200  0.317200  1.0  -0.578
  O  O359  1  0.392630  0.637300  0.509700  1.0  -0.553
  O  O360  1  0.646190  0.697600  0.142900  1.0  -0.5991
