# generated using pymatgen
data_ZnH3C8NO4
_symmetry_space_group_name_H-M   'P 1'
_cell_length_a   21.76720000
_cell_length_b   19.63300000
_cell_length_c   29.40280000
_cell_angle_alpha   90.00000000
_cell_angle_beta   99.47800000
_cell_angle_gamma   90.00000000
_symmetry_Int_Tables_number   1
_chemical_formula_structural   ZnH3C8NO4
_chemical_formula_sum   'Zn24 H72 C192 N24 O96'
_cell_volume   12393.91432666
_cell_formula_units_Z   24
loop_
 _symmetry_equiv_pos_site_id
 _symmetry_equiv_pos_as_xyz
  1  'x, y, z'
loop_
 _atom_site_type_symbol
 _atom_site_label
 _atom_site_symmetry_multiplicity
 _atom_site_fract_x
 _atom_site_fract_y
 _atom_site_fract_z
 _atom_site_occupancy
 _atom_site_charge
  Zn  Zn1  1  0.691480  0.257520  0.518080  1.0  1.1005
  Zn  Zn2  1  0.807500  0.193180  0.495330  1.0  1.1165
  Zn  Zn3  1  0.523730  0.474810  0.204860  1.0  1.1275
  Zn  Zn4  1  0.191480  0.757520  0.018080  1.0  1.1005
  Zn  Zn5  1  0.307500  0.693180  0.995330  1.0  1.1165
  Zn  Zn6  1  0.023730  0.974810  0.704860  1.0  1.1275
  Zn  Zn7  1  0.308520  0.257520  0.981920  1.0  1.0994
  Zn  Zn8  1  0.192500  0.193180  0.004670  1.0  1.1147
  Zn  Zn9  1  0.476270  0.474810  0.295140  1.0  1.125
  Zn  Zn10  1  0.808520  0.757520  0.481920  1.0  1.0994
  Zn  Zn11  1  0.692500  0.693180  0.504670  1.0  1.1147
  Zn  Zn12  1  0.976270  0.974810  0.795140  1.0  1.125
  Zn  Zn13  1  0.308520  0.742480  0.481920  1.0  1.1002
  Zn  Zn14  1  0.192500  0.806820  0.504670  1.0  1.1139
  Zn  Zn15  1  0.476270  0.525190  0.795140  1.0  1.125
  Zn  Zn16  1  0.808520  0.242480  0.981920  1.0  1.1002
  Zn  Zn17  1  0.692500  0.306820  0.004670  1.0  1.1139
  Zn  Zn18  1  0.976270  0.025190  0.295140  1.0  1.125
  Zn  Zn19  1  0.691480  0.742480  0.018080  1.0  1.0994
  Zn  Zn20  1  0.807500  0.806820  0.995330  1.0  1.1172
  Zn  Zn21  1  0.523730  0.525190  0.704860  1.0  1.1275
  Zn  Zn22  1  0.191480  0.242480  0.518080  1.0  1.0994
  Zn  Zn23  1  0.307500  0.306820  0.495330  1.0  1.1172
  Zn  Zn24  1  0.023730  0.025190  0.204860  1.0  1.1275
  H  H25  1  0.745500  0.973600  0.487800  1.0  0.1093
  H  H26  1  0.586300  0.874000  0.495000  1.0  0.1207
  H  H27  1  0.591000  0.078000  0.501900  1.0  0.1079
  H  H28  1  0.756400  0.220400  0.354300  1.0  0.1205
  H  H29  1  0.656200  0.323600  0.249900  1.0  0.1104
  H  H30  1  0.608100  0.329600  0.375700  1.0  0.1089
  H  H31  1  0.750000  0.248200  0.664400  1.0  0.1152
  H  H32  1  0.854100  0.140300  0.765000  1.0  0.1252
  H  H33  1  0.879900  0.118400  0.633800  1.0  0.1077
  H  H34  1  0.245500  0.473600  0.987800  1.0  0.1093
  H  H35  1  0.086300  0.374000  0.995000  1.0  0.1207
  H  H36  1  0.091000  0.578000  0.001900  1.0  0.1079
  H  H37  1  0.256400  0.720400  0.854300  1.0  0.1205
  H  H38  1  0.156200  0.823600  0.749900  1.0  0.1104
  H  H39  1  0.108100  0.829600  0.875700  1.0  0.1089
  H  H40  1  0.250000  0.748200  0.164400  1.0  0.1152
  H  H41  1  0.354100  0.640300  0.265000  1.0  0.1252
  H  H42  1  0.379900  0.618400  0.133800  1.0  0.1077
  H  H43  1  0.254500  0.973600  0.012200  1.0  0.1093
  H  H44  1  0.413700  0.874000  0.005000  1.0  0.1209
  H  H45  1  0.409000  0.078000  0.998100  1.0  0.1081
  H  H46  1  0.243600  0.220400  0.145700  1.0  0.121
  H  H47  1  0.343800  0.323600  0.250100  1.0  0.1102
  H  H48  1  0.391900  0.329600  0.124300  1.0  0.1085
  H  H49  1  0.250000  0.248200  0.835600  1.0  0.115
  H  H50  1  0.145900  0.140300  0.735000  1.0  0.1254
  H  H51  1  0.120100  0.118400  0.866200  1.0  0.1077
  H  H52  1  0.754500  0.473600  0.512200  1.0  0.1093
  H  H53  1  0.913700  0.374000  0.505000  1.0  0.1209
  H  H54  1  0.909000  0.578000  0.498100  1.0  0.1081
  H  H55  1  0.743600  0.720400  0.645700  1.0  0.121
  H  H56  1  0.843800  0.823600  0.750100  1.0  0.1102
  H  H57  1  0.891900  0.829600  0.624300  1.0  0.1085
  H  H58  1  0.750000  0.748200  0.335600  1.0  0.115
  H  H59  1  0.645900  0.640300  0.235000  1.0  0.1254
  H  H60  1  0.620100  0.618400  0.366200  1.0  0.1077
  H  H61  1  0.254500  0.026400  0.512200  1.0  0.1093
  H  H62  1  0.413700  0.126000  0.505000  1.0  0.1209
  H  H63  1  0.409000  0.922000  0.498100  1.0  0.1083
  H  H64  1  0.243600  0.779600  0.645700  1.0  0.1218
  H  H65  1  0.343800  0.676400  0.750100  1.0  0.1104
  H  H66  1  0.391900  0.670400  0.624300  1.0  0.1083
  H  H67  1  0.250000  0.751800  0.335600  1.0  0.1151
  H  H68  1  0.145900  0.859700  0.235000  1.0  0.1254
  H  H69  1  0.120100  0.881600  0.366200  1.0  0.1078
  H  H70  1  0.754500  0.526400  0.012200  1.0  0.1093
  H  H71  1  0.913700  0.626000  0.005000  1.0  0.1209
  H  H72  1  0.909000  0.422000  0.998100  1.0  0.1083
  H  H73  1  0.743600  0.279600  0.145700  1.0  0.1218
  H  H74  1  0.843800  0.176400  0.250100  1.0  0.1104
  H  H75  1  0.891900  0.170400  0.124300  1.0  0.1083
  H  H76  1  0.750000  0.251800  0.835600  1.0  0.1151
  H  H77  1  0.645900  0.359700  0.735000  1.0  0.1254
  H  H78  1  0.620100  0.381600  0.866200  1.0  0.1078
  H  H79  1  0.745500  0.026400  0.987800  1.0  0.1094
  H  H80  1  0.586300  0.126000  0.995000  1.0  0.1209
  H  H81  1  0.591000  0.922000  0.001900  1.0  0.1078
  H  H82  1  0.756400  0.779600  0.854300  1.0  0.1207
  H  H83  1  0.656200  0.676400  0.749900  1.0  0.1106
  H  H84  1  0.608100  0.670400  0.875700  1.0  0.1091
  H  H85  1  0.750000  0.751800  0.164400  1.0  0.1146
  H  H86  1  0.854100  0.859700  0.265000  1.0  0.1251
  H  H87  1  0.879900  0.881600  0.133800  1.0  0.1076
  H  H88  1  0.245500  0.526400  0.487800  1.0  0.1094
  H  H89  1  0.086300  0.626000  0.495000  1.0  0.1209
  H  H90  1  0.091000  0.422000  0.501900  1.0  0.1078
  H  H91  1  0.256400  0.279600  0.354300  1.0  0.1207
  H  H92  1  0.156200  0.176400  0.249900  1.0  0.1106
  H  H93  1  0.108100  0.170400  0.375700  1.0  0.1091
  H  H94  1  0.250000  0.251800  0.664400  1.0  0.1146
  H  H95  1  0.354100  0.359700  0.765000  1.0  0.1251
  H  H96  1  0.379900  0.381600  0.633800  1.0  0.1076
  C  C97  1  0.708640  0.102660  0.497560  1.0  0.7353
  C  C98  1  0.673950  0.036240  0.495650  1.0  -0.1641
  C  C99  1  0.703710  0.974200  0.491000  1.0  0.0172
  C  C100  1  0.671240  0.913420  0.491150  1.0  -0.1648
  C  C101  1  0.608210  0.914600  0.494670  1.0  -0.054
  C  C102  1  0.578070  0.976560  0.497650  1.0  0.0951
  C  C103  1  0.611040  0.036790  0.498880  1.0  -0.0007
  C  C104  1  0.699530  0.254450  0.423570  1.0  0.7092
  C  C105  1  0.684530  0.272620  0.373390  1.0  -0.1756
  C  C106  1  0.723100  0.248900  0.343340  1.0  -0.072
  C  C107  1  0.712210  0.267400  0.297400  1.0  0.1117
  C  C108  1  0.663010  0.310700  0.280700  1.0  0.0233
  C  C109  1  0.624430  0.334360  0.310050  1.0  -0.1636
  C  C110  1  0.634810  0.314550  0.356230  1.0  0.0288
  C  C111  1  0.573110  0.384040  0.291660  1.0  0.7313
  C  C112  1  0.792390  0.201340  0.591080  1.0  0.6994
  C  C113  1  0.811680  0.185250  0.641450  1.0  -0.1535
  C  C114  1  0.781420  0.216600  0.673700  1.0  0.0074
  C  C115  1  0.798530  0.200300  0.720230  1.0  0.1049
  C  C116  1  0.843910  0.151900  0.734000  1.0  -0.0539
  C  C117  1  0.874400  0.120240  0.701610  1.0  -0.1686
  C  C118  1  0.858720  0.138120  0.655530  1.0  0.0303
  C  C119  1  0.922290  0.066490  0.716890  1.0  0.6976
  C  C120  1  0.703260  0.845810  0.488990  1.0  0.7055
  C  C121  1  0.208640  0.602660  0.997560  1.0  0.7353
  C  C122  1  0.173950  0.536240  0.995650  1.0  -0.1641
  C  C123  1  0.203710  0.474200  0.991000  1.0  0.0172
  C  C124  1  0.171240  0.413420  0.991150  1.0  -0.1648
  C  C125  1  0.108210  0.414600  0.994670  1.0  -0.054
  C  C126  1  0.078070  0.476560  0.997650  1.0  0.0951
  C  C127  1  0.111040  0.536790  0.998880  1.0  -0.0007
  C  C128  1  0.199530  0.754450  0.923570  1.0  0.7092
  C  C129  1  0.184530  0.772620  0.873390  1.0  -0.1756
  C  C130  1  0.223100  0.748900  0.843340  1.0  -0.072
  C  C131  1  0.212210  0.767400  0.797400  1.0  0.1117
  C  C132  1  0.163010  0.810700  0.780700  1.0  0.0233
  C  C133  1  0.124430  0.834360  0.810050  1.0  -0.1636
  C  C134  1  0.134810  0.814550  0.856230  1.0  0.0288
  C  C135  1  0.073110  0.884040  0.791660  1.0  0.7313
  C  C136  1  0.292390  0.701340  0.091080  1.0  0.6994
  C  C137  1  0.311680  0.685250  0.141450  1.0  -0.1535
  C  C138  1  0.281420  0.716600  0.173700  1.0  0.0074
  C  C139  1  0.298530  0.700300  0.220230  1.0  0.1049
  C  C140  1  0.343910  0.651900  0.234000  1.0  -0.0539
  C  C141  1  0.374400  0.620240  0.201610  1.0  -0.1686
  C  C142  1  0.358720  0.638120  0.155530  1.0  0.0303
  C  C143  1  0.422290  0.566490  0.216890  1.0  0.6976
  C  C144  1  0.203260  0.345810  0.988990  1.0  0.7055
  C  C145  1  0.291360  0.102660  0.002440  1.0  0.735
  C  C146  1  0.326050  0.036240  0.004350  1.0  -0.1645
  C  C147  1  0.296290  0.974200  0.009000  1.0  0.0158
  C  C148  1  0.328760  0.913420  0.008850  1.0  -0.1644
  C  C149  1  0.391790  0.914600  0.005330  1.0  -0.0538
  C  C150  1  0.421930  0.976560  0.002350  1.0  0.096
  C  C151  1  0.388960  0.036790  0.001120  1.0  -0.0007
  C  C152  1  0.300470  0.254450  0.076430  1.0  0.7086
  C  C153  1  0.315470  0.272620  0.126610  1.0  -0.1759
  C  C154  1  0.276900  0.248900  0.156660  1.0  -0.0729
  C  C155  1  0.287790  0.267400  0.202600  1.0  0.1118
  C  C156  1  0.336990  0.310700  0.219300  1.0  0.0234
  C  C157  1  0.375570  0.334360  0.189950  1.0  -0.1635
  C  C158  1  0.365190  0.314550  0.143770  1.0  0.0291
  C  C159  1  0.426890  0.384040  0.208340  1.0  0.7322
  C  C160  1  0.207610  0.201340  0.908920  1.0  0.6995
  C  C161  1  0.188320  0.185250  0.858550  1.0  -0.1536
  C  C162  1  0.218580  0.216600  0.826300  1.0  0.0068
  C  C163  1  0.201470  0.200300  0.779770  1.0  0.1051
  C  C164  1  0.156090  0.151900  0.766000  1.0  -0.0564
  C  C165  1  0.125600  0.120240  0.798390  1.0  -0.1686
  C  C166  1  0.141280  0.138120  0.844470  1.0  0.0298
  C  C167  1  0.077710  0.066490  0.783110  1.0  0.6978
  C  C168  1  0.296740  0.845810  0.011010  1.0  0.7058
  C  C169  1  0.791360  0.602660  0.502440  1.0  0.735
  C  C170  1  0.826050  0.536240  0.504350  1.0  -0.1645
  C  C171  1  0.796290  0.474200  0.509000  1.0  0.0158
  C  C172  1  0.828760  0.413420  0.508850  1.0  -0.1644
  C  C173  1  0.891790  0.414600  0.505330  1.0  -0.0538
  C  C174  1  0.921930  0.476560  0.502350  1.0  0.096
  C  C175  1  0.888960  0.536790  0.501120  1.0  -0.0007
  C  C176  1  0.800470  0.754450  0.576430  1.0  0.7086
  C  C177  1  0.815470  0.772620  0.626610  1.0  -0.1759
  C  C178  1  0.776900  0.748900  0.656660  1.0  -0.0729
  C  C179  1  0.787790  0.767400  0.702600  1.0  0.1118
  C  C180  1  0.836990  0.810700  0.719300  1.0  0.0234
  C  C181  1  0.875570  0.834360  0.689950  1.0  -0.1635
  C  C182  1  0.865190  0.814550  0.643770  1.0  0.0291
  C  C183  1  0.926890  0.884040  0.708340  1.0  0.7322
  C  C184  1  0.707610  0.701340  0.408920  1.0  0.6995
  C  C185  1  0.688320  0.685250  0.358550  1.0  -0.1536
  C  C186  1  0.718580  0.716600  0.326300  1.0  0.0068
  C  C187  1  0.701470  0.700300  0.279770  1.0  0.1051
  C  C188  1  0.656090  0.651900  0.266000  1.0  -0.0564
  C  C189  1  0.625600  0.620240  0.298390  1.0  -0.1686
  C  C190  1  0.641280  0.638120  0.344470  1.0  0.0298
  C  C191  1  0.577710  0.566490  0.283110  1.0  0.6978
  C  C192  1  0.796740  0.345810  0.511010  1.0  0.7058
  C  C193  1  0.291360  0.897340  0.502440  1.0  0.7346
  C  C194  1  0.326050  0.963760  0.504350  1.0  -0.1647
  C  C195  1  0.296290  0.025800  0.509000  1.0  0.0159
  C  C196  1  0.328760  0.086580  0.508850  1.0  -0.1643
  C  C197  1  0.391790  0.085400  0.505330  1.0  -0.0541
  C  C198  1  0.421930  0.023440  0.502350  1.0  0.0951
  C  C199  1  0.388960  0.963210  0.501120  1.0  -0.0006
  C  C200  1  0.300470  0.745550  0.576430  1.0  0.7088
  C  C201  1  0.315470  0.727380  0.626610  1.0  -0.1757
  C  C202  1  0.276900  0.751100  0.656660  1.0  -0.0732
  C  C203  1  0.287790  0.732600  0.702600  1.0  0.1121
  C  C204  1  0.336990  0.689300  0.719300  1.0  0.0239
  C  C205  1  0.375570  0.665640  0.689950  1.0  -0.1634
  C  C206  1  0.365190  0.685450  0.643770  1.0  0.029
  C  C207  1  0.426890  0.615960  0.708340  1.0  0.7319
  C  C208  1  0.207610  0.798660  0.408920  1.0  0.6992
  C  C209  1  0.188320  0.814750  0.358550  1.0  -0.1534
  C  C210  1  0.218580  0.783400  0.326300  1.0  0.0069
  C  C211  1  0.201470  0.799700  0.279770  1.0  0.1048
  C  C212  1  0.156090  0.848100  0.266000  1.0  -0.0571
  C  C213  1  0.125600  0.879760  0.298390  1.0  -0.1684
  C  C214  1  0.141280  0.861880  0.344470  1.0  0.0296
  C  C215  1  0.077710  0.933510  0.283110  1.0  0.698
  C  C216  1  0.296740  0.154190  0.511010  1.0  0.7058
  C  C217  1  0.791360  0.397340  0.002440  1.0  0.7346
  C  C218  1  0.826050  0.463760  0.004350  1.0  -0.1647
  C  C219  1  0.796290  0.525800  0.009000  1.0  0.0159
  C  C220  1  0.828760  0.586580  0.008850  1.0  -0.1643
  C  C221  1  0.891790  0.585400  0.005330  1.0  -0.0541
  C  C222  1  0.921930  0.523440  0.002350  1.0  0.0951
  C  C223  1  0.888960  0.463210  0.001120  1.0  -0.0006
  C  C224  1  0.800470  0.245550  0.076430  1.0  0.7088
  C  C225  1  0.815470  0.227380  0.126610  1.0  -0.1757
  C  C226  1  0.776900  0.251100  0.156660  1.0  -0.0732
  C  C227  1  0.787790  0.232600  0.202600  1.0  0.1121
  C  C228  1  0.836990  0.189300  0.219300  1.0  0.0239
  C  C229  1  0.875570  0.165640  0.189950  1.0  -0.1634
  C  C230  1  0.865190  0.185450  0.143770  1.0  0.029
  C  C231  1  0.926890  0.115960  0.208340  1.0  0.7319
  C  C232  1  0.707610  0.298660  0.908920  1.0  0.6992
  C  C233  1  0.688320  0.314750  0.858550  1.0  -0.1534
  C  C234  1  0.718580  0.283400  0.826300  1.0  0.0069
  C  C235  1  0.701470  0.299700  0.779770  1.0  0.1048
  C  C236  1  0.656090  0.348100  0.766000  1.0  -0.0571
  C  C237  1  0.625600  0.379760  0.798390  1.0  -0.1684
  C  C238  1  0.641280  0.361880  0.844470  1.0  0.0296
  C  C239  1  0.577710  0.433510  0.783110  1.0  0.698
  C  C240  1  0.796740  0.654190  0.011010  1.0  0.7058
  C  C241  1  0.708640  0.897340  0.997560  1.0  0.7349
  C  C242  1  0.673950  0.963760  0.995650  1.0  -0.1642
  C  C243  1  0.703710  0.025800  0.991000  1.0  0.0172
  C  C244  1  0.671240  0.086580  0.991150  1.0  -0.1646
  C  C245  1  0.608210  0.085400  0.994670  1.0  -0.0539
  C  C246  1  0.578070  0.023440  0.997650  1.0  0.0944
  C  C247  1  0.611040  0.963210  0.998880  1.0  -0.0004
  C  C248  1  0.699530  0.745550  0.923570  1.0  0.7093
  C  C249  1  0.684530  0.727380  0.873390  1.0  -0.1758
  C  C250  1  0.723100  0.751100  0.843340  1.0  -0.0721
  C  C251  1  0.712210  0.732600  0.797400  1.0  0.1124
  C  C252  1  0.663010  0.689300  0.780700  1.0  0.0244
  C  C253  1  0.624430  0.665640  0.810050  1.0  -0.1637
  C  C254  1  0.634810  0.685450  0.856230  1.0  0.029
  C  C255  1  0.573110  0.615960  0.791660  1.0  0.7312
  C  C256  1  0.792390  0.798660  0.091080  1.0  0.699
  C  C257  1  0.811680  0.814750  0.141450  1.0  -0.1537
  C  C258  1  0.781420  0.783400  0.173700  1.0  0.0071
  C  C259  1  0.798530  0.799700  0.220230  1.0  0.1056
  C  C260  1  0.843910  0.848100  0.234000  1.0  -0.0545
  C  C261  1  0.874400  0.879760  0.201610  1.0  -0.1685
  C  C262  1  0.858720  0.861880  0.155530  1.0  0.0301
  C  C263  1  0.922290  0.933510  0.216890  1.0  0.6978
  C  C264  1  0.703260  0.154190  0.988990  1.0  0.7055
  C  C265  1  0.208640  0.397340  0.497560  1.0  0.7349
  C  C266  1  0.173950  0.463760  0.495650  1.0  -0.1642
  C  C267  1  0.203710  0.525800  0.491000  1.0  0.0172
  C  C268  1  0.171240  0.586580  0.491150  1.0  -0.1646
  C  C269  1  0.108210  0.585400  0.494670  1.0  -0.0539
  C  C270  1  0.078070  0.523440  0.497650  1.0  0.0944
  C  C271  1  0.111040  0.463210  0.498880  1.0  -0.0004
  C  C272  1  0.199530  0.245550  0.423570  1.0  0.7093
  C  C273  1  0.184530  0.227380  0.373390  1.0  -0.1758
  C  C274  1  0.223100  0.251100  0.343340  1.0  -0.0721
  C  C275  1  0.212210  0.232600  0.297400  1.0  0.1124
  C  C276  1  0.163010  0.189300  0.280700  1.0  0.0244
  C  C277  1  0.124430  0.165640  0.310050  1.0  -0.1637
  C  C278  1  0.134810  0.185450  0.356230  1.0  0.029
  C  C279  1  0.073110  0.115960  0.291660  1.0  0.7312
  C  C280  1  0.292390  0.298660  0.591080  1.0  0.699
  C  C281  1  0.311680  0.314750  0.641450  1.0  -0.1537
  C  C282  1  0.281420  0.283400  0.673700  1.0  0.0071
  C  C283  1  0.298530  0.299700  0.720230  1.0  0.1056
  C  C284  1  0.343910  0.348100  0.734000  1.0  -0.0545
  C  C285  1  0.374400  0.379760  0.701610  1.0  -0.1685
  C  C286  1  0.358720  0.361880  0.655530  1.0  0.0301
  C  C287  1  0.422290  0.433510  0.716890  1.0  0.6978
  C  C288  1  0.203260  0.654190  0.488990  1.0  0.7055
  N  N289  1  0.512860  0.971840  0.499740  1.0  -0.1521
  N  N290  1  0.754400  0.239890  0.270150  1.0  -0.1502
  N  N291  1  0.771340  0.230370  0.756440  1.0  -0.3116
  N  N292  1  0.012860  0.471840  0.999740  1.0  -0.1521
  N  N293  1  0.254400  0.739890  0.770150  1.0  -0.1502
  N  N294  1  0.271340  0.730370  0.256440  1.0  -0.3116
  N  N295  1  0.487140  0.971840  0.000260  1.0  -0.1515
  N  N296  1  0.245600  0.239890  0.229850  1.0  -0.1514
  N  N297  1  0.228660  0.230370  0.743560  1.0  -0.3133
  N  N298  1  0.987140  0.471840  0.500260  1.0  -0.1515
  N  N299  1  0.745600  0.739890  0.729850  1.0  -0.1514
  N  N300  1  0.728660  0.730370  0.243560  1.0  -0.3133
  N  N301  1  0.487140  0.028160  0.500260  1.0  -0.1514
  N  N302  1  0.245600  0.760110  0.729850  1.0  -0.1509
  N  N303  1  0.228660  0.769630  0.243560  1.0  -0.3129
  N  N304  1  0.987140  0.528160  0.000260  1.0  -0.1514
  N  N305  1  0.745600  0.260110  0.229850  1.0  -0.1509
  N  N306  1  0.728660  0.269630  0.743560  1.0  -0.3129
  N  N307  1  0.512860  0.028160  0.999740  1.0  -0.1516
  N  N308  1  0.754400  0.760110  0.770150  1.0  -0.1512
  N  N309  1  0.771340  0.769630  0.256440  1.0  -0.3119
  N  N310  1  0.012860  0.528160  0.499740  1.0  -0.1516
  N  N311  1  0.254400  0.260110  0.270150  1.0  -0.1512
  N  N312  1  0.271340  0.269630  0.756440  1.0  -0.3119
  O  O313  1  0.680180  0.154260  0.508130  1.0  -0.613
  O  O314  1  0.763530  0.101400  0.488870  1.0  -0.5943
  O  O315  1  0.661600  0.271710  0.449210  1.0  -0.5753
  O  O316  1  0.750530  0.223770  0.436090  1.0  -0.5963
  O  O317  1  0.743990  0.236500  0.580120  1.0  -0.6475
  O  O318  1  0.825890  0.177170  0.563780  1.0  -0.6002
  O  O319  1  0.759340  0.846090  0.483930  1.0  -0.5945
  O  O320  1  0.670950  0.793820  0.493160  1.0  -0.6329
  O  O321  1  0.535160  0.398520  0.318100  1.0  -0.589
  O  O322  1  0.573290  0.407210  0.252030  1.0  -0.6256
  O  O323  1  0.929750  0.051090  0.759030  1.0  -0.6274
  O  O324  1  0.950570  0.040690  0.687120  1.0  -0.5828
  O  O325  1  0.180180  0.654260  0.008130  1.0  -0.613
  O  O326  1  0.263530  0.601400  0.988870  1.0  -0.5943
  O  O327  1  0.161600  0.771710  0.949210  1.0  -0.5753
  O  O328  1  0.250530  0.723770  0.936090  1.0  -0.5963
  O  O329  1  0.243990  0.736500  0.080120  1.0  -0.6475
  O  O330  1  0.325890  0.677170  0.063780  1.0  -0.6002
  O  O331  1  0.259340  0.346090  0.983930  1.0  -0.5945
  O  O332  1  0.170950  0.293820  0.993160  1.0  -0.6329
  O  O333  1  0.035160  0.898520  0.818100  1.0  -0.5889
  O  O334  1  0.073290  0.907210  0.752030  1.0  -0.6256
  O  O335  1  0.429750  0.551090  0.259030  1.0  -0.6274
  O  O336  1  0.450570  0.540690  0.187120  1.0  -0.5828
  O  O337  1  0.319820  0.154260  0.991870  1.0  -0.613
  O  O338  1  0.236470  0.101400  0.011130  1.0  -0.594
  O  O339  1  0.338400  0.271710  0.050790  1.0  -0.5743
  O  O340  1  0.249470  0.223770  0.063910  1.0  -0.5968
  O  O341  1  0.256010  0.236500  0.919880  1.0  -0.6474
  O  O342  1  0.174110  0.177170  0.936220  1.0  -0.6003
  O  O343  1  0.240660  0.846090  0.016070  1.0  -0.5948
  O  O344  1  0.329050  0.793820  0.006840  1.0  -0.6318
  O  O345  1  0.464840  0.398520  0.181900  1.0  -0.5879
  O  O346  1  0.426710  0.407210  0.247970  1.0  -0.6254
  O  O347  1  0.070250  0.051090  0.740970  1.0  -0.6273
  O  O348  1  0.049430  0.040690  0.812880  1.0  -0.5818
  O  O349  1  0.819820  0.654260  0.491870  1.0  -0.613
  O  O350  1  0.736470  0.601400  0.511130  1.0  -0.594
  O  O351  1  0.838400  0.771710  0.550790  1.0  -0.5743
  O  O352  1  0.749470  0.723770  0.563910  1.0  -0.5968
  O  O353  1  0.756010  0.736500  0.419880  1.0  -0.6474
  O  O354  1  0.674110  0.677170  0.436220  1.0  -0.6003
  O  O355  1  0.740660  0.346090  0.516070  1.0  -0.5948
  O  O356  1  0.829050  0.293820  0.506840  1.0  -0.6318
  O  O357  1  0.964840  0.898520  0.681900  1.0  -0.588
  O  O358  1  0.926710  0.907210  0.747970  1.0  -0.6254
  O  O359  1  0.570250  0.551090  0.240970  1.0  -0.6273
  O  O360  1  0.549430  0.540690  0.312880  1.0  -0.5818
  O  O361  1  0.319820  0.845740  0.491870  1.0  -0.6135
  O  O362  1  0.236470  0.898600  0.511130  1.0  -0.5945
  O  O363  1  0.338400  0.728290  0.550790  1.0  -0.5744
  O  O364  1  0.249470  0.776230  0.563910  1.0  -0.5963
  O  O365  1  0.256010  0.763500  0.419880  1.0  -0.6474
  O  O366  1  0.174110  0.822830  0.436220  1.0  -0.6004
  O  O367  1  0.240660  0.153910  0.516070  1.0  -0.5949
  O  O368  1  0.329050  0.206180  0.506840  1.0  -0.6324
  O  O369  1  0.464840  0.601480  0.681900  1.0  -0.5883
  O  O370  1  0.426710  0.592790  0.747970  1.0  -0.6254
  O  O371  1  0.070250  0.948910  0.240970  1.0  -0.6269
  O  O372  1  0.049430  0.959310  0.312880  1.0  -0.5825
  O  O373  1  0.819820  0.345740  0.991870  1.0  -0.6135
  O  O374  1  0.736470  0.398600  0.011130  1.0  -0.5945
  O  O375  1  0.838400  0.228290  0.050790  1.0  -0.5744
  O  O376  1  0.749470  0.276230  0.063910  1.0  -0.5963
  O  O377  1  0.756010  0.263500  0.919880  1.0  -0.6474
  O  O378  1  0.674110  0.322830  0.936220  1.0  -0.6004
  O  O379  1  0.740660  0.653910  0.016070  1.0  -0.5949
  O  O380  1  0.829050  0.706180  0.006840  1.0  -0.6324
  O  O381  1  0.964840  0.101480  0.181900  1.0  -0.5882
  O  O382  1  0.926710  0.092790  0.247970  1.0  -0.6254
  O  O383  1  0.570250  0.448910  0.740970  1.0  -0.6269
  O  O384  1  0.549430  0.459310  0.812880  1.0  -0.5825
  O  O385  1  0.680180  0.845740  0.008130  1.0  -0.6132
  O  O386  1  0.763530  0.898600  0.988870  1.0  -0.595
  O  O387  1  0.661600  0.728290  0.949210  1.0  -0.5753
  O  O388  1  0.750530  0.776230  0.936090  1.0  -0.596
  O  O389  1  0.743990  0.763500  0.080120  1.0  -0.6467
  O  O390  1  0.825890  0.822830  0.063780  1.0  -0.5991
  O  O391  1  0.759340  0.153910  0.983930  1.0  -0.5948
  O  O392  1  0.670950  0.206180  0.993160  1.0  -0.6331
  O  O393  1  0.535160  0.601480  0.818100  1.0  -0.5887
  O  O394  1  0.573290  0.592790  0.752030  1.0  -0.6254
  O  O395  1  0.929750  0.948910  0.259030  1.0  -0.6267
  O  O396  1  0.950570  0.959310  0.187120  1.0  -0.5823
  O  O397  1  0.180180  0.345740  0.508130  1.0  -0.6132
  O  O398  1  0.263530  0.398600  0.488870  1.0  -0.595
  O  O399  1  0.161600  0.228290  0.449210  1.0  -0.5753
  O  O400  1  0.250530  0.276230  0.436090  1.0  -0.596
  O  O401  1  0.243990  0.263500  0.580120  1.0  -0.6467
  O  O402  1  0.325890  0.322830  0.563780  1.0  -0.5991
  O  O403  1  0.259340  0.653910  0.483930  1.0  -0.5948
  O  O404  1  0.170950  0.706180  0.493160  1.0  -0.6331
  O  O405  1  0.035160  0.101480  0.318100  1.0  -0.5888
  O  O406  1  0.073290  0.092790  0.252030  1.0  -0.6254
  O  O407  1  0.429750  0.448910  0.759030  1.0  -0.6268
  O  O408  1  0.450570  0.459310  0.687120  1.0  -0.5823
