# generated using pymatgen
data_CdH3C8NO4
_symmetry_space_group_name_H-M   'P 1'
_cell_length_a   14.42250000
_cell_length_b   14.26010000
_cell_length_c   22.51060000
_cell_angle_alpha   90.00000000
_cell_angle_beta   100.15400000
_cell_angle_gamma   90.00000000
_symmetry_Int_Tables_number   1
_chemical_formula_structural   CdH3C8NO4
_chemical_formula_sum   'Cd8 H24 C64 N8 O32'
_cell_volume   4557.15923732
_cell_formula_units_Z   8
loop_
 _symmetry_equiv_pos_site_id
 _symmetry_equiv_pos_as_xyz
  1  'x, y, z'
loop_
 _atom_site_type_symbol
 _atom_site_label
 _atom_site_symmetry_multiplicity
 _atom_site_fract_x
 _atom_site_fract_y
 _atom_site_fract_z
 _atom_site_occupancy
 _atom_site_charge
  Cd  Cd1  1  0.256050  0.751130  0.240170  1.0  1.1117
  Cd  Cd2  1  0.184550  0.624090  0.360430  1.0  0.8454
  Cd  Cd3  1  0.743950  0.251130  0.259830  1.0  1.1118
  Cd  Cd4  1  0.815450  0.124090  0.139570  1.0  0.8518
  Cd  Cd5  1  0.743950  0.248870  0.759830  1.0  1.1122
  Cd  Cd6  1  0.815450  0.375910  0.639570  1.0  0.8501
  Cd  Cd7  1  0.256050  0.748870  0.740170  1.0  1.1121
  Cd  Cd8  1  0.184550  0.875910  0.860430  1.0  0.8451
  H  H9  1  0.494200  0.485400  0.258000  1.0  0.1216
  H  H10  1  0.617100  0.387300  0.420200  1.0  0.1337
  H  H11  1  0.404200  0.572400  0.408100  1.0  0.126
  H  H12  1  0.881800  0.374800  0.072500  1.0  0.1305
  H  H13  1  0.974000  0.480200  0.237800  1.0  0.1251
  H  H14  1  0.070000  0.585100  0.094800  1.0  0.1205
  H  H15  1  0.505800  0.985400  0.242000  1.0  0.1222
  H  H16  1  0.382900  0.887300  0.079800  1.0  0.1339
  H  H17  1  0.595800  0.072400  0.091900  1.0  0.1261
  H  H18  1  0.118200  0.874800  0.427500  1.0  0.1311
  H  H19  1  0.026000  0.980200  0.262200  1.0  0.1244
  H  H20  1  0.930000  0.085100  0.405200  1.0  0.1205
  H  H21  1  0.505800  0.514600  0.742000  1.0  0.1223
  H  H22  1  0.382900  0.612700  0.579800  1.0  0.1339
  H  H23  1  0.595800  0.427600  0.591900  1.0  0.1262
  H  H24  1  0.118200  0.625200  0.927500  1.0  0.1311
  H  H25  1  0.026000  0.519800  0.762200  1.0  0.1245
  H  H26  1  0.930000  0.414900  0.905200  1.0  0.1202
  H  H27  1  0.494200  0.014600  0.758000  1.0  0.1216
  H  H28  1  0.617100  0.112700  0.920200  1.0  0.1337
  H  H29  1  0.404200  0.927600  0.908100  1.0  0.1263
  H  H30  1  0.881800  0.125200  0.572500  1.0  0.1308
  H  H31  1  0.974000  0.019800  0.737800  1.0  0.1252
  H  H32  1  0.070000  0.914900  0.594800  1.0  0.1205
  C  C33  1  0.629700  0.366000  0.305500  1.0  0.6387
  C  C34  1  0.032200  0.542600  0.172700  1.0  -0.1611
  C  C35  1  0.439400  0.539800  0.327500  1.0  -0.154
  C  C36  1  0.512000  0.479500  0.423600  1.0  0.158
  C  C37  1  0.499100  0.484100  0.299700  1.0  0.0635
  C  C38  1  0.572300  0.425100  0.396700  1.0  -0.0502
  C  C39  1  0.444900  0.536700  0.389500  1.0  0.0424
  C  C40  1  0.975700  0.479500  0.073500  1.0  0.021
  C  C41  1  0.919300  0.417000  0.097500  1.0  -0.0559
  C  C42  1  0.565500  0.427300  0.333900  1.0  -0.1541
  C  C43  1  0.974800  0.480000  0.196600  1.0  0.0681
  C  C44  1  0.032200  0.542800  0.111100  1.0  0.0322
  C  C45  1  0.097600  0.608700  0.212700  1.0  0.7365
  C  C46  1  0.918600  0.417200  0.159300  1.0  -0.156
  C  C47  1  0.372700  0.605300  0.289800  1.0  0.7027
  C  C48  1  0.858200  0.346800  0.184200  1.0  0.7573
  C  C49  1  0.370300  0.866000  0.194500  1.0  0.6397
  C  C50  1  0.967800  0.042600  0.327300  1.0  -0.1607
  C  C51  1  0.560600  0.039800  0.172500  1.0  -0.1544
  C  C52  1  0.488000  0.979500  0.076400  1.0  0.1591
  C  C53  1  0.500900  0.984100  0.200300  1.0  0.0643
  C  C54  1  0.427700  0.925100  0.103300  1.0  -0.0514
  C  C55  1  0.555100  0.036700  0.110500  1.0  0.0423
  C  C56  1  0.024300  0.979500  0.426500  1.0  0.0189
  C  C57  1  0.080700  0.917000  0.402500  1.0  -0.0546
  C  C58  1  0.434500  0.927300  0.166100  1.0  -0.1538
  C  C59  1  0.025200  0.980000  0.303400  1.0  0.0665
  C  C60  1  0.967800  0.042800  0.388900  1.0  0.0326
  C  C61  1  0.902400  0.108700  0.287300  1.0  0.7366
  C  C62  1  0.081400  0.917200  0.340700  1.0  -0.1547
  C  C63  1  0.627300  0.105300  0.210200  1.0  0.7031
  C  C64  1  0.141800  0.846800  0.315800  1.0  0.7563
  C  C65  1  0.370300  0.634000  0.694500  1.0  0.64
  C  C66  1  0.967800  0.457400  0.827300  1.0  -0.1611
  C  C67  1  0.560600  0.460200  0.672500  1.0  -0.1543
  C  C68  1  0.488000  0.520500  0.576400  1.0  0.1592
  C  C69  1  0.500900  0.515900  0.700300  1.0  0.0643
  C  C70  1  0.427700  0.574900  0.603300  1.0  -0.0509
  C  C71  1  0.555100  0.463300  0.610500  1.0  0.0421
  C  C72  1  0.024300  0.520500  0.926500  1.0  0.0186
  C  C73  1  0.080700  0.583000  0.902500  1.0  -0.0543
  C  C74  1  0.434500  0.572700  0.666100  1.0  -0.1535
  C  C75  1  0.025200  0.520000  0.803400  1.0  0.0664
  C  C76  1  0.967800  0.457200  0.888900  1.0  0.0335
  C  C77  1  0.902400  0.391300  0.787300  1.0  0.7363
  C  C78  1  0.081400  0.582800  0.840700  1.0  -0.155
  C  C79  1  0.627300  0.394700  0.710200  1.0  0.7031
  C  C80  1  0.141800  0.653200  0.815800  1.0  0.7564
  C  C81  1  0.629700  0.134000  0.805500  1.0  0.6395
  C  C82  1  0.032200  0.957400  0.672700  1.0  -0.161
  C  C83  1  0.439400  0.960200  0.827500  1.0  -0.1542
  C  C84  1  0.512000  0.020500  0.923600  1.0  0.1579
  C  C85  1  0.499100  0.015900  0.799700  1.0  0.0636
  C  C86  1  0.572300  0.074900  0.896700  1.0  -0.0504
  C  C87  1  0.444900  0.963300  0.889500  1.0  0.0429
  C  C88  1  0.975700  0.020500  0.573500  1.0  0.0209
  C  C89  1  0.919300  0.083000  0.597500  1.0  -0.0555
  C  C90  1  0.565500  0.072700  0.833900  1.0  -0.1538
  C  C91  1  0.974800  0.020000  0.696600  1.0  0.0679
  C  C92  1  0.032200  0.957200  0.611100  1.0  0.0323
  C  C93  1  0.097600  0.891300  0.712700  1.0  0.7363
  C  C94  1  0.918600  0.082800  0.659300  1.0  -0.1559
  C  C95  1  0.372700  0.894700  0.789800  1.0  0.7027
  C  C96  1  0.858200  0.153200  0.684200  1.0  0.7573
  N  N97  1  0.523500  0.471000  0.488000  1.0  -0.1831
  N  N98  1  0.972100  0.473500  0.009700  1.0  -0.1644
  N  N99  1  0.476500  0.971000  0.012000  1.0  -0.1847
  N  N100  1  0.027900  0.973500  0.490300  1.0  -0.1625
  N  N101  1  0.476500  0.529000  0.512000  1.0  -0.1827
  N  N102  1  0.027900  0.526500  0.990300  1.0  -0.165
  N  N103  1  0.523500  0.029000  0.988000  1.0  -0.184
  N  N104  1  0.972100  0.026500  0.509700  1.0  -0.164
  O  O105  1  0.097600  0.603300  0.268000  1.0  -0.7024
  O  O106  1  0.315500  0.652500  0.316900  1.0  -0.6626
  O  O107  1  0.616900  0.360600  0.248700  1.0  -0.565
  O  O108  1  0.847600  0.357900  0.237900  1.0  -0.5575
  O  O109  1  0.693900  0.321400  0.339100  1.0  -0.5472
  O  O110  1  0.375500  0.618200  0.236300  1.0  -0.611
  O  O111  1  0.821500  0.283200  0.150500  1.0  -0.6296
  O  O112  1  0.146200  0.662300  0.187600  1.0  -0.5869
  O  O113  1  0.902400  0.103300  0.232000  1.0  -0.7001
  O  O114  1  0.684500  0.152500  0.183100  1.0  -0.6622
  O  O115  1  0.383100  0.860600  0.251300  1.0  -0.5642
  O  O116  1  0.152400  0.857900  0.262100  1.0  -0.5591
  O  O117  1  0.306100  0.821400  0.160900  1.0  -0.546
  O  O118  1  0.624500  0.118200  0.263700  1.0  -0.6091
  O  O119  1  0.178500  0.783200  0.349500  1.0  -0.6293
  O  O120  1  0.853800  0.162300  0.312400  1.0  -0.5869
  O  O121  1  0.902400  0.396700  0.732000  1.0  -0.7005
  O  O122  1  0.684500  0.347500  0.683100  1.0  -0.6634
  O  O123  1  0.383100  0.639400  0.751300  1.0  -0.5637
  O  O124  1  0.152400  0.642100  0.762100  1.0  -0.5596
  O  O125  1  0.306100  0.678600  0.660900  1.0  -0.5491
  O  O126  1  0.624500  0.381800  0.763700  1.0  -0.6095
  O  O127  1  0.178500  0.716800  0.849500  1.0  -0.6293
  O  O128  1  0.853800  0.337700  0.812400  1.0  -0.5868
  O  O129  1  0.097600  0.896700  0.768000  1.0  -0.7027
  O  O130  1  0.315500  0.847500  0.816900  1.0  -0.6616
  O  O131  1  0.616900  0.139400  0.748700  1.0  -0.5647
  O  O132  1  0.847600  0.142100  0.737900  1.0  -0.5579
  O  O133  1  0.693900  0.178600  0.839100  1.0  -0.5455
  O  O134  1  0.375500  0.881800  0.736300  1.0  -0.6114
  O  O135  1  0.821500  0.216800  0.650500  1.0  -0.6305
  O  O136  1  0.146200  0.837700  0.687600  1.0  -0.5866
