# generated using pymatgen
data_GdH3C8NO5
_symmetry_space_group_name_H-M   'P 1'
_cell_length_a   4.50540000
_cell_length_b   10.33540000
_cell_length_c   10.80170000
_cell_angle_alpha   77.93300000
_cell_angle_beta   79.23000000
_cell_angle_gamma   83.14800000
_symmetry_Int_Tables_number   1
_chemical_formula_structural   GdH3C8NO5
_chemical_formula_sum   'Gd2 H6 C16 N2 O10'
_cell_volume   481.51579336
_cell_formula_units_Z   2
loop_
 _symmetry_equiv_pos_site_id
 _symmetry_equiv_pos_as_xyz
  1  'x, y, z'
loop_
 _atom_site_type_symbol
 _atom_site_label
 _atom_site_symmetry_multiplicity
 _atom_site_fract_x
 _atom_site_fract_y
 _atom_site_fract_z
 _atom_site_occupancy
 _atom_site_charge
  Gd  Gd1  1  0.171780  0.113260  0.578490  1.0  2.1702
  Gd  Gd2  1  0.828220  0.886740  0.421510  1.0  2.17
  H  H3  1  0.875400  0.377800  0.834600  1.0  0.1127
  H  H4  1  0.575400  0.325200  0.214400  1.0  0.1174
  H  H5  1  0.270100  0.110800  0.002900  1.0  0.1081
  H  H6  1  0.124600  0.622200  0.165400  1.0  0.1141
  H  H7  1  0.424600  0.674800  0.785600  1.0  0.1174
  H  H8  1  0.729900  0.889200  0.997100  1.0  0.1082
  C  C9  1  0.573300  0.208900  0.769200  1.0  0.7454
  C  C10  1  0.571000  0.241400  0.899900  1.0  -0.1422
  C  C11  1  0.752500  0.336600  0.907800  1.0  -0.0042
  C  C12  1  0.750900  0.370800  0.026400  1.0  0.1756
  C  C13  1  0.574600  0.303900  0.135000  1.0  -0.1139
  C  C14  1  0.397700  0.206100  0.127000  1.0  -0.1592
  C  C15  1  0.391600  0.175000  0.009400  1.0  -0.0045
  C  C16  1  0.219000  0.136900  0.250700  1.0  0.6612
  C  C17  1  0.426700  0.791100  0.230800  1.0  0.7438
  C  C18  1  0.429000  0.758600  0.100100  1.0  -0.1408
  C  C19  1  0.247500  0.663400  0.092200  1.0  -0.0039
  C  C20  1  0.249100  0.629200  0.973600  1.0  0.1763
  C  C21  1  0.425400  0.696100  0.865000  1.0  -0.1147
  C  C22  1  0.602300  0.793900  0.873000  1.0  -0.1614
  C  C23  1  0.608400  0.825000  0.990600  1.0  -0.0062
  C  C24  1  0.781000  0.863100  0.749300  1.0  0.6627
  N  N25  1  0.925000  0.468200  0.049000  1.0  -0.2087
  N  N26  1  0.075000  0.531800  0.951000  1.0  -0.2071
  O  O27  1  0.784900  0.252000  0.680000  1.0  -0.7152
  O  O28  1  0.367600  0.143000  0.758300  1.0  -0.6809
  O  O29  1  0.051800  0.049400  0.248200  1.0  -0.6582
  O  O30  1  0.712800  0.089900  0.499300  1.0  -0.7579
  O  O31  1  0.249000  0.177500  0.349800  1.0  -0.6461
  O  O32  1  0.215100  0.748000  0.320000  1.0  -0.7129
  O  O33  1  0.632400  0.857000  0.241700  1.0  -0.6816
  O  O34  1  0.948200  0.950600  0.751800  1.0  -0.6589
  O  O35  1  0.287200  0.910100  0.500700  1.0  -0.7575
  O  O36  1  0.751000  0.822500  0.650200  1.0  -0.6469
