# generated using pymatgen
data_K3UH25C29S4N5(O7F6)2
_symmetry_space_group_name_H-M   'P 1'
_cell_length_a   11.73410000
_cell_length_b   17.51890000
_cell_length_c   20.15790000
_cell_angle_alpha   99.51000000
_cell_angle_beta   90.00000000
_cell_angle_gamma   90.00000000
_symmetry_Int_Tables_number   1
_chemical_formula_structural   K3UH25C29S4N5(O7F6)2
_chemical_formula_sum   'K6 U2 H50 C58 S8 N10 O28 F24'
_cell_volume   4086.88019692
_cell_formula_units_Z   2
loop_
 _symmetry_equiv_pos_site_id
 _symmetry_equiv_pos_as_xyz
  1  'x, y, z'
loop_
 _atom_site_type_symbol
 _atom_site_label
 _atom_site_symmetry_multiplicity
 _atom_site_fract_x
 _atom_site_fract_y
 _atom_site_fract_z
 _atom_site_occupancy
 _atom_site_charge
  K  K1  1  0.311900  0.592280  0.454300  1.0  0.9372
  K  K2  1  0.450400  0.940200  0.534560  1.0  0.9581
  K  K3  1  0.260200  0.013200  0.970860  1.0  0.9486
  K  K4  1  0.811900  0.407720  0.545700  1.0  0.9369
  K  K5  1  0.950400  0.059800  0.465440  1.0  0.9579
  K  K6  1  0.760200  0.986800  0.029140  1.0  0.9487
  U  U7  1  0.366310  0.966760  0.753810  1.0  2.3332
  U  U8  1  0.866310  0.033240  0.246190  1.0  2.3336
  H  H9  1  0.093900  0.961500  0.816100  1.0  0.0634
  H  H10  1  0.902700  0.967000  0.797900  1.0  0.1239
  H  H11  1  0.839100  0.962700  0.684500  1.0  0.1077
  H  H12  1  0.977400  0.969900  0.603000  1.0  0.1063
  H  H13  1  0.165600  0.968700  0.628500  1.0  0.0919
  H  H14  1  0.296500  0.815400  0.832700  1.0  0.0846
  H  H15  1  0.274000  0.680600  0.820400  1.0  0.1277
  H  H16  1  0.278100  0.610100  0.716400  1.0  0.1054
  H  H17  1  0.292500  0.670400  0.620200  1.0  0.1258
  H  H18  1  0.313600  0.805200  0.638700  1.0  0.0833
  H  H19  1  0.579000  0.848100  0.676700  1.0  0.0667
  H  H20  1  0.746500  0.783600  0.690500  1.0  0.125
  H  H21  1  0.808200  0.777400  0.800600  1.0  0.1099
  H  H22  1  0.693000  0.837000  0.891400  1.0  0.1193
  H  H23  1  0.536900  0.902100  0.869100  1.0  0.0759
  H  H24  1  0.591500  0.051700  0.684000  1.0  0.0698
  H  H25  1  0.756200  0.121400  0.700200  1.0  0.1354
  H  H26  1  0.810300  0.167000  0.811000  1.0  0.1066
  H  H27  1  0.703800  0.133700  0.899100  1.0  0.1217
  H  H28  1  0.542500  0.064900  0.876100  1.0  0.0657
  H  H29  1  0.317600  0.106900  0.664800  1.0  0.0513
  H  H30  1  0.304900  0.227600  0.648600  1.0  0.1333
  H  H31  1  0.318000  0.315000  0.750600  1.0  0.0952
  H  H32  1  0.315400  0.275700  0.854200  1.0  0.1236
  H  H33  1  0.314200  0.141600  0.859700  1.0  0.0896
  H  H34  1  0.593900  0.038500  0.183900  1.0  0.0615
  H  H35  1  0.402700  0.033000  0.202100  1.0  0.1232
  H  H36  1  0.339100  0.037300  0.315500  1.0  0.1078
  H  H37  1  0.477400  0.030100  0.397000  1.0  0.1056
  H  H38  1  0.665600  0.031300  0.371500  1.0  0.0917
  H  H39  1  0.796500  0.184600  0.167300  1.0  0.0807
  H  H40  1  0.774000  0.319400  0.179600  1.0  0.1266
  H  H41  1  0.778100  0.389900  0.283600  1.0  0.1052
  H  H42  1  0.792500  0.329600  0.379800  1.0  0.1253
  H  H43  1  0.813600  0.194800  0.361300  1.0  0.0835
  H  H44  1  0.079000  0.151900  0.323300  1.0  0.0651
  H  H45  1  0.246500  0.216400  0.309500  1.0  0.1251
  H  H46  1  0.308200  0.222600  0.199400  1.0  0.1098
  H  H47  1  0.193000  0.163000  0.108600  1.0  0.1188
  H  H48  1  0.036900  0.097900  0.130900  1.0  0.0733
  H  H49  1  0.091500  0.948300  0.316000  1.0  0.0691
  H  H50  1  0.256200  0.878600  0.299800  1.0  0.1362
  H  H51  1  0.310300  0.833000  0.189000  1.0  0.1048
  H  H52  1  0.203800  0.866300  0.100900  1.0  0.1216
  H  H53  1  0.042500  0.935100  0.123900  1.0  0.0639
  H  H54  1  0.817600  0.893100  0.335200  1.0  0.0517
  H  H55  1  0.804900  0.772400  0.351400  1.0  0.1336
  H  H56  1  0.818000  0.685000  0.249400  1.0  0.0991
  H  H57  1  0.815400  0.724300  0.145800  1.0  0.1227
  H  H58  1  0.814200  0.858400  0.140300  1.0  0.0878
  C  C59  1  0.069200  0.964200  0.772700  1.0  0.1982
  C  C60  1  0.954000  0.965700  0.762500  1.0  -0.1931
  C  C61  1  0.916200  0.965000  0.695400  1.0  -0.0148
  C  C62  1  0.999200  0.967900  0.647000  1.0  -0.1276
  C  C63  1  0.112300  0.967700  0.662500  1.0  0.1837
  C  C64  1  0.296300  0.785600  0.790000  1.0  0.1709
  C  C65  1  0.283200  0.704600  0.782900  1.0  -0.1917
  C  C66  1  0.284200  0.663700  0.721500  1.0  -0.0351
  C  C67  1  0.294100  0.698900  0.663400  1.0  -0.1364
  C  C68  1  0.306500  0.779200  0.675200  1.0  0.1857
  C  C69  1  0.603700  0.846500  0.720200  1.0  0.2171
  C  C70  1  0.704900  0.806700  0.727700  1.0  -0.1585
  C  C71  1  0.741200  0.803000  0.792900  1.0  -0.0189
  C  C72  1  0.673000  0.839300  0.847100  1.0  -0.1808
  C  C73  1  0.579500  0.877000  0.833100  1.0  0.1787
  C  C74  1  0.615300  0.069200  0.727900  1.0  0.1827
  C  C75  1  0.713300  0.110900  0.736500  1.0  -0.1552
  C  C76  1  0.745200  0.136700  0.802000  1.0  0.0073
  C  C77  1  0.681100  0.117900  0.854700  1.0  -0.177
  C  C78  1  0.585800  0.076500  0.840400  1.0  0.1897
  C  C79  1  0.315100  0.144200  0.703400  1.0  0.2216
  C  C80  1  0.310400  0.213200  0.690900  1.0  -0.1546
  C  C81  1  0.314900  0.262200  0.751600  1.0  0.0257
  C  C82  1  0.315300  0.239000  0.815100  1.0  -0.2017
  C  C83  1  0.315600  0.159600  0.818800  1.0  0.1772
  C  C84  1  0.610000  0.611600  0.544300  1.0  0.4477
  C  C85  1  0.118500  0.818000  0.461600  1.0  0.4822
  C  C86  1  0.742000  0.820500  0.521000  1.0  0.4566
  C  C87  1  0.956000  0.181800  0.997400  1.0  0.4463
  C  C88  1  0.569200  0.035800  0.227300  1.0  0.1961
  C  C89  1  0.454000  0.034300  0.237500  1.0  -0.1932
  C  C90  1  0.416200  0.035000  0.304600  1.0  -0.0161
  C  C91  1  0.499200  0.032100  0.353000  1.0  -0.125
  C  C92  1  0.612300  0.032300  0.337500  1.0  0.184
  C  C93  1  0.796300  0.214400  0.210000  1.0  0.1706
  C  C94  1  0.783200  0.295400  0.217100  1.0  -0.1912
  C  C95  1  0.784200  0.336300  0.278500  1.0  -0.0138
  C  C96  1  0.794100  0.301100  0.336600  1.0  -0.1366
  C  C97  1  0.806500  0.220800  0.324800  1.0  0.1854
  C  C98  1  0.103700  0.153500  0.279800  1.0  0.218
  C  C99  1  0.204900  0.193300  0.272300  1.0  -0.1574
  C  C100  1  0.241200  0.197000  0.207100  1.0  -0.019
  C  C101  1  0.173000  0.160700  0.152900  1.0  -0.1871
  C  C102  1  0.079500  0.123000  0.166900  1.0  0.1798
  C  C103  1  0.115300  0.930800  0.272100  1.0  0.1841
  C  C104  1  0.213300  0.889100  0.263500  1.0  -0.154
  C  C105  1  0.245200  0.863300  0.198000  1.0  0.0064
  C  C106  1  0.181100  0.882100  0.145300  1.0  -0.1758
  C  C107  1  0.085800  0.923500  0.159600  1.0  0.1908
  C  C108  1  0.815100  0.855800  0.296600  1.0  0.2233
  C  C109  1  0.810400  0.786800  0.309100  1.0  -0.1525
  C  C110  1  0.814900  0.737800  0.248400  1.0  0.0209
  C  C111  1  0.815300  0.761000  0.184900  1.0  -0.201
  C  C112  1  0.815600  0.840400  0.181200  1.0  0.1899
  C  C113  1  0.110000  0.388400  0.455700  1.0  0.4476
  C  C114  1  0.618500  0.182000  0.538400  1.0  0.4819
  C  C115  1  0.242000  0.179500  0.479000  1.0  0.4561
  C  C116  1  0.456000  0.818200  0.002600  1.0  0.4501
  S  S117  1  0.576200  0.507100  0.530670  1.0  1.1866
  S  S118  1  0.263800  0.787300  0.457100  1.0  1.1122
  S  S119  1  0.725900  0.920350  0.511680  1.0  1.186
  S  S120  1  0.991200  0.095500  0.962600  1.0  1.1942
  S  S121  1  0.076200  0.492900  0.469330  1.0  1.185
  S  S122  1  0.763800  0.212700  0.542900  1.0  1.1143
  S  S123  1  0.225900  0.079650  0.488320  1.0  1.1857
  S  S124  1  0.491200  0.904500  0.037400  1.0  1.1951
  N  N125  1  0.149400  0.966300  0.726000  1.0  -0.4741
  N  N126  1  0.308300  0.819400  0.736700  1.0  -0.4634
  N  N127  1  0.541400  0.881400  0.769400  1.0  -0.4649
  N  N128  1  0.549300  0.051000  0.778400  1.0  -0.4743
  N  N129  1  0.317900  0.111900  0.760300  1.0  -0.4971
  N  N130  1  0.649400  0.033700  0.274000  1.0  -0.4746
  N  N131  1  0.808300  0.180600  0.263300  1.0  -0.4628
  N  N132  1  0.041400  0.118600  0.230600  1.0  -0.4656
  N  N133  1  0.049300  0.949000  0.221600  1.0  -0.4729
  N  N134  1  0.817900  0.888100  0.239700  1.0  -0.5
  O  O135  1  0.396200  0.957300  0.664100  1.0  -0.8286
  O  O136  1  0.333000  0.975100  0.844100  1.0  -0.8935
  O  O137  1  0.456700  0.507200  0.514800  1.0  -0.6811
  O  O138  1  0.645500  0.473200  0.475100  1.0  -0.6616
  O  O139  1  0.608600  0.483700  0.594100  1.0  -0.6875
  O  O140  1  0.270100  0.727100  0.400400  1.0  -0.6609
  O  O141  1  0.317000  0.787000  0.519800  1.0  -0.6566
  O  O142  1  0.321800  0.852800  0.432800  1.0  -0.7799
  O  O143  1  0.643400  0.920000  0.458900  1.0  -0.6749
  O  O144  1  0.686900  0.954000  0.576000  1.0  -0.6437
  O  O145  1  0.841500  0.940300  0.496000  1.0  -0.7011
  O  O146  1  0.039900  0.056000  0.015300  1.0  -0.765
  O  O147  1  0.055600  0.092800  0.904900  1.0  -0.5881
  O  O148  1  0.885100  0.056300  0.947800  1.0  -0.7023
  O  O149  1  0.896200  0.042700  0.335900  1.0  -0.8286
  O  O150  1  0.833000  0.024900  0.155900  1.0  -0.8957
  O  O151  1  0.956700  0.492800  0.485200  1.0  -0.6815
  O  O152  1  0.145500  0.526800  0.524900  1.0  -0.661
  O  O153  1  0.108600  0.516300  0.405900  1.0  -0.6868
  O  O154  1  0.770100  0.272900  0.599600  1.0  -0.6636
  O  O155  1  0.817000  0.213000  0.480200  1.0  -0.6527
  O  O156  1  0.821800  0.147200  0.567200  1.0  -0.7905
  O  O157  1  0.143400  0.080000  0.541100  1.0  -0.674
  O  O158  1  0.186900  0.046000  0.424000  1.0  -0.6439
  O  O159  1  0.341500  0.059700  0.504000  1.0  -0.7001
  O  O160  1  0.539900  0.944000  0.984700  1.0  -0.7639
  O  O161  1  0.555600  0.907200  0.095100  1.0  -0.5881
  O  O162  1  0.385100  0.943700  0.052200  1.0  -0.7026
  F  F163  1  0.576500  0.639400  0.489900  1.0  -0.2042
  F  F164  1  0.555500  0.648600  0.596300  1.0  -0.1806
  F  F165  1  0.720200  0.622300  0.553600  1.0  -0.1635
  F  F166  1  0.064800  0.773800  0.485800  1.0  -0.0954
  F  F167  1  0.081800  0.843000  0.411400  1.0  -0.1206
  F  F168  1  0.121000  0.885300  0.510400  1.0  -0.2615
  F  F169  1  0.817700  0.811000  0.567600  1.0  -0.175
  F  F170  1  0.782000  0.776800  0.466200  1.0  -0.1686
  F  F171  1  0.641000  0.793800  0.540400  1.0  -0.1872
  F  F172  1  0.893900  0.184900  0.051600  1.0  -0.1554
  F  F173  1  0.037600  0.226200  0.017900  1.0  -0.1403
  F  F174  1  0.891600  0.224700  0.952200  1.0  -0.249
  F  F175  1  0.076500  0.360600  0.510100  1.0  -0.2039
  F  F176  1  0.055500  0.351400  0.403700  1.0  -0.1772
  F  F177  1  0.220200  0.377700  0.446400  1.0  -0.1631
  F  F178  1  0.564800  0.226200  0.514200  1.0  -0.0938
  F  F179  1  0.581800  0.157000  0.588600  1.0  -0.1191
  F  F180  1  0.621000  0.114700  0.489600  1.0  -0.2621
  F  F181  1  0.317700  0.189000  0.432400  1.0  -0.1747
  F  F182  1  0.282000  0.223200  0.533800  1.0  -0.1673
  F  F183  1  0.141000  0.206200  0.459600  1.0  -0.1872
  F  F184  1  0.393900  0.815100  0.948400  1.0  -0.1573
  F  F185  1  0.537600  0.773800  0.982100  1.0  -0.1398
  F  F186  1  0.391600  0.775300  0.047800  1.0  -0.2496
