# generated using pymatgen
data_SrH4C8SO7
_symmetry_space_group_name_H-M   'P 1'
_cell_length_a   7.18340000
_cell_length_b   22.36700000
_cell_length_c   8.48520000
_cell_angle_alpha   90.00000000
_cell_angle_beta   90.00000000
_cell_angle_gamma   90.00000000
_symmetry_Int_Tables_number   1
_chemical_formula_structural   SrH4C8SO7
_chemical_formula_sum   'Sr4 H16 C32 S4 O28'
_cell_volume   1363.32648390
_cell_formula_units_Z   4
loop_
 _symmetry_equiv_pos_site_id
 _symmetry_equiv_pos_as_xyz
  1  'x, y, z'
loop_
 _atom_site_type_symbol
 _atom_site_label
 _atom_site_symmetry_multiplicity
 _atom_site_fract_x
 _atom_site_fract_y
 _atom_site_fract_z
 _atom_site_occupancy
 _atom_site_charge
  Sr  Sr1  1  0.250000  0.817490  0.424280  1.0  1.6787
  Sr  Sr2  1  0.250000  0.317490  0.924280  1.0  1.6787
  Sr  Sr3  1  0.750000  0.182510  0.424280  1.0  1.6772
  Sr  Sr4  1  0.750000  0.682510  0.924280  1.0  1.6772
  H  H5  1  0.250000  0.476100  0.742400  1.0  0.3512
  H  H6  1  0.250000  0.561800  0.991100  1.0  0.1214
  H  H7  1  0.250000  0.455000  0.372700  1.0  0.1171
  H  H8  1  0.250000  0.633500  0.427800  1.0  0.1243
  H  H9  1  0.250000  0.976100  0.242400  1.0  0.3512
  H  H10  1  0.250000  0.061800  0.491100  1.0  0.1214
  H  H11  1  0.250000  0.955000  0.872700  1.0  0.1171
  H  H12  1  0.250000  0.133500  0.927800  1.0  0.1243
  H  H13  1  0.750000  0.523900  0.742400  1.0  0.3505
  H  H14  1  0.750000  0.438200  0.991100  1.0  0.1206
  H  H15  1  0.750000  0.545000  0.372700  1.0  0.1163
  H  H16  1  0.750000  0.366500  0.427800  1.0  0.124
  H  H17  1  0.750000  0.023900  0.242400  1.0  0.3505
  H  H18  1  0.750000  0.938200  0.491100  1.0  0.1206
  H  H19  1  0.750000  0.045000  0.872700  1.0  0.1163
  H  H20  1  0.750000  0.866500  0.927800  1.0  0.124
  C  C21  1  0.250000  0.442800  0.070800  1.0  0.6716
  C  C22  1  0.250000  0.533800  0.602700  1.0  0.6862
  C  C23  1  0.250000  0.606800  0.203200  1.0  -0.2612
  C  C24  1  0.250000  0.556800  0.099900  1.0  -0.0577
  C  C25  1  0.250000  0.499700  0.167800  1.0  -0.1194
  C  C26  1  0.250000  0.493300  0.329600  1.0  -0.0513
  C  C27  1  0.250000  0.543200  0.431000  1.0  -0.1697
  C  C28  1  0.250000  0.599900  0.363300  1.0  0.046
  C  C29  1  0.250000  0.942800  0.570800  1.0  0.6716
  C  C30  1  0.250000  0.033800  0.102700  1.0  0.6862
  C  C31  1  0.250000  0.106800  0.703200  1.0  -0.2612
  C  C32  1  0.250000  0.056800  0.599900  1.0  -0.0577
  C  C33  1  0.250000  0.999700  0.667800  1.0  -0.1194
  C  C34  1  0.250000  0.993300  0.829600  1.0  -0.0513
  C  C35  1  0.250000  0.043200  0.931000  1.0  -0.1697
  C  C36  1  0.250000  0.099900  0.863300  1.0  0.046
  C  C37  1  0.750000  0.557200  0.070800  1.0  0.6735
  C  C38  1  0.750000  0.466200  0.602700  1.0  0.6865
  C  C39  1  0.750000  0.393200  0.203200  1.0  -0.2621
  C  C40  1  0.750000  0.443200  0.099900  1.0  -0.058
  C  C41  1  0.750000  0.500300  0.167800  1.0  -0.1184
  C  C42  1  0.750000  0.506700  0.329600  1.0  -0.0526
  C  C43  1  0.750000  0.456800  0.431000  1.0  -0.1705
  C  C44  1  0.750000  0.400100  0.363300  1.0  0.0488
  C  C45  1  0.750000  0.057200  0.570800  1.0  0.6735
  C  C46  1  0.750000  0.966200  0.102700  1.0  0.6865
  C  C47  1  0.750000  0.893200  0.703200  1.0  -0.2621
  C  C48  1  0.750000  0.943200  0.599900  1.0  -0.058
  C  C49  1  0.750000  0.000300  0.667800  1.0  -0.1184
  C  C50  1  0.750000  0.006700  0.829600  1.0  -0.0526
  C  C51  1  0.750000  0.956800  0.931000  1.0  -0.1705
  C  C52  1  0.750000  0.900100  0.863300  1.0  0.0488
  S  S53  1  0.250000  0.680770  0.120300  1.0  1.3749
  S  S54  1  0.250000  0.180770  0.620300  1.0  1.3749
  S  S55  1  0.750000  0.319230  0.120300  1.0  1.375
  S  S56  1  0.750000  0.819230  0.620300  1.0  1.375
  O  O57  1  0.083300  0.685400  0.024700  1.0  -0.7492
  O  O58  1  0.083300  0.185400  0.524700  1.0  -0.7492
  O  O59  1  0.916700  0.314600  0.024700  1.0  -0.7508
  O  O60  1  0.916700  0.814600  0.524700  1.0  -0.7508
  O  O61  1  0.583300  0.314600  0.024700  1.0  -0.7514
  O  O62  1  0.583300  0.814600  0.524700  1.0  -0.7514
  O  O63  1  0.416700  0.685400  0.024700  1.0  -0.7494
  O  O64  1  0.416700  0.185400  0.524700  1.0  -0.7494
  O  O65  1  0.250000  0.720700  0.253500  1.0  -0.6694
  O  O66  1  0.250000  0.394600  0.146100  1.0  -0.5977
  O  O67  1  0.250000  0.443800  0.924900  1.0  -0.7005
  O  O68  1  0.250000  0.478100  0.645900  1.0  -0.5253
  O  O69  1  0.250000  0.575100  0.698800  1.0  -0.5138
  O  O70  1  0.250000  0.220700  0.753500  1.0  -0.6694
  O  O71  1  0.250000  0.894600  0.646100  1.0  -0.5977
  O  O72  1  0.250000  0.943800  0.424900  1.0  -0.7005
  O  O73  1  0.250000  0.978100  0.145900  1.0  -0.5253
  O  O74  1  0.250000  0.075100  0.198800  1.0  -0.5138
  O  O75  1  0.750000  0.279300  0.253500  1.0  -0.6703
  O  O76  1  0.750000  0.605400  0.146100  1.0  -0.6036
  O  O77  1  0.750000  0.556200  0.924900  1.0  -0.7015
  O  O78  1  0.750000  0.521900  0.645900  1.0  -0.5246
  O  O79  1  0.750000  0.424900  0.698800  1.0  -0.5158
  O  O80  1  0.750000  0.779300  0.753500  1.0  -0.6703
  O  O81  1  0.750000  0.105400  0.646100  1.0  -0.6036
  O  O82  1  0.750000  0.056200  0.424900  1.0  -0.7015
  O  O83  1  0.750000  0.021900  0.145900  1.0  -0.5246
  O  O84  1  0.750000  0.924900  0.198800  1.0  -0.5158
