# generated using pymatgen
data_Eu2Fe3H18C42(NO4)6
_symmetry_space_group_name_H-M   'P 1'
_cell_length_a   15.23800000
_cell_length_b   15.23800000
_cell_length_c   15.66300000
_cell_angle_alpha   90.00000000
_cell_angle_beta   90.00000000
_cell_angle_gamma   120.00000000
_symmetry_Int_Tables_number   1
_chemical_formula_structural   Eu2Fe3H18C42(NO4)6
_chemical_formula_sum   'Eu4 Fe6 H36 C84 N12 O48'
_cell_volume   3149.64435721
_cell_formula_units_Z   2
loop_
 _symmetry_equiv_pos_site_id
 _symmetry_equiv_pos_as_xyz
  1  'x, y, z'
loop_
 _atom_site_type_symbol
 _atom_site_label
 _atom_site_symmetry_multiplicity
 _atom_site_fract_x
 _atom_site_fract_y
 _atom_site_fract_z
 _atom_site_occupancy
 _atom_site_charge
  Eu  Eu1  1  0.666667  0.333333  0.750000  1.0  1.9692
  Eu  Eu2  1  0.333333  0.666667  0.750000  1.0  1.9692
  Eu  Eu3  1  0.333333  0.666667  0.250000  1.0  1.9692
  Eu  Eu4  1  0.666667  0.333333  0.250000  1.0  1.9692
  Fe  Fe5  1  0.500000  0.500000  0.500000  1.0  1.1015
  Fe  Fe6  1  0.000000  0.500000  0.500000  1.0  1.1015
  Fe  Fe7  1  0.500000  0.000000  0.500000  1.0  1.1015
  Fe  Fe8  1  0.000000  0.500000  0.000000  1.0  1.1015
  Fe  Fe9  1  0.500000  0.500000  0.000000  1.0  1.1015
  Fe  Fe10  1  0.500000  0.000000  0.000000  1.0  1.1015
  H  H11  1  0.287300  0.056200  0.845300  1.0  0.1242
  H  H12  1  0.768900  0.712700  0.845300  1.0  0.1244
  H  H13  1  0.943800  0.231100  0.845300  1.0  0.1241
  H  H14  1  0.712700  0.943800  0.845300  1.0  0.1239
  H  H15  1  0.231100  0.287300  0.845300  1.0  0.1246
  H  H16  1  0.056200  0.768900  0.845300  1.0  0.1243
  H  H17  1  0.231100  0.943800  0.654700  1.0  0.1236
  H  H18  1  0.056200  0.287300  0.654700  1.0  0.1238
  H  H19  1  0.712700  0.768900  0.654700  1.0  0.1237
  H  H20  1  0.768900  0.056200  0.654700  1.0  0.1233
  H  H21  1  0.943800  0.712700  0.654700  1.0  0.1241
  H  H22  1  0.287300  0.231100  0.654700  1.0  0.1236
  H  H23  1  0.712700  0.943800  0.154700  1.0  0.1236
  H  H24  1  0.231100  0.287300  0.154700  1.0  0.1241
  H  H25  1  0.056200  0.768900  0.154700  1.0  0.1238
  H  H26  1  0.287300  0.056200  0.154700  1.0  0.1232
  H  H27  1  0.768900  0.712700  0.154700  1.0  0.1241
  H  H28  1  0.943800  0.231100  0.154700  1.0  0.1234
  H  H29  1  0.768900  0.056200  0.345300  1.0  0.124
  H  H30  1  0.943800  0.712700  0.345300  1.0  0.1245
  H  H31  1  0.287300  0.231100  0.345300  1.0  0.1242
  H  H32  1  0.231100  0.943800  0.345300  1.0  0.124
  H  H33  1  0.056200  0.287300  0.345300  1.0  0.1244
  H  H34  1  0.712700  0.768900  0.345300  1.0  0.1242
  H  H35  1  0.199500  0.099750  0.750000  1.0  0.0939
  H  H36  1  0.900250  0.800500  0.750000  1.0  0.0925
  H  H37  1  0.900250  0.099750  0.750000  1.0  0.0935
  H  H38  1  0.800500  0.900250  0.750000  1.0  0.0934
  H  H39  1  0.099750  0.199500  0.750000  1.0  0.0914
  H  H40  1  0.099750  0.900250  0.750000  1.0  0.0936
  H  H41  1  0.800500  0.900250  0.250000  1.0  0.0934
  H  H42  1  0.099750  0.199500  0.250000  1.0  0.0914
  H  H43  1  0.099750  0.900250  0.250000  1.0  0.0936
  H  H44  1  0.199500  0.099750  0.250000  1.0  0.0939
  H  H45  1  0.900250  0.800500  0.250000  1.0  0.0925
  H  H46  1  0.900250  0.099750  0.250000  1.0  0.0935
  C  C47  1  0.321700  0.108500  0.806400  1.0  -0.1215
  C  C48  1  0.426000  0.161700  0.803900  1.0  0.1495
  C  C49  1  0.491600  0.139100  0.861300  1.0  0.6527
  C  C50  1  0.786800  0.678300  0.806400  1.0  -0.1203
  C  C51  1  0.735700  0.574000  0.803900  1.0  0.1488
  C  C52  1  0.647500  0.508400  0.861300  1.0  0.6523
  C  C53  1  0.891500  0.213200  0.806400  1.0  -0.1215
  C  C54  1  0.838300  0.264300  0.803900  1.0  0.1486
  C  C55  1  0.860900  0.352500  0.861300  1.0  0.6531
  C  C56  1  0.678300  0.891500  0.806400  1.0  -0.1215
  C  C57  1  0.574000  0.838300  0.803900  1.0  0.1495
  C  C58  1  0.508400  0.860900  0.861300  1.0  0.6532
  C  C59  1  0.213200  0.321700  0.806400  1.0  -0.1205
  C  C60  1  0.264300  0.426000  0.803900  1.0  0.1487
  C  C61  1  0.352500  0.491600  0.861300  1.0  0.6527
  C  C62  1  0.108500  0.786800  0.806400  1.0  -0.1213
  C  C63  1  0.161700  0.735700  0.803900  1.0  0.1485
  C  C64  1  0.139100  0.647500  0.861300  1.0  0.6534
  C  C65  1  0.213200  0.891500  0.693600  1.0  -0.1205
  C  C66  1  0.264300  0.838300  0.696100  1.0  0.1495
  C  C67  1  0.352500  0.860900  0.638700  1.0  0.6533
  C  C68  1  0.108500  0.321700  0.693600  1.0  -0.1195
  C  C69  1  0.161700  0.426000  0.696100  1.0  0.149
  C  C70  1  0.139100  0.491600  0.638700  1.0  0.6535
  C  C71  1  0.678300  0.786800  0.693600  1.0  -0.1216
  C  C72  1  0.574000  0.735700  0.696100  1.0  0.1483
  C  C73  1  0.508400  0.647500  0.638700  1.0  0.6538
  C  C74  1  0.786800  0.108500  0.693600  1.0  -0.1217
  C  C75  1  0.735700  0.161700  0.696100  1.0  0.1496
  C  C76  1  0.647500  0.139100  0.638700  1.0  0.6541
  C  C77  1  0.891500  0.678300  0.693600  1.0  -0.1206
  C  C78  1  0.838300  0.574000  0.696100  1.0  0.1487
  C  C79  1  0.860900  0.508400  0.638700  1.0  0.6529
  C  C80  1  0.321700  0.213200  0.693600  1.0  -0.1208
  C  C81  1  0.426000  0.264300  0.696100  1.0  0.1484
  C  C82  1  0.491600  0.352500  0.638700  1.0  0.6542
  C  C83  1  0.678300  0.891500  0.193600  1.0  -0.1212
  C  C84  1  0.574000  0.838300  0.196100  1.0  0.1492
  C  C85  1  0.508400  0.860900  0.138700  1.0  0.6541
  C  C86  1  0.213200  0.321700  0.193600  1.0  -0.1201
  C  C87  1  0.264300  0.426000  0.196100  1.0  0.1488
  C  C88  1  0.352500  0.491600  0.138700  1.0  0.6535
  C  C89  1  0.108500  0.786800  0.193600  1.0  -0.1197
  C  C90  1  0.161700  0.735700  0.196100  1.0  0.148
  C  C91  1  0.139100  0.647500  0.138700  1.0  0.6538
  C  C92  1  0.321700  0.108500  0.193600  1.0  -0.1199
  C  C93  1  0.426000  0.161700  0.196100  1.0  0.1495
  C  C94  1  0.491600  0.139100  0.138700  1.0  0.653
  C  C95  1  0.786800  0.678300  0.193600  1.0  -0.1191
  C  C96  1  0.735700  0.574000  0.196100  1.0  0.1481
  C  C97  1  0.647500  0.508400  0.138700  1.0  0.6531
  C  C98  1  0.891500  0.213200  0.193600  1.0  -0.1217
  C  C99  1  0.838300  0.264300  0.196100  1.0  0.1486
  C  C100  1  0.860900  0.352500  0.138700  1.0  0.6542
  C  C101  1  0.786800  0.108500  0.306400  1.0  -0.1221
  C  C102  1  0.735700  0.161700  0.303900  1.0  0.1498
  C  C103  1  0.647500  0.139100  0.361300  1.0  0.6533
  C  C104  1  0.891500  0.678300  0.306400  1.0  -0.1213
  C  C105  1  0.838300  0.574000  0.303900  1.0  0.1492
  C  C106  1  0.860900  0.508400  0.361300  1.0  0.6526
  C  C107  1  0.321700  0.213200  0.306400  1.0  -0.1222
  C  C108  1  0.426000  0.264300  0.303900  1.0  0.1483
  C  C109  1  0.491600  0.352500  0.361300  1.0  0.6531
  C  C110  1  0.213200  0.891500  0.306400  1.0  -0.1222
  C  C111  1  0.264300  0.838300  0.303900  1.0  0.1496
  C  C112  1  0.352500  0.860900  0.361300  1.0  0.6527
  C  C113  1  0.108500  0.321700  0.306400  1.0  -0.1206
  C  C114  1  0.161700  0.426000  0.303900  1.0  0.1489
  C  C115  1  0.139100  0.491600  0.361300  1.0  0.6524
  C  C116  1  0.678300  0.786800  0.306400  1.0  -0.122
  C  C117  1  0.574000  0.735700  0.303900  1.0  0.1491
  C  C118  1  0.508400  0.647500  0.361300  1.0  0.6533
  C  C119  1  0.270000  0.135000  0.750000  1.0  -0.0311
  C  C120  1  0.865000  0.730000  0.750000  1.0  -0.0295
  C  C121  1  0.865000  0.135000  0.750000  1.0  -0.0323
  C  C122  1  0.730000  0.865000  0.750000  1.0  -0.0324
  C  C123  1  0.135000  0.270000  0.750000  1.0  -0.029
  C  C124  1  0.135000  0.865000  0.750000  1.0  -0.031
  C  C125  1  0.730000  0.865000  0.250000  1.0  -0.0324
  C  C126  1  0.135000  0.270000  0.250000  1.0  -0.029
  C  C127  1  0.135000  0.865000  0.250000  1.0  -0.031
  C  C128  1  0.270000  0.135000  0.250000  1.0  -0.0311
  C  C129  1  0.865000  0.730000  0.250000  1.0  -0.0295
  C  C130  1  0.865000  0.135000  0.250000  1.0  -0.0323
  N  N131  1  0.477300  0.238650  0.750000  1.0  -0.396
  N  N132  1  0.761350  0.522700  0.750000  1.0  -0.3946
  N  N133  1  0.761350  0.238650  0.750000  1.0  -0.3955
  N  N134  1  0.522700  0.761350  0.750000  1.0  -0.3959
  N  N135  1  0.238650  0.477300  0.750000  1.0  -0.3959
  N  N136  1  0.238650  0.761350  0.750000  1.0  -0.396
  N  N137  1  0.522700  0.761350  0.250000  1.0  -0.3959
  N  N138  1  0.238650  0.477300  0.250000  1.0  -0.3959
  N  N139  1  0.238650  0.761350  0.250000  1.0  -0.396
  N  N140  1  0.477300  0.238650  0.250000  1.0  -0.396
  N  N141  1  0.761350  0.522700  0.250000  1.0  -0.3946
  N  N142  1  0.761350  0.238650  0.250000  1.0  -0.3955
  O  O143  1  0.586700  0.198700  0.856490  1.0  -0.6502
  O  O144  1  0.447500  0.063200  0.908500  1.0  -0.5916
  O  O145  1  0.612000  0.413300  0.856490  1.0  -0.6486
  O  O146  1  0.615700  0.552500  0.908500  1.0  -0.5918
  O  O147  1  0.801300  0.388000  0.856490  1.0  -0.6492
  O  O148  1  0.936800  0.384300  0.908500  1.0  -0.5925
  O  O149  1  0.413300  0.801300  0.856490  1.0  -0.6495
  O  O150  1  0.552500  0.936800  0.908500  1.0  -0.5917
  O  O151  1  0.388000  0.586700  0.856490  1.0  -0.6492
  O  O152  1  0.384300  0.447500  0.908500  1.0  -0.592
  O  O153  1  0.198700  0.612000  0.856490  1.0  -0.6504
  O  O154  1  0.063200  0.615700  0.908500  1.0  -0.5924
  O  O155  1  0.388000  0.801300  0.643510  1.0  -0.6514
  O  O156  1  0.384300  0.936800  0.591500  1.0  -0.5919
  O  O157  1  0.198700  0.586700  0.643510  1.0  -0.6497
  O  O158  1  0.063200  0.447500  0.591500  1.0  -0.592
  O  O159  1  0.413300  0.612000  0.643510  1.0  -0.6497
  O  O160  1  0.552500  0.615700  0.591500  1.0  -0.5928
  O  O161  1  0.612000  0.198700  0.643510  1.0  -0.6497
  O  O162  1  0.615700  0.063200  0.591500  1.0  -0.5914
  O  O163  1  0.801300  0.413300  0.643510  1.0  -0.6495
  O  O164  1  0.936800  0.552500  0.591500  1.0  -0.592
  O  O165  1  0.586700  0.388000  0.643510  1.0  -0.651
  O  O166  1  0.447500  0.384300  0.591500  1.0  -0.5927
  O  O167  1  0.413300  0.801300  0.143510  1.0  -0.65
  O  O168  1  0.552500  0.936800  0.091500  1.0  -0.5919
  O  O169  1  0.388000  0.586700  0.143510  1.0  -0.65
  O  O170  1  0.384300  0.447500  0.091500  1.0  -0.5922
  O  O171  1  0.198700  0.612000  0.143510  1.0  -0.6512
  O  O172  1  0.063200  0.615700  0.091500  1.0  -0.593
  O  O173  1  0.586700  0.198700  0.143510  1.0  -0.6512
  O  O174  1  0.447500  0.063200  0.091500  1.0  -0.5918
  O  O175  1  0.612000  0.413300  0.143510  1.0  -0.6491
  O  O176  1  0.615700  0.552500  0.091500  1.0  -0.5923
  O  O177  1  0.801300  0.388000  0.143510  1.0  -0.6497
  O  O178  1  0.936800  0.384300  0.091500  1.0  -0.5926
  O  O179  1  0.612000  0.198700  0.356490  1.0  -0.6492
  O  O180  1  0.615700  0.063200  0.408500  1.0  -0.5917
  O  O181  1  0.801300  0.413300  0.356490  1.0  -0.6487
  O  O182  1  0.936800  0.552500  0.408500  1.0  -0.5919
  O  O183  1  0.586700  0.388000  0.356490  1.0  -0.6502
  O  O184  1  0.447500  0.384300  0.408500  1.0  -0.5926
  O  O185  1  0.388000  0.801300  0.356490  1.0  -0.6505
  O  O186  1  0.384300  0.936800  0.408500  1.0  -0.5919
  O  O187  1  0.198700  0.586700  0.356490  1.0  -0.6493
  O  O188  1  0.063200  0.447500  0.408500  1.0  -0.5918
  O  O189  1  0.413300  0.612000  0.356490  1.0  -0.6491
  O  O190  1  0.552500  0.615700  0.408500  1.0  -0.5928
