# generated using pymatgen
data_Gd2Fe3H18C42(NO4)6
_symmetry_space_group_name_H-M   'P 1'
_cell_length_a   15.29100000
_cell_length_b   15.29100000
_cell_length_c   15.57300000
_cell_angle_alpha   90.00000000
_cell_angle_beta   90.00000000
_cell_angle_gamma   120.00000000
_symmetry_Int_Tables_number   1
_chemical_formula_structural   Gd2Fe3H18C42(NO4)6
_chemical_formula_sum   'Gd4 Fe6 H36 C84 N12 O48'
_cell_volume   3153.36825973
_cell_formula_units_Z   2
loop_
 _symmetry_equiv_pos_site_id
 _symmetry_equiv_pos_as_xyz
  1  'x, y, z'
loop_
 _atom_site_type_symbol
 _atom_site_label
 _atom_site_symmetry_multiplicity
 _atom_site_fract_x
 _atom_site_fract_y
 _atom_site_fract_z
 _atom_site_occupancy
 _atom_site_charge
  Gd  Gd1  1  0.666667  0.333333  0.750000  1.0  2.0262
  Gd  Gd2  1  0.333333  0.666667  0.750000  1.0  2.0262
  Gd  Gd3  1  0.333333  0.666667  0.250000  1.0  2.0262
  Gd  Gd4  1  0.666667  0.333333  0.250000  1.0  2.0262
  Fe  Fe5  1  0.500000  0.000000  0.000000  1.0  1.1346
  Fe  Fe6  1  0.500000  0.500000  0.000000  1.0  1.1346
  Fe  Fe7  1  0.000000  0.500000  0.000000  1.0  1.1346
  Fe  Fe8  1  0.500000  0.000000  0.500000  1.0  1.1346
  Fe  Fe9  1  0.000000  0.500000  0.500000  1.0  1.1346
  Fe  Fe10  1  0.500000  0.500000  0.500000  1.0  1.1346
  H  H11  1  0.286900  0.052800  0.841900  1.0  0.1197
  H  H12  1  0.765900  0.713100  0.841900  1.0  0.1196
  H  H13  1  0.947200  0.234100  0.841900  1.0  0.1196
  H  H14  1  0.713100  0.947200  0.841900  1.0  0.1191
  H  H15  1  0.234100  0.286900  0.841900  1.0  0.1199
  H  H16  1  0.052800  0.765900  0.841900  1.0  0.1194
  H  H17  1  0.234100  0.947200  0.658100  1.0  0.1192
  H  H18  1  0.052800  0.286900  0.658100  1.0  0.1191
  H  H19  1  0.713100  0.765900  0.658100  1.0  0.1192
  H  H20  1  0.765900  0.052800  0.658100  1.0  0.1187
  H  H21  1  0.947200  0.713100  0.658100  1.0  0.1195
  H  H22  1  0.286900  0.234100  0.658100  1.0  0.1192
  H  H23  1  0.713100  0.947200  0.158100  1.0  0.119
  H  H24  1  0.234100  0.286900  0.158100  1.0  0.1194
  H  H25  1  0.052800  0.765900  0.158100  1.0  0.1192
  H  H26  1  0.286900  0.052800  0.158100  1.0  0.1189
  H  H27  1  0.765900  0.713100  0.158100  1.0  0.1195
  H  H28  1  0.947200  0.234100  0.158100  1.0  0.1192
  H  H29  1  0.765900  0.052800  0.341900  1.0  0.1193
  H  H30  1  0.947200  0.713100  0.341900  1.0  0.1196
  H  H31  1  0.286900  0.234100  0.341900  1.0  0.1195
  H  H32  1  0.234100  0.947200  0.341900  1.0  0.1195
  H  H33  1  0.052800  0.286900  0.341900  1.0  0.1198
  H  H34  1  0.713100  0.765900  0.341900  1.0  0.1195
  H  H35  1  0.200100  0.100050  0.750000  1.0  0.0931
  H  H36  1  0.899950  0.799900  0.750000  1.0  0.0917
  H  H37  1  0.899950  0.100050  0.750000  1.0  0.0931
  H  H38  1  0.799900  0.899950  0.750000  1.0  0.093
  H  H39  1  0.100050  0.200100  0.750000  1.0  0.0909
  H  H40  1  0.100050  0.899950  0.750000  1.0  0.093
  H  H41  1  0.799900  0.899950  0.250000  1.0  0.093
  H  H42  1  0.100050  0.200100  0.250000  1.0  0.0909
  H  H43  1  0.100050  0.899950  0.250000  1.0  0.093
  H  H44  1  0.200100  0.100050  0.250000  1.0  0.0931
  H  H45  1  0.899950  0.799900  0.250000  1.0  0.0917
  H  H46  1  0.899950  0.100050  0.250000  1.0  0.0931
  C  C47  1  0.321500  0.107300  0.804800  1.0  -0.1159
  C  C48  1  0.426000  0.161700  0.804100  1.0  0.1378
  C  C49  1  0.491600  0.138900  0.861500  1.0  0.6451
  C  C50  1  0.785800  0.678500  0.804800  1.0  -0.1158
  C  C51  1  0.735700  0.574000  0.804100  1.0  0.1377
  C  C52  1  0.647300  0.508400  0.861500  1.0  0.6446
  C  C53  1  0.892700  0.214200  0.804800  1.0  -0.115
  C  C54  1  0.838300  0.264300  0.804100  1.0  0.1371
  C  C55  1  0.861100  0.352700  0.861500  1.0  0.6452
  C  C56  1  0.678500  0.892700  0.804800  1.0  -0.115
  C  C57  1  0.574000  0.838300  0.804100  1.0  0.1379
  C  C58  1  0.508400  0.861100  0.861500  1.0  0.6455
  C  C59  1  0.214200  0.321500  0.804800  1.0  -0.1157
  C  C60  1  0.264300  0.426000  0.804100  1.0  0.1366
  C  C61  1  0.352700  0.491600  0.861500  1.0  0.6448
  C  C62  1  0.107300  0.785800  0.804800  1.0  -0.1159
  C  C63  1  0.161700  0.735700  0.804100  1.0  0.1369
  C  C64  1  0.138900  0.647300  0.861500  1.0  0.6455
  C  C65  1  0.214200  0.892700  0.695200  1.0  -0.1109
  C  C66  1  0.264300  0.838300  0.695900  1.0  0.1376
  C  C67  1  0.352700  0.861100  0.638500  1.0  0.6456
  C  C68  1  0.107300  0.321500  0.695200  1.0  -0.1113
  C  C69  1  0.161700  0.426000  0.695900  1.0  0.1374
  C  C70  1  0.138900  0.491600  0.638500  1.0  0.6458
  C  C71  1  0.678500  0.785800  0.695200  1.0  -0.111
  C  C72  1  0.574000  0.735700  0.695900  1.0  0.137
  C  C73  1  0.508400  0.647300  0.638500  1.0  0.6461
  C  C74  1  0.785800  0.107300  0.695200  1.0  -0.1109
  C  C75  1  0.735700  0.161700  0.695900  1.0  0.1379
  C  C76  1  0.647300  0.138900  0.638500  1.0  0.6465
  C  C77  1  0.892700  0.678500  0.695200  1.0  -0.1113
  C  C78  1  0.838300  0.574000  0.695900  1.0  0.1367
  C  C79  1  0.861100  0.508400  0.638500  1.0  0.645
  C  C80  1  0.321500  0.214200  0.695200  1.0  -0.1116
  C  C81  1  0.426000  0.264300  0.695900  1.0  0.1366
  C  C82  1  0.491600  0.352700  0.638500  1.0  0.6461
  C  C83  1  0.678500  0.892700  0.195200  1.0  -0.1149
  C  C84  1  0.574000  0.838300  0.195900  1.0  0.1377
  C  C85  1  0.508400  0.861100  0.138500  1.0  0.6465
  C  C86  1  0.214200  0.321500  0.195200  1.0  -0.1151
  C  C87  1  0.264300  0.426000  0.195900  1.0  0.1366
  C  C88  1  0.352700  0.491600  0.138500  1.0  0.6456
  C  C89  1  0.107300  0.785800  0.195200  1.0  -0.1149
  C  C90  1  0.161700  0.735700  0.195900  1.0  0.1362
  C  C91  1  0.138900  0.647300  0.138500  1.0  0.646
  C  C92  1  0.321500  0.107300  0.195200  1.0  -0.1143
  C  C93  1  0.426000  0.161700  0.195900  1.0  0.1376
  C  C94  1  0.491600  0.138900  0.138500  1.0  0.6455
  C  C95  1  0.785800  0.678500  0.195200  1.0  -0.1148
  C  C96  1  0.735700  0.574000  0.195900  1.0  0.1369
  C  C97  1  0.647300  0.508400  0.138500  1.0  0.6453
  C  C98  1  0.892700  0.214200  0.195200  1.0  -0.1152
  C  C99  1  0.838300  0.264300  0.195900  1.0  0.1371
  C  C100  1  0.861100  0.352700  0.138500  1.0  0.6464
  C  C101  1  0.785800  0.107300  0.304800  1.0  -0.1117
  C  C102  1  0.735700  0.161700  0.304100  1.0  0.138
  C  C103  1  0.647300  0.138900  0.361500  1.0  0.6456
  C  C104  1  0.892700  0.678500  0.304800  1.0  -0.1117
  C  C105  1  0.838300  0.574000  0.304100  1.0  0.1374
  C  C106  1  0.861100  0.508400  0.361500  1.0  0.6447
  C  C107  1  0.321500  0.214200  0.304800  1.0  -0.1125
  C  C108  1  0.426000  0.264300  0.304100  1.0  0.1365
  C  C109  1  0.491600  0.352700  0.361500  1.0  0.6451
  C  C110  1  0.214200  0.892700  0.304800  1.0  -0.1119
  C  C111  1  0.264300  0.838300  0.304100  1.0  0.1379
  C  C112  1  0.352700  0.861100  0.361500  1.0  0.6451
  C  C113  1  0.107300  0.321500  0.304800  1.0  -0.1124
  C  C114  1  0.161700  0.426000  0.304100  1.0  0.1374
  C  C115  1  0.138900  0.491600  0.361500  1.0  0.6447
  C  C116  1  0.678500  0.785800  0.304800  1.0  -0.111
  C  C117  1  0.574000  0.735700  0.304100  1.0  0.1378
  C  C118  1  0.508400  0.647300  0.361500  1.0  0.6455
  C  C119  1  0.270300  0.135150  0.750000  1.0  -0.0261
  C  C120  1  0.864850  0.729700  0.750000  1.0  -0.0249
  C  C121  1  0.864850  0.135150  0.750000  1.0  -0.0267
  C  C122  1  0.729700  0.864850  0.750000  1.0  -0.0268
  C  C123  1  0.135150  0.270300  0.750000  1.0  -0.0249
  C  C124  1  0.135150  0.864850  0.750000  1.0  -0.0261
  C  C125  1  0.729700  0.864850  0.250000  1.0  -0.0268
  C  C126  1  0.135150  0.270300  0.250000  1.0  -0.0249
  C  C127  1  0.135150  0.864850  0.250000  1.0  -0.0261
  C  C128  1  0.270300  0.135150  0.250000  1.0  -0.0261
  C  C129  1  0.864850  0.729700  0.250000  1.0  -0.0249
  C  C130  1  0.864850  0.135150  0.250000  1.0  -0.0267
  N  N131  1  0.477700  0.238850  0.750000  1.0  -0.3718
  N  N132  1  0.761150  0.522300  0.750000  1.0  -0.3713
  N  N133  1  0.761150  0.238850  0.750000  1.0  -0.3719
  N  N134  1  0.522300  0.761150  0.750000  1.0  -0.372
  N  N135  1  0.238850  0.477700  0.750000  1.0  -0.3726
  N  N136  1  0.238850  0.761150  0.750000  1.0  -0.3714
  N  N137  1  0.522300  0.761150  0.250000  1.0  -0.372
  N  N138  1  0.238850  0.477700  0.250000  1.0  -0.3726
  N  N139  1  0.238850  0.761150  0.250000  1.0  -0.3714
  N  N140  1  0.477700  0.238850  0.250000  1.0  -0.3718
  N  N141  1  0.761150  0.522300  0.250000  1.0  -0.3713
  N  N142  1  0.761150  0.238850  0.250000  1.0  -0.3719
  O  O143  1  0.586200  0.199300  0.856700  1.0  -0.6655
  O  O144  1  0.447100  0.062400  0.907900  1.0  -0.5931
  O  O145  1  0.613100  0.413800  0.856700  1.0  -0.6633
  O  O146  1  0.615300  0.552900  0.907900  1.0  -0.5926
  O  O147  1  0.800700  0.386900  0.856700  1.0  -0.665
  O  O148  1  0.937600  0.384700  0.907900  1.0  -0.5932
  O  O149  1  0.413800  0.800700  0.856700  1.0  -0.6645
  O  O150  1  0.552900  0.937600  0.907900  1.0  -0.5924
  O  O151  1  0.386900  0.586200  0.856700  1.0  -0.6641
  O  O152  1  0.384700  0.447100  0.907900  1.0  -0.5925
  O  O153  1  0.199300  0.613100  0.856700  1.0  -0.6652
  O  O154  1  0.062400  0.615300  0.907900  1.0  -0.5933
  O  O155  1  0.386900  0.800700  0.643300  1.0  -0.6663
  O  O156  1  0.384700  0.937600  0.592100  1.0  -0.5922
  O  O157  1  0.199300  0.586200  0.643300  1.0  -0.6644
  O  O158  1  0.062400  0.447100  0.592100  1.0  -0.5926
  O  O159  1  0.413800  0.613100  0.643300  1.0  -0.6647
  O  O160  1  0.552900  0.615300  0.592100  1.0  -0.5933
  O  O161  1  0.613100  0.199300  0.643300  1.0  -0.6649
  O  O162  1  0.615300  0.062400  0.592100  1.0  -0.5922
  O  O163  1  0.800700  0.413800  0.643300  1.0  -0.6637
  O  O164  1  0.937600  0.552900  0.592100  1.0  -0.592
  O  O165  1  0.586200  0.386900  0.643300  1.0  -0.6665
  O  O166  1  0.447100  0.384700  0.592100  1.0  -0.5928
  O  O167  1  0.413800  0.800700  0.143300  1.0  -0.6651
  O  O168  1  0.552900  0.937600  0.092100  1.0  -0.5919
  O  O169  1  0.386900  0.586200  0.143300  1.0  -0.6644
  O  O170  1  0.384700  0.447100  0.092100  1.0  -0.5922
  O  O171  1  0.199300  0.613100  0.143300  1.0  -0.6661
  O  O172  1  0.062400  0.615300  0.092100  1.0  -0.5934
  O  O173  1  0.586200  0.199300  0.143300  1.0  -0.6661
  O  O174  1  0.447100  0.062400  0.092100  1.0  -0.5921
  O  O175  1  0.613100  0.413800  0.143300  1.0  -0.6637
  O  O176  1  0.615300  0.552900  0.092100  1.0  -0.5922
  O  O177  1  0.800700  0.386900  0.143300  1.0  -0.6652
  O  O178  1  0.937600  0.384700  0.092100  1.0  -0.5923
  O  O179  1  0.613100  0.199300  0.356700  1.0  -0.6646
  O  O180  1  0.615300  0.062400  0.407900  1.0  -0.5927
  O  O181  1  0.800700  0.413800  0.356700  1.0  -0.663
  O  O182  1  0.937600  0.552900  0.407900  1.0  -0.5921
  O  O183  1  0.586200  0.386900  0.356700  1.0  -0.6658
  O  O184  1  0.447100  0.384700  0.407900  1.0  -0.5931
  O  O185  1  0.386900  0.800700  0.356700  1.0  -0.6655
  O  O186  1  0.384700  0.937600  0.407900  1.0  -0.592
  O  O187  1  0.199300  0.586200  0.356700  1.0  -0.6644
  O  O188  1  0.062400  0.447100  0.407900  1.0  -0.5923
  O  O189  1  0.413800  0.613100  0.356700  1.0  -0.6641
  O  O190  1  0.552900  0.615300  0.407900  1.0  -0.593
