# generated using pymatgen
data_Tb2Fe3H18C42(NO4)6
_symmetry_space_group_name_H-M   'P 1'
_cell_length_a   15.19900000
_cell_length_b   15.19900000
_cell_length_c   15.58900000
_cell_angle_alpha   90.00000000
_cell_angle_beta   90.00000000
_cell_angle_gamma   120.00000000
_symmetry_Int_Tables_number   1
_chemical_formula_structural   Tb2Fe3H18C42(NO4)6
_chemical_formula_sum   'Tb4 Fe6 H36 C84 N12 O48'
_cell_volume   3118.73819254
_cell_formula_units_Z   2
loop_
 _symmetry_equiv_pos_site_id
 _symmetry_equiv_pos_as_xyz
  1  'x, y, z'
loop_
 _atom_site_type_symbol
 _atom_site_label
 _atom_site_symmetry_multiplicity
 _atom_site_fract_x
 _atom_site_fract_y
 _atom_site_fract_z
 _atom_site_occupancy
 _atom_site_charge
  Tb  Tb1  1  0.666667  0.333333  0.750000  1.0  2.1071
  Tb  Tb2  1  0.333333  0.666667  0.750000  1.0  2.1071
  Tb  Tb3  1  0.333333  0.666667  0.250000  1.0  2.1071
  Tb  Tb4  1  0.666667  0.333333  0.250000  1.0  2.1071
  Fe  Fe5  1  0.500000  0.000000  0.000000  1.0  1.0905
  Fe  Fe6  1  0.500000  0.500000  0.000000  1.0  1.0905
  Fe  Fe7  1  0.000000  0.500000  0.000000  1.0  1.0905
  Fe  Fe8  1  0.500000  0.000000  0.500000  1.0  1.0905
  Fe  Fe9  1  0.000000  0.500000  0.500000  1.0  1.0905
  Fe  Fe10  1  0.500000  0.500000  0.500000  1.0  1.0905
  H  H11  1  0.287900  0.055500  0.844700  1.0  0.1069
  H  H12  1  0.767600  0.712100  0.844700  1.0  0.1088
  H  H13  1  0.944500  0.232400  0.844700  1.0  0.1074
  H  H14  1  0.712100  0.944500  0.844700  1.0  0.108
  H  H15  1  0.232400  0.287900  0.844700  1.0  0.1073
  H  H16  1  0.055500  0.767600  0.844700  1.0  0.109
  H  H17  1  0.232400  0.944500  0.655300  1.0  0.1067
  H  H18  1  0.055500  0.287900  0.655300  1.0  0.1086
  H  H19  1  0.712100  0.767600  0.655300  1.0  0.1086
  H  H20  1  0.767600  0.055500  0.655300  1.0  0.1079
  H  H21  1  0.944500  0.712100  0.655300  1.0  0.1088
  H  H22  1  0.287900  0.232400  0.655300  1.0  0.1068
  H  H23  1  0.712100  0.944500  0.155300  1.0  0.1081
  H  H24  1  0.232400  0.287900  0.155300  1.0  0.1072
  H  H25  1  0.055500  0.767600  0.155300  1.0  0.108
  H  H26  1  0.287900  0.055500  0.155300  1.0  0.1065
  H  H27  1  0.767600  0.712100  0.155300  1.0  0.1088
  H  H28  1  0.944500  0.232400  0.155300  1.0  0.107
  H  H29  1  0.767600  0.055500  0.344700  1.0  0.1081
  H  H30  1  0.944500  0.712100  0.344700  1.0  0.1088
  H  H31  1  0.287900  0.232400  0.344700  1.0  0.1071
  H  H32  1  0.232400  0.944500  0.344700  1.0  0.1068
  H  H33  1  0.055500  0.287900  0.344700  1.0  0.1087
  H  H34  1  0.712100  0.767600  0.344700  1.0  0.1086
  H  H35  1  0.198700  0.099350  0.750000  1.0  0.0904
  H  H36  1  0.900650  0.801300  0.750000  1.0  0.0891
  H  H37  1  0.900650  0.099350  0.750000  1.0  0.0905
  H  H38  1  0.801300  0.900650  0.750000  1.0  0.0905
  H  H39  1  0.099350  0.198700  0.750000  1.0  0.0882
  H  H40  1  0.099350  0.900650  0.750000  1.0  0.0906
  H  H41  1  0.801300  0.900650  0.250000  1.0  0.0905
  H  H42  1  0.099350  0.198700  0.250000  1.0  0.0882
  H  H43  1  0.099350  0.900650  0.250000  1.0  0.0906
  H  H44  1  0.198700  0.099350  0.250000  1.0  0.0904
  H  H45  1  0.900650  0.801300  0.250000  1.0  0.0891
  H  H46  1  0.900650  0.099350  0.250000  1.0  0.0905
  C  C47  1  0.322200  0.108500  0.806000  1.0  -0.1059
  C  C48  1  0.426400  0.161700  0.803900  1.0  0.1325
  C  C49  1  0.491800  0.138900  0.861200  1.0  0.6562
  C  C50  1  0.786300  0.677800  0.806000  1.0  -0.1062
  C  C51  1  0.735300  0.573600  0.803900  1.0  0.1335
  C  C52  1  0.647100  0.508200  0.861200  1.0  0.6574
  C  C53  1  0.891500  0.213700  0.806000  1.0  -0.1076
  C  C54  1  0.838300  0.264700  0.803900  1.0  0.1319
  C  C55  1  0.861100  0.352900  0.861200  1.0  0.6581
  C  C56  1  0.677800  0.891500  0.806000  1.0  -0.1078
  C  C57  1  0.573600  0.838300  0.803900  1.0  0.1327
  C  C58  1  0.508200  0.861100  0.861200  1.0  0.6597
  C  C59  1  0.213700  0.322200  0.806000  1.0  -0.1047
  C  C60  1  0.264700  0.426400  0.803900  1.0  0.1321
  C  C61  1  0.352900  0.491800  0.861200  1.0  0.6571
  C  C62  1  0.108500  0.786300  0.806000  1.0  -0.1056
  C  C63  1  0.161700  0.735300  0.803900  1.0  0.1318
  C  C64  1  0.138900  0.647100  0.861200  1.0  0.6571
  C  C65  1  0.213700  0.891500  0.694000  1.0  -0.1041
  C  C66  1  0.264700  0.838300  0.696100  1.0  0.133
  C  C67  1  0.352900  0.861100  0.638800  1.0  0.6578
  C  C68  1  0.108500  0.322200  0.694000  1.0  -0.1041
  C  C69  1  0.161700  0.426400  0.696100  1.0  0.1327
  C  C70  1  0.138900  0.491800  0.638800  1.0  0.6573
  C  C71  1  0.677800  0.786300  0.694000  1.0  -0.1081
  C  C72  1  0.573600  0.735300  0.696100  1.0  0.1316
  C  C73  1  0.508200  0.647100  0.638800  1.0  0.66
  C  C74  1  0.786300  0.108500  0.694000  1.0  -0.1047
  C  C75  1  0.735300  0.161700  0.696100  1.0  0.134
  C  C76  1  0.647100  0.138900  0.638800  1.0  0.6598
  C  C77  1  0.891500  0.677800  0.694000  1.0  -0.1077
  C  C78  1  0.838300  0.573600  0.696100  1.0  0.1324
  C  C79  1  0.861100  0.508200  0.638800  1.0  0.6593
  C  C80  1  0.322200  0.213700  0.694000  1.0  -0.1041
  C  C81  1  0.426400  0.264700  0.696100  1.0  0.1338
  C  C82  1  0.491800  0.352900  0.638800  1.0  0.6577
  C  C83  1  0.677800  0.891500  0.194000  1.0  -0.1083
  C  C84  1  0.573600  0.838300  0.196100  1.0  0.1338
  C  C85  1  0.508200  0.861100  0.138800  1.0  0.6605
  C  C86  1  0.213700  0.322200  0.194000  1.0  -0.1044
  C  C87  1  0.264700  0.426400  0.196100  1.0  0.1325
  C  C88  1  0.352900  0.491800  0.138800  1.0  0.6578
  C  C89  1  0.108500  0.786300  0.194000  1.0  -0.1044
  C  C90  1  0.161700  0.735300  0.196100  1.0  0.1319
  C  C91  1  0.138900  0.647100  0.138800  1.0  0.6572
  C  C92  1  0.322200  0.108500  0.194000  1.0  -0.1035
  C  C93  1  0.426400  0.161700  0.196100  1.0  0.1333
  C  C94  1  0.491800  0.138900  0.138800  1.0  0.6563
  C  C95  1  0.786300  0.677800  0.194000  1.0  -0.1055
  C  C96  1  0.735300  0.573600  0.196100  1.0  0.1332
  C  C97  1  0.647100  0.508200  0.138800  1.0  0.6579
  C  C98  1  0.891500  0.213700  0.194000  1.0  -0.1081
  C  C99  1  0.838300  0.264700  0.196100  1.0  0.1331
  C  C100  1  0.861100  0.352900  0.138800  1.0  0.6592
  C  C101  1  0.786300  0.108500  0.306000  1.0  -0.1082
  C  C102  1  0.735300  0.161700  0.303900  1.0  0.1328
  C  C103  1  0.647100  0.138900  0.361200  1.0  0.6592
  C  C104  1  0.891500  0.677800  0.306000  1.0  -0.1078
  C  C105  1  0.838300  0.573600  0.303900  1.0  0.1326
  C  C106  1  0.861100  0.508200  0.361200  1.0  0.6591
  C  C107  1  0.322200  0.213700  0.306000  1.0  -0.105
  C  C108  1  0.426400  0.264700  0.303900  1.0  0.1318
  C  C109  1  0.491800  0.352900  0.361200  1.0  0.6567
  C  C110  1  0.213700  0.891500  0.306000  1.0  -0.1056
  C  C111  1  0.264700  0.838300  0.303900  1.0  0.1324
  C  C112  1  0.352900  0.861100  0.361200  1.0  0.6573
  C  C113  1  0.108500  0.322200  0.306000  1.0  -0.105
  C  C114  1  0.161700  0.426400  0.303900  1.0  0.1323
  C  C115  1  0.138900  0.491800  0.361200  1.0  0.6564
  C  C116  1  0.677800  0.786300  0.306000  1.0  -0.108
  C  C117  1  0.573600  0.735300  0.303900  1.0  0.1317
  C  C118  1  0.508200  0.647100  0.361200  1.0  0.6596
  C  C119  1  0.269400  0.134700  0.750000  1.0  -0.0372
  C  C120  1  0.865300  0.730600  0.750000  1.0  -0.0368
  C  C121  1  0.865300  0.134700  0.750000  1.0  -0.0382
  C  C122  1  0.730600  0.865300  0.750000  1.0  -0.0378
  C  C123  1  0.134700  0.269400  0.750000  1.0  -0.0356
  C  C124  1  0.134700  0.865300  0.750000  1.0  -0.0394
  C  C125  1  0.730600  0.865300  0.250000  1.0  -0.0391
  C  C126  1  0.134700  0.269400  0.250000  1.0  -0.0348
  C  C127  1  0.134700  0.865300  0.250000  1.0  -0.0383
  C  C128  1  0.269400  0.134700  0.250000  1.0  -0.0381
  C  C129  1  0.865300  0.730600  0.250000  1.0  -0.0333
  C  C130  1  0.865300  0.134700  0.250000  1.0  -0.0445
  N  N131  1  0.477800  0.238900  0.750000  1.0  -0.3736
  N  N132  1  0.761100  0.522200  0.750000  1.0  -0.3719
  N  N133  1  0.761100  0.238900  0.750000  1.0  -0.3733
  N  N134  1  0.522200  0.761100  0.750000  1.0  -0.373
  N  N135  1  0.238900  0.477800  0.750000  1.0  -0.374
  N  N136  1  0.238900  0.761100  0.750000  1.0  -0.373
  N  N137  1  0.522200  0.761100  0.250000  1.0  -0.373
  N  N138  1  0.238900  0.477800  0.250000  1.0  -0.374
  N  N139  1  0.238900  0.761100  0.250000  1.0  -0.373
  N  N140  1  0.477800  0.238900  0.250000  1.0  -0.3736
  N  N141  1  0.761100  0.522200  0.250000  1.0  -0.3719
  N  N142  1  0.761100  0.238900  0.250000  1.0  -0.3733
  O  O143  1  0.586400  0.198900  0.856520  1.0  -0.6534
  O  O144  1  0.447900  0.063100  0.908000  1.0  -0.6047
  O  O145  1  0.612500  0.413600  0.856520  1.0  -0.649
  O  O146  1  0.615200  0.552100  0.908000  1.0  -0.6036
  O  O147  1  0.801100  0.387500  0.856520  1.0  -0.6498
  O  O148  1  0.936900  0.384800  0.908000  1.0  -0.6063
  O  O149  1  0.413600  0.801100  0.856520  1.0  -0.6501
  O  O150  1  0.552100  0.936900  0.908000  1.0  -0.6049
  O  O151  1  0.387500  0.586400  0.856520  1.0  -0.6495
  O  O152  1  0.384800  0.447900  0.908000  1.0  -0.6053
  O  O153  1  0.198900  0.612500  0.856520  1.0  -0.6504
  O  O154  1  0.063100  0.615200  0.908000  1.0  -0.6055
  O  O155  1  0.387500  0.801100  0.643480  1.0  -0.6523
  O  O156  1  0.384800  0.936900  0.592000  1.0  -0.6051
  O  O157  1  0.198900  0.586400  0.643480  1.0  -0.6496
  O  O158  1  0.063100  0.447900  0.592000  1.0  -0.6045
  O  O159  1  0.413600  0.612500  0.643480  1.0  -0.65
  O  O160  1  0.552100  0.615200  0.592000  1.0  -0.6064
  O  O161  1  0.612500  0.198900  0.643480  1.0  -0.6505
  O  O162  1  0.615200  0.063100  0.592000  1.0  -0.6049
  O  O163  1  0.801100  0.413600  0.643480  1.0  -0.6497
  O  O164  1  0.936900  0.552100  0.592000  1.0  -0.6059
  O  O165  1  0.586400  0.387500  0.643480  1.0  -0.6513
  O  O166  1  0.447900  0.384800  0.592000  1.0  -0.6057
  O  O167  1  0.413600  0.801100  0.143480  1.0  -0.6507
  O  O168  1  0.552100  0.936900  0.092000  1.0  -0.6053
  O  O169  1  0.387500  0.586400  0.143480  1.0  -0.6498
  O  O170  1  0.384800  0.447900  0.092000  1.0  -0.6057
  O  O171  1  0.198900  0.612500  0.143480  1.0  -0.6527
  O  O172  1  0.063100  0.615200  0.092000  1.0  -0.6065
  O  O173  1  0.586400  0.198900  0.143480  1.0  -0.6538
  O  O174  1  0.447900  0.063100  0.092000  1.0  -0.6048
  O  O175  1  0.612500  0.413600  0.143480  1.0  -0.6495
  O  O176  1  0.615200  0.552100  0.092000  1.0  -0.605
  O  O177  1  0.801100  0.387500  0.143480  1.0  -0.6501
  O  O178  1  0.936900  0.384800  0.092000  1.0  -0.6066
  O  O179  1  0.612500  0.198900  0.356520  1.0  -0.6503
  O  O180  1  0.615200  0.063100  0.408000  1.0  -0.6048
  O  O181  1  0.801100  0.413600  0.356520  1.0  -0.649
  O  O182  1  0.936900  0.552100  0.408000  1.0  -0.6054
  O  O183  1  0.586400  0.387500  0.356520  1.0  -0.651
  O  O184  1  0.447900  0.384800  0.408000  1.0  -0.6056
  O  O185  1  0.387500  0.801100  0.356520  1.0  -0.6521
  O  O186  1  0.384800  0.936900  0.408000  1.0  -0.6049
  O  O187  1  0.198900  0.586400  0.356520  1.0  -0.6495
  O  O188  1  0.063100  0.447900  0.408000  1.0  -0.6043
  O  O189  1  0.413600  0.612500  0.356520  1.0  -0.6492
  O  O190  1  0.552100  0.615200  0.408000  1.0  -0.6064
