# generated using pymatgen
data_Zn3H42C59(N6O5)2
_symmetry_space_group_name_H-M   'P 1'
_cell_length_a   13.99140000
_cell_length_b   20.25610000
_cell_length_c   23.37030000
_cell_angle_alpha   90.00000000
_cell_angle_beta   90.00000000
_cell_angle_gamma   90.00000000
_symmetry_Int_Tables_number   1
_chemical_formula_structural   Zn3H42C59(N6O5)2
_chemical_formula_sum   'Zn12 H168 C236 N48 O40'
_cell_volume   6623.40470987
_cell_formula_units_Z   4
loop_
 _symmetry_equiv_pos_site_id
 _symmetry_equiv_pos_as_xyz
  1  'x, y, z'
loop_
 _atom_site_type_symbol
 _atom_site_label
 _atom_site_symmetry_multiplicity
 _atom_site_fract_x
 _atom_site_fract_y
 _atom_site_fract_z
 _atom_site_occupancy
 _atom_site_charge
  Zn  Zn1  1  0.822470  0.195150  0.247020  1.0  0.9173
  Zn  Zn2  1  0.633040  0.226590  0.996100  1.0  0.974
  Zn  Zn3  1  0.792880  0.314950  0.779210  1.0  0.8767
  Zn  Zn4  1  0.177530  0.804850  0.247020  1.0  0.9162
  Zn  Zn5  1  0.366960  0.773410  0.996100  1.0  0.9733
  Zn  Zn6  1  0.207120  0.685050  0.779210  1.0  0.8758
  Zn  Zn7  1  0.822470  0.804850  0.747020  1.0  0.9173
  Zn  Zn8  1  0.633040  0.773410  0.496100  1.0  0.9738
  Zn  Zn9  1  0.792880  0.685050  0.279210  1.0  0.8764
  Zn  Zn10  1  0.177530  0.195150  0.747020  1.0  0.9165
  Zn  Zn11  1  0.366960  0.226590  0.496100  1.0  0.9735
  Zn  Zn12  1  0.207120  0.314950  0.279210  1.0  0.8765
  H  H13  1  0.647000  0.303400  0.762800  1.0  0.3762
  H  H14  1  0.555800  0.313400  0.244000  1.0  0.0851
  H  H15  1  0.447900  0.396500  0.251800  1.0  0.0842
  H  H16  1  0.653700  0.527800  0.207200  1.0  0.105
  H  H17  1  0.763700  0.444900  0.212600  1.0  0.099
  H  H18  1  0.033200  0.136500  0.242300  1.0  0.0709
  H  H19  1  0.922000  0.275800  0.151700  1.0  0.0947
  H  H20  1  0.086700  0.258500  0.116600  1.0  0.1343
  H  H21  1  0.126400  0.057600  0.179900  1.0  0.1145
  H  H22  1  0.401400  0.055200  0.129200  1.0  0.1115
  H  H23  1  0.256900  0.231000  0.144000  1.0  0.1112
  H  H24  1  0.178900  0.963700  0.231700  1.0  0.1037
  H  H25  1  0.313300  0.833000  0.138500  1.0  0.0952
  H  H26  1  0.357400  0.942300  0.098000  1.0  0.1242
  H  H27  1  0.430800  0.265500  0.169800  1.0  0.0999
  H  H28  1  0.575400  0.298400  0.116900  1.0  0.1215
  H  H29  1  0.471200  0.132000  0.048100  1.0  0.0963
  H  H30  1  0.631600  0.971500  0.958800  1.0  0.1113
  H  H31  1  0.705100  0.888200  0.903300  1.0  0.0829
  H  H32  1  0.919700  0.015400  0.862700  1.0  0.1047
  H  H33  1  0.841900  0.096700  0.913300  1.0  0.0859
  H  H34  1  0.853700  0.373500  0.121000  1.0  0.1091
  H  H35  1  0.964000  0.461700  0.114200  1.0  0.1339
  H  H36  1  0.960800  0.455400  0.943400  1.0  0.1156
  H  H37  1  0.836700  0.369900  0.947500  1.0  0.0967
  H  H38  1  0.514300  0.158000  0.893600  1.0  0.0963
  H  H39  1  0.367700  0.204000  0.849700  1.0  0.1198
  H  H40  1  0.480500  0.333600  0.958300  1.0  0.0903
  H  H41  1  0.224100  0.258800  0.883300  1.0  0.117
  H  H42  1  0.119100  0.443900  0.856100  1.0  0.1179
  H  H43  1  0.402000  0.418400  0.886700  1.0  0.1059
  H  H44  1  0.053000  0.244900  0.914400  1.0  0.1263
  H  H45  1  0.893100  0.226100  0.874400  1.0  0.0973
  H  H46  1  0.012400  0.370400  0.786500  1.0  0.0997
  H  H47  1  0.172200  0.530100  0.802900  1.0  0.1164
  H  H48  1  0.381100  0.639700  0.866700  1.0  0.0861
  H  H49  1  0.395000  0.538000  0.910500  1.0  0.1156
  H  H50  1  0.730200  0.104800  0.805500  1.0  0.0921
  H  H51  1  0.656300  0.999300  0.800500  1.0  0.0948
  H  H52  1  0.411800  0.087400  0.751500  1.0  0.0848
  H  H53  1  0.483700  0.189700  0.753100  1.0  0.1037
  H  H54  1  0.777100  0.405900  0.032500  1.0  0.1193
  H  H55  1  0.353000  0.696600  0.762800  1.0  0.3755
  H  H56  1  0.444200  0.686600  0.244000  1.0  0.0852
  H  H57  1  0.552100  0.603500  0.251800  1.0  0.085
  H  H58  1  0.346300  0.472200  0.207200  1.0  0.1044
  H  H59  1  0.236300  0.555100  0.212600  1.0  0.0995
  H  H60  1  0.966800  0.863500  0.242300  1.0  0.0711
  H  H61  1  0.078000  0.724200  0.151700  1.0  0.0949
  H  H62  1  0.913300  0.741500  0.116600  1.0  0.1334
  H  H63  1  0.873600  0.942400  0.179900  1.0  0.115
  H  H64  1  0.598600  0.944800  0.129200  1.0  0.1102
  H  H65  1  0.743100  0.769000  0.144000  1.0  0.1131
  H  H66  1  0.821100  0.036300  0.231700  1.0  0.1039
  H  H67  1  0.686700  0.167000  0.138500  1.0  0.0951
  H  H68  1  0.642600  0.057700  0.098000  1.0  0.124
  H  H69  1  0.569200  0.734500  0.169800  1.0  0.1005
  H  H70  1  0.424600  0.701600  0.116900  1.0  0.1213
  H  H71  1  0.528800  0.868000  0.048100  1.0  0.0969
  H  H72  1  0.368400  0.028500  0.958800  1.0  0.1116
  H  H73  1  0.294900  0.111800  0.903300  1.0  0.0828
  H  H74  1  0.080300  0.984600  0.862700  1.0  0.1047
  H  H75  1  0.158100  0.903300  0.913300  1.0  0.0853
  H  H76  1  0.146300  0.626500  0.121000  1.0  0.1089
  H  H77  1  0.036000  0.538300  0.114200  1.0  0.1341
  H  H78  1  0.039200  0.544600  0.943400  1.0  0.1181
  H  H79  1  0.163300  0.630100  0.947500  1.0  0.0967
  H  H80  1  0.485700  0.842000  0.893600  1.0  0.0965
  H  H81  1  0.632300  0.796000  0.849700  1.0  0.12
  H  H82  1  0.519500  0.666400  0.958300  1.0  0.0897
  H  H83  1  0.775900  0.741200  0.883300  1.0  0.1164
  H  H84  1  0.880900  0.556100  0.856100  1.0  0.1178
  H  H85  1  0.598000  0.581600  0.886700  1.0  0.1052
  H  H86  1  0.947000  0.755100  0.914400  1.0  0.1267
  H  H87  1  0.106900  0.773900  0.874400  1.0  0.0971
  H  H88  1  0.987600  0.629600  0.786500  1.0  0.0996
  H  H89  1  0.827800  0.469900  0.802900  1.0  0.1157
  H  H90  1  0.618900  0.360300  0.866700  1.0  0.0858
  H  H91  1  0.605000  0.462000  0.910500  1.0  0.1153
  H  H92  1  0.269800  0.895200  0.805500  1.0  0.0918
  H  H93  1  0.343700  0.000700  0.800500  1.0  0.0952
  H  H94  1  0.588200  0.912600  0.751500  1.0  0.0848
  H  H95  1  0.516300  0.810300  0.753100  1.0  0.1031
  H  H96  1  0.222900  0.594100  0.032500  1.0  0.1172
  H  H97  1  0.647000  0.696600  0.262800  1.0  0.3759
  H  H98  1  0.555800  0.686600  0.744000  1.0  0.0854
  H  H99  1  0.447900  0.603500  0.751800  1.0  0.0849
  H  H100  1  0.653700  0.472200  0.707200  1.0  0.105
  H  H101  1  0.763700  0.555100  0.712600  1.0  0.0986
  H  H102  1  0.033200  0.863500  0.742300  1.0  0.0709
  H  H103  1  0.922000  0.724200  0.651700  1.0  0.0948
  H  H104  1  0.086700  0.741500  0.616600  1.0  0.1338
  H  H105  1  0.126400  0.942400  0.679900  1.0  0.115
  H  H106  1  0.401400  0.944800  0.629200  1.0  0.1114
  H  H107  1  0.256900  0.769000  0.644000  1.0  0.1127
  H  H108  1  0.178900  0.036300  0.731700  1.0  0.1039
  H  H109  1  0.313300  0.167000  0.638500  1.0  0.0956
  H  H110  1  0.357400  0.057700  0.598000  1.0  0.1242
  H  H111  1  0.430800  0.734500  0.669800  1.0  0.1014
  H  H112  1  0.575400  0.701600  0.616900  1.0  0.1213
  H  H113  1  0.471200  0.868000  0.548100  1.0  0.0967
  H  H114  1  0.631600  0.028500  0.458800  1.0  0.1116
  H  H115  1  0.705100  0.111800  0.403300  1.0  0.0827
  H  H116  1  0.919700  0.984600  0.362700  1.0  0.1047
  H  H117  1  0.841900  0.903300  0.413300  1.0  0.0857
  H  H118  1  0.853700  0.626500  0.621000  1.0  0.1094
  H  H119  1  0.964000  0.538300  0.614200  1.0  0.1341
  H  H120  1  0.960800  0.544600  0.443400  1.0  0.1157
  H  H121  1  0.836700  0.630100  0.447500  1.0  0.0968
  H  H122  1  0.514300  0.842000  0.393600  1.0  0.0965
  H  H123  1  0.367700  0.796000  0.349700  1.0  0.1203
  H  H124  1  0.480500  0.666400  0.458300  1.0  0.0902
  H  H125  1  0.224100  0.741200  0.383300  1.0  0.1167
  H  H126  1  0.119100  0.556100  0.356100  1.0  0.1178
  H  H127  1  0.402000  0.581600  0.386700  1.0  0.1064
  H  H128  1  0.053000  0.755100  0.414400  1.0  0.1264
  H  H129  1  0.893100  0.773900  0.374400  1.0  0.0972
  H  H130  1  0.012400  0.629600  0.286500  1.0  0.0998
  H  H131  1  0.172200  0.469900  0.302900  1.0  0.1161
  H  H132  1  0.381100  0.360300  0.366700  1.0  0.0864
  H  H133  1  0.395000  0.462000  0.410500  1.0  0.1152
  H  H134  1  0.730200  0.895200  0.305500  1.0  0.092
  H  H135  1  0.656300  0.000700  0.300500  1.0  0.095
  H  H136  1  0.411800  0.912600  0.251500  1.0  0.0847
  H  H137  1  0.483700  0.810300  0.253100  1.0  0.1032
  H  H138  1  0.777100  0.594100  0.532500  1.0  0.1184
  H  H139  1  0.353000  0.303400  0.262800  1.0  0.3771
  H  H140  1  0.444200  0.313400  0.744000  1.0  0.085
  H  H141  1  0.552100  0.396500  0.751800  1.0  0.0858
  H  H142  1  0.346300  0.527800  0.707200  1.0  0.1052
  H  H143  1  0.236300  0.444900  0.712600  1.0  0.0998
  H  H144  1  0.966800  0.136500  0.742300  1.0  0.0709
  H  H145  1  0.078000  0.275800  0.651700  1.0  0.0945
  H  H146  1  0.913300  0.258500  0.616600  1.0  0.1338
  H  H147  1  0.873600  0.057600  0.679900  1.0  0.1146
  H  H148  1  0.598600  0.055200  0.629200  1.0  0.1099
  H  H149  1  0.743100  0.231000  0.644000  1.0  0.1116
  H  H150  1  0.821100  0.963700  0.731700  1.0  0.1037
  H  H151  1  0.686700  0.833000  0.638500  1.0  0.0947
  H  H152  1  0.642600  0.942300  0.598000  1.0  0.1242
  H  H153  1  0.569200  0.265500  0.669800  1.0  0.1017
  H  H154  1  0.424600  0.298400  0.616900  1.0  0.1218
  H  H155  1  0.528800  0.132000  0.548100  1.0  0.0963
  H  H156  1  0.368400  0.971500  0.458800  1.0  0.1117
  H  H157  1  0.294900  0.888200  0.403300  1.0  0.0829
  H  H158  1  0.080300  0.015400  0.362700  1.0  0.1046
  H  H159  1  0.158100  0.096700  0.413300  1.0  0.086
  H  H160  1  0.146300  0.373500  0.621000  1.0  0.1086
  H  H161  1  0.036000  0.461700  0.614200  1.0  0.134
  H  H162  1  0.039200  0.455400  0.443400  1.0  0.118
  H  H163  1  0.163300  0.369900  0.447500  1.0  0.0967
  H  H164  1  0.485700  0.158000  0.393600  1.0  0.0961
  H  H165  1  0.632300  0.204000  0.349700  1.0  0.1198
  H  H166  1  0.519500  0.333600  0.458300  1.0  0.0897
  H  H167  1  0.775900  0.258800  0.383300  1.0  0.1167
  H  H168  1  0.880900  0.443900  0.356100  1.0  0.1179
  H  H169  1  0.598000  0.418400  0.386700  1.0  0.1048
  H  H170  1  0.947000  0.244900  0.414400  1.0  0.1265
  H  H171  1  0.106900  0.226100  0.374400  1.0  0.0974
  H  H172  1  0.987600  0.370400  0.286500  1.0  0.0997
  H  H173  1  0.827800  0.530100  0.302900  1.0  0.1159
  H  H174  1  0.618900  0.639700  0.366700  1.0  0.0857
  H  H175  1  0.605000  0.538000  0.410500  1.0  0.1153
  H  H176  1  0.269800  0.104800  0.305500  1.0  0.0919
  H  H177  1  0.343700  0.999300  0.300500  1.0  0.0949
  H  H178  1  0.588200  0.087400  0.251500  1.0  0.0849
  H  H179  1  0.516300  0.189700  0.253100  1.0  0.1034
  H  H180  1  0.222900  0.405900  0.532500  1.0  0.1173
  C  C181  1  0.745600  0.313900  0.234500  1.0  0.6645
  C  C182  1  0.674500  0.368200  0.231300  1.0  -0.0972
  C  C183  1  0.576700  0.356700  0.239600  1.0  -0.1297
  C  C184  1  0.510400  0.406700  0.241500  1.0  -0.1541
  C  C185  1  0.533700  0.474400  0.228300  1.0  0.043
  C  C186  1  0.633300  0.485500  0.216700  1.0  -0.1831
  C  C187  1  0.699800  0.434900  0.219200  1.0  -0.089
  C  C188  1  0.025900  0.169200  0.214700  1.0  0.1935
  C  C189  1  0.965800  0.245600  0.166400  1.0  -0.0126
  C  C190  1  0.056000  0.235000  0.145500  1.0  -0.1343
  C  C191  1  0.178700  0.151600  0.164800  1.0  0.1875
  C  C192  1  0.180600  0.081100  0.169000  1.0  -0.1657
  C  C193  1  0.265900  0.048800  0.156400  1.0  0.1501
  C  C194  1  0.346300  0.078600  0.138300  1.0  -0.1712
  C  C195  1  0.340700  0.151100  0.134000  1.0  0.1079
  C  C196  1  0.258400  0.185300  0.147100  1.0  -0.214
  C  C197  1  0.217000  0.943800  0.204100  1.0  0.128
  C  C198  1  0.291700  0.873200  0.152700  1.0  0.0752
  C  C199  1  0.317100  0.933300  0.128600  1.0  -0.0926
  C  C200  1  0.457100  0.243300  0.138700  1.0  -0.0693
  C  C201  1  0.536600  0.262200  0.109100  1.0  -0.0697
  C  C202  1  0.478200  0.169200  0.070900  1.0  0.1611
  C  C203  1  0.671400  0.096600  0.967800  1.0  0.5067
  C  C204  1  0.727900  0.044800  0.937800  1.0  -0.1553
  C  C205  1  0.686700  0.980400  0.937900  1.0  -0.1331
  C  C206  1  0.732600  0.929900  0.905000  1.0  -0.0496
  C  C207  1  0.817500  0.941800  0.875400  1.0  -0.1634
  C  C208  1  0.861200  0.006600  0.880000  1.0  -0.1526
  C  C209  1  0.814100  0.055100  0.910800  1.0  -0.0687
  C  C210  1  0.856100  0.891600  0.834700  1.0  0.6254
  C  C211  1  0.754700  0.315600  0.032500  1.0  0.5831
  C  C212  1  0.826500  0.371600  0.031700  1.0  -0.0498
  C  C213  1  0.869000  0.392900  0.086100  1.0  -0.1843
  C  C214  1  0.936000  0.445800  0.080800  1.0  -0.1869
  C  C215  1  0.962100  0.474900  0.030400  1.0  -0.0235
  C  C216  1  0.933700  0.443100  0.978200  1.0  -0.115
  C  C217  1  0.859300  0.389800  0.980700  1.0  -0.1459
  C  C218  1  0.489200  0.199700  0.900900  1.0  0.0447
  C  C219  1  0.407800  0.224800  0.875800  1.0  -0.1097
  C  C220  1  0.471800  0.295900  0.936200  1.0  0.1785
  C  C221  1  0.320600  0.331700  0.886900  1.0  0.139
  C  C222  1  0.232900  0.304100  0.879400  1.0  -0.1813
  C  C223  1  0.156600  0.345500  0.865700  1.0  0.1468
  C  C224  1  0.170100  0.415200  0.862000  1.0  -0.1945
  C  C225  1  0.260700  0.437500  0.867600  1.0  0.1772
  C  C226  1  0.341500  0.400400  0.881500  1.0  -0.1183
  C  C227  1  0.024500  0.268300  0.884800  1.0  -0.1463
  C  C228  1  0.936400  0.258100  0.862300  1.0  0.0068
  C  C229  1  0.001300  0.338200  0.814000  1.0  0.1538
  C  C230  1  0.224000  0.545200  0.824100  1.0  0.0487
  C  C231  1  0.339500  0.604700  0.860300  1.0  0.0844
  C  C232  1  0.349400  0.550000  0.883400  1.0  -0.0517
  C  C233  1  0.665500  0.222000  0.781100  1.0  0.6314
  C  C234  1  0.613700  0.156500  0.780500  1.0  -0.0989
  C  C235  1  0.666300  0.100900  0.794800  1.0  -0.0132
  C  C236  1  0.621200  0.037300  0.793000  1.0  -0.1205
  C  C237  1  0.523000  0.033000  0.779900  1.0  -0.0245
  C  C238  1  0.475100  0.090700  0.763300  1.0  -0.1127
  C  C239  1  0.517700  0.152200  0.763700  1.0  -0.1444
  C  C240  1  0.254400  0.686100  0.234500  1.0  0.6643
  C  C241  1  0.325500  0.631800  0.231300  1.0  -0.0957
  C  C242  1  0.423300  0.643300  0.239600  1.0  -0.129
  C  C243  1  0.489600  0.593300  0.241500  1.0  -0.1524
  C  C244  1  0.466300  0.525600  0.228300  1.0  0.0423
  C  C245  1  0.366700  0.514500  0.216700  1.0  -0.1826
  C  C246  1  0.300200  0.565100  0.219200  1.0  -0.085
  C  C247  1  0.974100  0.830800  0.214700  1.0  0.1928
  C  C248  1  0.034200  0.754400  0.166400  1.0  -0.0122
  C  C249  1  0.944000  0.765000  0.145500  1.0  -0.1341
  C  C250  1  0.821300  0.848400  0.164800  1.0  0.1878
  C  C251  1  0.819400  0.918900  0.169000  1.0  -0.1672
  C  C252  1  0.734100  0.951200  0.156400  1.0  0.1502
  C  C253  1  0.653700  0.921400  0.138300  1.0  -0.171
  C  C254  1  0.659300  0.848900  0.134000  1.0  0.1088
  C  C255  1  0.741600  0.814700  0.147100  1.0  -0.2149
  C  C256  1  0.783000  0.056200  0.204100  1.0  0.1273
  C  C257  1  0.708300  0.126800  0.152700  1.0  0.0751
  C  C258  1  0.682900  0.066700  0.128600  1.0  -0.0916
  C  C259  1  0.542900  0.756700  0.138700  1.0  -0.0701
  C  C260  1  0.463400  0.737800  0.109100  1.0  -0.0708
  C  C261  1  0.521800  0.830800  0.070900  1.0  0.1597
  C  C262  1  0.328600  0.903400  0.967800  1.0  0.5068
  C  C263  1  0.272100  0.955200  0.937800  1.0  -0.1549
  C  C264  1  0.313300  0.019600  0.937900  1.0  -0.134
  C  C265  1  0.267400  0.070100  0.905000  1.0  -0.0514
  C  C266  1  0.182500  0.058200  0.875400  1.0  -0.1642
  C  C267  1  0.138800  0.993400  0.880000  1.0  -0.1507
  C  C268  1  0.185900  0.944900  0.910800  1.0  -0.0689
  C  C269  1  0.143900  0.108400  0.834700  1.0  0.6265
  C  C270  1  0.245300  0.684400  0.032500  1.0  0.5842
  C  C271  1  0.173500  0.628400  0.031700  1.0  -0.0513
  C  C272  1  0.131000  0.607100  0.086100  1.0  -0.184
  C  C273  1  0.064000  0.554200  0.080800  1.0  -0.1897
  C  C274  1  0.037900  0.525100  0.030400  1.0  -0.0236
  C  C275  1  0.066300  0.556900  0.978200  1.0  -0.1152
  C  C276  1  0.140700  0.610200  0.980700  1.0  -0.144
  C  C277  1  0.510800  0.800300  0.900900  1.0  0.0439
  C  C278  1  0.592200  0.775200  0.875800  1.0  -0.1092
  C  C279  1  0.528200  0.704100  0.936200  1.0  0.179
  C  C280  1  0.679400  0.668300  0.886900  1.0  0.1395
  C  C281  1  0.767100  0.695900  0.879400  1.0  -0.1812
  C  C282  1  0.843400  0.654500  0.865700  1.0  0.1465
  C  C283  1  0.829900  0.584800  0.862000  1.0  -0.1914
  C  C284  1  0.739300  0.562500  0.867600  1.0  0.1768
  C  C285  1  0.658500  0.599600  0.881500  1.0  -0.1215
  C  C286  1  0.975500  0.731700  0.884800  1.0  -0.1477
  C  C287  1  0.063600  0.741900  0.862300  1.0  0.0072
  C  C288  1  0.998700  0.661800  0.814000  1.0  0.1537
  C  C289  1  0.776000  0.454800  0.824100  1.0  0.0466
  C  C290  1  0.660500  0.395300  0.860300  1.0  0.0851
  C  C291  1  0.650600  0.450000  0.883400  1.0  -0.0529
  C  C292  1  0.334500  0.778000  0.781100  1.0  0.6332
  C  C293  1  0.386300  0.843500  0.780500  1.0  -0.0987
  C  C294  1  0.333700  0.899100  0.794800  1.0  -0.0112
  C  C295  1  0.378800  0.962700  0.793000  1.0  -0.1193
  C  C296  1  0.477000  0.967000  0.779900  1.0  -0.0246
  C  C297  1  0.524900  0.909300  0.763300  1.0  -0.1127
  C  C298  1  0.482300  0.847800  0.763700  1.0  -0.1463
  C  C299  1  0.745600  0.686100  0.734500  1.0  0.6647
  C  C300  1  0.674500  0.631800  0.731300  1.0  -0.096
  C  C301  1  0.576700  0.643300  0.739600  1.0  -0.129
  C  C302  1  0.510400  0.593300  0.741500  1.0  -0.1536
  C  C303  1  0.533700  0.525600  0.728300  1.0  0.0426
  C  C304  1  0.633300  0.514500  0.716700  1.0  -0.1822
  C  C305  1  0.699800  0.565100  0.719200  1.0  -0.0891
  C  C306  1  0.025900  0.830800  0.714700  1.0  0.1928
  C  C307  1  0.965800  0.754400  0.666400  1.0  -0.0125
  C  C308  1  0.056000  0.765000  0.645500  1.0  -0.1343
  C  C309  1  0.178700  0.848400  0.664800  1.0  0.1876
  C  C310  1  0.180600  0.918900  0.669000  1.0  -0.1671
  C  C311  1  0.265900  0.951200  0.656400  1.0  0.1505
  C  C312  1  0.346300  0.921400  0.638300  1.0  -0.1713
  C  C313  1  0.340700  0.848900  0.634000  1.0  0.1085
  C  C314  1  0.258400  0.814700  0.647100  1.0  -0.2151
  C  C315  1  0.217000  0.056200  0.704100  1.0  0.1283
  C  C316  1  0.291700  0.126800  0.652700  1.0  0.0749
  C  C317  1  0.317100  0.066700  0.628600  1.0  -0.0923
  C  C318  1  0.457100  0.756700  0.638700  1.0  -0.0705
  C  C319  1  0.536600  0.737800  0.609100  1.0  -0.0708
  C  C320  1  0.478200  0.830800  0.570900  1.0  0.1604
  C  C321  1  0.671400  0.903400  0.467800  1.0  0.5067
  C  C322  1  0.727900  0.955200  0.437800  1.0  -0.1549
  C  C323  1  0.686700  0.019600  0.437900  1.0  -0.133
  C  C324  1  0.732600  0.070100  0.405000  1.0  -0.0493
  C  C325  1  0.817500  0.058200  0.375400  1.0  -0.1644
  C  C326  1  0.861200  0.993400  0.380000  1.0  -0.1523
  C  C327  1  0.814100  0.944900  0.410800  1.0  -0.07
  C  C328  1  0.856100  0.108400  0.334700  1.0  0.6256
  C  C329  1  0.754700  0.684400  0.532500  1.0  0.5825
  C  C330  1  0.826500  0.628400  0.531700  1.0  -0.0502
  C  C331  1  0.869000  0.607100  0.586100  1.0  -0.1838
  C  C332  1  0.936000  0.554200  0.580800  1.0  -0.1866
  C  C333  1  0.962100  0.525100  0.530400  1.0  -0.0237
  C  C334  1  0.933700  0.556900  0.478200  1.0  -0.1151
  C  C335  1  0.859300  0.610200  0.480700  1.0  -0.1446
  C  C336  1  0.489200  0.800300  0.400900  1.0  0.0443
  C  C337  1  0.407800  0.775200  0.375800  1.0  -0.1098
  C  C338  1  0.471800  0.704100  0.436200  1.0  0.179
  C  C339  1  0.320600  0.668300  0.386900  1.0  0.1394
  C  C340  1  0.232900  0.695900  0.379400  1.0  -0.1826
  C  C341  1  0.156600  0.654500  0.365700  1.0  0.1468
  C  C342  1  0.170100  0.584800  0.362000  1.0  -0.1936
  C  C343  1  0.260700  0.562500  0.367600  1.0  0.1771
  C  C344  1  0.341500  0.599600  0.381500  1.0  -0.1179
  C  C345  1  0.024500  0.731700  0.384800  1.0  -0.147
  C  C346  1  0.936400  0.741900  0.362300  1.0  0.006
  C  C347  1  0.001300  0.661800  0.314000  1.0  0.1535
  C  C348  1  0.224000  0.454800  0.324100  1.0  0.0476
  C  C349  1  0.339500  0.395300  0.360300  1.0  0.0846
  C  C350  1  0.349400  0.450000  0.383400  1.0  -0.0514
  C  C351  1  0.665500  0.778000  0.281100  1.0  0.6323
  C  C352  1  0.613700  0.843500  0.280500  1.0  -0.0985
  C  C353  1  0.666300  0.899100  0.294800  1.0  -0.0131
  C  C354  1  0.621200  0.962700  0.293000  1.0  -0.1197
  C  C355  1  0.523000  0.967000  0.279900  1.0  -0.0241
  C  C356  1  0.475100  0.909300  0.263300  1.0  -0.1126
  C  C357  1  0.517700  0.847800  0.263700  1.0  -0.1449
  C  C358  1  0.254400  0.313900  0.734500  1.0  0.6642
  C  C359  1  0.325500  0.368200  0.731300  1.0  -0.0966
  C  C360  1  0.423300  0.356700  0.739600  1.0  -0.13
  C  C361  1  0.489600  0.406700  0.741500  1.0  -0.1532
  C  C362  1  0.466300  0.474400  0.728300  1.0  0.0429
  C  C363  1  0.366700  0.485500  0.716700  1.0  -0.1832
  C  C364  1  0.300200  0.434900  0.719200  1.0  -0.0849
  C  C365  1  0.974100  0.169200  0.714700  1.0  0.1935
  C  C366  1  0.034200  0.245600  0.666400  1.0  -0.012
  C  C367  1  0.944000  0.235000  0.645500  1.0  -0.134
  C  C368  1  0.821300  0.151600  0.664800  1.0  0.1877
  C  C369  1  0.819400  0.081100  0.669000  1.0  -0.1661
  C  C370  1  0.734100  0.048800  0.656400  1.0  0.1496
  C  C371  1  0.653700  0.078600  0.638300  1.0  -0.1706
  C  C372  1  0.659300  0.151100  0.634000  1.0  0.1084
  C  C373  1  0.741600  0.185300  0.647100  1.0  -0.214
  C  C374  1  0.783000  0.943800  0.704100  1.0  0.1271
  C  C375  1  0.708300  0.873200  0.652700  1.0  0.0758
  C  C376  1  0.682900  0.933300  0.628600  1.0  -0.0919
  C  C377  1  0.542900  0.243300  0.638700  1.0  -0.0687
  C  C378  1  0.463400  0.262200  0.609100  1.0  -0.0699
  C  C379  1  0.521800  0.169200  0.570900  1.0  0.1604
  C  C380  1  0.328600  0.096600  0.467800  1.0  0.5069
  C  C381  1  0.272100  0.044800  0.437800  1.0  -0.1551
  C  C382  1  0.313300  0.980400  0.437900  1.0  -0.1345
  C  C383  1  0.267400  0.929900  0.405000  1.0  -0.0511
  C  C384  1  0.182500  0.941800  0.375400  1.0  -0.1642
  C  C385  1  0.138800  0.006600  0.380000  1.0  -0.1505
  C  C386  1  0.185900  0.055100  0.410800  1.0  -0.0677
  C  C387  1  0.143900  0.891600  0.334700  1.0  0.6266
  C  C388  1  0.245300  0.315600  0.532500  1.0  0.5846
  C  C389  1  0.173500  0.371600  0.531700  1.0  -0.0518
  C  C390  1  0.131000  0.392900  0.586100  1.0  -0.1844
  C  C391  1  0.064000  0.445800  0.580800  1.0  -0.1899
  C  C392  1  0.037900  0.474900  0.530400  1.0  -0.0234
  C  C393  1  0.066300  0.443100  0.478200  1.0  -0.1151
  C  C394  1  0.140700  0.389800  0.480700  1.0  -0.1451
  C  C395  1  0.510800  0.199700  0.400900  1.0  0.0443
  C  C396  1  0.592200  0.224800  0.375800  1.0  -0.1093
  C  C397  1  0.528200  0.295900  0.436200  1.0  0.1782
  C  C398  1  0.679400  0.331700  0.386900  1.0  0.1392
  C  C399  1  0.767100  0.304100  0.379400  1.0  -0.1802
  C  C400  1  0.843400  0.345500  0.365700  1.0  0.1465
  C  C401  1  0.829900  0.415200  0.362000  1.0  -0.1921
  C  C402  1  0.739300  0.437500  0.367600  1.0  0.1771
  C  C403  1  0.658500  0.400400  0.381500  1.0  -0.1225
  C  C404  1  0.975500  0.268300  0.384800  1.0  -0.147
  C  C405  1  0.063600  0.258100  0.362300  1.0  0.0078
  C  C406  1  0.998700  0.338200  0.314000  1.0  0.1534
  C  C407  1  0.776000  0.545200  0.324100  1.0  0.0479
  C  C408  1  0.660500  0.604700  0.360300  1.0  0.0831
  C  C409  1  0.650600  0.550000  0.383400  1.0  -0.0527
  C  C410  1  0.334500  0.222000  0.281100  1.0  0.6321
  C  C411  1  0.386300  0.156500  0.280500  1.0  -0.099
  C  C412  1  0.333700  0.100900  0.294800  1.0  -0.0112
  C  C413  1  0.378800  0.037300  0.293000  1.0  -0.12
  C  C414  1  0.477000  0.033000  0.279900  1.0  -0.0249
  C  C415  1  0.524900  0.090700  0.263300  1.0  -0.113
  C  C416  1  0.482300  0.152200  0.263700  1.0  -0.1455
  N  N417  1  0.950300  0.205300  0.211500  1.0  -0.4059
  N  N418  1  0.092200  0.182000  0.176200  1.0  0.0079
  N  N419  1  0.265900  0.975800  0.162600  1.0  -0.0378
  N  N420  1  0.232500  0.877800  0.198900  1.0  -0.4823
  N  N421  1  0.421800  0.185000  0.114500  1.0  0.0306
  N  N422  1  0.548500  0.216200  0.064500  1.0  -0.3668
  N  N423  1  0.527900  0.244400  0.937800  1.0  -0.354
  N  N424  1  0.398900  0.287400  0.898200  1.0  0.0044
  N  N425  1  0.063600  0.320600  0.854700  1.0  0.0381
  N  N426  1  0.921200  0.303100  0.818400  1.0  -0.3825
  N  N427  1  0.277400  0.510200  0.860100  1.0  -0.0689
  N  N428  1  0.261400  0.609300  0.824500  1.0  -0.4517
  N  N429  1  0.049700  0.794700  0.211500  1.0  -0.4058
  N  N430  1  0.907800  0.818000  0.176200  1.0  0.0096
  N  N431  1  0.734100  0.024200  0.162600  1.0  -0.0395
  N  N432  1  0.767500  0.122200  0.198900  1.0  -0.4815
  N  N433  1  0.578200  0.815000  0.114500  1.0  0.0312
  N  N434  1  0.451500  0.783800  0.064500  1.0  -0.3665
  N  N435  1  0.472100  0.755600  0.937800  1.0  -0.3548
  N  N436  1  0.601100  0.712600  0.898200  1.0  0.005
  N  N437  1  0.936400  0.679400  0.854700  1.0  0.0381
  N  N438  1  0.078800  0.696900  0.818400  1.0  -0.382
  N  N439  1  0.722600  0.489800  0.860100  1.0  -0.0692
  N  N440  1  0.738600  0.390700  0.824500  1.0  -0.45
  N  N441  1  0.950300  0.794700  0.711500  1.0  -0.4057
  N  N442  1  0.092200  0.818000  0.676200  1.0  0.0081
  N  N443  1  0.265900  0.024200  0.662600  1.0  -0.0389
  N  N444  1  0.232500  0.122200  0.698900  1.0  -0.4821
  N  N445  1  0.421800  0.815000  0.614500  1.0  0.0309
  N  N446  1  0.548500  0.783800  0.564500  1.0  -0.3665
  N  N447  1  0.527900  0.755600  0.437800  1.0  -0.3547
  N  N448  1  0.398900  0.712600  0.398200  1.0  0.0046
  N  N449  1  0.063600  0.679400  0.354700  1.0  0.0378
  N  N450  1  0.921200  0.696900  0.318400  1.0  -0.3831
  N  N451  1  0.277400  0.489800  0.360100  1.0  -0.0695
  N  N452  1  0.261400  0.390700  0.324500  1.0  -0.4514
  N  N453  1  0.049700  0.205300  0.711500  1.0  -0.406
  N  N454  1  0.907800  0.182000  0.676200  1.0  0.0093
  N  N455  1  0.734100  0.975800  0.662600  1.0  -0.0388
  N  N456  1  0.767500  0.877800  0.698900  1.0  -0.4811
  N  N457  1  0.578200  0.185000  0.614500  1.0  0.0306
  N  N458  1  0.451500  0.216200  0.564500  1.0  -0.3666
  N  N459  1  0.472100  0.244400  0.437800  1.0  -0.3542
  N  N460  1  0.601100  0.287400  0.398200  1.0  0.0045
  N  N461  1  0.936400  0.320600  0.354700  1.0  0.0384
  N  N462  1  0.078800  0.303100  0.318400  1.0  -0.3815
  N  N463  1  0.722600  0.510200  0.360100  1.0  -0.0686
  N  N464  1  0.738600  0.609300  0.324500  1.0  -0.4501
  O  O465  1  0.832600  0.331200  0.231200  1.0  -0.5878
  O  O466  1  0.719400  0.258400  0.242700  1.0  -0.552
  O  O467  1  0.595900  0.090400  0.987000  1.0  -0.5076
  O  O468  1  0.712800  0.156600  0.966400  1.0  -0.5926
  O  O469  1  0.805100  0.840200  0.824100  1.0  -0.595
  O  O470  1  0.932700  0.906600  0.809100  1.0  -0.6198
  O  O471  1  0.754000  0.278200  0.076700  1.0  -0.5742
  O  O472  1  0.704500  0.305400  0.992900  1.0  -0.554
  O  O473  1  0.752600  0.228000  0.789700  1.0  -0.5611
  O  O474  1  0.613200  0.271500  0.770200  1.0  -0.5165
  O  O475  1  0.167400  0.668800  0.231200  1.0  -0.589
  O  O476  1  0.280600  0.741600  0.242700  1.0  -0.5525
  O  O477  1  0.404100  0.909600  0.987000  1.0  -0.5069
  O  O478  1  0.287200  0.843400  0.966400  1.0  -0.5919
  O  O479  1  0.194900  0.159800  0.824100  1.0  -0.5944
  O  O480  1  0.067300  0.093400  0.809100  1.0  -0.6208
  O  O481  1  0.246000  0.721800  0.076700  1.0  -0.5767
  O  O482  1  0.295500  0.694600  0.992900  1.0  -0.5543
  O  O483  1  0.247400  0.772000  0.789700  1.0  -0.5604
  O  O484  1  0.386800  0.728500  0.770200  1.0  -0.5177
  O  O485  1  0.832600  0.668800  0.731200  1.0  -0.5878
  O  O486  1  0.719400  0.741600  0.742700  1.0  -0.5525
  O  O487  1  0.595900  0.909600  0.487000  1.0  -0.507
  O  O488  1  0.712800  0.843400  0.466400  1.0  -0.5911
  O  O489  1  0.805100  0.159800  0.324100  1.0  -0.5947
  O  O490  1  0.932700  0.093400  0.309100  1.0  -0.6197
  O  O491  1  0.754000  0.721800  0.576700  1.0  -0.5763
  O  O492  1  0.704500  0.694600  0.492900  1.0  -0.5537
  O  O493  1  0.752600  0.772000  0.289700  1.0  -0.5608
  O  O494  1  0.613200  0.728500  0.270200  1.0  -0.5154
  O  O495  1  0.167400  0.331200  0.731200  1.0  -0.589
  O  O496  1  0.280600  0.258400  0.742700  1.0  -0.5516
  O  O497  1  0.404100  0.090400  0.487000  1.0  -0.507
  O  O498  1  0.287200  0.156600  0.466400  1.0  -0.5926
  O  O499  1  0.194900  0.840200  0.324100  1.0  -0.5947
  O  O500  1  0.067300  0.906600  0.309100  1.0  -0.6208
  O  O501  1  0.246000  0.278200  0.576700  1.0  -0.5742
  O  O502  1  0.295500  0.305400  0.492900  1.0  -0.5545
  O  O503  1  0.247400  0.228000  0.289700  1.0  -0.561
  O  O504  1  0.386800  0.271500  0.270200  1.0  -0.518
