# generated using pymatgen
data_Sc(CO2)4
_symmetry_space_group_name_H-M   'P 1'
_cell_length_a   8.59400000
_cell_length_b   8.59400000
_cell_length_c   12.44410000
_cell_angle_alpha   90.00000000
_cell_angle_beta   90.00000000
_cell_angle_gamma   120.00000000
_symmetry_Int_Tables_number   1
_chemical_formula_structural   Sc(CO2)4
_chemical_formula_sum   'Sc3 C12 O24'
_cell_volume   795.94823274
_cell_formula_units_Z   3
loop_
 _symmetry_equiv_pos_site_id
 _symmetry_equiv_pos_as_xyz
  1  'x, y, z'
loop_
 _atom_site_type_symbol
 _atom_site_label
 _atom_site_symmetry_multiplicity
 _atom_site_fract_x
 _atom_site_fract_y
 _atom_site_fract_z
 _atom_site_occupancy
 _atom_site_charge
  Sc  Sc1  1  0.500000  0.000000  0.000000  1.0  1.9124
  Sc  Sc2  1  0.000000  0.500000  0.666667  1.0  1.9125
  Sc  Sc3  1  0.500000  0.500000  0.333333  1.0  1.9125
  C  C4  1  0.589300  0.794650  0.166670  1.0  0.5817
  C  C5  1  0.379300  0.689650  0.166670  1.0  0.5238
  C  C6  1  0.205350  0.794650  0.833330  1.0  0.5811
  C  C7  1  0.310350  0.689650  0.833330  1.0  0.5245
  C  C8  1  0.205350  0.410700  0.500000  1.0  0.5781
  C  C9  1  0.310350  0.620700  0.500000  1.0  0.5223
  C  C10  1  0.410700  0.205350  0.166670  1.0  0.5802
  C  C11  1  0.620700  0.310350  0.166670  1.0  0.5255
  C  C12  1  0.794650  0.205350  0.833330  1.0  0.5812
  C  C13  1  0.689650  0.310350  0.833330  1.0  0.5245
  C  C14  1  0.794650  0.589300  0.500000  1.0  0.5767
  C  C15  1  0.689650  0.379300  0.500000  1.0  0.5244
  O  O16  1  0.663000  0.914800  0.098900  1.0  -0.5121
  O  O17  1  0.307600  0.751300  0.104400  1.0  -0.5197
  O  O18  1  0.085200  0.748200  0.765570  1.0  -0.5098
  O  O19  1  0.248700  0.556300  0.771070  1.0  -0.5184
  O  O20  1  0.251800  0.337000  0.432230  1.0  -0.5127
  O  O21  1  0.443700  0.692400  0.437730  1.0  -0.513
  O  O22  1  0.337000  0.085200  0.098900  1.0  -0.512
  O  O23  1  0.692400  0.248700  0.104400  1.0  -0.519
  O  O24  1  0.914800  0.251800  0.765570  1.0  -0.5101
  O  O25  1  0.751300  0.443700  0.771070  1.0  -0.518
  O  O26  1  0.748200  0.663000  0.432230  1.0  -0.5102
  O  O27  1  0.556300  0.307600  0.437730  1.0  -0.5143
  O  O28  1  0.914800  0.663000  0.567770  1.0  -0.514
  O  O29  1  0.751300  0.307600  0.562270  1.0  -0.5144
  O  O30  1  0.748200  0.085200  0.901100  1.0  -0.5155
  O  O31  1  0.556300  0.248700  0.895600  1.0  -0.5196
  O  O32  1  0.337000  0.251800  0.234430  1.0  -0.5129
  O  O33  1  0.692400  0.443700  0.228930  1.0  -0.5167
  O  O34  1  0.085200  0.337000  0.567770  1.0  -0.5174
  O  O35  1  0.248700  0.692400  0.562270  1.0  -0.5129
  O  O36  1  0.251800  0.914800  0.901100  1.0  -0.517
  O  O37  1  0.443700  0.751300  0.895600  1.0  -0.5202
  O  O38  1  0.663000  0.748200  0.234430  1.0  -0.5132
  O  O39  1  0.307600  0.556300  0.228930  1.0  -0.5182
