# generated using pymatgen
data_BaCuH4C12(SO4)2
_symmetry_space_group_name_H-M   'P 1'
_cell_length_a   12.72100000
_cell_length_b   13.82000000
_cell_length_c   14.86600000
_cell_angle_alpha   90.00000000
_cell_angle_beta   90.00000000
_cell_angle_gamma   90.00000000
_symmetry_Int_Tables_number   1
_chemical_formula_structural   BaCuH4C12(SO4)2
_chemical_formula_sum   'Ba4 Cu4 H16 C48 S8 O32'
_cell_volume   2613.50553452
_cell_formula_units_Z   4
loop_
 _symmetry_equiv_pos_site_id
 _symmetry_equiv_pos_as_xyz
  1  'x, y, z'
loop_
 _atom_site_type_symbol
 _atom_site_label
 _atom_site_symmetry_multiplicity
 _atom_site_fract_x
 _atom_site_fract_y
 _atom_site_fract_z
 _atom_site_occupancy
 _atom_site_charge
  Ba  Ba1  1  0.295080  0.198970  0.419920  1.0  1.6448
  Ba  Ba2  1  0.204920  0.801030  0.919920  1.0  1.6462
  Ba  Ba3  1  0.704920  0.698970  0.080080  1.0  1.6474
  Ba  Ba4  1  0.795080  0.301030  0.580080  1.0  1.6464
  Cu  Cu5  1  0.499880  0.362490  0.485070  1.0  0.9337
  Cu  Cu6  1  0.000120  0.637510  0.985070  1.0  0.9334
  Cu  Cu7  1  0.500120  0.862490  0.014930  1.0  0.9335
  Cu  Cu8  1  0.999880  0.137510  0.514930  1.0  0.9341
  H  H9  1  0.748300  0.561300  0.714800  1.0  0.1153
  H  H10  1  0.710000  0.677400  0.831100  1.0  0.1056
  H  H11  1  0.779600  0.109000  0.364300  1.0  0.1081
  H  H12  1  0.780900  0.983000  0.248400  1.0  0.1147
  H  H13  1  0.751700  0.438700  0.214800  1.0  0.1153
  H  H14  1  0.790000  0.322600  0.331100  1.0  0.1059
  H  H15  1  0.720400  0.891000  0.864300  1.0  0.1075
  H  H16  1  0.719100  0.017000  0.748400  1.0  0.115
  H  H17  1  0.251700  0.061300  0.785200  1.0  0.1159
  H  H18  1  0.290000  0.177400  0.668900  1.0  0.1058
  H  H19  1  0.220400  0.609000  0.135700  1.0  0.1078
  H  H20  1  0.219100  0.483000  0.251600  1.0  0.115
  H  H21  1  0.248300  0.938700  0.285200  1.0  0.1155
  H  H22  1  0.210000  0.822600  0.168900  1.0  0.1054
  H  H23  1  0.279600  0.391000  0.635700  1.0  0.1083
  H  H24  1  0.280900  0.517000  0.751600  1.0  0.1151
  C  C25  1  0.586100  0.486400  0.600400  1.0  0.7131
  C  C26  1  0.594100  0.558300  0.678100  1.0  -0.19
  C  C27  1  0.681200  0.584900  0.726300  1.0  -0.0588
  C  C28  1  0.659000  0.650700  0.793800  1.0  -0.0382
  C  C29  1  0.555300  0.672200  0.800100  1.0  -0.2087
  C  C30  1  0.500300  0.736200  0.866800  1.0  0.7047
  C  C31  1  0.602200  0.223500  0.396700  1.0  0.7152
  C  C32  1  0.629300  0.141400  0.334100  1.0  -0.2158
  C  C33  1  0.722000  0.094500  0.328300  1.0  -0.0441
  C  C34  1  0.722900  0.021200  0.262200  1.0  -0.0719
  C  C35  1  0.626600  0.013900  0.221100  1.0  -0.1708
  C  C36  1  0.598400  0.949200  0.144300  1.0  0.6312
  C  C37  1  0.913900  0.513600  0.100400  1.0  0.7122
  C  C38  1  0.905900  0.441700  0.178100  1.0  -0.1861
  C  C39  1  0.818800  0.415100  0.226300  1.0  -0.0591
  C  C40  1  0.841000  0.349300  0.293800  1.0  -0.0385
  C  C41  1  0.944700  0.327800  0.300100  1.0  -0.2091
  C  C42  1  0.999700  0.263800  0.366800  1.0  0.7048
  C  C43  1  0.897800  0.776500  0.896700  1.0  0.7165
  C  C44  1  0.870700  0.858600  0.834100  1.0  -0.2149
  C  C45  1  0.778000  0.905500  0.828300  1.0  -0.0435
  C  C46  1  0.777100  0.978800  0.762200  1.0  -0.0715
  C  C47  1  0.873400  0.986100  0.721100  1.0  -0.1701
  C  C48  1  0.901600  0.050800  0.644300  1.0  0.6306
  C  C49  1  0.413900  0.986400  0.899600  1.0  0.7132
  C  C50  1  0.405900  0.058300  0.821900  1.0  -0.1863
  C  C51  1  0.318800  0.084900  0.773700  1.0  -0.0577
  C  C52  1  0.341000  0.150700  0.706200  1.0  -0.039
  C  C53  1  0.444700  0.172200  0.699900  1.0  -0.2089
  C  C54  1  0.499700  0.236200  0.633200  1.0  0.7038
  C  C55  1  0.397800  0.723500  0.103300  1.0  0.7153
  C  C56  1  0.370700  0.641400  0.165900  1.0  -0.2155
  C  C57  1  0.278000  0.594500  0.171700  1.0  -0.0443
  C  C58  1  0.277100  0.521200  0.237800  1.0  -0.071
  C  C59  1  0.373400  0.513900  0.278900  1.0  -0.1704
  C  C60  1  0.401600  0.449200  0.355700  1.0  0.6287
  C  C61  1  0.086100  0.013600  0.399600  1.0  0.7134
  C  C62  1  0.094100  0.941700  0.321900  1.0  -0.19
  C  C63  1  0.181200  0.915100  0.273700  1.0  -0.059
  C  C64  1  0.159000  0.849300  0.206200  1.0  -0.0393
  C  C65  1  0.055300  0.827800  0.199900  1.0  -0.2091
  C  C66  1  0.000300  0.763800  0.133200  1.0  0.7037
  C  C67  1  0.102200  0.276500  0.603300  1.0  0.7155
  C  C68  1  0.129300  0.358600  0.665900  1.0  -0.2157
  C  C69  1  0.222000  0.405500  0.671700  1.0  -0.0439
  C  C70  1  0.222900  0.478800  0.737800  1.0  -0.0721
  C  C71  1  0.126600  0.486100  0.778900  1.0  -0.1711
  C  C72  1  0.098400  0.550800  0.855700  1.0  0.6295
  S  S73  1  0.482350  0.613580  0.719470  1.0  0.1307
  S  S74  1  0.538940  0.095800  0.260870  1.0  0.1547
  S  S75  1  0.017650  0.386420  0.219470  1.0  0.129
  S  S76  1  0.961060  0.904200  0.760870  1.0  0.1517
  S  S77  1  0.517650  0.113580  0.780530  1.0  0.1295
  S  S78  1  0.461060  0.595800  0.239130  1.0  0.1524
  S  S79  1  0.982350  0.886420  0.280530  1.0  0.132
  S  S80  1  0.038940  0.404200  0.739130  1.0  0.1538
  O  O81  1  0.495600  0.464700  0.575000  1.0  -0.5592
  O  O82  1  0.669700  0.456300  0.570600  1.0  -0.6668
  O  O83  1  0.404700  0.751500  0.855700  1.0  -0.7052
  O  O84  1  0.557800  0.768800  0.929500  1.0  -0.629
  O  O85  1  0.508900  0.253200  0.395900  1.0  -0.6342
  O  O86  1  0.672400  0.256800  0.444600  1.0  -0.6421
  O  O87  1  0.505500  0.956400  0.114000  1.0  -0.5644
  O  O88  1  0.666400  0.892300  0.113200  1.0  -0.6717
  O  O89  1  0.004400  0.535300  0.075000  1.0  -0.5581
  O  O90  1  0.830300  0.543700  0.070600  1.0  -0.6673
  O  O91  1  0.095300  0.248500  0.355700  1.0  -0.7084
  O  O92  1  0.942200  0.231200  0.429500  1.0  -0.6284
  O  O93  1  0.991100  0.746800  0.895900  1.0  -0.6336
  O  O94  1  0.827600  0.743200  0.944600  1.0  -0.6431
  O  O95  1  0.994500  0.043600  0.614000  1.0  -0.5648
  O  O96  1  0.833600  0.107700  0.613200  1.0  -0.6711
  O  O97  1  0.504400  0.964700  0.925000  1.0  -0.5592
  O  O98  1  0.330300  0.956300  0.929400  1.0  -0.6681
  O  O99  1  0.595300  0.251500  0.644300  1.0  -0.7069
  O  O100  1  0.442200  0.268800  0.570500  1.0  -0.6287
  O  O101  1  0.491100  0.753200  0.104100  1.0  -0.6333
  O  O102  1  0.327600  0.756800  0.055400  1.0  -0.6426
  O  O103  1  0.494500  0.456400  0.386000  1.0  -0.5642
  O  O104  1  0.333600  0.392300  0.386800  1.0  -0.6716
  O  O105  1  0.995600  0.035300  0.425000  1.0  -0.5574
  O  O106  1  0.169700  0.043700  0.429400  1.0  -0.668
  O  O107  1  0.904700  0.748500  0.144300  1.0  -0.7048
  O  O108  1  0.057800  0.731200  0.070500  1.0  -0.6296
  O  O109  1  0.008900  0.246800  0.604100  1.0  -0.6351
  O  O110  1  0.172400  0.243200  0.555400  1.0  -0.6434
  O  O111  1  0.005500  0.543600  0.886000  1.0  -0.5648
  O  O112  1  0.166400  0.607700  0.886800  1.0  -0.6712
