# generated using pymatgen
data_HoAgH11C14(NO3)2
_symmetry_space_group_name_H-M   'P 1'
_cell_length_a   16.21070000
_cell_length_b   14.97810000
_cell_length_c   7.95730000
_cell_angle_alpha   90.00000000
_cell_angle_beta   92.06900000
_cell_angle_gamma   90.00000000
_symmetry_Int_Tables_number   1
_chemical_formula_structural   HoAgH11C14(NO3)2
_chemical_formula_sum   'Ho4 Ag4 H44 C56 N8 O24'
_cell_volume   1930.81651983
_cell_formula_units_Z   4
loop_
 _symmetry_equiv_pos_site_id
 _symmetry_equiv_pos_as_xyz
  1  'x, y, z'
loop_
 _atom_site_type_symbol
 _atom_site_label
 _atom_site_symmetry_multiplicity
 _atom_site_fract_x
 _atom_site_fract_y
 _atom_site_fract_z
 _atom_site_occupancy
 _atom_site_charge
  Ho  Ho1  1  0.545220  0.383740  0.949870  1.0  2.2073
  Ho  Ho2  1  0.454780  0.883740  0.550130  1.0  2.2069
  Ho  Ho3  1  0.454780  0.616260  0.050130  1.0  2.2051
  Ho  Ho4  1  0.545220  0.116260  0.449870  1.0  2.2056
  Ag  Ag5  1  0.026980  0.259290  0.399790  1.0  0.1948
  Ag  Ag6  1  0.973020  0.759290  0.100210  1.0  0.195
  Ag  Ag7  1  0.973020  0.740710  0.600210  1.0  0.1945
  Ag  Ag8  1  0.026980  0.240710  0.899790  1.0  0.1944
  H  H9  1  0.893900  0.382100  0.524500  1.0  0.0682
  H  H10  1  0.764000  0.382800  0.633500  1.0  0.1013
  H  H11  1  0.761200  0.115400  0.599100  1.0  0.1062
  H  H12  1  0.891800  0.121200  0.495200  1.0  0.073
  H  H13  1  0.209300  0.192900  0.323800  1.0  0.0656
  H  H14  1  0.332300  0.250600  0.238700  1.0  0.1078
  H  H15  1  0.220700  0.487500  0.177200  1.0  0.0981
  H  H16  1  0.100200  0.423600  0.260500  1.0  0.0633
  H  H17  1  0.327300  0.445700  0.565300  1.0  0.1199
  H  H18  1  0.335100  0.539900  0.650500  1.0  0.1251
  H  H19  1  0.389100  0.516400  0.497100  1.0  0.117
  H  H20  1  0.106100  0.882100  0.975500  1.0  0.0686
  H  H21  1  0.236000  0.882800  0.866500  1.0  0.1015
  H  H22  1  0.238800  0.615400  0.900900  1.0  0.1063
  H  H23  1  0.108200  0.621200  0.004800  1.0  0.0724
  H  H24  1  0.790700  0.692900  0.176200  1.0  0.066
  H  H25  1  0.667700  0.750600  0.261300  1.0  0.1074
  H  H26  1  0.779300  0.987500  0.322800  1.0  0.0977
  H  H27  1  0.899800  0.923600  0.239500  1.0  0.0631
  H  H28  1  0.672700  0.945700  0.934700  1.0  0.1202
  H  H29  1  0.664900  0.039900  0.849500  1.0  0.1254
  H  H30  1  0.610900  0.016400  0.002900  1.0  0.1176
  H  H31  1  0.106100  0.617900  0.475500  1.0  0.0678
  H  H32  1  0.236000  0.617200  0.366500  1.0  0.1015
  H  H33  1  0.238800  0.884600  0.400900  1.0  0.1068
  H  H34  1  0.108200  0.878800  0.504800  1.0  0.0737
  H  H35  1  0.790700  0.807100  0.676200  1.0  0.0659
  H  H36  1  0.667700  0.749400  0.761300  1.0  0.1077
  H  H37  1  0.779300  0.512500  0.822800  1.0  0.0979
  H  H38  1  0.899800  0.576400  0.739500  1.0  0.0631
  H  H39  1  0.672700  0.554300  0.434700  1.0  0.1199
  H  H40  1  0.664900  0.460100  0.349500  1.0  0.1264
  H  H41  1  0.610900  0.483600  0.502900  1.0  0.1178
  H  H42  1  0.893900  0.117900  0.024500  1.0  0.0677
  H  H43  1  0.764000  0.117200  0.133500  1.0  0.1013
  H  H44  1  0.761200  0.384600  0.099100  1.0  0.1064
  H  H45  1  0.891800  0.378800  0.995200  1.0  0.0732
  H  H46  1  0.209300  0.307100  0.823800  1.0  0.0652
  H  H47  1  0.332300  0.249400  0.738700  1.0  0.108
  H  H48  1  0.220700  0.012500  0.677200  1.0  0.098
  H  H49  1  0.100200  0.076400  0.760500  1.0  0.0634
  H  H50  1  0.327300  0.054300  0.065300  1.0  0.1199
  H  H51  1  0.335100  0.960100  0.150500  1.0  0.1267
  H  H52  1  0.389100  0.983600  0.997100  1.0  0.1171
  C  C53  1  0.867000  0.328100  0.540600  1.0  0.1528
  C  C54  1  0.788700  0.329000  0.605300  1.0  -0.1374
  C  C55  1  0.747300  0.248600  0.627800  1.0  -0.1046
  C  C56  1  0.787100  0.170200  0.585500  1.0  -0.13
  C  C57  1  0.865600  0.174200  0.522800  1.0  0.1414
  C  C58  1  0.662400  0.249100  0.697700  1.0  0.711
  C  C59  1  0.211900  0.252800  0.294000  1.0  0.1489
  C  C60  1  0.285800  0.286900  0.243000  1.0  -0.1521
  C  C61  1  0.290000  0.376500  0.198000  1.0  -0.1586
  C  C62  1  0.219600  0.427400  0.206100  1.0  -0.1545
  C  C63  1  0.147600  0.388700  0.257200  1.0  0.1417
  C  C64  1  0.368300  0.418700  0.139600  1.0  0.6885
  C  C65  1  0.430900  0.458300  0.713600  1.0  0.7746
  C  C66  1  0.364700  0.493200  0.596100  1.0  -0.4848
  C  C67  1  0.133000  0.828100  0.959400  1.0  0.1523
  C  C68  1  0.211300  0.829000  0.894700  1.0  -0.1385
  C  C69  1  0.252700  0.748600  0.872200  1.0  -0.1045
  C  C70  1  0.212900  0.670200  0.914500  1.0  -0.1314
  C  C71  1  0.134400  0.674200  0.977200  1.0  0.1417
  C  C72  1  0.337600  0.749100  0.802300  1.0  0.7095
  C  C73  1  0.788100  0.752800  0.206000  1.0  0.1491
  C  C74  1  0.714200  0.786900  0.257000  1.0  -0.1517
  C  C75  1  0.710000  0.876500  0.302000  1.0  -0.16
  C  C76  1  0.780400  0.927400  0.293900  1.0  -0.1553
  C  C77  1  0.852400  0.888700  0.242800  1.0  0.1421
  C  C78  1  0.631700  0.918700  0.360400  1.0  0.6887
  C  C79  1  0.569100  0.958300  0.786400  1.0  0.7752
  C  C80  1  0.635300  0.993200  0.903900  1.0  -0.4843
  C  C81  1  0.133000  0.671900  0.459400  1.0  0.1527
  C  C82  1  0.211300  0.671000  0.394700  1.0  -0.1388
  C  C83  1  0.252700  0.751400  0.372200  1.0  -0.1047
  C  C84  1  0.212900  0.829800  0.414500  1.0  -0.1317
  C  C85  1  0.134400  0.825800  0.477200  1.0  0.1416
  C  C86  1  0.337600  0.750900  0.302300  1.0  0.7096
  C  C87  1  0.788100  0.747200  0.706000  1.0  0.1482
  C  C88  1  0.714200  0.713100  0.757000  1.0  -0.1518
  C  C89  1  0.710000  0.623500  0.802000  1.0  -0.1602
  C  C90  1  0.780400  0.572600  0.793900  1.0  -0.1552
  C  C91  1  0.852400  0.611300  0.742800  1.0  0.1421
  C  C92  1  0.631700  0.581300  0.860400  1.0  0.6885
  C  C93  1  0.569100  0.541700  0.286400  1.0  0.7752
  C  C94  1  0.635300  0.506800  0.403900  1.0  -0.4844
  C  C95  1  0.867000  0.171900  0.040600  1.0  0.152
  C  C96  1  0.788700  0.171000  0.105300  1.0  -0.1378
  C  C97  1  0.747300  0.251400  0.127800  1.0  -0.1045
  C  C98  1  0.787100  0.329800  0.085500  1.0  -0.1308
  C  C99  1  0.865600  0.325800  0.022800  1.0  0.1415
  C  C100  1  0.662400  0.250900  0.197700  1.0  0.7109
  C  C101  1  0.211900  0.247200  0.794000  1.0  0.1483
  C  C102  1  0.285800  0.213100  0.743000  1.0  -0.1518
  C  C103  1  0.290000  0.123500  0.698000  1.0  -0.159
  C  C104  1  0.219600  0.072600  0.706100  1.0  -0.1547
  C  C105  1  0.147600  0.111300  0.757200  1.0  0.1418
  C  C106  1  0.368300  0.081300  0.639600  1.0  0.6882
  C  C107  1  0.430900  0.041700  0.213600  1.0  0.7738
  C  C108  1  0.364700  0.006800  0.096100  1.0  -0.4851
  N  N109  1  0.905210  0.251700  0.500300  1.0  -0.3204
  N  N110  1  0.143300  0.302900  0.302300  1.0  -0.3095
  N  N111  1  0.094790  0.751700  0.999700  1.0  -0.3229
  N  N112  1  0.856700  0.802900  0.197700  1.0  -0.3102
  N  N113  1  0.094790  0.748300  0.499700  1.0  -0.3229
  N  N114  1  0.856700  0.697100  0.697700  1.0  -0.3102
  N  N115  1  0.905210  0.248300  0.000300  1.0  -0.3203
  N  N116  1  0.143300  0.197100  0.802300  1.0  -0.309
  O  O117  1  0.641090  0.315440  0.781100  1.0  -0.7604
  O  O118  1  0.617120  0.181100  0.668500  1.0  -0.7118
  O  O119  1  0.425210  0.366970  0.095800  1.0  -0.6828
  O  O120  1  0.370960  0.502960  0.141300  1.0  -0.6824
  O  O121  1  0.451360  0.502660  0.843000  1.0  -0.7588
  O  O122  1  0.465930  0.384750  0.687500  1.0  -0.6523
  O  O123  1  0.358910  0.815440  0.718900  1.0  -0.7617
  O  O124  1  0.382880  0.681100  0.831500  1.0  -0.7125
  O  O125  1  0.574790  0.866970  0.404200  1.0  -0.6834
  O  O126  1  0.629040  0.002960  0.358700  1.0  -0.6825
  O  O127  1  0.548640  0.002660  0.657000  1.0  -0.7582
  O  O128  1  0.534070  0.884750  0.812500  1.0  -0.6514
  O  O129  1  0.358910  0.684560  0.218900  1.0  -0.7618
  O  O130  1  0.382880  0.818900  0.331500  1.0  -0.7117
  O  O131  1  0.574790  0.633030  0.904200  1.0  -0.6834
  O  O132  1  0.629040  0.497040  0.858700  1.0  -0.6828
  O  O133  1  0.548640  0.497340  0.157000  1.0  -0.7582
  O  O134  1  0.534070  0.615250  0.312500  1.0  -0.6529
  O  O135  1  0.641090  0.184560  0.281100  1.0  -0.7603
  O  O136  1  0.617120  0.318900  0.168500  1.0  -0.7127
  O  O137  1  0.425210  0.133030  0.595800  1.0  -0.6827
  O  O138  1  0.370960  0.997040  0.641300  1.0  -0.6828
  O  O139  1  0.451360  0.997340  0.343000  1.0  -0.7587
  O  O140  1  0.465930  0.115250  0.187500  1.0  -0.653
