# generated using pymatgen
data_CoH23C25N4O5
_symmetry_space_group_name_H-M   'P 1'
_cell_length_a   9.68590000
_cell_length_b   16.91400000
_cell_length_c   18.41200000
_cell_angle_alpha   90.00000000
_cell_angle_beta   115.16000000
_cell_angle_gamma   90.00000000
_symmetry_Int_Tables_number   1
_chemical_formula_structural   CoH23C25N4O5
_chemical_formula_sum   'Co4 H92 C100 N16 O20'
_cell_volume   2730.20585343
_cell_formula_units_Z   4
loop_
 _symmetry_equiv_pos_site_id
 _symmetry_equiv_pos_as_xyz
  1  'x, y, z'
loop_
 _atom_site_type_symbol
 _atom_site_label
 _atom_site_symmetry_multiplicity
 _atom_site_fract_x
 _atom_site_fract_y
 _atom_site_fract_z
 _atom_site_occupancy
 _atom_site_charge
  Co  Co1  1  0.576400  0.292220  0.707330  1.0  0.8882
  Co  Co2  1  0.423600  0.792220  0.792670  1.0  0.8895
  Co  Co3  1  0.423600  0.707780  0.292670  1.0  0.8879
  Co  Co4  1  0.576400  0.207780  0.207330  1.0  0.8862
  H  H5  1  0.626100  0.275600  0.479100  1.0  0.0955
  H  H6  1  0.929500  0.359900  0.402700  1.0  0.1134
  H  H7  1  0.994500  0.392600  0.631300  1.0  0.1106
  H  H8  1  0.121700  0.458600  0.440200  1.0  0.0659
  H  H9  1  0.199500  0.375300  0.467700  1.0  0.0628
  H  H10  1  0.401100  0.435100  0.576100  1.0  0.0657
  H  H11  1  0.323600  0.517900  0.549200  1.0  0.0643
  H  H12  1  0.360600  0.508900  0.430400  1.0  0.0669
  H  H13  1  0.442800  0.427400  0.459700  1.0  0.071
  H  H14  1  0.257700  0.244000  0.722600  1.0  0.1038
  H  H15  1  0.355800  0.227200  0.537300  1.0  0.1097
  H  H16  1  0.037300  0.187100  0.612800  1.0  0.1275
  H  H17  1  0.119600  0.160800  0.435200  1.0  0.1047
  H  H18  1  0.972700  0.190200  0.443100  1.0  0.1001
  H  H19  1  0.236800  0.031200  0.508300  1.0  0.0872
  H  H20  1  0.813700  0.094900  0.465100  1.0  0.0893
  H  H21  1  0.357500  0.393800  0.752100  1.0  0.0943
  H  H22  1  0.729100  0.471600  0.746200  1.0  0.1043
  H  H23  1  0.634900  0.575400  0.804300  1.0  0.1168
  H  H24  1  0.270000  0.515800  0.803500  1.0  0.1291
  H  H25  1  0.372400  0.591600  0.821000  1.0  0.1259
  H  H26  1  0.480300  0.400500  0.910700  1.0  0.0913
  H  H27  1  0.422800  0.627200  0.954700  1.0  0.1081
  H  H28  1  0.373900  0.775600  0.020900  1.0  0.0959
  H  H29  1  0.070500  0.859900  0.097300  1.0  0.1121
  H  H30  1  0.005500  0.892600  0.868700  1.0  0.111
  H  H31  1  0.878300  0.958600  0.059800  1.0  0.0657
  H  H32  1  0.800500  0.875300  0.032300  1.0  0.0631
  H  H33  1  0.598900  0.935100  0.923900  1.0  0.0654
  H  H34  1  0.676400  0.017900  0.950800  1.0  0.0653
  H  H35  1  0.639400  0.008900  0.069600  1.0  0.0659
  H  H36  1  0.557200  0.927400  0.040300  1.0  0.0706
  H  H37  1  0.742300  0.744000  0.777400  1.0  0.1031
  H  H38  1  0.644200  0.727200  0.962700  1.0  0.1062
  H  H39  1  0.962700  0.687100  0.887200  1.0  0.1262
  H  H40  1  0.880400  0.660800  0.064800  1.0  0.1051
  H  H41  1  0.027300  0.690200  0.056900  1.0  0.1001
  H  H42  1  0.763200  0.531200  0.991700  1.0  0.0871
  H  H43  1  0.186300  0.594900  0.034900  1.0  0.0895
  H  H44  1  0.642500  0.893800  0.747900  1.0  0.094
  H  H45  1  0.270900  0.971600  0.753800  1.0  0.104
  H  H46  1  0.365100  0.075400  0.695700  1.0  0.1168
  H  H47  1  0.730000  0.015800  0.696500  1.0  0.1279
  H  H48  1  0.627600  0.091600  0.679000  1.0  0.1239
  H  H49  1  0.519700  0.900500  0.589300  1.0  0.0919
  H  H50  1  0.577200  0.127200  0.545300  1.0  0.1077
  H  H51  1  0.373900  0.724400  0.520900  1.0  0.0961
  H  H52  1  0.070500  0.640100  0.597300  1.0  0.1122
  H  H53  1  0.005500  0.607400  0.368700  1.0  0.1106
  H  H54  1  0.878300  0.541400  0.559800  1.0  0.0662
  H  H55  1  0.800500  0.624700  0.532300  1.0  0.0634
  H  H56  1  0.598900  0.564900  0.423900  1.0  0.0658
  H  H57  1  0.676400  0.482100  0.450800  1.0  0.0655
  H  H58  1  0.639400  0.491100  0.569600  1.0  0.0663
  H  H59  1  0.557200  0.572600  0.540300  1.0  0.0695
  H  H60  1  0.742300  0.756000  0.277400  1.0  0.1034
  H  H61  1  0.644200  0.772800  0.462700  1.0  0.1088
  H  H62  1  0.962700  0.812900  0.387200  1.0  0.1262
  H  H63  1  0.880400  0.839200  0.564800  1.0  0.1051
  H  H64  1  0.027300  0.809800  0.556900  1.0  0.1004
  H  H65  1  0.763200  0.968800  0.491700  1.0  0.0881
  H  H66  1  0.186300  0.905100  0.534900  1.0  0.0897
  H  H67  1  0.642500  0.606200  0.247900  1.0  0.0943
  H  H68  1  0.270900  0.528400  0.253800  1.0  0.1045
  H  H69  1  0.365100  0.424600  0.195700  1.0  0.1171
  H  H70  1  0.730000  0.484200  0.196500  1.0  0.1277
  H  H71  1  0.627600  0.408400  0.179000  1.0  0.1264
  H  H72  1  0.519700  0.599500  0.089300  1.0  0.0918
  H  H73  1  0.577200  0.372800  0.045300  1.0  0.1074
  H  H74  1  0.626100  0.224400  0.979100  1.0  0.0957
  H  H75  1  0.929500  0.140100  0.902700  1.0  0.1134
  H  H76  1  0.994500  0.107400  0.131300  1.0  0.1108
  H  H77  1  0.121700  0.041400  0.940200  1.0  0.0653
  H  H78  1  0.199500  0.124700  0.967700  1.0  0.0643
  H  H79  1  0.401100  0.064900  0.076100  1.0  0.0651
  H  H80  1  0.323600  0.982100  0.049200  1.0  0.0659
  H  H81  1  0.360600  0.991100  0.930400  1.0  0.0662
  H  H82  1  0.442800  0.072600  0.959700  1.0  0.0714
  H  H83  1  0.257700  0.256000  0.222600  1.0  0.1043
  H  H84  1  0.355800  0.272800  0.037300  1.0  0.1072
  H  H85  1  0.037300  0.312900  0.112800  1.0  0.1273
  H  H86  1  0.119600  0.339200  0.935200  1.0  0.1048
  H  H87  1  0.972700  0.309800  0.943100  1.0  0.1002
  H  H88  1  0.236800  0.468800  0.008300  1.0  0.0883
  H  H89  1  0.813700  0.405100  0.965100  1.0  0.0891
  H  H90  1  0.357500  0.106200  0.252100  1.0  0.094
  H  H91  1  0.729100  0.028400  0.246200  1.0  0.1046
  H  H92  1  0.634900  0.924600  0.304300  1.0  0.1168
  H  H93  1  0.270000  0.984200  0.303500  1.0  0.1288
  H  H94  1  0.372400  0.908400  0.321000  1.0  0.1253
  H  H95  1  0.480300  0.099500  0.410700  1.0  0.0914
  H  H96  1  0.422800  0.872800  0.454700  1.0  0.1075
  C  C97  1  0.751900  0.321900  0.630600  1.0  0.6727
  C  C98  1  0.803200  0.332200  0.565200  1.0  -0.1525
  C  C99  1  0.716200  0.302400  0.489200  1.0  0.0052
  C  C100  1  0.762400  0.312300  0.428200  1.0  -0.1694
  C  C101  1  0.898000  0.352700  0.443400  1.0  -0.1628
  C  C102  1  0.985100  0.381900  0.519900  1.0  0.2776
  C  C103  1  0.936700  0.372200  0.580500  1.0  -0.1646
  C  C104  1  0.668600  0.276400  0.347300  1.0  0.6503
  C  C105  1  0.186700  0.427300  0.486200  1.0  0.1054
  C  C106  1  0.338900  0.466900  0.529800  1.0  -0.119
  C  C107  1  0.423900  0.478600  0.477600  1.0  -0.128
  C  C108  1  0.250400  0.233200  0.671500  1.0  0.0366
  C  C109  1  0.305000  0.224400  0.570300  1.0  0.1301
  C  C110  1  0.128200  0.202200  0.611200  1.0  -0.1498
  C  C111  1  0.066500  0.160300  0.469500  1.0  -0.0519
  C  C112  1  0.030400  0.077000  0.482600  1.0  0.0882
  C  C113  1  0.140400  0.019000  0.504500  1.0  -0.1421
  C  C114  1  0.889700  0.056600  0.479000  1.0  -0.1438
  C  C115  1  0.440000  0.425700  0.758300  1.0  0.1309
  C  C116  1  0.642000  0.468300  0.755300  1.0  0.0538
  C  C117  1  0.590400  0.526100  0.786900  1.0  -0.1734
  C  C118  1  0.374400  0.534700  0.828400  1.0  -0.0757
  C  C119  1  0.441700  0.516500  0.917600  1.0  0.0896
  C  C120  1  0.488300  0.440800  0.946600  1.0  -0.0978
  C  C121  1  0.453900  0.576100  0.972700  1.0  -0.1576
  C  C122  1  0.248100  0.821900  0.869400  1.0  0.6741
  C  C123  1  0.196800  0.832200  0.934800  1.0  -0.151
  C  C124  1  0.283800  0.802400  0.010800  1.0  0.0038
  C  C125  1  0.237600  0.812300  0.071800  1.0  -0.1687
  C  C126  1  0.102000  0.852700  0.056600  1.0  -0.163
  C  C127  1  0.014900  0.881900  0.980100  1.0  0.2779
  C  C128  1  0.063300  0.872200  0.919500  1.0  -0.1616
  C  C129  1  0.331400  0.776400  0.152700  1.0  0.6494
  C  C130  1  0.813300  0.927300  0.013800  1.0  0.1036
  C  C131  1  0.661100  0.966900  0.970200  1.0  -0.1175
  C  C132  1  0.576100  0.978600  0.022400  1.0  -0.1297
  C  C133  1  0.749600  0.733200  0.828500  1.0  0.0378
  C  C134  1  0.695000  0.724400  0.929700  1.0  0.1289
  C  C135  1  0.871800  0.702200  0.888800  1.0  -0.1506
  C  C136  1  0.933500  0.660300  0.030500  1.0  -0.054
  C  C137  1  0.969600  0.577000  0.017400  1.0  0.089
  C  C138  1  0.859600  0.519000  0.995500  1.0  -0.1397
  C  C139  1  0.110300  0.556600  0.021000  1.0  -0.1436
  C  C140  1  0.560000  0.925700  0.741700  1.0  0.1299
  C  C141  1  0.358000  0.968300  0.744700  1.0  0.0536
  C  C142  1  0.409600  0.026100  0.713100  1.0  -0.1728
  C  C143  1  0.625600  0.034700  0.671600  1.0  -0.0751
  C  C144  1  0.558300  0.016500  0.582400  1.0  0.09
  C  C145  1  0.511700  0.940800  0.553400  1.0  -0.0981
  C  C146  1  0.546100  0.076100  0.527300  1.0  -0.1592
  C  C147  1  0.248100  0.678100  0.369400  1.0  0.6739
  C  C148  1  0.196800  0.667800  0.434800  1.0  -0.1507
  C  C149  1  0.283800  0.697600  0.510800  1.0  0.0043
  C  C150  1  0.237600  0.687700  0.571800  1.0  -0.1686
  C  C151  1  0.102000  0.647300  0.556600  1.0  -0.1629
  C  C152  1  0.014900  0.618100  0.480100  1.0  0.2777
  C  C153  1  0.063300  0.627800  0.419500  1.0  -0.1614
  C  C154  1  0.331400  0.723600  0.652700  1.0  0.6492
  C  C155  1  0.813300  0.572700  0.513800  1.0  0.1038
  C  C156  1  0.661100  0.533100  0.470200  1.0  -0.1176
  C  C157  1  0.576100  0.521400  0.522400  1.0  -0.1291
  C  C158  1  0.749600  0.766800  0.328500  1.0  0.0376
  C  C159  1  0.695000  0.775600  0.429700  1.0  0.129
  C  C160  1  0.871800  0.797800  0.388800  1.0  -0.1513
  C  C161  1  0.933500  0.839700  0.530500  1.0  -0.0547
  C  C162  1  0.969600  0.923000  0.517400  1.0  0.0891
  C  C163  1  0.859600  0.981000  0.495500  1.0  -0.1406
  C  C164  1  0.110300  0.943400  0.521000  1.0  -0.1359
  C  C165  1  0.560000  0.574300  0.241700  1.0  0.1298
  C  C166  1  0.358000  0.531700  0.244700  1.0  0.0535
  C  C167  1  0.409600  0.473900  0.213100  1.0  -0.1725
  C  C168  1  0.625600  0.465300  0.171600  1.0  -0.075
  C  C169  1  0.558300  0.483500  0.082400  1.0  0.0899
  C  C170  1  0.511700  0.559200  0.053400  1.0  -0.0977
  C  C171  1  0.546100  0.423900  0.027300  1.0  -0.159
  C  C172  1  0.751900  0.178100  0.130600  1.0  0.6715
  C  C173  1  0.803200  0.167800  0.065200  1.0  -0.1529
  C  C174  1  0.716200  0.197600  0.989200  1.0  0.0044
  C  C175  1  0.762400  0.187700  0.928200  1.0  -0.1689
  C  C176  1  0.898000  0.147300  0.943400  1.0  -0.1627
  C  C177  1  0.985100  0.118100  0.019900  1.0  0.2775
  C  C178  1  0.936700  0.127800  0.080500  1.0  -0.1647
  C  C179  1  0.668600  0.223600  0.847300  1.0  0.6501
  C  C180  1  0.186700  0.072700  0.986200  1.0  0.1051
  C  C181  1  0.338900  0.033100  0.029800  1.0  -0.1193
  C  C182  1  0.423900  0.021400  0.977600  1.0  -0.1283
  C  C183  1  0.250400  0.266800  0.171500  1.0  0.0368
  C  C184  1  0.305000  0.275600  0.070300  1.0  0.1301
  C  C185  1  0.128200  0.297800  0.111200  1.0  -0.1509
  C  C186  1  0.066500  0.339700  0.969500  1.0  -0.0523
  C  C187  1  0.030400  0.423000  0.982600  1.0  0.0888
  C  C188  1  0.140400  0.481000  0.004500  1.0  -0.1429
  C  C189  1  0.889700  0.443400  0.979000  1.0  -0.1357
  C  C190  1  0.440000  0.074300  0.258300  1.0  0.1305
  C  C191  1  0.642000  0.031700  0.255300  1.0  0.0542
  C  C192  1  0.590400  0.973900  0.286900  1.0  -0.1728
  C  C193  1  0.374400  0.965300  0.328400  1.0  -0.0749
  C  C194  1  0.441700  0.983500  0.417600  1.0  0.0895
  C  C195  1  0.488300  0.059200  0.446600  1.0  -0.097
  C  C196  1  0.453900  0.923900  0.472700  1.0  -0.1573
  N  N197  1  0.549600  0.404000  0.738400  1.0  -0.4124
  N  N198  1  0.460800  0.498400  0.788300  1.0  0.0557
  N  N199  1  0.363400  0.246900  0.646400  1.0  -0.4119
  N  N200  1  0.162600  0.197000  0.547200  1.0  0.0536
  N  N201  1  0.450400  0.904000  0.761600  1.0  -0.4125
  N  N202  1  0.539200  0.998400  0.711700  1.0  0.0556
  N  N203  1  0.636600  0.746900  0.853600  1.0  -0.4136
  N  N204  1  0.837400  0.697000  0.952800  1.0  0.053
  N  N205  1  0.450400  0.596000  0.261600  1.0  -0.4132
  N  N206  1  0.539200  0.501600  0.211700  1.0  0.0555
  N  N207  1  0.636600  0.753100  0.353600  1.0  -0.4143
  N  N208  1  0.837400  0.803000  0.452800  1.0  0.0529
  N  N209  1  0.549600  0.096000  0.238400  1.0  -0.4117
  N  N210  1  0.460800  0.001600  0.288300  1.0  0.0549
  N  N211  1  0.363400  0.253100  0.146400  1.0  -0.4116
  N  N212  1  0.162600  0.303000  0.047200  1.0  0.0536
  O  O213  1  0.828300  0.348300  0.699000  1.0  -0.6331
  O  O214  1  0.626200  0.286000  0.613300  1.0  -0.6001
  O  O215  1  0.543400  0.244800  0.333400  1.0  -0.6151
  O  O216  1  0.722100  0.277800  0.295000  1.0  -0.614
  O  O217  1  0.120600  0.421000  0.542700  1.0  -0.2715
  O  O218  1  0.171700  0.848300  0.801000  1.0  -0.6314
  O  O219  1  0.373800  0.786000  0.886700  1.0  -0.5997
  O  O220  1  0.456600  0.744800  0.166600  1.0  -0.6148
  O  O221  1  0.277900  0.777800  0.205000  1.0  -0.6154
  O  O222  1  0.879400  0.921000  0.957300  1.0  -0.2699
  O  O223  1  0.171700  0.651700  0.301000  1.0  -0.632
  O  O224  1  0.373800  0.714000  0.386700  1.0  -0.5998
  O  O225  1  0.456600  0.755200  0.666667  1.0  -0.6144
  O  O226  1  0.277900  0.722200  0.705000  1.0  -0.6157
  O  O227  1  0.879400  0.579000  0.457300  1.0  -0.2702
  O  O228  1  0.828300  0.151700  0.199000  1.0  -0.633
  O  O229  1  0.626200  0.214000  0.113300  1.0  -0.6001
  O  O230  1  0.543400  0.255200  0.833400  1.0  -0.6154
  O  O231  1  0.722100  0.222200  0.795000  1.0  -0.6136
  O  O232  1  0.120600  0.079000  0.042700  1.0  -0.2711
