# generated using pymatgen
data_CdH20(C11N2)2
_symmetry_space_group_name_H-M   'P 1'
_cell_length_a   15.21590000
_cell_length_b   9.06110000
_cell_length_c   7.75330000
_cell_angle_alpha   90.00000000
_cell_angle_beta   90.00000000
_cell_angle_gamma   90.00000000
_symmetry_Int_Tables_number   1
_chemical_formula_structural   CdH20(C11N2)2
_chemical_formula_sum   'Cd2 H40 C44 N8'
_cell_volume   1068.96911426
_cell_formula_units_Z   2
loop_
 _symmetry_equiv_pos_site_id
 _symmetry_equiv_pos_as_xyz
  1  'x, y, z'
loop_
 _atom_site_type_symbol
 _atom_site_label
 _atom_site_symmetry_multiplicity
 _atom_site_fract_x
 _atom_site_fract_y
 _atom_site_fract_z
 _atom_site_occupancy
 _atom_site_charge
  Cd  Cd1  1  0.000000  0.000000  0.250000  1.0  0.8966
  Cd  Cd2  1  0.000000  0.000000  0.750000  1.0  0.8966
  H  H3  1  0.614530  0.372810  0.373980  1.0  0.0914
  H  H4  1  0.749220  0.497460  0.373980  1.0  0.1129
  H  H5  1  0.631820  0.855180  0.587050  1.0  0.1023
  H  H6  1  0.497130  0.730530  0.587050  1.0  0.0992
  H  H7  1  0.814740  0.914710  0.859670  1.0  0.1006
  H  H8  1  0.736650  0.978350  0.754770  1.0  0.0967
  H  H9  1  0.737480  0.812900  0.806060  1.0  0.1063
  H  H10  1  0.781310  0.617040  0.185690  1.0  0.1186
  H  H11  1  0.847740  0.752850  0.078600  1.0  0.0887
  H  H12  1  0.898750  0.597440  0.181790  1.0  0.0965
  H  H13  1  0.385470  0.627190  0.373980  1.0  0.0914
  H  H14  1  0.250780  0.502540  0.373980  1.0  0.1159
  H  H15  1  0.368180  0.144820  0.587050  1.0  0.1027
  H  H16  1  0.502870  0.269470  0.587050  1.0  0.0984
  H  H17  1  0.185260  0.085290  0.859670  1.0  0.1004
  H  H18  1  0.263350  0.021650  0.754770  1.0  0.0958
  H  H19  1  0.262520  0.187100  0.806060  1.0  0.1062
  H  H20  1  0.218690  0.382960  0.185690  1.0  0.1173
  H  H21  1  0.152260  0.247150  0.078600  1.0  0.0897
  H  H22  1  0.101250  0.402560  0.181790  1.0  0.0982
  H  H23  1  0.614530  0.627190  0.873980  1.0  0.0913
  H  H24  1  0.749220  0.502540  0.873980  1.0  0.113
  H  H25  1  0.631820  0.144820  0.087050  1.0  0.1026
  H  H26  1  0.497130  0.269470  0.087050  1.0  0.0985
  H  H27  1  0.814740  0.085290  0.359670  1.0  0.1005
  H  H28  1  0.736650  0.021650  0.254770  1.0  0.096
  H  H29  1  0.737480  0.187100  0.306060  1.0  0.1071
  H  H30  1  0.781310  0.382960  0.685690  1.0  0.1181
  H  H31  1  0.847740  0.247150  0.578600  1.0  0.0895
  H  H32  1  0.898750  0.402560  0.681790  1.0  0.0967
  H  H33  1  0.385470  0.372810  0.873980  1.0  0.0913
  H  H34  1  0.250780  0.497460  0.873980  1.0  0.1154
  H  H35  1  0.368180  0.855180  0.087050  1.0  0.1024
  H  H36  1  0.502870  0.730530  0.087050  1.0  0.0988
  H  H37  1  0.185260  0.914710  0.359670  1.0  0.1007
  H  H38  1  0.263350  0.978350  0.254770  1.0  0.0954
  H  H39  1  0.262520  0.812900  0.306060  1.0  0.1073
  H  H40  1  0.218690  0.617040  0.685690  1.0  0.1178
  H  H41  1  0.152260  0.752850  0.578600  1.0  0.0885
  H  H42  1  0.101250  0.597440  0.681790  1.0  0.0984
  C  C43  1  0.543170  0.539950  0.480510  1.0  0.0279
  C  C44  1  0.618040  0.470730  0.417230  1.0  -0.1386
  C  C45  1  0.698050  0.544770  0.417230  1.0  -0.1431
  C  C46  1  0.703180  0.688040  0.480510  1.0  0.0319
  C  C47  1  0.628310  0.757260  0.543800  1.0  -0.148
  C  C48  1  0.548300  0.683220  0.543800  1.0  -0.0725
  C  C49  1  0.789150  0.767600  0.480510  1.0  -0.043
  C  C50  1  0.819610  0.857560  0.607570  1.0  0.1706
  C  C51  1  0.772860  0.894220  0.772010  1.0  -0.3889
  C  C52  1  0.850710  0.762820  0.353460  1.0  0.1473
  C  C53  1  0.844200  0.676860  0.189020  1.0  -0.4186
  C  C54  1  0.456830  0.460050  0.480510  1.0  0.0276
  C  C55  1  0.381960  0.529270  0.417230  1.0  -0.1386
  C  C56  1  0.301950  0.455230  0.417230  1.0  -0.1429
  C  C57  1  0.296820  0.311960  0.480510  1.0  0.0316
  C  C58  1  0.371690  0.242740  0.543800  1.0  -0.1506
  C  C59  1  0.451700  0.316780  0.543800  1.0  -0.0722
  C  C60  1  0.210850  0.232400  0.480510  1.0  -0.0435
  C  C61  1  0.180390  0.142440  0.607570  1.0  0.1715
  C  C62  1  0.227140  0.105780  0.772010  1.0  -0.3884
  C  C63  1  0.149290  0.237180  0.353460  1.0  0.1481
  C  C64  1  0.155800  0.323140  0.189020  1.0  -0.4181
  C  C65  1  0.543170  0.460050  0.980510  1.0  0.0279
  C  C66  1  0.618040  0.529270  0.917230  1.0  -0.1386
  C  C67  1  0.698050  0.455230  0.917230  1.0  -0.1429
  C  C68  1  0.703180  0.311960  0.980510  1.0  0.0316
  C  C69  1  0.628310  0.242740  0.043800  1.0  -0.1486
  C  C70  1  0.548300  0.316780  0.043800  1.0  -0.0701
  C  C71  1  0.789150  0.232400  0.980510  1.0  -0.0432
  C  C72  1  0.819610  0.142440  0.107570  1.0  0.1706
  C  C73  1  0.772860  0.105780  0.272010  1.0  -0.389
  C  C74  1  0.850710  0.237180  0.853460  1.0  0.147
  C  C75  1  0.844200  0.323140  0.689020  1.0  -0.4189
  C  C76  1  0.456830  0.539950  0.980510  1.0  0.0277
  C  C77  1  0.381960  0.470730  0.917230  1.0  -0.1387
  C  C78  1  0.301950  0.544770  0.917230  1.0  -0.143
  C  C79  1  0.296820  0.688040  0.980510  1.0  0.0321
  C  C80  1  0.371690  0.757260  0.043800  1.0  -0.1502
  C  C81  1  0.451700  0.683220  0.043800  1.0  -0.0731
  C  C82  1  0.210850  0.767600  0.980510  1.0  -0.0434
  C  C83  1  0.180390  0.857560  0.107570  1.0  0.1713
  C  C84  1  0.227140  0.894220  0.272010  1.0  -0.3883
  C  C85  1  0.149290  0.762820  0.853460  1.0  0.1478
  C  C86  1  0.155800  0.676860  0.689020  1.0  -0.4185
  N  N87  1  0.900000  0.908360  0.559040  1.0  -0.2421
  N  N88  1  0.919220  0.849810  0.401990  1.0  -0.2458
  N  N89  1  0.100000  0.091640  0.559040  1.0  -0.2419
  N  N90  1  0.080780  0.150190  0.401990  1.0  -0.2457
  N  N91  1  0.900000  0.091640  0.059040  1.0  -0.2416
  N  N92  1  0.919220  0.150190  0.901990  1.0  -0.2461
  N  N93  1  0.100000  0.908360  0.059040  1.0  -0.2417
  N  N94  1  0.080780  0.849810  0.901990  1.0  -0.2456
