# generated using pymatgen
data_Zn3H64C64(N2O)8
_symmetry_space_group_name_H-M   'P 1'
_cell_length_a   12.88600000
_cell_length_b   16.47830000
_cell_length_c   18.25410000
_cell_angle_alpha   80.20200000
_cell_angle_beta   86.03900000
_cell_angle_gamma   81.67300000
_symmetry_Int_Tables_number   1
_chemical_formula_structural   Zn3H64C64(N2O)8
_chemical_formula_sum   'Zn6 H128 C128 N32 O16'
_cell_volume   3775.33433133
_cell_formula_units_Z   2
loop_
 _symmetry_equiv_pos_site_id
 _symmetry_equiv_pos_as_xyz
  1  'x, y, z'
loop_
 _atom_site_type_symbol
 _atom_site_label
 _atom_site_symmetry_multiplicity
 _atom_site_fract_x
 _atom_site_fract_y
 _atom_site_fract_z
 _atom_site_occupancy
 _atom_site_charge
  Zn  Zn1  1  0.832260  0.708570  0.325950  1.0  0.8049
  Zn  Zn2  1  0.756660  0.236950  0.987740  1.0  0.8501
  Zn  Zn3  1  0.486600  0.275130  0.263920  1.0  0.7796
  Zn  Zn4  1  0.167740  0.291430  0.674050  1.0  0.8037
  Zn  Zn5  1  0.243340  0.763050  0.012260  1.0  0.8534
  Zn  Zn6  1  0.513400  0.724870  0.736080  1.0  0.7791
  H  H7  1  0.955800  0.563500  0.538300  1.0  0.1
  H  H8  1  0.892300  0.500400  0.512200  1.0  0.1102
  H  H9  1  0.908700  0.980100  0.036500  1.0  0.0976
  H  H10  1  0.930200  0.990100  0.950300  1.0  0.0942
  H  H11  1  0.401400  0.249300  0.970500  1.0  0.1155
  H  H12  1  0.379300  0.308500  0.029900  1.0  0.1044
  H  H13  1  0.466500  0.139700  0.064000  1.0  0.1098
  H  H14  1  0.347900  0.172000  0.079700  1.0  0.1172
  H  H15  1  0.895100  0.867300  0.205800  1.0  0.0897
  H  H16  1  0.061500  0.919400  0.204300  1.0  0.1151
  H  H17  1  0.051400  0.736100  0.370900  1.0  0.0853
  H  H18  1  0.491400  0.421800  0.134200  1.0  0.0787
  H  H19  1  0.521200  0.561600  0.131000  1.0  0.1041
  H  H20  1  0.537800  0.436700  0.336800  1.0  0.0737
  H  H21  1  0.217000  0.893300  0.295300  1.0  0.1146
  H  H22  1  0.198900  0.835500  0.371200  1.0  0.1014
  H  H23  1  0.344200  0.844600  0.204800  1.0  0.0962
  H  H24  1  0.479800  0.744800  0.176100  1.0  0.1196
  H  H25  1  0.391500  0.590200  0.352500  1.0  0.0753
  H  H26  1  0.252800  0.684800  0.377700  1.0  0.1126
  H  H27  1  0.608300  0.629500  0.234400  1.0  0.0966
  H  H28  1  0.587700  0.589000  0.317300  1.0  0.1084
  H  H29  1  0.938900  0.257500  0.857800  1.0  0.089
  H  H30  1  0.936200  0.377700  0.758300  1.0  0.1085
  H  H31  1  0.683900  0.409700  0.889700  1.0  0.0865
  H  H32  1  0.335300  0.652600  0.887000  1.0  0.0795
  H  H33  1  0.250700  0.644200  0.775100  1.0  0.1079
  H  H34  1  0.064900  0.793200  0.893200  1.0  0.0957
  H  H35  1  0.693800  0.524700  0.783800  1.0  0.0908
  H  H36  1  0.754500  0.495400  0.713400  1.0  0.0991
  H  H37  1  0.781900  0.607500  0.860200  1.0  0.0995
  H  H38  1  0.896900  0.701000  0.857500  1.0  0.0914
  H  H39  1  0.034700  0.635900  0.671500  1.0  0.0899
  H  H40  1  0.919300  0.542900  0.672200  1.0  0.0825
  H  H41  1  0.085800  0.749800  0.709100  1.0  0.0988
  H  H42  1  0.009000  0.797400  0.762600  1.0  0.1003
  H  H43  1  0.369300  0.352400  0.404200  1.0  0.086
  H  H44  1  0.208200  0.310300  0.466300  1.0  0.1071
  H  H45  1  0.283200  0.184200  0.301000  1.0  0.0981
  H  H46  1  0.350900  0.732100  0.609000  1.0  0.104
  H  H47  1  0.195700  0.835300  0.591200  1.0  0.0863
  H  H48  1  0.348500  0.879500  0.755700  1.0  0.0842
  H  H49  1  0.109600  0.158000  0.369000  1.0  0.1136
  H  H50  1  0.057800  0.228400  0.413200  1.0  0.0971
  H  H51  1  0.288600  0.119900  0.489900  1.0  0.0695
  H  H52  1  0.302900  0.030000  0.601900  1.0  0.0884
  H  H53  1  0.996000  0.027500  0.611700  1.0  0.0834
  H  H54  1  0.979700  0.129200  0.509300  1.0  0.0919
  H  H55  1  0.180900  0.978100  0.726700  1.0  0.0955
  H  H56  1  0.094800  0.931600  0.701700  1.0  0.0851
  H  H57  1  0.843000  0.521500  0.299500  1.0  0.0973
  H  H58  1  0.844000  0.478400  0.176900  1.0  0.1116
  H  H59  1  0.811800  0.722300  0.149500  1.0  0.0909
  H  H60  1  0.825200  0.664100  0.029200  1.0  0.1022
  H  H61  1  0.758400  0.590000  0.042200  1.0  0.102
  H  H62  1  0.025100  0.627100  0.028500  1.0  0.0998
  H  H63  1  0.690200  0.856400  0.229600  1.0  0.0888
  H  H64  1  0.526100  0.926200  0.270500  1.0  0.1187
  H  H65  1  0.630100  0.751500  0.431200  1.0  0.0652
  H  H66  1  0.432600  0.828200  0.449600  1.0  0.11
  H  H67  1  0.397600  0.899400  0.384100  1.0  0.101
  H  H68  1  0.836100  0.457800  0.013500  1.0  0.0866
  H  H69  1  0.460600  0.036300  0.377500  1.0  0.0942
  H  H70  1  0.502800  0.863400  0.557600  1.0  0.0946
  H  H71  1  0.044200  0.436500  0.461700  1.0  0.0993
  H  H72  1  0.107700  0.499600  0.487800  1.0  0.1094
  H  H73  1  0.091300  0.019900  0.963500  1.0  0.0962
  H  H74  1  0.069800  0.009900  0.049700  1.0  0.0943
  H  H75  1  0.598600  0.750700  0.029500  1.0  0.1168
  H  H76  1  0.620700  0.691500  0.970100  1.0  0.104
  H  H77  1  0.533500  0.860300  0.936000  1.0  0.1082
  H  H78  1  0.652100  0.828000  0.920300  1.0  0.1142
  H  H79  1  0.104900  0.132700  0.794200  1.0  0.0893
  H  H80  1  0.938500  0.080600  0.795700  1.0  0.1152
  H  H81  1  0.948600  0.263900  0.629100  1.0  0.0851
  H  H82  1  0.508600  0.578200  0.865800  1.0  0.0784
  H  H83  1  0.478800  0.438400  0.869000  1.0  0.1045
  H  H84  1  0.462200  0.563300  0.663200  1.0  0.0745
  H  H85  1  0.783000  0.106700  0.704700  1.0  0.1159
  H  H86  1  0.801100  0.164500  0.628800  1.0  0.1011
  H  H87  1  0.655800  0.155400  0.795200  1.0  0.0964
  H  H88  1  0.520200  0.255200  0.823900  1.0  0.1195
  H  H89  1  0.608500  0.409800  0.647500  1.0  0.0755
  H  H90  1  0.747200  0.315200  0.622300  1.0  0.1124
  H  H91  1  0.391700  0.370500  0.765600  1.0  0.097
  H  H92  1  0.412300  0.411000  0.682700  1.0  0.1073
  H  H93  1  0.061100  0.742500  0.142200  1.0  0.0892
  H  H94  1  0.063800  0.622300  0.241700  1.0  0.1086
  H  H95  1  0.316100  0.590300  0.110300  1.0  0.0871
  H  H96  1  0.664700  0.347400  0.113000  1.0  0.0791
  H  H97  1  0.749300  0.355800  0.224900  1.0  0.1078
  H  H98  1  0.935100  0.206800  0.106800  1.0  0.0957
  H  H99  1  0.306200  0.475300  0.216200  1.0  0.0904
  H  H100  1  0.245500  0.504600  0.286600  1.0  0.1005
  H  H101  1  0.218100  0.392500  0.139800  1.0  0.0996
  H  H102  1  0.103100  0.299000  0.142500  1.0  0.092
  H  H103  1  0.965300  0.364100  0.328500  1.0  0.0904
  H  H104  1  0.080700  0.457100  0.327800  1.0  0.0819
  H  H105  1  0.914200  0.250200  0.290900  1.0  0.0984
  H  H106  1  0.991000  0.202600  0.237400  1.0  0.1009
  H  H107  1  0.630700  0.647600  0.595800  1.0  0.0854
  H  H108  1  0.791800  0.689700  0.533700  1.0  0.1069
  H  H109  1  0.716800  0.815800  0.699000  1.0  0.0965
  H  H110  1  0.649100  0.267900  0.391000  1.0  0.1044
  H  H111  1  0.804300  0.164700  0.408800  1.0  0.0887
  H  H112  1  0.651500  0.120500  0.244300  1.0  0.0846
  H  H113  1  0.890400  0.842000  0.631000  1.0  0.1152
  H  H114  1  0.942200  0.771600  0.586800  1.0  0.096
  H  H115  1  0.711400  0.880100  0.510100  1.0  0.0691
  H  H116  1  0.697100  0.970000  0.398100  1.0  0.0878
  H  H117  1  0.004000  0.972500  0.388300  1.0  0.0838
  H  H118  1  0.020300  0.870800  0.490700  1.0  0.0923
  H  H119  1  0.819100  0.021900  0.273300  1.0  0.0956
  H  H120  1  0.905200  0.068400  0.298300  1.0  0.0848
  H  H121  1  0.157000  0.478500  0.700500  1.0  0.0968
  H  H122  1  0.156000  0.521600  0.823100  1.0  0.1116
  H  H123  1  0.188200  0.277700  0.850500  1.0  0.0932
  H  H124  1  0.174800  0.335900  0.970800  1.0  0.1016
  H  H125  1  0.241600  0.410000  0.957800  1.0  0.0992
  H  H126  1  0.974900  0.372900  0.971500  1.0  0.0997
  H  H127  1  0.309800  0.143600  0.770400  1.0  0.0887
  H  H128  1  0.473900  0.073800  0.729500  1.0  0.1188
  H  H129  1  0.369900  0.248500  0.568800  1.0  0.0658
  H  H130  1  0.567400  0.171800  0.550400  1.0  0.1092
  H  H131  1  0.602400  0.100600  0.615900  1.0  0.0993
  H  H132  1  0.163900  0.542200  0.986500  1.0  0.0855
  H  H133  1  0.539400  0.963700  0.622500  1.0  0.0931
  H  H134  1  0.497200  0.136600  0.442400  1.0  0.0949
  C  C135  1  0.934200  0.588300  0.426600  1.0  0.6984
  C  C136  1  0.952400  0.530300  0.499700  1.0  -0.3021
  C  C137  1  0.901500  0.102500  0.987400  1.0  0.728
  C  C138  1  0.945700  0.010100  0.994800  1.0  -0.2739
  C  C139  1  0.534600  0.285900  0.000100  1.0  0.7049
  C  C140  1  0.426100  0.261500  0.016000  1.0  -0.3251
  C  C141  1  0.418500  0.186700  0.077000  1.0  -0.3624
  C  C142  1  0.444100  0.202400  0.153600  1.0  0.7131
  C  C143  1  0.947700  0.846900  0.239300  1.0  0.0066
  C  C144  1  0.039100  0.875800  0.238100  1.0  -0.1246
  C  C145  1  0.032900  0.775200  0.329200  1.0  0.1264
  C  C146  1  0.506600  0.443500  0.175500  1.0  0.0397
  C  C147  1  0.522900  0.519700  0.172300  1.0  -0.14
  C  C148  1  0.532100  0.448300  0.285500  1.0  0.1635
  C  C149  1  0.200500  0.838600  0.317600  1.0  -0.1642
  C  C150  1  0.285100  0.775500  0.295800  1.0  0.0936
  C  C151  1  0.354400  0.793000  0.235200  1.0  -0.1022
  C  C152  1  0.437600  0.735600  0.219400  1.0  -0.1583
  C  C153  1  0.456600  0.660900  0.272500  1.0  0.03
  C  C154  1  0.384800  0.643100  0.324200  1.0  -0.1262
  C  C155  1  0.300300  0.699000  0.338600  1.0  -0.2162
  C  C156  1  0.558300  0.602000  0.268500  1.0  -0.1056
  C  C157  1  0.886800  0.303200  0.851900  1.0  0.0291
  C  C158  1  0.885900  0.369300  0.796900  1.0  -0.1664
  C  C159  1  0.747200  0.386100  0.869700  1.0  0.1278
  C  C160  1  0.269100  0.679900  0.874100  1.0  0.0519
  C  C161  1  0.224200  0.675100  0.812100  1.0  -0.1331
  C  C162  1  0.122000  0.757300  0.878400  1.0  0.1424
  C  C163  1  0.762100  0.502600  0.764300  1.0  -0.0739
  C  C164  1  0.837600  0.563800  0.764900  1.0  0.064
  C  C165  1  0.832500  0.613200  0.821500  1.0  -0.1171
  C  C166  1  0.901300  0.669100  0.819700  1.0  -0.1147
  C  C167  1  0.977100  0.679600  0.763100  1.0  0.0167
  C  C168  1  0.982900  0.631000  0.709500  1.0  -0.1435
  C  C169  1  0.913800  0.574600  0.710200  1.0  -0.1468
  C  C170  1  0.050400  0.744300  0.758000  1.0  -0.0994
  C  C171  1  0.332200  0.312900  0.391400  1.0  -0.0166
  C  C172  1  0.243000  0.290300  0.425300  1.0  -0.1493
  C  C173  1  0.285100  0.220700  0.334400  1.0  0.1329
  C  C174  1  0.330900  0.775100  0.636300  1.0  -0.0499
  C  C175  1  0.244700  0.831800  0.627000  1.0  -0.0644
  C  C176  1  0.330200  0.855100  0.716900  1.0  0.1438
  C  C177  1  0.119800  0.188100  0.408600  1.0  -0.1005
  C  C178  1  0.132300  0.127700  0.480900  1.0  0.0566
  C  C179  1  0.228600  0.100600  0.513600  1.0  -0.1493
  C  C180  1  0.237900  0.045500  0.580800  1.0  -0.1403
  C  C181  1  0.150900  0.014300  0.615600  1.0  0.0261
  C  C182  1  0.056200  0.045900  0.587400  1.0  -0.1328
  C  C183  1  0.046400  0.104600  0.523700  1.0  -0.141
  C  C184  1  0.161700  0.951500  0.687100  1.0  -0.0637
  C  C185  1  0.836800  0.556900  0.254100  1.0  -0.0293
  C  C186  1  0.837300  0.532700  0.186400  1.0  -0.1563
  C  C187  1  0.819700  0.666900  0.172000  1.0  0.138
  C  C188  1  0.823400  0.607200  0.053800  1.0  -0.0613
  C  C189  1  0.914300  0.552400  0.025000  1.0  0.0877
  C  C190  1  0.014800  0.576200  0.016900  1.0  -0.1245
  C  C191  1  0.657000  0.843800  0.276100  1.0  0.0206
  C  C192  1  0.567300  0.882300  0.298300  1.0  -0.1396
  C  C193  1  0.624800  0.786700  0.385600  1.0  0.1732
  C  C194  1  0.455100  0.875200  0.415900  1.0  -0.1132
  C  C195  1  0.902300  0.474900  0.007900  1.0  -0.1076
  C  C196  1  0.478700  0.939100  0.460700  1.0  0.0666
  C  C197  1  0.476800  0.021300  0.427300  1.0  -0.1107
  C  C198  1  0.501600  0.918100  0.533800  1.0  -0.1661
  C  C199  1  0.065800  0.411700  0.573400  1.0  0.6999
  C  C200  1  0.047600  0.469700  0.500300  1.0  -0.3046
  C  C201  1  0.098500  0.897500  0.012600  1.0  0.7276
  C  C202  1  0.054300  0.989900  0.005200  1.0  -0.2749
  C  C203  1  0.465400  0.714100  0.999900  1.0  0.7049
  C  C204  1  0.573900  0.738500  0.984000  1.0  -0.326
  C  C205  1  0.581500  0.813300  0.923000  1.0  -0.365
  C  C206  1  0.555900  0.797600  0.846400  1.0  0.7131
  C  C207  1  0.052300  0.153100  0.760700  1.0  0.0078
  C  C208  1  0.960900  0.124200  0.761900  1.0  -0.1247
  C  C209  1  0.967100  0.224800  0.670800  1.0  0.1246
  C  C210  1  0.493400  0.556500  0.824500  1.0  0.0417
  C  C211  1  0.477100  0.480300  0.827700  1.0  -0.1403
  C  C212  1  0.467900  0.551700  0.714500  1.0  0.1625
  C  C213  1  0.799500  0.161400  0.682400  1.0  -0.1649
  C  C214  1  0.714900  0.224500  0.704200  1.0  0.0933
  C  C215  1  0.645600  0.207000  0.764800  1.0  -0.1012
  C  C216  1  0.562400  0.264400  0.780600  1.0  -0.159
  C  C217  1  0.543400  0.339100  0.727500  1.0  0.0276
  C  C218  1  0.615200  0.356900  0.675800  1.0  -0.125
  C  C219  1  0.699700  0.301000  0.661400  1.0  -0.2169
  C  C220  1  0.441700  0.398000  0.731500  1.0  -0.1042
  C  C221  1  0.113200  0.696800  0.148100  1.0  0.0294
  C  C222  1  0.114100  0.630700  0.203100  1.0  -0.1672
  C  C223  1  0.252800  0.613900  0.130300  1.0  0.1278
  C  C224  1  0.730900  0.320100  0.125900  1.0  0.0515
  C  C225  1  0.775800  0.324900  0.187900  1.0  -0.1335
  C  C226  1  0.878000  0.242700  0.121600  1.0  0.1422
  C  C227  1  0.237900  0.497400  0.235700  1.0  -0.0739
  C  C228  1  0.162400  0.436200  0.235100  1.0  0.0648
  C  C229  1  0.167500  0.386800  0.178500  1.0  -0.1209
  C  C230  1  0.098700  0.330900  0.180300  1.0  -0.1162
  C  C231  1  0.022900  0.320400  0.236900  1.0  0.0172
  C  C232  1  0.017100  0.369000  0.290500  1.0  -0.1436
  C  C233  1  0.086200  0.425400  0.289800  1.0  -0.1463
  C  C234  1  0.949600  0.255700  0.242000  1.0  -0.0992
  C  C235  1  0.667800  0.687100  0.608600  1.0  -0.0172
  C  C236  1  0.757000  0.709700  0.574700  1.0  -0.1493
  C  C237  1  0.714900  0.779300  0.665600  1.0  0.1329
  C  C238  1  0.669100  0.224900  0.363700  1.0  -0.0499
  C  C239  1  0.755300  0.168200  0.373000  1.0  -0.0635
  C  C240  1  0.669800  0.144900  0.283100  1.0  0.1436
  C  C241  1  0.880200  0.811900  0.591400  1.0  -0.1013
  C  C242  1  0.867700  0.872300  0.519100  1.0  0.0557
  C  C243  1  0.771400  0.899400  0.486400  1.0  -0.1467
  C  C244  1  0.762100  0.954500  0.419200  1.0  -0.1389
  C  C245  1  0.849100  0.985700  0.384400  1.0  0.0258
  C  C246  1  0.943800  0.954100  0.412600  1.0  -0.1347
  C  C247  1  0.953600  0.895400  0.476300  1.0  -0.1421
  C  C248  1  0.838300  0.048500  0.312900  1.0  -0.0631
  C  C249  1  0.163200  0.443100  0.745900  1.0  -0.0299
  C  C250  1  0.162700  0.467300  0.813600  1.0  -0.1567
  C  C251  1  0.180300  0.333100  0.828000  1.0  0.1396
  C  C252  1  0.176600  0.392800  0.946200  1.0  -0.0607
  C  C253  1  0.085700  0.447600  0.975000  1.0  0.0879
  C  C254  1  0.985200  0.423800  0.983100  1.0  -0.1249
  C  C255  1  0.343000  0.156200  0.723900  1.0  0.0204
  C  C256  1  0.432700  0.117700  0.701700  1.0  -0.1375
  C  C257  1  0.375200  0.213300  0.614400  1.0  0.1705
  C  C258  1  0.544900  0.124800  0.584100  1.0  -0.1146
  C  C259  1  0.097700  0.525100  0.992100  1.0  -0.096
  C  C260  1  0.521300  0.060900  0.539300  1.0  0.0658
  C  C261  1  0.523200  0.978700  0.572700  1.0  -0.106
  C  C262  1  0.498400  0.081900  0.466200  1.0  -0.1667
  N  N263  1  0.942700  0.783200  0.296600  1.0  -0.412
  N  N264  1  0.093200  0.829700  0.295300  1.0  0.0389
  N  N265  1  0.513900  0.396500  0.247300  1.0  -0.4125
  N  N266  1  0.542900  0.524200  0.243700  1.0  0.0209
  N  N267  1  0.798700  0.314000  0.897900  1.0  -0.4137
  N  N268  1  0.797200  0.420700  0.809200  1.0  0.044
  N  N269  1  0.206500  0.730100  0.917300  1.0  -0.4094
  N  N270  1  0.129700  0.725900  0.814300  1.0  0.0345
  N  N271  1  0.359800  0.267600  0.334100  1.0  -0.4029
  N  N272  1  0.212400  0.232300  0.388800  1.0  0.0269
  N  N273  1  0.384500  0.792400  0.694000  1.0  -0.3886
  N  N274  1  0.240300  0.882200  0.677000  1.0  0.0144
  N  N275  1  0.825800  0.641800  0.244500  1.0  -0.3871
  N  N276  1  0.826100  0.603500  0.135400  1.0  0.0351
  N  N277  1  0.694600  0.782000  0.332100  1.0  -0.4142
  N  N278  1  0.544800  0.846000  0.370300  1.0  0.0215
  N  N279  1  0.057300  0.216800  0.703400  1.0  -0.4117
  N  N280  1  0.906800  0.170300  0.704700  1.0  0.0389
  N  N281  1  0.486100  0.603500  0.752700  1.0  -0.4123
  N  N282  1  0.457100  0.475800  0.756300  1.0  0.0211
  N  N283  1  0.201300  0.686000  0.102100  1.0  -0.412
  N  N284  1  0.202800  0.579300  0.190800  1.0  0.0433
  N  N285  1  0.793500  0.269900  0.082700  1.0  -0.41
  N  N286  1  0.870300  0.274100  0.185700  1.0  0.0354
  N  N287  1  0.640200  0.732400  0.665900  1.0  -0.4053
  N  N288  1  0.787600  0.767700  0.611200  1.0  0.0264
  N  N289  1  0.615500  0.207600  0.306000  1.0  -0.3902
  N  N290  1  0.759700  0.117800  0.323000  1.0  0.0147
  N  N291  1  0.174200  0.358200  0.755500  1.0  -0.3849
  N  N292  1  0.173900  0.396500  0.864600  1.0  0.0351
  N  N293  1  0.305400  0.218000  0.667900  1.0  -0.4156
  N  N294  1  0.455200  0.154000  0.629700  1.0  0.022
  O  O295  1  0.844100  0.635300  0.421850  1.0  -0.6386
  O  O296  1  0.001000  0.591000  0.376110  1.0  -0.5527
  O  O297  1  0.804100  0.118700  0.986900  1.0  -0.5899
  O  O298  1  0.961000  0.156600  0.982500  1.0  -0.5765
  O  O299  1  0.607100  0.224400  0.000600  1.0  -0.624
  O  O300  1  0.552000  0.358700  0.986600  1.0  -0.5927
  O  O301  1  0.459000  0.273900  0.159800  1.0  -0.5952
  O  O302  1  0.447600  0.146900  0.207100  1.0  -0.619
  O  O303  1  0.155900  0.364700  0.578150  1.0  -0.6378
  O  O304  1  0.999000  0.409000  0.623890  1.0  -0.5523
  O  O305  1  0.195900  0.881300  0.013100  1.0  -0.5911
  O  O306  1  0.039000  0.843400  0.017500  1.0  -0.576
  O  O307  1  0.392900  0.775600  0.999400  1.0  -0.6252
  O  O308  1  0.448000  0.641300  0.013400  1.0  -0.593
  O  O309  1  0.541000  0.726100  0.840200  1.0  -0.5951
  O  O310  1  0.552400  0.853100  0.792900  1.0  -0.6192
