# generated using pymatgen
data_DyH8C12(NO3)3
_symmetry_space_group_name_H-M   'P 1'
_cell_length_a   10.13530000
_cell_length_b   17.35010000
_cell_length_c   11.35940000
_cell_angle_alpha   90.00000000
_cell_angle_beta   109.79800000
_cell_angle_gamma   90.00000000
_symmetry_Int_Tables_number   1
_chemical_formula_structural   DyH8C12(NO3)3
_chemical_formula_sum   'Dy4 H32 C48 N12 O36'
_cell_volume   1879.46409100
_cell_formula_units_Z   4
loop_
 _symmetry_equiv_pos_site_id
 _symmetry_equiv_pos_as_xyz
  1  'x, y, z'
loop_
 _atom_site_type_symbol
 _atom_site_label
 _atom_site_symmetry_multiplicity
 _atom_site_fract_x
 _atom_site_fract_y
 _atom_site_fract_z
 _atom_site_occupancy
 _atom_site_charge
  Dy  Dy1  1  0.008010  0.493120  0.680180  1.0  2.2849
  Dy  Dy2  1  0.991990  0.993120  0.819820  1.0  2.2871
  Dy  Dy3  1  0.991990  0.506880  0.319820  1.0  2.2859
  Dy  Dy4  1  0.008010  0.006880  0.180180  1.0  2.2854
  H  H5  1  0.674800  0.626600  0.523900  1.0  0.1384
  H  H6  1  0.480100  0.509700  0.790400  1.0  0.1096
  H  H7  1  0.436400  0.607900  0.459900  1.0  0.1092
  H  H8  1  0.909800  0.184200  0.803600  1.0  0.1101
  H  H9  1  0.718700  0.525300  0.847300  1.0  0.1086
  H  H10  1  0.048800  0.403600  0.039100  1.0  0.1081
  H  H11  1  0.099100  0.285200  0.136100  1.0  0.1159
  H  H12  1  0.852800  0.303400  0.715000  1.0  0.1288
  H  H13  1  0.325200  0.126600  0.976100  1.0  0.1382
  H  H14  1  0.519900  0.009700  0.709600  1.0  0.1096
  H  H15  1  0.563600  0.107900  0.040100  1.0  0.1092
  H  H16  1  0.090200  0.684200  0.696400  1.0  0.11
  H  H17  1  0.281300  0.025300  0.652700  1.0  0.1076
  H  H18  1  0.951200  0.903600  0.460900  1.0  0.1078
  H  H19  1  0.900900  0.785200  0.363900  1.0  0.1158
  H  H20  1  0.147200  0.803400  0.785000  1.0  0.1291
  H  H21  1  0.325200  0.373400  0.476100  1.0  0.1388
  H  H22  1  0.519900  0.490300  0.209600  1.0  0.1095
  H  H23  1  0.563600  0.392100  0.540100  1.0  0.109
  H  H24  1  0.090200  0.815800  0.196400  1.0  0.11
  H  H25  1  0.281300  0.474700  0.152700  1.0  0.1075
  H  H26  1  0.951200  0.596400  0.960900  1.0  0.1076
  H  H27  1  0.900900  0.714800  0.863900  1.0  0.116
  H  H28  1  0.147200  0.696600  0.285000  1.0  0.1294
  H  H29  1  0.674800  0.873400  0.023900  1.0  0.139
  H  H30  1  0.480100  0.990300  0.290400  1.0  0.1092
  H  H31  1  0.436400  0.892100  0.959900  1.0  0.1081
  H  H32  1  0.909800  0.315800  0.303600  1.0  0.1103
  H  H33  1  0.718700  0.974700  0.347300  1.0  0.1085
  H  H34  1  0.048800  0.096400  0.539100  1.0  0.108
  H  H35  1  0.099100  0.214800  0.636100  1.0  0.1157
  H  H36  1  0.852800  0.196600  0.215000  1.0  0.1293
  C  C37  1  0.634900  0.601600  0.576000  1.0  0.0272
  C  C38  1  0.037400  0.143500  0.042400  1.0  0.6856
  C  C39  1  0.518300  0.531900  0.734700  1.0  -0.0335
  C  C40  1  0.492500  0.590900  0.538600  1.0  -0.015
  C  C41  1  0.936800  0.228200  0.852800  1.0  -0.0289
  C  C42  1  0.430300  0.555100  0.616400  1.0  -0.1005
  C  C43  1  0.276400  0.537900  0.574100  1.0  0.7056
  C  C44  1  0.660700  0.541800  0.769000  1.0  -0.027
  C  C45  1  0.010200  0.221200  0.980100  1.0  -0.0918
  C  C46  1  0.019300  0.358800  0.992800  1.0  -0.0417
  C  C47  1  0.050900  0.288200  0.050500  1.0  -0.0493
  C  C48  1  0.904200  0.299100  0.799800  1.0  -0.0054
  C  C49  1  0.365100  0.101600  0.924000  1.0  0.0251
  C  C50  1  0.962600  0.643500  0.457600  1.0  0.6864
  C  C51  1  0.481700  0.031900  0.765300  1.0  -0.032
  C  C52  1  0.507500  0.090900  0.961400  1.0  -0.0165
  C  C53  1  0.063200  0.728200  0.647200  1.0  -0.0285
  C  C54  1  0.569700  0.055100  0.883600  1.0  -0.0996
  C  C55  1  0.723600  0.037900  0.925900  1.0  0.705
  C  C56  1  0.339300  0.041800  0.731000  1.0  -0.0269
  C  C57  1  0.989800  0.721200  0.519900  1.0  -0.0911
  C  C58  1  0.980700  0.858800  0.507200  1.0  -0.0417
  C  C59  1  0.949100  0.788200  0.449500  1.0  -0.048
  C  C60  1  0.095800  0.799100  0.700200  1.0  -0.0061
  C  C61  1  0.365100  0.398400  0.424000  1.0  0.0256
  C  C62  1  0.962600  0.856500  0.957600  1.0  0.6864
  C  C63  1  0.481700  0.468100  0.265300  1.0  -0.0328
  C  C64  1  0.507500  0.409100  0.461400  1.0  -0.0155
  C  C65  1  0.063200  0.771800  0.147200  1.0  -0.0279
  C  C66  1  0.569700  0.444900  0.383600  1.0  -0.0998
  C  C67  1  0.723600  0.462100  0.425900  1.0  0.7051
  C  C68  1  0.339300  0.458200  0.231000  1.0  -0.0264
  C  C69  1  0.989800  0.778800  0.019900  1.0  -0.091
  C  C70  1  0.980700  0.641200  0.007200  1.0  -0.0419
  C  C71  1  0.949100  0.711800  0.949500  1.0  -0.0481
  C  C72  1  0.095800  0.700900  0.200200  1.0  -0.0067
  C  C73  1  0.634900  0.898400  0.076000  1.0  0.0268
  C  C74  1  0.037400  0.356500  0.542400  1.0  0.6856
  C  C75  1  0.518300  0.968100  0.234700  1.0  -0.0334
  C  C76  1  0.492500  0.909100  0.038600  1.0  -0.013
  C  C77  1  0.936800  0.271800  0.352800  1.0  -0.0276
  C  C78  1  0.430300  0.944900  0.116400  1.0  -0.1001
  C  C79  1  0.276400  0.962100  0.074100  1.0  0.7059
  C  C80  1  0.660700  0.958200  0.269000  1.0  -0.0264
  C  C81  1  0.010200  0.278800  0.480100  1.0  -0.0918
  C  C82  1  0.019300  0.141200  0.492800  1.0  -0.0415
  C  C83  1  0.050900  0.211800  0.550500  1.0  -0.05
  C  C84  1  0.904200  0.200900  0.299800  1.0  -0.0057
  N  N85  1  0.230800  0.530400  0.908300  1.0  0.7224
  N  N86  1  0.717000  0.575140  0.690000  1.0  0.3552
  N  N87  1  0.945900  0.363400  0.869400  1.0  0.347
  N  N88  1  0.769200  0.030400  0.591700  1.0  0.7231
  N  N89  1  0.283000  0.075140  0.810000  1.0  0.356
  N  N90  1  0.054100  0.863400  0.630600  1.0  0.3465
  N  N91  1  0.769200  0.469600  0.091700  1.0  0.7242
  N  N92  1  0.283000  0.424860  0.310000  1.0  0.3549
  N  N93  1  0.054100  0.636600  0.130600  1.0  0.346
  N  N94  1  0.230800  0.969600  0.408300  1.0  0.7236
  N  N95  1  0.717000  0.924860  0.190000  1.0  0.3546
  N  N96  1  0.945900  0.136600  0.369400  1.0  0.3468
  O  O97  1  0.227600  0.514990  0.655200  1.0  -0.6706
  O  O98  1  0.855900  0.583070  0.724600  1.0  -0.6186
  O  O99  1  0.209200  0.547370  0.458500  1.0  -0.6525
  O  O100  1  0.911000  0.432430  0.816800  1.0  -0.628
  O  O101  1  0.059900  0.139470  0.158300  1.0  -0.6307
  O  O102  1  0.145000  0.581420  0.843500  1.0  -0.6625
  O  O103  1  0.027000  0.084010  0.976300  1.0  -0.7556
  O  O104  1  0.334600  0.547830  0.995500  1.0  -0.4369
  O  O105  1  0.201100  0.460790  0.876900  1.0  -0.6159
  O  O106  1  0.772400  0.014990  0.844800  1.0  -0.6702
  O  O107  1  0.144100  0.083070  0.775400  1.0  -0.6161
  O  O108  1  0.790800  0.047370  0.041500  1.0  -0.6531
  O  O109  1  0.089000  0.932430  0.683200  1.0  -0.6257
  O  O110  1  0.940100  0.639470  0.341700  1.0  -0.6288
  O  O111  1  0.855000  0.081420  0.656500  1.0  -0.6647
  O  O112  1  0.973000  0.584010  0.523700  1.0  -0.7562
  O  O113  1  0.665400  0.047830  0.504500  1.0  -0.4355
  O  O114  1  0.798900  0.960790  0.623100  1.0  -0.6123
  O  O115  1  0.772400  0.485010  0.344800  1.0  -0.67
  O  O116  1  0.144100  0.416930  0.275400  1.0  -0.6162
  O  O117  1  0.790800  0.452630  0.541500  1.0  -0.6529
  O  O118  1  0.089000  0.567570  0.183200  1.0  -0.6254
  O  O119  1  0.940100  0.860530  0.841700  1.0  -0.6294
  O  O120  1  0.855000  0.418580  0.156500  1.0  -0.6629
  O  O121  1  0.973000  0.915990  0.023700  1.0  -0.7564
  O  O122  1  0.665400  0.452170  0.004500  1.0  -0.4361
  O  O123  1  0.798900  0.539210  0.123100  1.0  -0.6125
  O  O124  1  0.227600  0.985010  0.155200  1.0  -0.6702
  O  O125  1  0.855900  0.916930  0.224600  1.0  -0.6188
  O  O126  1  0.209200  0.952630  0.958500  1.0  -0.6532
  O  O127  1  0.911000  0.067570  0.316800  1.0  -0.6269
  O  O128  1  0.059900  0.360530  0.658300  1.0  -0.6309
  O  O129  1  0.145000  0.918580  0.343500  1.0  -0.6619
  O  O130  1  0.027000  0.415990  0.476300  1.0  -0.7566
  O  O131  1  0.334600  0.952170  0.495500  1.0  -0.4378
  O  O132  1  0.201100  0.039210  0.376900  1.0  -0.6109
