# generated using pymatgen
data_DyH8C12(NO3)3
_symmetry_space_group_name_H-M   'P 1'
_cell_length_a   10.12980000
_cell_length_b   17.09340000
_cell_length_c   11.08460000
_cell_angle_alpha   90.00000000
_cell_angle_beta   108.69600000
_cell_angle_gamma   90.00000000
_symmetry_Int_Tables_number   1
_chemical_formula_structural   DyH8C12(NO3)3
_chemical_formula_sum   'Dy4 H32 C48 N12 O36'
_cell_volume   1818.05080507
_cell_formula_units_Z   4
loop_
 _symmetry_equiv_pos_site_id
 _symmetry_equiv_pos_as_xyz
  1  'x, y, z'
loop_
 _atom_site_type_symbol
 _atom_site_label
 _atom_site_symmetry_multiplicity
 _atom_site_fract_x
 _atom_site_fract_y
 _atom_site_fract_z
 _atom_site_occupancy
 _atom_site_charge
  Dy  Dy1  1  0.008930  0.004050  0.683180  1.0  2.2726
  Dy  Dy2  1  0.991070  0.504050  0.816820  1.0  2.2747
  Dy  Dy3  1  0.991070  0.995950  0.316820  1.0  2.2753
  Dy  Dy4  1  0.008930  0.495950  0.183180  1.0  2.2733
  H  H5  1  0.434100  0.883700  0.456400  1.0  0.1109
  H  H6  1  0.671500  0.866200  0.519400  1.0  0.1309
  H  H7  1  0.712900  0.975900  0.842900  1.0  0.1099
  H  H8  1  0.827300  0.309200  0.229800  1.0  0.1295
  H  H9  1  0.475700  0.991000  0.787100  1.0  0.1065
  H  H10  1  0.881900  0.187300  0.317900  1.0  0.1048
  H  H11  1  0.117600  0.287600  0.641900  1.0  0.1119
  H  H12  1  0.068000  0.408000  0.545700  1.0  0.116
  H  H13  1  0.565900  0.383700  0.043600  1.0  0.1117
  H  H14  1  0.328500  0.366200  0.980600  1.0  0.1298
  H  H15  1  0.287100  0.475900  0.657100  1.0  0.1094
  H  H16  1  0.172700  0.809200  0.270200  1.0  0.1295
  H  H17  1  0.524300  0.491000  0.712900  1.0  0.1063
  H  H18  1  0.118100  0.687300  0.182100  1.0  0.1048
  H  H19  1  0.882400  0.787600  0.858100  1.0  0.1119
  H  H20  1  0.932000  0.908000  0.954300  1.0  0.1164
  H  H21  1  0.565900  0.116300  0.543600  1.0  0.1116
  H  H22  1  0.328500  0.133800  0.480600  1.0  0.1298
  H  H23  1  0.287100  0.024100  0.157100  1.0  0.1083
  H  H24  1  0.172700  0.690800  0.770200  1.0  0.1294
  H  H25  1  0.524300  0.009000  0.212900  1.0  0.1065
  H  H26  1  0.118100  0.812700  0.682100  1.0  0.1047
  H  H27  1  0.882400  0.712400  0.358100  1.0  0.112
  H  H28  1  0.932000  0.592000  0.454300  1.0  0.1166
  H  H29  1  0.434100  0.616300  0.956400  1.0  0.1116
  H  H30  1  0.671500  0.633800  0.019400  1.0  0.1306
  H  H31  1  0.712900  0.524100  0.342900  1.0  0.1105
  H  H32  1  0.827300  0.190800  0.729800  1.0  0.1298
  H  H33  1  0.475700  0.509000  0.287100  1.0  0.1066
  H  H34  1  0.881900  0.312700  0.817900  1.0  0.1047
  H  H35  1  0.117600  0.212400  0.141900  1.0  0.1117
  H  H36  1  0.068000  0.092000  0.045700  1.0  0.1164
  C  C37  1  0.427900  0.941640  0.613200  1.0  -0.0865
  C  C38  1  0.489400  0.902920  0.534800  1.0  -0.0475
  C  C39  1  0.631100  0.892720  0.572000  1.0  -0.0218
  C  C40  1  0.274600  0.959890  0.569700  1.0  0.7014
  C  C41  1  0.655700  0.957460  0.764700  1.0  -0.0392
  C  C42  1  0.888100  0.304130  0.312400  1.0  -0.0196
  C  C43  1  0.514200  0.967140  0.730800  1.0  -0.0314
  C  C44  1  0.919600  0.231510  0.365300  1.0  -0.0244
  C  C45  1  0.036300  0.145070  0.552000  1.0  0.6656
  C  C46  1  0.060900  0.291110  0.557500  1.0  -0.0563
  C  C47  1  0.030100  0.362980  0.500600  1.0  -0.0435
  C  C48  1  0.007800  0.223590  0.489900  1.0  -0.0907
  C  C49  1  0.572100  0.441640  0.886800  1.0  -0.0863
  C  C50  1  0.510600  0.402920  0.965200  1.0  -0.0488
  C  C51  1  0.368900  0.392720  0.928000  1.0  -0.0221
  C  C52  1  0.725400  0.459890  0.930300  1.0  0.7005
  C  C53  1  0.344300  0.457460  0.735300  1.0  -0.0386
  C  C54  1  0.111900  0.804130  0.187600  1.0  -0.0191
  C  C55  1  0.485800  0.467140  0.769200  1.0  -0.0311
  C  C56  1  0.080400  0.731510  0.134700  1.0  -0.0247
  C  C57  1  0.963700  0.645070  0.948000  1.0  0.6656
  C  C58  1  0.939100  0.791110  0.942500  1.0  -0.0552
  C  C59  1  0.969900  0.862980  0.999400  1.0  -0.0433
  C  C60  1  0.992200  0.723590  0.010100  1.0  -0.0922
  C  C61  1  0.572100  0.058360  0.386800  1.0  -0.0864
  C  C62  1  0.510600  0.097080  0.465200  1.0  -0.0502
  C  C63  1  0.368900  0.107280  0.428000  1.0  -0.0217
  C  C64  1  0.725400  0.040110  0.430300  1.0  0.7001
  C  C65  1  0.344300  0.042540  0.235300  1.0  -0.0382
  C  C66  1  0.111900  0.695870  0.687600  1.0  -0.019
  C  C67  1  0.485800  0.032860  0.269200  1.0  -0.0309
  C  C68  1  0.080400  0.768490  0.634700  1.0  -0.0247
  C  C69  1  0.963700  0.854930  0.448000  1.0  0.6657
  C  C70  1  0.939100  0.708890  0.442500  1.0  -0.0554
  C  C71  1  0.969900  0.637020  0.499400  1.0  -0.0442
  C  C72  1  0.992200  0.776410  0.510100  1.0  -0.0919
  C  C73  1  0.427900  0.558360  0.113200  1.0  -0.0869
  C  C74  1  0.489400  0.597080  0.034800  1.0  -0.0498
  C  C75  1  0.631100  0.607280  0.072000  1.0  -0.0205
  C  C76  1  0.274600  0.540110  0.069700  1.0  0.7008
  C  C77  1  0.655700  0.542540  0.264700  1.0  -0.0392
  C  C78  1  0.888100  0.195870  0.812400  1.0  -0.0194
  C  C79  1  0.514200  0.532860  0.230800  1.0  -0.0316
  C  C80  1  0.919600  0.268490  0.865300  1.0  -0.024
  C  C81  1  0.036300  0.354930  0.052000  1.0  0.666
  C  C82  1  0.060900  0.208890  0.057500  1.0  -0.0568
  C  C83  1  0.030100  0.137020  0.000600  1.0  -0.0439
  C  C84  1  0.007800  0.276410  0.989900  1.0  -0.0909
  N  N85  1  0.224800  0.951840  0.911500  1.0  0.8358
  N  N86  1  0.712000  0.921340  0.685300  1.0  0.346
  N  N87  1  0.944900  0.368490  0.379400  1.0  0.3837
  N  N88  1  0.775200  0.451840  0.588500  1.0  0.8341
  N  N89  1  0.288000  0.421340  0.814700  1.0  0.3466
  N  N90  1  0.055100  0.868490  0.120600  1.0  0.3825
  N  N91  1  0.775200  0.048160  0.088500  1.0  0.8328
  N  N92  1  0.288000  0.078660  0.314700  1.0  0.3481
  N  N93  1  0.055100  0.631510  0.620600  1.0  0.3811
  N  N94  1  0.224800  0.548160  0.411500  1.0  0.8345
  N  N95  1  0.712000  0.578660  0.185300  1.0  0.3471
  N  N96  1  0.944900  0.131510  0.879400  1.0  0.3831
  O  O97  1  0.226200  0.984440  0.654000  1.0  -0.6884
  O  O98  1  0.849500  0.912640  0.718300  1.0  -0.6075
  O  O99  1  0.204200  0.024210  0.890900  1.0  -0.6308
  O  O100  1  0.322500  0.926670  0.999300  1.0  -0.4159
  O  O101  1  0.136500  0.905920  0.836500  1.0  -0.655
  O  O102  1  0.065800  0.139860  0.671000  1.0  -0.6143
  O  O103  1  0.209300  0.951720  0.452500  1.0  -0.6818
  O  O104  1  0.024800  0.084840  0.482500  1.0  -0.7657
  O  O105  1  0.912900  0.439290  0.327200  1.0  -0.6053
  O  O106  1  0.773800  0.484440  0.846000  1.0  -0.6881
  O  O107  1  0.150500  0.412640  0.781700  1.0  -0.6052
  O  O108  1  0.795800  0.524210  0.609100  1.0  -0.6341
  O  O109  1  0.677500  0.426670  0.500700  1.0  -0.4126
  O  O110  1  0.863500  0.405920  0.663500  1.0  -0.6557
  O  O111  1  0.934200  0.639860  0.829000  1.0  -0.6123
  O  O112  1  0.790700  0.451720  0.047500  1.0  -0.6825
  O  O113  1  0.975200  0.584840  0.017500  1.0  -0.7654
  O  O114  1  0.087100  0.939290  0.172800  1.0  -0.6037
  O  O115  1  0.773800  0.015560  0.346000  1.0  -0.6881
  O  O116  1  0.150500  0.087360  0.281700  1.0  -0.606
  O  O117  1  0.795800  0.975790  0.109100  1.0  -0.6316
  O  O118  1  0.677500  0.073330  0.000700  1.0  -0.4134
  O  O119  1  0.863500  0.094080  0.163500  1.0  -0.6558
  O  O120  1  0.934200  0.860140  0.329000  1.0  -0.6121
  O  O121  1  0.790700  0.048280  0.547500  1.0  -0.682
  O  O122  1  0.975200  0.915160  0.517500  1.0  -0.7668
  O  O123  1  0.087100  0.560710  0.672800  1.0  -0.6036
  O  O124  1  0.226200  0.515560  0.154000  1.0  -0.6877
  O  O125  1  0.849500  0.587360  0.218300  1.0  -0.6083
  O  O126  1  0.204200  0.475790  0.390900  1.0  -0.6341
  O  O127  1  0.322500  0.573330  0.499300  1.0  -0.4156
  O  O128  1  0.136500  0.594080  0.336500  1.0  -0.6542
  O  O129  1  0.065800  0.360140  0.171000  1.0  -0.6139
  O  O130  1  0.209300  0.548280  0.952500  1.0  -0.6808
  O  O131  1  0.024800  0.415160  0.982500  1.0  -0.7672
  O  O132  1  0.912900  0.060710  0.827200  1.0  -0.6046
