# generated using pymatgen
data_DyH8C12(NO3)3
_symmetry_space_group_name_H-M   'P 1'
_cell_length_a   10.14140000
_cell_length_b   17.39830000
_cell_length_c   11.36460000
_cell_angle_alpha   90.00000000
_cell_angle_beta   110.08500000
_cell_angle_gamma   90.00000000
_symmetry_Int_Tables_number   1
_chemical_formula_structural   DyH8C12(NO3)3
_chemical_formula_sum   'Dy4 H32 C48 N12 O36'
_cell_volume   1883.25728154
_cell_formula_units_Z   4
loop_
 _symmetry_equiv_pos_site_id
 _symmetry_equiv_pos_as_xyz
  1  'x, y, z'
loop_
 _atom_site_type_symbol
 _atom_site_label
 _atom_site_symmetry_multiplicity
 _atom_site_fract_x
 _atom_site_fract_y
 _atom_site_fract_z
 _atom_site_occupancy
 _atom_site_charge
  Dy  Dy1  1  0.509470  0.507040  0.681280  1.0  2.279
  Dy  Dy2  1  0.490530  0.007040  0.818720  1.0  2.2798
  Dy  Dy3  1  0.490530  0.492960  0.318720  1.0  2.281
  Dy  Dy4  1  0.509470  0.992960  0.181280  1.0  2.2788
  H  H5  1  0.175100  0.374500  0.525200  1.0  0.131
  H  H6  1  0.598600  0.715200  0.136500  1.0  0.1092
  H  H7  1  0.982200  0.490200  0.791200  1.0  0.1101
  H  H8  1  0.410000  0.816000  0.803500  1.0  0.1046
  H  H9  1  0.936100  0.392500  0.459900  1.0  0.1118
  H  H10  1  0.354400  0.696700  0.713500  1.0  0.127
  H  H11  1  0.220300  0.476400  0.846600  1.0  0.1102
  H  H12  1  0.549100  0.597300  0.039900  1.0  0.1073
  H  H13  1  0.824900  0.874500  0.974800  1.0  0.1307
  H  H14  1  0.401400  0.215200  0.363500  1.0  0.1094
  H  H15  1  0.017800  0.990200  0.708800  1.0  0.1101
  H  H16  1  0.590000  0.316000  0.696500  1.0  0.1044
  H  H17  1  0.063900  0.892500  0.040100  1.0  0.1127
  H  H18  1  0.645600  0.196700  0.786500  1.0  0.1271
  H  H19  1  0.779700  0.976400  0.653400  1.0  0.1099
  H  H20  1  0.450900  0.097300  0.460100  1.0  0.1069
  H  H21  1  0.824900  0.625500  0.474800  1.0  0.1303
  H  H22  1  0.401400  0.284800  0.863500  1.0  0.1093
  H  H23  1  0.017800  0.509800  0.208800  1.0  0.1102
  H  H24  1  0.590000  0.184000  0.196500  1.0  0.1044
  H  H25  1  0.063900  0.607500  0.540100  1.0  0.1128
  H  H26  1  0.645600  0.303300  0.286500  1.0  0.1275
  H  H27  1  0.779700  0.523600  0.153400  1.0  0.11
  H  H28  1  0.450900  0.402700  0.960100  1.0  0.1072
  H  H29  1  0.175100  0.125500  0.025200  1.0  0.1305
  H  H30  1  0.598600  0.784800  0.636500  1.0  0.1093
  H  H31  1  0.982200  0.009800  0.291200  1.0  0.1105
  H  H32  1  0.410000  0.684000  0.303500  1.0  0.1043
  H  H33  1  0.936100  0.107500  0.959900  1.0  0.1128
  H  H34  1  0.354400  0.803300  0.213500  1.0  0.1272
  H  H35  1  0.220300  0.023600  0.346600  1.0  0.1101
  H  H36  1  0.549100  0.902700  0.539900  1.0  0.1075
  C  C37  1  0.135300  0.399400  0.577300  1.0  -0.015
  C  C38  1  0.537300  0.856700  0.042800  1.0  0.6778
  C  C39  1  0.551100  0.712100  0.050600  1.0  -0.0508
  C  C40  1  0.020000  0.468400  0.735100  1.0  -0.0318
  C  C41  1  0.437600  0.772100  0.852600  1.0  -0.0166
  C  C42  1  0.992500  0.409600  0.538700  1.0  -0.0332
  C  C43  1  0.776400  0.462400  0.574100  1.0  0.7066
  C  C44  1  0.931800  0.445500  0.617100  1.0  -0.0746
  C  C45  1  0.405100  0.701000  0.798600  1.0  -0.0054
  C  C46  1  0.511400  0.779100  0.979600  1.0  -0.1014
  C  C47  1  0.161800  0.459200  0.768800  1.0  -0.0265
  C  C48  1  0.519700  0.641900  0.993100  1.0  -0.0399
  C  C49  1  0.864700  0.899400  0.922700  1.0  -0.0141
  C  C50  1  0.462700  0.356700  0.457200  1.0  0.6777
  C  C51  1  0.448900  0.212100  0.449400  1.0  -0.0492
  C  C52  1  0.980000  0.968400  0.764900  1.0  -0.0292
  C  C53  1  0.562400  0.272100  0.647400  1.0  -0.0174
  C  C54  1  0.007500  0.909600  0.961300  1.0  -0.0349
  C  C55  1  0.223600  0.962400  0.925900  1.0  0.7061
  C  C56  1  0.068200  0.945500  0.882900  1.0  -0.075
  C  C57  1  0.594900  0.201000  0.701400  1.0  -0.0047
  C  C58  1  0.488600  0.279100  0.520400  1.0  -0.1021
  C  C59  1  0.838200  0.959200  0.731200  1.0  -0.0271
  C  C60  1  0.480300  0.141900  0.506900  1.0  -0.0408
  C  C61  1  0.864700  0.600600  0.422700  1.0  -0.0143
  C  C62  1  0.462700  0.143300  0.957200  1.0  0.6774
  C  C63  1  0.448900  0.287900  0.949400  1.0  -0.0491
  C  C64  1  0.980000  0.531600  0.264900  1.0  -0.0285
  C  C65  1  0.562400  0.227900  0.147400  1.0  -0.0177
  C  C66  1  0.007500  0.590400  0.461300  1.0  -0.035
  C  C67  1  0.223600  0.537600  0.425900  1.0  0.706
  C  C68  1  0.068200  0.554500  0.382900  1.0  -0.0749
  C  C69  1  0.594900  0.299000  0.201400  1.0  -0.0044
  C  C70  1  0.488600  0.220900  0.020400  1.0  -0.102
  C  C71  1  0.838200  0.540800  0.231200  1.0  -0.0275
  C  C72  1  0.480300  0.358100  0.006900  1.0  -0.0404
  C  C73  1  0.135300  0.100600  0.077300  1.0  -0.0144
  C  C74  1  0.537300  0.643300  0.542800  1.0  0.6774
  C  C75  1  0.551100  0.787900  0.550600  1.0  -0.0498
  C  C76  1  0.020000  0.031600  0.235100  1.0  -0.0317
  C  C77  1  0.437600  0.727900  0.352600  1.0  -0.0173
  C  C78  1  0.992500  0.090400  0.038700  1.0  -0.0343
  C  C79  1  0.776400  0.037600  0.074100  1.0  0.7064
  C  C80  1  0.931800  0.054500  0.117100  1.0  -0.0752
  C  C81  1  0.405100  0.799000  0.298600  1.0  -0.0053
  C  C82  1  0.511400  0.720900  0.479600  1.0  -0.1014
  C  C83  1  0.161800  0.040800  0.268800  1.0  -0.0269
  C  C84  1  0.519700  0.858100  0.493100  1.0  -0.04
  N  N85  1  0.731000  0.469600  0.907900  1.0  0.8201
  N  N86  1  0.446800  0.636860  0.869600  1.0  0.3337
  N  N87  1  0.218000  0.425200  0.690200  1.0  0.3434
  N  N88  1  0.269000  0.969600  0.592100  1.0  0.8231
  N  N89  1  0.553200  0.136860  0.630400  1.0  0.3335
  N  N90  1  0.782000  0.925200  0.809800  1.0  0.3445
  N  N91  1  0.269000  0.530400  0.092100  1.0  0.8214
  N  N92  1  0.553200  0.363140  0.130400  1.0  0.3339
  N  N93  1  0.782000  0.574800  0.309800  1.0  0.3459
  N  N94  1  0.731000  0.030400  0.407900  1.0  0.8187
  N  N95  1  0.446800  0.863140  0.369600  1.0  0.3341
  N  N96  1  0.218000  0.074800  0.190200  1.0  0.3446
  O  O97  1  0.728300  0.485790  0.655700  1.0  -0.6819
  O  O98  1  0.702800  0.538650  0.879400  1.0  -0.6057
  O  O99  1  0.708700  0.452920  0.458700  1.0  -0.6933
  O  O100  1  0.356700  0.417430  0.725100  1.0  -0.6181
  O  O101  1  0.411900  0.567980  0.816900  1.0  -0.6293
  O  O102  1  0.560400  0.860740  0.157400  1.0  -0.6042
  O  O103  1  0.526100  0.915840  0.974800  1.0  -0.7595
  O  O104  1  0.646400  0.418260  0.844100  1.0  -0.6696
  O  O105  1  0.837000  0.451800  0.995800  1.0  -0.417
  O  O106  1  0.271700  0.985790  0.844300  1.0  -0.6823
  O  O107  1  0.297200  0.038650  0.620600  1.0  -0.6084
  O  O108  1  0.291300  0.952920  0.041300  1.0  -0.693
  O  O109  1  0.643300  0.917430  0.774900  1.0  -0.6161
  O  O110  1  0.588100  0.067980  0.683100  1.0  -0.6278
  O  O111  1  0.439600  0.360740  0.342600  1.0  -0.6049
  O  O112  1  0.473900  0.415840  0.525200  1.0  -0.7592
  O  O113  1  0.353600  0.918260  0.655900  1.0  -0.6708
  O  O114  1  0.163000  0.951800  0.504200  1.0  -0.4168
  O  O115  1  0.271700  0.514210  0.344300  1.0  -0.6824
  O  O116  1  0.297200  0.461350  0.120600  1.0  -0.6078
  O  O117  1  0.291300  0.547080  0.541300  1.0  -0.6931
  O  O118  1  0.643300  0.582570  0.274900  1.0  -0.6162
  O  O119  1  0.588100  0.432020  0.183100  1.0  -0.6283
  O  O120  1  0.439600  0.139260  0.842600  1.0  -0.6046
  O  O121  1  0.473900  0.084160  0.025200  1.0  -0.7588
  O  O122  1  0.353600  0.581740  0.155900  1.0  -0.6713
  O  O123  1  0.163000  0.548200  0.004200  1.0  -0.4162
  O  O124  1  0.728300  0.014210  0.155700  1.0  -0.6825
  O  O125  1  0.702800  0.961350  0.379400  1.0  -0.6093
  O  O126  1  0.708700  0.047080  0.958700  1.0  -0.6926
  O  O127  1  0.356700  0.082570  0.225100  1.0  -0.6183
  O  O128  1  0.411900  0.932020  0.316900  1.0  -0.6306
  O  O129  1  0.560400  0.639260  0.657400  1.0  -0.6042
  O  O130  1  0.526100  0.584160  0.474800  1.0  -0.7586
  O  O131  1  0.646400  0.081740  0.344100  1.0  -0.6686
  O  O132  1  0.837000  0.048200  0.495800  1.0  -0.4165
