# generated using pymatgen
data_ZnH3C8SO7
_symmetry_space_group_name_H-M   'P 1'
_cell_length_a   11.35040000
_cell_length_b   12.19230000
_cell_length_c   16.18270000
_cell_angle_alpha   90.00000000
_cell_angle_beta   130.49100000
_cell_angle_gamma   90.00000000
_symmetry_Int_Tables_number   1
_chemical_formula_structural   ZnH3C8SO7
_chemical_formula_sum   'Zn4 H12 C32 S4 O28'
_cell_volume   1703.14475188
_cell_formula_units_Z   4
loop_
 _symmetry_equiv_pos_site_id
 _symmetry_equiv_pos_as_xyz
  1  'x, y, z'
loop_
 _atom_site_type_symbol
 _atom_site_label
 _atom_site_symmetry_multiplicity
 _atom_site_fract_x
 _atom_site_fract_y
 _atom_site_fract_z
 _atom_site_occupancy
 _atom_site_charge
  Zn  Zn1  1  0.820700  0.023690  0.481170  1.0  1.1106
  Zn  Zn2  1  0.179300  0.523690  0.018830  1.0  1.1112
  Zn  Zn3  1  0.179300  0.976310  0.518830  1.0  1.111
  Zn  Zn4  1  0.820700  0.476310  0.981170  1.0  1.1109
  H  H5  1  0.667000  0.977400  0.624600  1.0  0.1304
  H  H6  1  0.601800  0.737100  0.760500  1.0  0.1305
  H  H7  1  0.017600  0.775200  0.841800  1.0  0.1346
  H  H8  1  0.333000  0.477400  0.875400  1.0  0.1307
  H  H9  1  0.398200  0.237100  0.739500  1.0  0.13
  H  H10  1  0.982400  0.275200  0.658200  1.0  0.1342
  H  H11  1  0.333000  0.022600  0.375400  1.0  0.13
  H  H12  1  0.398200  0.262900  0.239500  1.0  0.1304
  H  H13  1  0.982400  0.224800  0.158200  1.0  0.1344
  H  H14  1  0.667000  0.522600  0.124600  1.0  0.1294
  H  H15  1  0.601800  0.762900  0.260500  1.0  0.1305
  H  H16  1  0.017600  0.724800  0.341800  1.0  0.1347
  C  C17  1  0.857300  0.884800  0.731920  1.0  -0.1947
  C  C18  1  0.704900  0.918300  0.672160  1.0  0.0302
  C  C19  1  0.609500  0.863500  0.683570  1.0  -0.1372
  C  C20  1  0.445900  0.900400  0.622100  1.0  0.7039
  C  C21  1  0.666200  0.774480  0.753270  1.0  0.056
  C  C22  1  0.818800  0.740800  0.812430  1.0  -0.1498
  C  C23  1  0.915100  0.796880  0.801910  1.0  0.0441
  C  C24  1  0.880600  0.645040  0.887810  1.0  0.7335
  C  C25  1  0.142700  0.384800  0.768080  1.0  -0.1937
  C  C26  1  0.295100  0.418300  0.827840  1.0  0.0309
  C  C27  1  0.390500  0.363500  0.816430  1.0  -0.1369
  C  C28  1  0.554100  0.400400  0.877900  1.0  0.7034
  C  C29  1  0.333800  0.274480  0.746730  1.0  0.0556
  C  C30  1  0.181200  0.240800  0.687570  1.0  -0.1492
  C  C31  1  0.084900  0.296880  0.698090  1.0  0.0441
  C  C32  1  0.119400  0.145040  0.612190  1.0  0.7347
  C  C33  1  0.142700  0.115200  0.268080  1.0  -0.1935
  C  C34  1  0.295100  0.081700  0.327840  1.0  0.0314
  C  C35  1  0.390500  0.136500  0.316430  1.0  -0.1371
  C  C36  1  0.554100  0.099600  0.377900  1.0  0.7034
  C  C37  1  0.333800  0.225520  0.246730  1.0  0.0557
  C  C38  1  0.181200  0.259200  0.187570  1.0  -0.1484
  C  C39  1  0.084900  0.203120  0.198090  1.0  0.0436
  C  C40  1  0.119400  0.354960  0.112190  1.0  0.7352
  C  C41  1  0.857300  0.615200  0.231920  1.0  -0.1945
  C  C42  1  0.704900  0.581700  0.172160  1.0  0.031
  C  C43  1  0.609500  0.636500  0.183570  1.0  -0.1371
  C  C44  1  0.445900  0.599600  0.122100  1.0  0.7038
  C  C45  1  0.666200  0.725520  0.253270  1.0  0.0555
  C  C46  1  0.818800  0.759200  0.312430  1.0  -0.1496
  C  C47  1  0.915100  0.703120  0.301910  1.0  0.0438
  C  C48  1  0.880600  0.854960  0.387810  1.0  0.7337
  S  S49  1  0.976550  0.959310  0.716430  1.0  1.4035
  S  S50  1  0.023450  0.459310  0.783570  1.0  1.4031
  S  S51  1  0.023450  0.040690  0.283570  1.0  1.4028
  S  S52  1  0.976550  0.540690  0.216430  1.0  1.4032
  O  O53  1  0.925000  0.923760  0.610780  1.0  -0.6806
  O  O54  1  0.132900  0.925900  0.803500  1.0  -0.5207
  O  O55  1  0.945100  0.072770  0.716100  1.0  -0.5311
  O  O56  1  0.395700  0.980100  0.558700  1.0  -0.5538
  O  O57  1  0.362400  0.854610  0.634100  1.0  -0.5327
  O  O58  1  0.782900  0.578280  0.871850  1.0  -0.5692
  O  O59  1  0.023760  0.638500  0.961790  1.0  -0.6085
  O  O60  1  0.075000  0.423760  0.889220  1.0  -0.6818
  O  O61  1  0.867100  0.425900  0.696500  1.0  -0.5215
  O  O62  1  0.054900  0.572770  0.783900  1.0  -0.536
  O  O63  1  0.604300  0.480100  0.941300  1.0  -0.5541
  O  O64  1  0.637600  0.354610  0.865900  1.0  -0.5334
  O  O65  1  0.217100  0.078280  0.628150  1.0  -0.5676
  O  O66  1  0.976240  0.138500  0.538210  1.0  -0.606
  O  O67  1  0.075000  0.076240  0.389220  1.0  -0.6813
  O  O68  1  0.867100  0.074100  0.196500  1.0  -0.5212
  O  O69  1  0.054900  0.927230  0.283900  1.0  -0.5316
  O  O70  1  0.604300  0.019900  0.441300  1.0  -0.553
  O  O71  1  0.637600  0.145390  0.365900  1.0  -0.5329
  O  O72  1  0.217100  0.421720  0.128150  1.0  -0.568
  O  O73  1  0.976240  0.361500  0.038210  1.0  -0.6057
  O  O74  1  0.925000  0.576240  0.110780  1.0  -0.6808
  O  O75  1  0.132900  0.574100  0.303500  1.0  -0.5202
  O  O76  1  0.945100  0.427230  0.216100  1.0  -0.5333
  O  O77  1  0.395700  0.519900  0.058700  1.0  -0.554
  O  O78  1  0.362400  0.645390  0.134100  1.0  -0.5317
  O  O79  1  0.782900  0.921720  0.371850  1.0  -0.5696
  O  O80  1  0.023760  0.861500  0.461790  1.0  -0.6077
