# generated using pymatgen
data_ZnH3C8SO7
_symmetry_space_group_name_H-M   'P 1'
_cell_length_a   11.22080000
_cell_length_b   11.75750000
_cell_length_c   16.20140000
_cell_angle_alpha   90.00000000
_cell_angle_beta   129.17000000
_cell_angle_gamma   90.00000000
_symmetry_Int_Tables_number   1
_chemical_formula_structural   ZnH3C8SO7
_chemical_formula_sum   'Zn4 H12 C32 S4 O28'
_cell_volume   1657.09462294
_cell_formula_units_Z   4
loop_
 _symmetry_equiv_pos_site_id
 _symmetry_equiv_pos_as_xyz
  1  'x, y, z'
loop_
 _atom_site_type_symbol
 _atom_site_label
 _atom_site_symmetry_multiplicity
 _atom_site_fract_x
 _atom_site_fract_y
 _atom_site_fract_z
 _atom_site_occupancy
 _atom_site_charge
  Zn  Zn1  1  0.176590  0.027190  0.017620  1.0  1.1256
  Zn  Zn2  1  0.823410  0.527190  0.482380  1.0  1.125
  Zn  Zn3  1  0.823410  0.972810  0.982380  1.0  1.1249
  Zn  Zn4  1  0.176590  0.472810  0.517620  1.0  1.1255
  H  H5  1  0.977400  0.789300  0.653700  1.0  0.1493
  H  H6  1  0.398900  0.741100  0.736700  1.0  0.1464
  H  H7  1  0.335500  0.988700  0.879900  1.0  0.147
  H  H8  1  0.022600  0.289300  0.846300  1.0  0.1483
  H  H9  1  0.601100  0.241100  0.763300  1.0  0.1465
  H  H10  1  0.664500  0.488700  0.620100  1.0  0.1466
  H  H11  1  0.022600  0.210700  0.346300  1.0  0.1503
  H  H12  1  0.601100  0.258900  0.263300  1.0  0.1463
  H  H13  1  0.664500  0.011300  0.120100  1.0  0.1458
  H  H14  1  0.977400  0.710700  0.153700  1.0  0.1473
  H  H15  1  0.398900  0.758900  0.236700  1.0  0.1464
  H  H16  1  0.335500  0.511300  0.379900  1.0  0.1465
  C  C17  1  0.141600  0.897820  0.768060  1.0  -0.1769
  C  C18  1  0.082800  0.809470  0.695520  1.0  0.0219
  C  C19  1  0.179500  0.750240  0.684150  1.0  -0.1112
  C  C20  1  0.117300  0.652660  0.608380  1.0  0.7318
  C  C21  1  0.333200  0.781140  0.744680  1.0  0.0131
  C  C22  1  0.391300  0.870610  0.817030  1.0  -0.1149
  C  C23  1  0.295900  0.928570  0.829670  1.0  0.0146
  C  C24  1  0.556300  0.904310  0.880790  1.0  0.6823
  C  C25  1  0.858400  0.397820  0.731940  1.0  -0.1771
  C  C26  1  0.917200  0.309470  0.804480  1.0  0.0222
  C  C27  1  0.820500  0.250240  0.815850  1.0  -0.1128
  C  C28  1  0.882700  0.152660  0.891620  1.0  0.7313
  C  C29  1  0.666800  0.281140  0.755320  1.0  0.013
  C  C30  1  0.608700  0.370610  0.682970  1.0  -0.1148
  C  C31  1  0.704100  0.428570  0.670330  1.0  0.0139
  C  C32  1  0.443700  0.404310  0.619210  1.0  0.6821
  C  C33  1  0.858400  0.102180  0.231940  1.0  -0.1768
  C  C34  1  0.917200  0.190530  0.304480  1.0  0.0222
  C  C35  1  0.820500  0.249760  0.315850  1.0  -0.1129
  C  C36  1  0.882700  0.347340  0.391620  1.0  0.7318
  C  C37  1  0.666800  0.218860  0.255320  1.0  0.0127
  C  C38  1  0.608700  0.129390  0.182970  1.0  -0.1148
  C  C39  1  0.704100  0.071430  0.170330  1.0  0.0143
  C  C40  1  0.443700  0.095690  0.119210  1.0  0.6817
  C  C41  1  0.141600  0.602180  0.268060  1.0  -0.1764
  C  C42  1  0.082800  0.690530  0.195520  1.0  0.0218
  C  C43  1  0.179500  0.749760  0.184150  1.0  -0.1108
  C  C44  1  0.117300  0.847340  0.108380  1.0  0.7323
  C  C45  1  0.333200  0.718860  0.244680  1.0  0.0129
  C  C46  1  0.391300  0.629390  0.317030  1.0  -0.1149
  C  C47  1  0.295900  0.571430  0.329670  1.0  0.015
  C  C48  1  0.556300  0.595690  0.380790  1.0  0.6824
  S  S49  1  0.021690  0.973790  0.785170  1.0  1.3943
  S  S50  1  0.978310  0.473790  0.714830  1.0  1.3937
  S  S51  1  0.978310  0.026210  0.214830  1.0  1.3936
  S  S52  1  0.021690  0.526210  0.285170  1.0  1.3942
  O  O53  1  0.062690  0.929630  0.885870  1.0  -0.7167
  O  O54  1  0.865550  0.945950  0.695960  1.0  -0.5344
  O  O55  1  0.062600  0.091570  0.794610  1.0  -0.5301
  O  O56  1  0.213500  0.579760  0.625360  1.0  -0.5608
  O  O57  1  0.974980  0.649710  0.533420  1.0  -0.5983
  O  O58  1  0.641560  0.852110  0.868780  1.0  -0.5413
  O  O59  1  0.607340  0.985900  0.945630  1.0  -0.5403
  O  O60  1  0.937310  0.429630  0.614130  1.0  -0.7172
  O  O61  1  0.134450  0.445950  0.804040  1.0  -0.5353
  O  O62  1  0.937400  0.591570  0.705390  1.0  -0.5286
  O  O63  1  0.786500  0.079760  0.874640  1.0  -0.5613
  O  O64  1  0.025020  0.149710  0.966580  1.0  -0.5998
  O  O65  1  0.358440  0.352110  0.631220  1.0  -0.5409
  O  O66  1  0.392660  0.485900  0.554370  1.0  -0.5384
  O  O67  1  0.937310  0.070370  0.114130  1.0  -0.7165
  O  O68  1  0.134450  0.054050  0.304040  1.0  -0.535
  O  O69  1  0.937400  0.908430  0.205390  1.0  -0.5295
  O  O70  1  0.786500  0.420240  0.374640  1.0  -0.5613
  O  O71  1  0.025020  0.350290  0.466580  1.0  -0.5987
  O  O72  1  0.358440  0.147890  0.131220  1.0  -0.5394
  O  O73  1  0.392660  0.014100  0.054370  1.0  -0.5384
  O  O74  1  0.062690  0.570370  0.385870  1.0  -0.7169
  O  O75  1  0.865550  0.554050  0.195960  1.0  -0.5341
  O  O76  1  0.062600  0.408430  0.294610  1.0  -0.5306
  O  O77  1  0.213500  0.920240  0.125360  1.0  -0.5607
  O  O78  1  0.974980  0.850290  0.033420  1.0  -0.598
  O  O79  1  0.641560  0.647890  0.368780  1.0  -0.541
  O  O80  1  0.607340  0.514100  0.445630  1.0  -0.5394
