# generated using pymatgen
data_ZnH3C8SO7
_symmetry_space_group_name_H-M   'P 1'
_cell_length_a   11.28960000
_cell_length_b   12.10490000
_cell_length_c   16.15790000
_cell_angle_alpha   90.00000000
_cell_angle_beta   129.91400000
_cell_angle_gamma   90.00000000
_symmetry_Int_Tables_number   1
_chemical_formula_structural   ZnH3C8SO7
_chemical_formula_sum   'Zn4 H12 C32 S4 O28'
_cell_volume   1693.65439391
_cell_formula_units_Z   4
loop_
 _symmetry_equiv_pos_site_id
 _symmetry_equiv_pos_as_xyz
  1  'x, y, z'
loop_
 _atom_site_type_symbol
 _atom_site_label
 _atom_site_symmetry_multiplicity
 _atom_site_fract_x
 _atom_site_fract_y
 _atom_site_fract_z
 _atom_site_occupancy
 _atom_site_charge
  Zn  Zn1  1  0.178680  0.024710  0.019030  1.0  1.1117
  Zn  Zn2  1  0.821320  0.524710  0.480970  1.0  1.1118
  Zn  Zn3  1  0.821320  0.975290  0.980970  1.0  1.1118
  Zn  Zn4  1  0.178680  0.475290  0.519030  1.0  1.1117
  H  H5  1  0.981300  0.778900  0.657300  1.0  0.1345
  H  H6  1  0.397500  0.738200  0.738300  1.0  0.1286
  H  H7  1  0.333400  0.978800  0.876200  1.0  0.1304
  H  H8  1  0.018700  0.278900  0.842700  1.0  0.1331
  H  H9  1  0.602500  0.238200  0.761700  1.0  0.1284
  H  H10  1  0.666667  0.478800  0.623800  1.0  0.1303
  H  H11  1  0.018700  0.221100  0.342700  1.0  0.1349
  H  H12  1  0.602500  0.261800  0.261700  1.0  0.1281
  H  H13  1  0.666667  0.021200  0.123800  1.0  0.1294
  H  H14  1  0.981300  0.721100  0.157300  1.0  0.133
  H  H15  1  0.397500  0.761800  0.238300  1.0  0.1286
  H  H16  1  0.333400  0.521200  0.376200  1.0  0.1298
  C  C17  1  0.142400  0.887600  0.768170  1.0  -0.19
  C  C18  1  0.084100  0.799810  0.697410  1.0  0.0448
  C  C19  1  0.180600  0.742800  0.686700  1.0  -0.1402
  C  C20  1  0.118800  0.646970  0.611390  1.0  0.7414
  C  C21  1  0.333200  0.775950  0.745950  1.0  0.0572
  C  C22  1  0.390600  0.864660  0.816280  1.0  -0.1304
  C  C23  1  0.295200  0.920080  0.828200  1.0  0.0342
  C  C24  1  0.554800  0.900910  0.878080  1.0  0.6888
  C  C25  1  0.857600  0.387600  0.731830  1.0  -0.191
  C  C26  1  0.915900  0.299810  0.802590  1.0  0.0451
  C  C27  1  0.819400  0.242800  0.813300  1.0  -0.1412
  C  C28  1  0.881200  0.146970  0.888610  1.0  0.7394
  C  C29  1  0.666800  0.275950  0.754050  1.0  0.0573
  C  C30  1  0.609400  0.364660  0.683720  1.0  -0.1312
  C  C31  1  0.704800  0.420080  0.671800  1.0  0.0337
  C  C32  1  0.445200  0.400910  0.621920  1.0  0.69
  C  C33  1  0.857600  0.112400  0.231830  1.0  -0.1908
  C  C34  1  0.915900  0.200190  0.302590  1.0  0.045
  C  C35  1  0.819400  0.257200  0.313300  1.0  -0.1412
  C  C36  1  0.881200  0.353030  0.388610  1.0  0.7392
  C  C37  1  0.666800  0.224050  0.254050  1.0  0.0567
  C  C38  1  0.609400  0.135340  0.183720  1.0  -0.131
  C  C39  1  0.704800  0.079920  0.171800  1.0  0.0342
  C  C40  1  0.445200  0.099090  0.121920  1.0  0.69
  C  C41  1  0.142400  0.612400  0.268170  1.0  -0.1897
  C  C42  1  0.084100  0.700190  0.197410  1.0  0.0445
  C  C43  1  0.180600  0.757200  0.186700  1.0  -0.1397
  C  C44  1  0.118800  0.853030  0.111390  1.0  0.7414
  C  C45  1  0.333200  0.724050  0.245950  1.0  0.0571
  C  C46  1  0.390600  0.635340  0.316280  1.0  -0.1305
  C  C47  1  0.295200  0.579920  0.328200  1.0  0.0346
  C  C48  1  0.554800  0.599090  0.378080  1.0  0.689
  S  S49  1  0.022880  0.962450  0.784180  1.0  1.3971
  S  S50  1  0.977120  0.462450  0.715820  1.0  1.3979
  S  S51  1  0.977120  0.037550  0.215820  1.0  1.3976
  S  S52  1  0.022880  0.537550  0.284180  1.0  1.3968
  O  O53  1  0.072750  0.925550  0.889270  1.0  -0.7056
  O  O54  1  0.866900  0.929500  0.697470  1.0  -0.5375
  O  O55  1  0.055500  0.076360  0.785500  1.0  -0.5263
  O  O56  1  0.215770  0.578550  0.627420  1.0  -0.5693
  O  O57  1  0.976000  0.641360  0.537370  1.0  -0.6022
  O  O58  1  0.638010  0.854210  0.864780  1.0  -0.5213
  O  O59  1  0.605500  0.980050  0.942400  1.0  -0.5444
  O  O60  1  0.927250  0.425550  0.610730  1.0  -0.7061
  O  O61  1  0.133100  0.429500  0.802530  1.0  -0.5365
  O  O62  1  0.944500  0.576360  0.714500  1.0  -0.5227
  O  O63  1  0.784230  0.078550  0.872580  1.0  -0.5701
  O  O64  1  0.024000  0.141360  0.962630  1.0  -0.6038
  O  O65  1  0.361990  0.354210  0.635220  1.0  -0.5215
  O  O66  1  0.394500  0.480050  0.557600  1.0  -0.5442
  O  O67  1  0.927250  0.074450  0.110730  1.0  -0.7064
  O  O68  1  0.133100  0.070500  0.302530  1.0  -0.5362
  O  O69  1  0.944500  0.923640  0.214500  1.0  -0.525
  O  O70  1  0.784230  0.421450  0.372580  1.0  -0.5703
  O  O71  1  0.024000  0.358640  0.462630  1.0  -0.6029
  O  O72  1  0.361990  0.145790  0.135220  1.0  -0.5205
  O  O73  1  0.394500  0.019950  0.057600  1.0  -0.5446
  O  O74  1  0.072750  0.574450  0.389270  1.0  -0.7058
  O  O75  1  0.866900  0.570500  0.197470  1.0  -0.5372
  O  O76  1  0.055500  0.423640  0.285500  1.0  -0.5255
  O  O77  1  0.215770  0.921450  0.127420  1.0  -0.5693
  O  O78  1  0.976000  0.858640  0.037370  1.0  -0.6018
  O  O79  1  0.638010  0.645790  0.364780  1.0  -0.5217
  O  O80  1  0.605500  0.519950  0.442400  1.0  -0.5434
