# generated using pymatgen
data_ZnH3C8SO7
_symmetry_space_group_name_H-M   'P 1'
_cell_length_a   11.25820000
_cell_length_b   11.88120000
_cell_length_c   16.21220000
_cell_angle_alpha   90.00000000
_cell_angle_beta   129.57200000
_cell_angle_gamma   90.00000000
_symmetry_Int_Tables_number   1
_chemical_formula_structural   ZnH3C8SO7
_chemical_formula_sum   'Zn4 H12 C32 S4 O28'
_cell_volume   1671.57865173
_cell_formula_units_Z   4
loop_
 _symmetry_equiv_pos_site_id
 _symmetry_equiv_pos_as_xyz
  1  'x, y, z'
loop_
 _atom_site_type_symbol
 _atom_site_label
 _atom_site_symmetry_multiplicity
 _atom_site_fract_x
 _atom_site_fract_y
 _atom_site_fract_z
 _atom_site_occupancy
 _atom_site_charge
  Zn  Zn1  1  0.177200  0.025970  0.017960  1.0  1.1071
  Zn  Zn2  1  0.822800  0.525970  0.482040  1.0  1.107
  Zn  Zn3  1  0.822800  0.974030  0.982040  1.0  1.107
  Zn  Zn4  1  0.177200  0.474030  0.517960  1.0  1.1071
  H  H5  1  0.978900  0.785200  0.655300  1.0  0.1409
  H  H6  1  0.398000  0.740000  0.737300  1.0  0.1418
  H  H7  1  0.334900  0.984700  0.878700  1.0  0.1419
  H  H8  1  0.021100  0.285200  0.844700  1.0  0.14
  H  H9  1  0.602000  0.240000  0.762700  1.0  0.1418
  H  H10  1  0.665100  0.484700  0.621300  1.0  0.1417
  H  H11  1  0.021100  0.214800  0.344700  1.0  0.1413
  H  H12  1  0.602000  0.260000  0.262700  1.0  0.1417
  H  H13  1  0.665100  0.015300  0.121300  1.0  0.1406
  H  H14  1  0.978900  0.714800  0.155300  1.0  0.1392
  H  H15  1  0.398000  0.760000  0.237300  1.0  0.142
  H  H16  1  0.334900  0.515300  0.378700  1.0  0.141
  C  C17  1  0.141700  0.893780  0.768290  1.0  -0.2107
  C  C18  1  0.083100  0.805670  0.696340  1.0  0.0301
  C  C19  1  0.179520  0.747260  0.684980  1.0  -0.1163
  C  C20  1  0.117900  0.650340  0.609470  1.0  0.7363
  C  C21  1  0.333020  0.779040  0.745080  1.0  0.0318
  C  C22  1  0.390900  0.868370  0.816670  1.0  -0.1281
  C  C23  1  0.295700  0.925300  0.829330  1.0  0.0304
  C  C24  1  0.555800  0.903420  0.879930  1.0  0.6924
  C  C25  1  0.858300  0.393780  0.731710  1.0  -0.2113
  C  C26  1  0.916900  0.305670  0.803660  1.0  0.0298
  C  C27  1  0.820480  0.247260  0.815020  1.0  -0.1176
  C  C28  1  0.882100  0.150340  0.890530  1.0  0.7353
  C  C29  1  0.666980  0.279040  0.754920  1.0  0.0314
  C  C30  1  0.609100  0.368370  0.683330  1.0  -0.1281
  C  C31  1  0.704300  0.425300  0.670670  1.0  0.0297
  C  C32  1  0.444200  0.403420  0.620070  1.0  0.6928
  C  C33  1  0.858300  0.106220  0.231710  1.0  -0.211
  C  C34  1  0.916900  0.194330  0.303660  1.0  0.0295
  C  C35  1  0.820480  0.252740  0.315020  1.0  -0.118
  C  C36  1  0.882100  0.349660  0.390530  1.0  0.7352
  C  C37  1  0.666980  0.220960  0.254920  1.0  0.0315
  C  C38  1  0.609100  0.131630  0.183330  1.0  -0.1281
  C  C39  1  0.704300  0.074700  0.170670  1.0  0.0301
  C  C40  1  0.444200  0.096580  0.120070  1.0  0.6925
  C  C41  1  0.141700  0.606220  0.268290  1.0  -0.2101
  C  C42  1  0.083100  0.694330  0.196340  1.0  0.0298
  C  C43  1  0.179520  0.752740  0.184980  1.0  -0.1161
  C  C44  1  0.117900  0.849660  0.109470  1.0  0.7366
  C  C45  1  0.333020  0.720960  0.245080  1.0  0.0321
  C  C46  1  0.390900  0.631630  0.316670  1.0  -0.1282
  C  C47  1  0.295700  0.574700  0.329330  1.0  0.0312
  C  C48  1  0.555800  0.596580  0.379930  1.0  0.6925
  S  S49  1  0.022210  0.969540  0.784790  1.0  1.405
  S  S50  1  0.977790  0.469540  0.715210  1.0  1.405
  S  S51  1  0.977790  0.030460  0.215210  1.0  1.4047
  S  S52  1  0.022210  0.530460  0.284790  1.0  1.4048
  O  O53  1  0.066530  0.928200  0.886990  1.0  -0.7105
  O  O54  1  0.865770  0.939330  0.696360  1.0  -0.5405
  O  O55  1  0.060000  0.086010  0.791040  1.0  -0.5188
  O  O56  1  0.214480  0.579270  0.626250  1.0  -0.5593
  O  O57  1  0.974890  0.646540  0.534640  1.0  -0.5979
  O  O58  1  0.640420  0.852900  0.867670  1.0  -0.5392
  O  O59  1  0.606260  0.984270  0.944210  1.0  -0.5356
  O  O60  1  0.933470  0.428200  0.613010  1.0  -0.7111
  O  O61  1  0.134230  0.439330  0.803640  1.0  -0.5407
  O  O62  1  0.940000  0.586010  0.708960  1.0  -0.5154
  O  O63  1  0.785520  0.079270  0.873750  1.0  -0.5602
  O  O64  1  0.025110  0.146540  0.965360  1.0  -0.5993
  O  O65  1  0.359580  0.352900  0.632330  1.0  -0.5389
  O  O66  1  0.393740  0.484270  0.555790  1.0  -0.5345
  O  O67  1  0.933470  0.071800  0.113010  1.0  -0.7106
  O  O68  1  0.134230  0.060670  0.303640  1.0  -0.5406
  O  O69  1  0.940000  0.913990  0.208960  1.0  -0.5166
  O  O70  1  0.785520  0.420730  0.373750  1.0  -0.56
  O  O71  1  0.025110  0.353460  0.465360  1.0  -0.598
  O  O72  1  0.359580  0.147100  0.132330  1.0  -0.5382
  O  O73  1  0.393740  0.015730  0.055790  1.0  -0.5347
  O  O74  1  0.066530  0.571800  0.386990  1.0  -0.7102
  O  O75  1  0.865770  0.560670  0.196360  1.0  -0.5405
  O  O76  1  0.060000  0.413990  0.291040  1.0  -0.5173
  O  O77  1  0.214480  0.920730  0.126250  1.0  -0.5589
  O  O78  1  0.974890  0.853460  0.034640  1.0  -0.5973
  O  O79  1  0.640420  0.647100  0.367670  1.0  -0.5393
  O  O80  1  0.606260  0.515730  0.444210  1.0  -0.5349
