# generated using pymatgen
data_ZnH3C8SO7
_symmetry_space_group_name_H-M   'P 1'
_cell_length_a   11.28960000
_cell_length_b   12.10490000
_cell_length_c   16.15790000
_cell_angle_alpha   90.00000000
_cell_angle_beta   129.91400000
_cell_angle_gamma   90.00000000
_symmetry_Int_Tables_number   1
_chemical_formula_structural   ZnH3C8SO7
_chemical_formula_sum   'Zn4 H12 C32 S4 O28'
_cell_volume   1693.65439391
_cell_formula_units_Z   4
loop_
 _symmetry_equiv_pos_site_id
 _symmetry_equiv_pos_as_xyz
  1  'x, y, z'
loop_
 _atom_site_type_symbol
 _atom_site_label
 _atom_site_symmetry_multiplicity
 _atom_site_fract_x
 _atom_site_fract_y
 _atom_site_fract_z
 _atom_site_occupancy
 _atom_site_charge
  Zn  Zn1  1  0.821320  0.024710  0.480980  1.0  1.111
  Zn  Zn2  1  0.178680  0.524710  0.019020  1.0  1.111
  Zn  Zn3  1  0.178680  0.975290  0.519020  1.0  1.111
  Zn  Zn4  1  0.821320  0.475290  0.980980  1.0  1.1109
  H  H5  1  0.666800  0.978900  0.623900  1.0  0.1295
  H  H6  1  0.602700  0.738300  0.761800  1.0  0.1279
  H  H7  1  0.019000  0.779100  0.843000  1.0  0.1341
  H  H8  1  0.333200  0.478900  0.876100  1.0  0.1296
  H  H9  1  0.397300  0.238300  0.738200  1.0  0.1278
  H  H10  1  0.981000  0.279100  0.657000  1.0  0.1334
  H  H11  1  0.333200  0.021100  0.376100  1.0  0.1289
  H  H12  1  0.397300  0.261700  0.238200  1.0  0.1278
  H  H13  1  0.981000  0.220900  0.157000  1.0  0.134
  H  H14  1  0.666800  0.521100  0.123900  1.0  0.1285
  H  H15  1  0.602700  0.761700  0.261800  1.0  0.1277
  H  H16  1  0.019000  0.720900  0.343000  1.0  0.1339
  C  C17  1  0.857600  0.887580  0.731800  1.0  -0.1901
  C  C18  1  0.704900  0.920090  0.671840  1.0  0.03
  C  C19  1  0.609300  0.864610  0.683690  1.0  -0.1361
  C  C20  1  0.445300  0.900800  0.621900  1.0  0.6922
  C  C21  1  0.666900  0.775970  0.754120  1.0  0.0542
  C  C22  1  0.819300  0.742860  0.813310  1.0  -0.1365
  C  C23  1  0.916200  0.799830  0.802780  1.0  0.0504
  C  C24  1  0.881200  0.647050  0.888540  1.0  0.7396
  C  C25  1  0.142400  0.387580  0.768200  1.0  -0.189
  C  C26  1  0.295100  0.420090  0.828160  1.0  0.0305
  C  C27  1  0.390700  0.364610  0.816310  1.0  -0.1356
  C  C28  1  0.554700  0.400800  0.878100  1.0  0.6913
  C  C29  1  0.333100  0.275970  0.745880  1.0  0.0542
  C  C30  1  0.180700  0.242860  0.686690  1.0  -0.1354
  C  C31  1  0.083800  0.299830  0.697220  1.0  0.0501
  C  C32  1  0.118800  0.147050  0.611460  1.0  0.7413
  C  C33  1  0.142400  0.112420  0.268200  1.0  -0.1889
  C  C34  1  0.295100  0.079910  0.328160  1.0  0.0308
  C  C35  1  0.390700  0.135390  0.316310  1.0  -0.1357
  C  C36  1  0.554700  0.099200  0.378100  1.0  0.6914
  C  C37  1  0.333100  0.224030  0.245880  1.0  0.054
  C  C38  1  0.180700  0.257140  0.186690  1.0  -0.135
  C  C39  1  0.083800  0.200170  0.197220  1.0  0.0497
  C  C40  1  0.118800  0.352950  0.111460  1.0  0.7415
  C  C41  1  0.857600  0.612420  0.231800  1.0  -0.1901
  C  C42  1  0.704900  0.579910  0.171840  1.0  0.0305
  C  C43  1  0.609300  0.635390  0.183690  1.0  -0.1358
  C  C44  1  0.445300  0.599200  0.121900  1.0  0.6921
  C  C45  1  0.666900  0.724030  0.254120  1.0  0.0535
  C  C46  1  0.819300  0.757140  0.313310  1.0  -0.1364
  C  C47  1  0.916200  0.700170  0.302780  1.0  0.0502
  C  C48  1  0.881200  0.852950  0.388540  1.0  0.7397
  S  S49  1  0.977150  0.962440  0.715840  1.0  1.3962
  S  S50  1  0.022850  0.462440  0.784160  1.0  1.3951
  S  S51  1  0.022850  0.037560  0.284160  1.0  1.3948
  S  S52  1  0.977150  0.537560  0.215840  1.0  1.3959
  O  O53  1  0.927200  0.925440  0.610720  1.0  -0.7069
  O  O54  1  0.133100  0.929600  0.802650  1.0  -0.5282
  O  O55  1  0.944600  0.076200  0.714600  1.0  -0.5226
  O  O56  1  0.394600  0.980060  0.557630  1.0  -0.5448
  O  O57  1  0.362100  0.854150  0.635320  1.0  -0.524
  O  O58  1  0.784100  0.578510  0.872540  1.0  -0.5716
  O  O59  1  0.023940  0.641340  0.962610  1.0  -0.6044
  O  O60  1  0.072800  0.425440  0.889280  1.0  -0.7064
  O  O61  1  0.866900  0.429600  0.697350  1.0  -0.5296
  O  O62  1  0.055400  0.576200  0.785400  1.0  -0.5259
  O  O63  1  0.605400  0.480060  0.942370  1.0  -0.5448
  O  O64  1  0.637900  0.354150  0.864680  1.0  -0.5245
  O  O65  1  0.215900  0.078510  0.627460  1.0  -0.5705
  O  O66  1  0.976060  0.141340  0.537390  1.0  -0.603
  O  O67  1  0.072800  0.074560  0.389280  1.0  -0.7065
  O  O68  1  0.866900  0.070400  0.197350  1.0  -0.5293
  O  O69  1  0.055400  0.923800  0.285400  1.0  -0.5246
  O  O70  1  0.605400  0.019940  0.442370  1.0  -0.5435
  O  O71  1  0.637900  0.145850  0.364680  1.0  -0.5243
  O  O72  1  0.215900  0.421490  0.127460  1.0  -0.5708
  O  O73  1  0.976060  0.358660  0.037390  1.0  -0.6025
  O  O74  1  0.927200  0.574560  0.110720  1.0  -0.7071
  O  O75  1  0.133100  0.570400  0.302650  1.0  -0.5279
  O  O76  1  0.944600  0.423800  0.214600  1.0  -0.5247
  O  O77  1  0.394600  0.519940  0.057630  1.0  -0.5448
  O  O78  1  0.362100  0.645850  0.135320  1.0  -0.5234
  O  O79  1  0.784100  0.921490  0.372540  1.0  -0.5717
  O  O80  1  0.023940  0.858660  0.462610  1.0  -0.6034
