# generated using pymatgen
data_ZnH3C8SO7
_symmetry_space_group_name_H-M   'P 1'
_cell_length_a   11.24990000
_cell_length_b   11.78880000
_cell_length_c   16.22710000
_cell_angle_alpha   90.00000000
_cell_angle_beta   129.39900000
_cell_angle_gamma   90.00000000
_symmetry_Int_Tables_number   1
_chemical_formula_structural   ZnH3C8SO7
_chemical_formula_sum   'Zn4 H12 C32 S4 O28'
_cell_volume   1663.01123107
_cell_formula_units_Z   4
loop_
 _symmetry_equiv_pos_site_id
 _symmetry_equiv_pos_as_xyz
  1  'x, y, z'
loop_
 _atom_site_type_symbol
 _atom_site_label
 _atom_site_symmetry_multiplicity
 _atom_site_fract_x
 _atom_site_fract_y
 _atom_site_fract_z
 _atom_site_occupancy
 _atom_site_charge
  Zn  Zn1  1  0.176680  0.026490  0.017450  1.0  1.1245
  Zn  Zn2  1  0.823320  0.526490  0.482550  1.0  1.124
  Zn  Zn3  1  0.823320  0.973510  0.982550  1.0  1.1239
  Zn  Zn4  1  0.176680  0.473510  0.517450  1.0  1.1244
  H  H5  1  0.977500  0.788000  0.654000  1.0  0.1439
  H  H6  1  0.398500  0.740900  0.736700  1.0  0.1463
  H  H7  1  0.335600  0.987800  0.879800  1.0  0.1481
  H  H8  1  0.022500  0.288000  0.846000  1.0  0.143
  H  H9  1  0.601500  0.240900  0.763300  1.0  0.1466
  H  H10  1  0.664400  0.487800  0.620200  1.0  0.148
  H  H11  1  0.022500  0.212000  0.346000  1.0  0.1444
  H  H12  1  0.601500  0.259100  0.263300  1.0  0.146
  H  H13  1  0.664400  0.012200  0.120200  1.0  0.1472
  H  H14  1  0.977500  0.712000  0.154000  1.0  0.1422
  H  H15  1  0.398500  0.759100  0.236700  1.0  0.1461
  H  H16  1  0.335600  0.512200  0.379800  1.0  0.1476
  C  C17  1  0.141760  0.896490  0.768240  1.0  -0.1777
  C  C18  1  0.082920  0.808270  0.695810  1.0  0.0199
  C  C19  1  0.179240  0.749180  0.684470  1.0  -0.1185
  C  C20  1  0.117320  0.651860  0.608590  1.0  0.7406
  C  C21  1  0.333050  0.780570  0.744810  1.0  0.0225
  C  C22  1  0.391130  0.869870  0.816980  1.0  -0.1148
  C  C23  1  0.295900  0.927670  0.829700  1.0  0.0166
  C  C24  1  0.556140  0.904370  0.880580  1.0  0.6894
  C  C25  1  0.858240  0.396490  0.731760  1.0  -0.1777
  C  C26  1  0.917080  0.308270  0.804190  1.0  0.0207
  C  C27  1  0.820760  0.249180  0.815530  1.0  -0.1199
  C  C28  1  0.882680  0.151860  0.891410  1.0  0.7398
  C  C29  1  0.666950  0.280570  0.755190  1.0  0.0223
  C  C30  1  0.608870  0.369870  0.683020  1.0  -0.1148
  C  C31  1  0.704100  0.427670  0.670300  1.0  0.0161
  C  C32  1  0.443860  0.404370  0.619420  1.0  0.6893
  C  C33  1  0.858240  0.103510  0.231760  1.0  -0.1774
  C  C34  1  0.917080  0.191730  0.304190  1.0  0.0206
  C  C35  1  0.820760  0.250820  0.315530  1.0  -0.1201
  C  C36  1  0.882680  0.348140  0.391410  1.0  0.7397
  C  C37  1  0.666950  0.219430  0.255190  1.0  0.0221
  C  C38  1  0.608870  0.130130  0.183020  1.0  -0.1149
  C  C39  1  0.704100  0.072330  0.170300  1.0  0.0169
  C  C40  1  0.443860  0.095630  0.119420  1.0  0.689
  C  C41  1  0.141760  0.603510  0.268240  1.0  -0.1772
  C  C42  1  0.082920  0.691730  0.195810  1.0  0.0197
  C  C43  1  0.179240  0.750820  0.184470  1.0  -0.1179
  C  C44  1  0.117320  0.848140  0.108590  1.0  0.7408
  C  C45  1  0.333050  0.719430  0.244810  1.0  0.0224
  C  C46  1  0.391130  0.630130  0.316980  1.0  -0.1149
  C  C47  1  0.295900  0.572330  0.329700  1.0  0.0174
  C  C48  1  0.556140  0.595630  0.380580  1.0  0.6894
  S  S49  1  0.022220  0.972590  0.785040  1.0  1.396
  S  S50  1  0.977780  0.472590  0.714960  1.0  1.3952
  S  S51  1  0.977780  0.027410  0.214960  1.0  1.3952
  S  S52  1  0.022220  0.527410  0.285040  1.0  1.3961
  O  O53  1  0.063940  0.929050  0.885940  1.0  -0.7072
  O  O54  1  0.865690  0.944400  0.695720  1.0  -0.5613
  O  O55  1  0.062500  0.090010  0.793740  1.0  -0.5375
  O  O56  1  0.213820  0.579680  0.625530  1.0  -0.56
  O  O57  1  0.974880  0.648630  0.533780  1.0  -0.5989
  O  O58  1  0.641310  0.852390  0.868920  1.0  -0.5355
  O  O59  1  0.606750  0.985940  0.944950  1.0  -0.5362
  O  O60  1  0.936060  0.429050  0.614060  1.0  -0.7076
  O  O61  1  0.134310  0.444400  0.804280  1.0  -0.5617
  O  O62  1  0.937500  0.590010  0.706260  1.0  -0.5348
  O  O63  1  0.786180  0.079680  0.874470  1.0  -0.5608
  O  O64  1  0.025120  0.148630  0.966220  1.0  -0.6001
  O  O65  1  0.358690  0.352390  0.631080  1.0  -0.5357
  O  O66  1  0.393250  0.485940  0.555050  1.0  -0.5349
  O  O67  1  0.936060  0.070950  0.114060  1.0  -0.7072
  O  O68  1  0.134310  0.055600  0.304280  1.0  -0.5615
  O  O69  1  0.937500  0.909990  0.206260  1.0  -0.535
  O  O70  1  0.786180  0.420320  0.374470  1.0  -0.5606
  O  O71  1  0.025120  0.351370  0.466220  1.0  -0.5989
  O  O72  1  0.358690  0.147610  0.131080  1.0  -0.5344
  O  O73  1  0.393250  0.014060  0.055050  1.0  -0.535
  O  O74  1  0.063940  0.570950  0.385940  1.0  -0.7069
  O  O75  1  0.865690  0.555600  0.195720  1.0  -0.5611
  O  O76  1  0.062500  0.409990  0.293740  1.0  -0.537
  O  O77  1  0.213820  0.920320  0.125530  1.0  -0.5599
  O  O78  1  0.974880  0.851370  0.033780  1.0  -0.5984
  O  O79  1  0.641310  0.647610  0.368920  1.0  -0.5346
  O  O80  1  0.606750  0.514060  0.444950  1.0  -0.5355
