# generated using pymatgen
data_ZnH3C8SO7
_symmetry_space_group_name_H-M   'P 1'
_cell_length_a   11.22080000
_cell_length_b   11.75750000
_cell_length_c   16.20140000
_cell_angle_alpha   90.00000000
_cell_angle_beta   129.17000000
_cell_angle_gamma   90.00000000
_symmetry_Int_Tables_number   1
_chemical_formula_structural   ZnH3C8SO7
_chemical_formula_sum   'Zn4 H12 C32 S4 O28'
_cell_volume   1657.09462294
_cell_formula_units_Z   4
loop_
 _symmetry_equiv_pos_site_id
 _symmetry_equiv_pos_as_xyz
  1  'x, y, z'
loop_
 _atom_site_type_symbol
 _atom_site_label
 _atom_site_symmetry_multiplicity
 _atom_site_fract_x
 _atom_site_fract_y
 _atom_site_fract_z
 _atom_site_occupancy
 _atom_site_charge
  Zn  Zn1  1  0.176580  0.027170  0.017630  1.0  1.1299
  Zn  Zn2  1  0.823420  0.527170  0.482370  1.0  1.1294
  Zn  Zn3  1  0.823420  0.972830  0.982370  1.0  1.1292
  Zn  Zn4  1  0.176580  0.472830  0.517630  1.0  1.1298
  H  H5  1  0.977100  0.789600  0.653500  1.0  0.1513
  H  H6  1  0.398800  0.741100  0.736400  1.0  0.1477
  H  H7  1  0.335800  0.988800  0.880000  1.0  0.1459
  H  H8  1  0.022900  0.289600  0.846500  1.0  0.1503
  H  H9  1  0.601200  0.241100  0.763600  1.0  0.148
  H  H10  1  0.664200  0.488800  0.620000  1.0  0.1453
  H  H11  1  0.022900  0.210400  0.346500  1.0  0.1523
  H  H12  1  0.601200  0.258900  0.263600  1.0  0.1478
  H  H13  1  0.664200  0.011200  0.120000  1.0  0.1444
  H  H14  1  0.977100  0.710400  0.153500  1.0  0.1492
  H  H15  1  0.398800  0.758900  0.236400  1.0  0.1478
  H  H16  1  0.335800  0.511200  0.380000  1.0  0.1452
  C  C17  1  0.141390  0.897860  0.768110  1.0  -0.1803
  C  C18  1  0.082620  0.809640  0.695430  1.0  0.0181
  C  C19  1  0.179330  0.750220  0.684090  1.0  -0.1139
  C  C20  1  0.117350  0.652600  0.608290  1.0  0.7308
  C  C21  1  0.333240  0.781110  0.744560  1.0  0.0166
  C  C22  1  0.391370  0.870560  0.817010  1.0  -0.1113
  C  C23  1  0.296080  0.928700  0.829790  1.0  0.0168
  C  C24  1  0.556290  0.904260  0.880830  1.0  0.6848
  C  C25  1  0.858610  0.397860  0.731890  1.0  -0.1811
  C  C26  1  0.917380  0.309640  0.804570  1.0  0.0183
  C  C27  1  0.820670  0.250220  0.815910  1.0  -0.1153
  C  C28  1  0.882650  0.152600  0.891710  1.0  0.7307
  C  C29  1  0.666760  0.281110  0.755440  1.0  0.0166
  C  C30  1  0.608630  0.370560  0.682990  1.0  -0.1113
  C  C31  1  0.703920  0.428700  0.670210  1.0  0.0163
  C  C32  1  0.443710  0.404260  0.619170  1.0  0.684
  C  C33  1  0.858610  0.102140  0.231890  1.0  -0.1811
  C  C34  1  0.917380  0.190360  0.304570  1.0  0.0182
  C  C35  1  0.820670  0.249780  0.315910  1.0  -0.1153
  C  C36  1  0.882650  0.347400  0.391710  1.0  0.7307
  C  C37  1  0.666760  0.218890  0.255440  1.0  0.0163
  C  C38  1  0.608630  0.129440  0.182990  1.0  -0.1112
  C  C39  1  0.703920  0.071300  0.170210  1.0  0.0168
  C  C40  1  0.443710  0.095740  0.119170  1.0  0.6835
  C  C41  1  0.141390  0.602140  0.268110  1.0  -0.1801
  C  C42  1  0.082620  0.690360  0.195430  1.0  0.0179
  C  C43  1  0.179330  0.749780  0.184090  1.0  -0.1134
  C  C44  1  0.117350  0.847400  0.108290  1.0  0.7311
  C  C45  1  0.333240  0.718890  0.244560  1.0  0.0164
  C  C46  1  0.391370  0.629440  0.317010  1.0  -0.1113
  C  C47  1  0.296080  0.571300  0.329790  1.0  0.0174
  C  C48  1  0.556290  0.595740  0.380830  1.0  0.6847
  S  S49  1  0.021660  0.973780  0.785140  1.0  1.3967
  S  S50  1  0.978340  0.473780  0.714860  1.0  1.3962
  S  S51  1  0.978340  0.026220  0.214860  1.0  1.3961
  S  S52  1  0.021660  0.526220  0.285140  1.0  1.3966
  O  O53  1  0.062570  0.929620  0.885800  1.0  -0.7152
  O  O54  1  0.865430  0.945930  0.695870  1.0  -0.5414
  O  O55  1  0.062700  0.091710  0.794650  1.0  -0.5441
  O  O56  1  0.213560  0.579730  0.625380  1.0  -0.5585
  O  O57  1  0.974950  0.649720  0.533410  1.0  -0.5971
  O  O58  1  0.641570  0.852060  0.868770  1.0  -0.5373
  O  O59  1  0.607410  0.985910  0.945720  1.0  -0.5375
  O  O60  1  0.937430  0.429620  0.614200  1.0  -0.7157
  O  O61  1  0.134570  0.445930  0.804130  1.0  -0.5415
  O  O62  1  0.937300  0.591710  0.705350  1.0  -0.5426
  O  O63  1  0.786440  0.079730  0.874620  1.0  -0.5589
  O  O64  1  0.025050  0.149720  0.966590  1.0  -0.5984
  O  O65  1  0.358430  0.352060  0.631230  1.0  -0.537
  O  O66  1  0.392590  0.485910  0.554280  1.0  -0.5362
  O  O67  1  0.937430  0.070380  0.114200  1.0  -0.715
  O  O68  1  0.134570  0.054070  0.304130  1.0  -0.5412
  O  O69  1  0.937300  0.908290  0.205350  1.0  -0.5433
  O  O70  1  0.786440  0.420270  0.374620  1.0  -0.5589
  O  O71  1  0.025050  0.350280  0.466590  1.0  -0.5972
  O  O72  1  0.358430  0.147940  0.131230  1.0  -0.5355
  O  O73  1  0.392590  0.014090  0.054280  1.0  -0.5366
  O  O74  1  0.062570  0.570380  0.385800  1.0  -0.7153
  O  O75  1  0.865430  0.554070  0.195870  1.0  -0.5411
  O  O76  1  0.062700  0.408290  0.294650  1.0  -0.5446
  O  O77  1  0.213560  0.920270  0.125380  1.0  -0.5583
  O  O78  1  0.974950  0.850280  0.033410  1.0  -0.5967
  O  O79  1  0.641570  0.647940  0.368770  1.0  -0.5369
  O  O80  1  0.607410  0.514090  0.445720  1.0  -0.5374
