# generated using pymatgen
data_ZnH3C8SO7
_symmetry_space_group_name_H-M   'P 1'
_cell_length_a   11.25740000
_cell_length_b   12.00340000
_cell_length_c   16.14300000
_cell_angle_alpha   90.00000000
_cell_angle_beta   129.60300000
_cell_angle_gamma   90.00000000
_symmetry_Int_Tables_number   1
_chemical_formula_structural   ZnH3C8SO7
_chemical_formula_sum   'Zn4 H12 C32 S4 O28'
_cell_volume   1680.69116758
_cell_formula_units_Z   4
loop_
 _symmetry_equiv_pos_site_id
 _symmetry_equiv_pos_as_xyz
  1  'x, y, z'
loop_
 _atom_site_type_symbol
 _atom_site_label
 _atom_site_symmetry_multiplicity
 _atom_site_fract_x
 _atom_site_fract_y
 _atom_site_fract_z
 _atom_site_occupancy
 _atom_site_charge
  Zn  Zn1  1  0.178020  0.025790  0.018750  1.0  1.1049
  Zn  Zn2  1  0.821980  0.525790  0.481250  1.0  1.1044
  Zn  Zn3  1  0.821980  0.974210  0.981250  1.0  1.1042
  Zn  Zn4  1  0.178020  0.474210  0.518750  1.0  1.1049
  H  H5  1  0.333800  0.981200  0.876900  1.0  0.1317
  H  H6  1  0.980900  0.782000  0.656500  1.0  0.1412
  H  H7  1  0.397500  0.739400  0.737400  1.0  0.133
  H  H8  1  0.666200  0.481200  0.623100  1.0  0.1316
  H  H9  1  0.019100  0.282000  0.843500  1.0  0.1399
  H  H10  1  0.602500  0.239400  0.762600  1.0  0.1332
  H  H11  1  0.666200  0.018800  0.123100  1.0  0.1314
  H  H12  1  0.019100  0.218000  0.343500  1.0  0.1416
  H  H13  1  0.602500  0.260600  0.262600  1.0  0.1331
  H  H14  1  0.333800  0.518800  0.376900  1.0  0.1319
  H  H15  1  0.980900  0.718000  0.156500  1.0  0.1398
  H  H16  1  0.397500  0.760600  0.237400  1.0  0.1331
  C  C17  1  0.142000  0.890410  0.768160  1.0  -0.2271
  C  C18  1  0.295500  0.922310  0.828600  1.0  0.0461
  C  C19  1  0.083800  0.802600  0.696890  1.0  0.0471
  C  C20  1  0.391200  0.866030  0.816600  1.0  -0.1281
  C  C21  1  0.180000  0.745180  0.685880  1.0  -0.1325
  C  C22  1  0.333500  0.777480  0.745470  1.0  0.0559
  C  C23  1  0.555600  0.901250  0.878880  1.0  0.6907
  C  C24  1  0.118100  0.648490  0.610270  1.0  0.73
  C  C25  1  0.858000  0.390410  0.731840  1.0  -0.2282
  C  C26  1  0.704500  0.422310  0.671400  1.0  0.0452
  C  C27  1  0.916200  0.302600  0.803110  1.0  0.0475
  C  C28  1  0.608800  0.366030  0.683400  1.0  -0.1285
  C  C29  1  0.820000  0.245180  0.814120  1.0  -0.1332
  C  C30  1  0.666500  0.277480  0.754530  1.0  0.0555
  C  C31  1  0.444400  0.401250  0.621120  1.0  0.6916
  C  C32  1  0.881900  0.148490  0.889730  1.0  0.7283
  C  C33  1  0.858000  0.109590  0.231840  1.0  -0.228
  C  C34  1  0.704500  0.077690  0.171400  1.0  0.0462
  C  C35  1  0.916200  0.197400  0.303110  1.0  0.0479
  C  C36  1  0.608800  0.133970  0.183400  1.0  -0.1282
  C  C37  1  0.820000  0.254820  0.314120  1.0  -0.1334
  C  C38  1  0.666500  0.222520  0.254530  1.0  0.0549
  C  C39  1  0.444400  0.098750  0.121120  1.0  0.6916
  C  C40  1  0.881900  0.351510  0.389730  1.0  0.7284
  C  C41  1  0.142000  0.609590  0.268160  1.0  -0.2265
  C  C42  1  0.295500  0.577690  0.328600  1.0  0.047
  C  C43  1  0.083800  0.697400  0.196890  1.0  0.0472
  C  C44  1  0.391200  0.633970  0.316600  1.0  -0.1282
  C  C45  1  0.180000  0.754820  0.185880  1.0  -0.132
  C  C46  1  0.333500  0.722520  0.245470  1.0  0.0558
  C  C47  1  0.555600  0.598750  0.378880  1.0  0.691
  C  C48  1  0.118100  0.851510  0.110270  1.0  0.7303
  S  S49  1  0.022640  0.965560  0.784700  1.0  1.4044
  S  S50  1  0.977360  0.465560  0.715300  1.0  1.4042
  S  S51  1  0.977360  0.034440  0.215300  1.0  1.4038
  S  S52  1  0.022640  0.534440  0.284700  1.0  1.4041
  O  O53  1  0.070070  0.927020  0.888530  1.0  -0.7073
  O  O54  1  0.393600  0.019430  0.056160  1.0  -0.5408
  O  O55  1  0.360590  0.146770  0.134660  1.0  -0.5289
  O  O56  1  0.214740  0.921350  0.126660  1.0  -0.5668
  O  O57  1  0.024620  0.144100  0.964020  1.0  -0.6026
  O  O58  1  0.057600  0.080970  0.788130  1.0  -0.5297
  O  O59  1  0.866680  0.933700  0.697650  1.0  -0.5192
  O  O60  1  0.929930  0.427020  0.611470  1.0  -0.708
  O  O61  1  0.606400  0.519430  0.443840  1.0  -0.5392
  O  O62  1  0.639410  0.646770  0.365340  1.0  -0.5303
  O  O63  1  0.785260  0.421350  0.373340  1.0  -0.5677
  O  O64  1  0.975380  0.644100  0.535980  1.0  -0.602
  O  O65  1  0.942400  0.580970  0.711870  1.0  -0.527
  O  O66  1  0.133320  0.433700  0.802350  1.0  -0.5201
  O  O67  1  0.929930  0.072980  0.111470  1.0  -0.7081
  O  O68  1  0.606400  0.980570  0.943840  1.0  -0.5402
  O  O69  1  0.639410  0.853230  0.865340  1.0  -0.5302
  O  O70  1  0.785260  0.078650  0.873340  1.0  -0.5681
  O  O71  1  0.975380  0.855900  0.035980  1.0  -0.6013
  O  O72  1  0.942400  0.919030  0.211870  1.0  -0.5297
  O  O73  1  0.133320  0.066300  0.302350  1.0  -0.5193
  O  O74  1  0.070070  0.572980  0.388530  1.0  -0.7071
  O  O75  1  0.393600  0.480570  0.556160  1.0  -0.5404
  O  O76  1  0.360590  0.353230  0.634660  1.0  -0.5302
  O  O77  1  0.214740  0.578650  0.626660  1.0  -0.5673
  O  O78  1  0.024620  0.355900  0.464020  1.0  -0.6011
  O  O79  1  0.057600  0.419030  0.288130  1.0  -0.5291
  O  O80  1  0.866680  0.566300  0.197650  1.0  -0.5188
