# generated using pymatgen
data_ZnH3C8SO7
_symmetry_space_group_name_H-M   'P 1'
_cell_length_a   11.35040000
_cell_length_b   12.19230000
_cell_length_c   16.18270000
_cell_angle_alpha   90.00000000
_cell_angle_beta   130.49100000
_cell_angle_gamma   90.00000000
_symmetry_Int_Tables_number   1
_chemical_formula_structural   ZnH3C8SO7
_chemical_formula_sum   'Zn4 H12 C32 S4 O28'
_cell_volume   1703.14475188
_cell_formula_units_Z   4
loop_
 _symmetry_equiv_pos_site_id
 _symmetry_equiv_pos_as_xyz
  1  'x, y, z'
loop_
 _atom_site_type_symbol
 _atom_site_label
 _atom_site_symmetry_multiplicity
 _atom_site_fract_x
 _atom_site_fract_y
 _atom_site_fract_z
 _atom_site_occupancy
 _atom_site_charge
  Zn  Zn1  1  0.179310  0.023690  0.018830  1.0  1.1108
  Zn  Zn2  1  0.820690  0.523690  0.481170  1.0  1.1109
  Zn  Zn3  1  0.820690  0.976310  0.981170  1.0  1.1105
  Zn  Zn4  1  0.179310  0.476310  0.518830  1.0  1.111
  H  H5  1  0.982600  0.775400  0.658300  1.0  0.1317
  H  H6  1  0.398300  0.737300  0.739600  1.0  0.1299
  H  H7  1  0.333100  0.977200  0.875500  1.0  0.1296
  H  H8  1  0.017400  0.275400  0.841700  1.0  0.1308
  H  H9  1  0.601700  0.237300  0.760400  1.0  0.1307
  H  H10  1  0.666900  0.477200  0.624500  1.0  0.1291
  H  H11  1  0.017400  0.224600  0.341700  1.0  0.1326
  H  H12  1  0.601700  0.262700  0.260400  1.0  0.1306
  H  H13  1  0.666900  0.022800  0.124500  1.0  0.1286
  H  H14  1  0.982600  0.724600  0.158300  1.0  0.1303
  H  H15  1  0.398300  0.762700  0.239600  1.0  0.1303
  H  H16  1  0.333100  0.522800  0.375500  1.0  0.1292
  C  C17  1  0.142700  0.884820  0.768060  1.0  -0.2088
  C  C18  1  0.085200  0.796960  0.698170  1.0  0.0519
  C  C19  1  0.181200  0.740740  0.687640  1.0  -0.1453
  C  C20  1  0.119600  0.645020  0.612180  1.0  0.7387
  C  C21  1  0.333900  0.774560  0.746810  1.0  0.0442
  C  C22  1  0.390400  0.863530  0.816380  1.0  -0.1368
  C  C23  1  0.295100  0.918240  0.827870  1.0  0.0323
  C  C24  1  0.554200  0.900600  0.878000  1.0  0.6964
  C  C25  1  0.857300  0.384820  0.731940  1.0  -0.2095
  C  C26  1  0.914800  0.296960  0.801830  1.0  0.0513
  C  C27  1  0.818800  0.240740  0.812360  1.0  -0.1457
  C  C28  1  0.880400  0.145020  0.887820  1.0  0.7376
  C  C29  1  0.666100  0.274560  0.753190  1.0  0.0447
  C  C30  1  0.609600  0.363530  0.683620  1.0  -0.1364
  C  C31  1  0.704900  0.418240  0.672130  1.0  0.0314
  C  C32  1  0.445800  0.400600  0.622000  1.0  0.6964
  C  C33  1  0.857300  0.115180  0.231940  1.0  -0.2094
  C  C34  1  0.914800  0.203040  0.301830  1.0  0.0507
  C  C35  1  0.818800  0.259260  0.312360  1.0  -0.1456
  C  C36  1  0.880400  0.354980  0.387820  1.0  0.7379
  C  C37  1  0.666100  0.225440  0.253190  1.0  0.0443
  C  C38  1  0.609600  0.136470  0.183620  1.0  -0.1366
  C  C39  1  0.704900  0.081760  0.172130  1.0  0.0322
  C  C40  1  0.445800  0.099400  0.122000  1.0  0.6962
  C  C41  1  0.142700  0.615180  0.268060  1.0  -0.2086
  C  C42  1  0.085200  0.703040  0.198170  1.0  0.0512
  C  C43  1  0.181200  0.759260  0.187640  1.0  -0.1446
  C  C44  1  0.119600  0.854980  0.112180  1.0  0.7392
  C  C45  1  0.333900  0.725440  0.246810  1.0  0.0444
  C  C46  1  0.390400  0.636470  0.316380  1.0  -0.1371
  C  C47  1  0.295100  0.581760  0.327870  1.0  0.0327
  C  C48  1  0.554200  0.599400  0.378000  1.0  0.6963
  S  S49  1  0.023500  0.959350  0.783610  1.0  1.4025
  S  S50  1  0.976500  0.459350  0.716390  1.0  1.4031
  S  S51  1  0.976500  0.040650  0.216390  1.0  1.4028
  S  S52  1  0.023500  0.540650  0.283610  1.0  1.4022
  O  O53  1  0.075000  0.923860  0.889260  1.0  -0.6818
  O  O54  1  0.867400  0.926000  0.696680  1.0  -0.5201
  O  O55  1  0.055100  0.072840  0.784100  1.0  -0.5265
  O  O56  1  0.217060  0.578360  0.628120  1.0  -0.5667
  O  O57  1  0.976300  0.638490  0.538210  1.0  -0.6072
  O  O58  1  0.637700  0.854590  0.865890  1.0  -0.5318
  O  O59  1  0.604200  0.980070  0.941230  1.0  -0.5435
  O  O60  1  0.925000  0.423860  0.610740  1.0  -0.6806
  O  O61  1  0.132600  0.426000  0.803320  1.0  -0.5198
  O  O62  1  0.944900  0.572840  0.715900  1.0  -0.5238
  O  O63  1  0.782940  0.078360  0.871880  1.0  -0.569
  O  O64  1  0.023700  0.138490  0.961790  1.0  -0.6096
  O  O65  1  0.362300  0.354590  0.634110  1.0  -0.5316
  O  O66  1  0.395800  0.480070  0.558770  1.0  -0.5435
  O  O67  1  0.925000  0.076140  0.110740  1.0  -0.6807
  O  O68  1  0.132600  0.074000  0.303320  1.0  -0.5194
  O  O69  1  0.944900  0.927160  0.215900  1.0  -0.5237
  O  O70  1  0.782940  0.421640  0.371880  1.0  -0.5682
  O  O71  1  0.023700  0.361510  0.461790  1.0  -0.6087
  O  O72  1  0.362300  0.145410  0.134110  1.0  -0.5304
  O  O73  1  0.395800  0.019930  0.058770  1.0  -0.5436
  O  O74  1  0.075000  0.576140  0.389260  1.0  -0.6812
  O  O75  1  0.867400  0.574000  0.196680  1.0  -0.5198
  O  O76  1  0.055100  0.427160  0.284100  1.0  -0.5248
  O  O77  1  0.217060  0.921640  0.128120  1.0  -0.5663
  O  O78  1  0.976300  0.861510  0.038210  1.0  -0.6068
  O  O79  1  0.637700  0.645410  0.365890  1.0  -0.5319
  O  O80  1  0.604200  0.519930  0.441230  1.0  -0.5423
