# generated using pymatgen
data_ZnH3C8SO7
_symmetry_space_group_name_H-M   'P 1'
_cell_length_a   11.26550000
_cell_length_b   11.99620000
_cell_length_c   12.50190000
_cell_angle_alpha   90.00000000
_cell_angle_beta   94.29400000
_cell_angle_gamma   90.00000000
_symmetry_Int_Tables_number   1
_chemical_formula_structural   ZnH3C8SO7
_chemical_formula_sum   'Zn4 H12 C32 S4 O28'
_cell_volume   1684.80406923
_cell_formula_units_Z   4
loop_
 _symmetry_equiv_pos_site_id
 _symmetry_equiv_pos_as_xyz
  1  'x, y, z'
loop_
 _atom_site_type_symbol
 _atom_site_label
 _atom_site_symmetry_multiplicity
 _atom_site_fract_x
 _atom_site_fract_y
 _atom_site_fract_z
 _atom_site_occupancy
 _atom_site_charge
  Zn  Zn1  1  0.159340  0.525780  0.481530  1.0  1.1023
  Zn  Zn2  1  0.340660  0.025780  0.018470  1.0  1.1015
  Zn  Zn3  1  0.840660  0.474220  0.518470  1.0  1.1015
  Zn  Zn4  1  0.659340  0.974220  0.981530  1.0  1.1021
  H  H5  1  0.340100  0.760200  0.237400  1.0  0.1319
  H  H6  1  0.675400  0.717600  0.156600  1.0  0.1381
  H  H7  1  0.543400  0.519100  0.377600  1.0  0.1318
  H  H8  1  0.159900  0.260200  0.262600  1.0  0.132
  H  H9  1  0.824600  0.217600  0.343400  1.0  0.1375
  H  H10  1  0.956600  0.019100  0.122400  1.0  0.1321
  H  H11  1  0.659900  0.239800  0.762600  1.0  0.1319
  H  H12  1  0.324600  0.282400  0.843400  1.0  0.1377
  H  H13  1  0.456600  0.480900  0.622400  1.0  0.1326
  H  H14  1  0.840100  0.739800  0.737400  1.0  0.132
  H  H15  1  0.175400  0.782400  0.656600  1.0  0.1377
  H  H16  1  0.043400  0.980900  0.877600  1.0  0.1319
  C  C17  1  0.425070  0.633560  0.316540  1.0  -0.1294
  C  C18  1  0.412090  0.722080  0.245320  1.0  0.0483
  C  C19  1  0.505620  0.754490  0.185610  1.0  -0.1383
  C  C20  1  0.612770  0.696960  0.196780  1.0  0.0592
  C  C21  1  0.625870  0.608790  0.268120  1.0  -0.2251
  C  C22  1  0.533170  0.577490  0.328800  1.0  0.0438
  C  C23  1  0.323600  0.598400  0.378990  1.0  0.6832
  C  C24  1  0.492010  0.851350  0.110100  1.0  0.7436
  C  C25  1  0.074930  0.133560  0.183460  1.0  -0.1294
  C  C26  1  0.087910  0.222080  0.254680  1.0  0.0491
  C  C27  1  0.994380  0.254490  0.314390  1.0  -0.1392
  C  C28  1  0.887230  0.196960  0.303220  1.0  0.0609
  C  C29  1  0.874130  0.108790  0.231880  1.0  -0.2259
  C  C30  1  0.966830  0.077490  0.171200  1.0  0.0434
  C  C31  1  0.176400  0.098400  0.121010  1.0  0.6838
  C  C32  1  0.007990  0.351350  0.389900  1.0  0.7426
  C  C33  1  0.574930  0.366440  0.683460  1.0  -0.1296
  C  C34  1  0.587910  0.277920  0.754680  1.0  0.0497
  C  C35  1  0.494380  0.245510  0.814390  1.0  -0.139
  C  C36  1  0.387230  0.303040  0.803220  1.0  0.0607
  C  C37  1  0.374130  0.391210  0.731880  1.0  -0.2257
  C  C38  1  0.466830  0.422510  0.671200  1.0  0.0419
  C  C39  1  0.676400  0.401600  0.621010  1.0  0.6838
  C  C40  1  0.507990  0.148650  0.889900  1.0  0.7423
  C  C41  1  0.925070  0.866440  0.816540  1.0  -0.1295
  C  C42  1  0.912090  0.777920  0.745320  1.0  0.0488
  C  C43  1  0.005620  0.745510  0.685610  1.0  -0.1387
  C  C44  1  0.112770  0.803040  0.696780  1.0  0.0592
  C  C45  1  0.125870  0.891210  0.768120  1.0  -0.2254
  C  C46  1  0.033170  0.922510  0.828800  1.0  0.0429
  C  C47  1  0.823600  0.901600  0.878990  1.0  0.6834
  C  C48  1  0.992010  0.648650  0.610100  1.0  0.7434
  S  S49  1  0.761970  0.533720  0.284560  1.0  1.4057
  S  S50  1  0.738030  0.033720  0.215440  1.0  1.4078
  S  S51  1  0.238030  0.466280  0.715440  1.0  1.4078
  S  S52  1  0.261970  0.966280  0.784560  1.0  1.4061
  O  O53  1  0.226450  0.647190  0.366150  1.0  -0.5381
  O  O54  1  0.337140  0.518750  0.443920  1.0  -0.5386
  O  O55  1  0.560360  0.855630  0.035670  1.0  -0.6052
  O  O56  1  0.411810  0.921240  0.126430  1.0  -0.5663
  O  O57  1  0.818640  0.572610  0.388300  1.0  -0.708
  O  O58  1  0.730540  0.418340  0.288200  1.0  -0.5207
  O  O59  1  0.830520  0.565100  0.197390  1.0  -0.515
  O  O60  1  0.273550  0.147190  0.133850  1.0  -0.5399
  O  O61  1  0.162860  0.018750  0.056080  1.0  -0.5397
  O  O62  1  0.939640  0.355630  0.464330  1.0  -0.6055
  O  O63  1  0.088190  0.421240  0.373570  1.0  -0.5658
  O  O64  1  0.681360  0.072610  0.111700  1.0  -0.7088
  O  O65  1  0.769460  0.918340  0.211800  1.0  -0.522
  O  O66  1  0.669480  0.065100  0.302610  1.0  -0.5163
  O  O67  1  0.773550  0.352810  0.633850  1.0  -0.54
  O  O68  1  0.662860  0.481250  0.556080  1.0  -0.5389
  O  O69  1  0.439640  0.144370  0.964330  1.0  -0.6062
  O  O70  1  0.588190  0.078760  0.873570  1.0  -0.566
  O  O71  1  0.181360  0.427390  0.611700  1.0  -0.7089
  O  O72  1  0.269460  0.581660  0.711800  1.0  -0.5199
  O  O73  1  0.169480  0.434900  0.802610  1.0  -0.5156
  O  O74  1  0.726450  0.852810  0.866150  1.0  -0.5387
  O  O75  1  0.837140  0.981250  0.943920  1.0  -0.5384
  O  O76  1  0.060360  0.644370  0.535670  1.0  -0.6071
  O  O77  1  0.911810  0.578760  0.626430  1.0  -0.5663
  O  O78  1  0.318640  0.927390  0.888300  1.0  -0.7087
  O  O79  1  0.230540  0.081660  0.788200  1.0  -0.5209
  O  O80  1  0.330520  0.934900  0.697390  1.0  -0.5152
