# generated using pymatgen
data_ZnH3C8SO7
_symmetry_space_group_name_H-M   'P 1'
_cell_length_a   11.24990000
_cell_length_b   11.78880000
_cell_length_c   16.22710000
_cell_angle_alpha   90.00000000
_cell_angle_beta   129.39900000
_cell_angle_gamma   90.00000000
_symmetry_Int_Tables_number   1
_chemical_formula_structural   ZnH3C8SO7
_chemical_formula_sum   'Zn4 H12 C32 S4 O28'
_cell_volume   1663.01123107
_cell_formula_units_Z   4
loop_
 _symmetry_equiv_pos_site_id
 _symmetry_equiv_pos_as_xyz
  1  'x, y, z'
loop_
 _atom_site_type_symbol
 _atom_site_label
 _atom_site_symmetry_multiplicity
 _atom_site_fract_x
 _atom_site_fract_y
 _atom_site_fract_z
 _atom_site_occupancy
 _atom_site_charge
  Zn  Zn1  1  0.323330  0.473520  0.482570  1.0  1.1311
  Zn  Zn2  1  0.676670  0.973520  0.017440  1.0  1.1258
  Zn  Zn3  1  0.676670  0.526480  0.517430  1.0  1.1317
  Zn  Zn4  1  0.323330  0.026480  0.982570  1.0  1.1312
  H  H5  1  0.522400  0.712100  0.845900  1.0  0.1457
  H  H6  1  0.101500  0.759200  0.763300  1.0  0.1481
  H  H7  1  0.164600  0.512200  0.620300  1.0  0.1484
  H  H8  1  0.477600  0.212100  0.654100  1.0  0.1435
  H  H9  1  0.898500  0.259200  0.736700  1.0  0.1481
  H  H10  1  0.835400  0.012200  0.879700  1.0  0.1491
  H  H11  1  0.477600  0.287900  0.154100  1.0  0.1451
  H  H12  1  0.898500  0.240800  0.236700  1.0  0.1482
  H  H13  1  0.835400  0.487800  0.379700  1.0  0.1485
  H  H14  1  0.522400  0.787900  0.345900  1.0  0.1442
  H  H15  1  0.101500  0.740800  0.263300  1.0  0.1486
  H  H16  1  0.164600  0.987800  0.120300  1.0  0.1482
  C  C17  1  0.358100  0.603520  0.731800  1.0  -0.1851
  C  C18  1  0.417000  0.691800  0.804190  1.0  0.0217
  C  C19  1  0.320700  0.750730  0.815480  1.0  -0.1196
  C  C20  1  0.382600  0.848130  0.891360  1.0  0.7402
  C  C21  1  0.166950  0.719430  0.755180  1.0  0.0186
  C  C22  1  0.108900  0.630120  0.683050  1.0  -0.1172
  C  C23  1  0.204200  0.572340  0.670390  1.0  0.0152
  C  C24  1  0.943800  0.595620  0.619440  1.0  0.6906
  C  C25  1  0.641900  0.103520  0.768200  1.0  -0.1849
  C  C26  1  0.583000  0.191800  0.695810  1.0  0.0207
  C  C27  1  0.679300  0.250730  0.684520  1.0  -0.1174
  C  C28  1  0.617400  0.348130  0.608640  1.0  0.7411
  C  C29  1  0.833050  0.219430  0.744820  1.0  0.019
  C  C30  1  0.891100  0.130120  0.816950  1.0  -0.1173
  C  C31  1  0.795800  0.072340  0.829610  1.0  0.0158
  C  C32  1  0.056200  0.095620  0.880560  1.0  0.6911
  C  C33  1  0.641900  0.396480  0.268200  1.0  -0.1854
  C  C34  1  0.583000  0.308200  0.195810  1.0  0.021
  C  C35  1  0.679300  0.249270  0.184520  1.0  -0.118
  C  C36  1  0.617400  0.151870  0.108640  1.0  0.741
  C  C37  1  0.833050  0.280570  0.244820  1.0  0.019
  C  C38  1  0.891100  0.369880  0.316950  1.0  -0.1172
  C  C39  1  0.795800  0.427660  0.329610  1.0  0.0152
  C  C40  1  0.056200  0.404380  0.380560  1.0  0.691
  C  C41  1  0.358100  0.896480  0.231800  1.0  -0.1854
  C  C42  1  0.417000  0.808200  0.304190  1.0  0.0219
  C  C43  1  0.320700  0.749270  0.315480  1.0  -0.1194
  C  C44  1  0.382600  0.651870  0.391360  1.0  0.7402
  C  C45  1  0.166950  0.780570  0.255180  1.0  0.0187
  C  C46  1  0.108900  0.869880  0.183050  1.0  -0.1172
  C  C47  1  0.204200  0.927660  0.170390  1.0  0.0146
  C  C48  1  0.943800  0.904380  0.119440  1.0  0.6909
  S  S49  1  0.477750  0.527410  0.714930  1.0  1.3944
  S  S50  1  0.522250  0.027410  0.785070  1.0  1.395
  S  S51  1  0.522250  0.472590  0.285070  1.0  1.3949
  S  S52  1  0.477750  0.972590  0.214930  1.0  1.3944
  O  O53  1  0.436020  0.570930  0.614060  1.0  -0.7061
  O  O54  1  0.634220  0.555580  0.804270  1.0  -0.5603
  O  O55  1  0.437700  0.410110  0.706310  1.0  -0.5404
  O  O56  1  0.525140  0.851440  0.966230  1.0  -0.5975
  O  O57  1  0.286130  0.920290  0.874470  1.0  -0.5592
  O  O58  1  0.858690  0.647660  0.631060  1.0  -0.5333
  O  O59  1  0.893230  0.514020  0.555050  1.0  -0.5337
  O  O60  1  0.563980  0.070930  0.885940  1.0  -0.7059
  O  O61  1  0.365780  0.055580  0.695730  1.0  -0.5598
  O  O62  1  0.562300  0.910110  0.793690  1.0  -0.542
  O  O63  1  0.474860  0.351440  0.533770  1.0  -0.5969
  O  O64  1  0.713870  0.420290  0.625530  1.0  -0.5585
  O  O65  1  0.141310  0.147660  0.868940  1.0  -0.5337
  O  O66  1  0.106770  0.014020  0.944950  1.0  -0.5343
  O  O67  1  0.563980  0.429070  0.385940  1.0  -0.7061
  O  O68  1  0.365780  0.444420  0.195730  1.0  -0.56
  O  O69  1  0.562300  0.589890  0.293690  1.0  -0.5434
  O  O70  1  0.474860  0.148560  0.033770  1.0  -0.5973
  O  O71  1  0.713870  0.079710  0.125530  1.0  -0.5586
  O  O72  1  0.141310  0.352340  0.368940  1.0  -0.5339
  O  O73  1  0.106770  0.485980  0.444950  1.0  -0.5349
  O  O74  1  0.436020  0.929070  0.114060  1.0  -0.7066
  O  O75  1  0.634220  0.944420  0.304270  1.0  -0.5605
  O  O76  1  0.437700  0.089890  0.206310  1.0  -0.5394
  O  O77  1  0.525140  0.648560  0.466230  1.0  -0.5987
  O  O78  1  0.286130  0.579710  0.374470  1.0  -0.5593
  O  O79  1  0.858690  0.852340  0.131060  1.0  -0.534
  O  O80  1  0.893230  0.985980  0.055050  1.0  -0.5337
