# generated using pymatgen
data_ZnH3C8SO7
_symmetry_space_group_name_H-M   'P 1'
_cell_length_a   11.25820000
_cell_length_b   11.88120000
_cell_length_c   16.21220000
_cell_angle_alpha   90.00000000
_cell_angle_beta   129.57200000
_cell_angle_gamma   90.00000000
_symmetry_Int_Tables_number   1
_chemical_formula_structural   ZnH3C8SO7
_chemical_formula_sum   'Zn4 H12 C32 S4 O28'
_cell_volume   1671.57865173
_cell_formula_units_Z   4
loop_
 _symmetry_equiv_pos_site_id
 _symmetry_equiv_pos_as_xyz
  1  'x, y, z'
loop_
 _atom_site_type_symbol
 _atom_site_label
 _atom_site_symmetry_multiplicity
 _atom_site_fract_x
 _atom_site_fract_y
 _atom_site_fract_z
 _atom_site_occupancy
 _atom_site_charge
  Zn  Zn1  1  0.322810  0.025970  0.482060  1.0  1.1058
  Zn  Zn2  1  0.677190  0.525970  0.017940  1.0  1.1059
  Zn  Zn3  1  0.677190  0.974030  0.517940  1.0  1.1059
  Zn  Zn4  1  0.322810  0.474030  0.982060  1.0  1.1057
  H  H5  1  0.165300  0.984800  0.621400  1.0  0.1403
  H  H6  1  0.101900  0.740100  0.762600  1.0  0.1398
  H  H7  1  0.521000  0.785100  0.844800  1.0  0.1399
  H  H8  1  0.834700  0.484800  0.878600  1.0  0.1405
  H  H9  1  0.898100  0.240100  0.737400  1.0  0.1397
  H  H10  1  0.479000  0.285100  0.655200  1.0  0.139
  H  H11  1  0.834700  0.015200  0.378600  1.0  0.1396
  H  H12  1  0.898100  0.259900  0.237400  1.0  0.1399
  H  H13  1  0.479000  0.214900  0.155200  1.0  0.1394
  H  H14  1  0.165300  0.515200  0.121400  1.0  0.1392
  H  H15  1  0.101900  0.759900  0.262600  1.0  0.1397
  H  H16  1  0.521000  0.714900  0.344800  1.0  0.1393
  C  C17  1  0.358200  0.893730  0.731720  1.0  -0.2125
  C  C18  1  0.204400  0.925350  0.670740  1.0  0.0284
  C  C19  1  0.109100  0.868440  0.683290  1.0  -0.1298
  C  C20  1  0.944200  0.903470  0.620060  1.0  0.6912
  C  C21  1  0.166900  0.779110  0.754860  1.0  0.0502
  C  C22  1  0.320500  0.747320  0.814970  1.0  -0.125
  C  C23  1  0.416800  0.805600  0.803690  1.0  0.0356
  C  C24  1  0.382100  0.650350  0.890530  1.0  0.7378
  C  C25  1  0.641800  0.393730  0.768280  1.0  -0.2119
  C  C26  1  0.795600  0.425350  0.829260  1.0  0.029
  C  C27  1  0.890900  0.368440  0.816710  1.0  -0.1297
  C  C28  1  0.055800  0.403470  0.879940  1.0  0.691
  C  C29  1  0.833100  0.279110  0.745140  1.0  0.0495
  C  C30  1  0.679500  0.247320  0.685030  1.0  -0.124
  C  C31  1  0.583200  0.305600  0.696310  1.0  0.0359
  C  C32  1  0.617900  0.150350  0.609470  1.0  0.7387
  C  C33  1  0.641800  0.106270  0.268280  1.0  -0.2113
  C  C34  1  0.795600  0.074650  0.329260  1.0  0.03
  C  C35  1  0.890900  0.131560  0.316710  1.0  -0.1298
  C  C36  1  0.055800  0.096530  0.379940  1.0  0.6912
  C  C37  1  0.833100  0.220890  0.245140  1.0  0.0498
  C  C38  1  0.679500  0.252680  0.185030  1.0  -0.1237
  C  C39  1  0.583200  0.194400  0.196310  1.0  0.0355
  C  C40  1  0.617900  0.349650  0.109470  1.0  0.7388
  C  C41  1  0.358200  0.606270  0.231720  1.0  -0.2121
  C  C42  1  0.204400  0.574650  0.170740  1.0  0.0289
  C  C43  1  0.109100  0.631560  0.183290  1.0  -0.1297
  C  C44  1  0.944200  0.596530  0.120060  1.0  0.691
  C  C45  1  0.166900  0.720890  0.254860  1.0  0.0499
  C  C46  1  0.320500  0.752680  0.314970  1.0  -0.1253
  C  C47  1  0.416800  0.694400  0.303690  1.0  0.035
  C  C48  1  0.382100  0.849650  0.390530  1.0  0.7377
  S  S49  1  0.477790  0.969530  0.715200  1.0  1.4037
  S  S50  1  0.522210  0.469530  0.784800  1.0  1.4033
  S  S51  1  0.522210  0.030470  0.284800  1.0  1.403
  S  S52  1  0.477790  0.530470  0.215200  1.0  1.4033
  O  O53  1  0.433410  0.928220  0.612990  1.0  -0.7134
  O  O54  1  0.440000  0.085930  0.708990  1.0  -0.5161
  O  O55  1  0.634130  0.939360  0.803590  1.0  -0.5351
  O  O56  1  0.893760  0.984280  0.555820  1.0  -0.539
  O  O57  1  0.859580  0.852900  0.632350  1.0  -0.5411
  O  O58  1  0.525110  0.646460  0.965360  1.0  -0.6
  O  O59  1  0.285590  0.579300  0.873810  1.0  -0.5619
  O  O60  1  0.566590  0.428220  0.887010  1.0  -0.7128
  O  O61  1  0.560000  0.585930  0.791010  1.0  -0.5195
  O  O62  1  0.365870  0.439360  0.696410  1.0  -0.5337
  O  O63  1  0.106240  0.484280  0.944180  1.0  -0.5397
  O  O64  1  0.140420  0.352900  0.867650  1.0  -0.541
  O  O65  1  0.474890  0.146460  0.534640  1.0  -0.599
  O  O66  1  0.714410  0.079300  0.626190  1.0  -0.561
  O  O67  1  0.566590  0.071780  0.387010  1.0  -0.7125
  O  O68  1  0.560000  0.914070  0.291010  1.0  -0.5183
  O  O69  1  0.365870  0.060640  0.196410  1.0  -0.5337
  O  O70  1  0.106240  0.015720  0.444180  1.0  -0.5391
  O  O71  1  0.140420  0.147100  0.367650  1.0  -0.5413
  O  O72  1  0.474890  0.353540  0.034640  1.0  -0.5986
  O  O73  1  0.714410  0.420700  0.126190  1.0  -0.5606
  O  O74  1  0.433410  0.571780  0.112990  1.0  -0.7129
  O  O75  1  0.440000  0.414070  0.208990  1.0  -0.5175
  O  O76  1  0.634130  0.560640  0.303590  1.0  -0.5351
  O  O77  1  0.893760  0.515720  0.055820  1.0  -0.5392
  O  O78  1  0.859580  0.647100  0.132350  1.0  -0.54
  O  O79  1  0.525110  0.853540  0.465360  1.0  -0.5991
  O  O80  1  0.285590  0.920700  0.373810  1.0  -0.5617
