# generated using pymatgen
data_Zn3H10C23N5O12
_symmetry_space_group_name_H-M   'P 1'
_cell_length_a   14.40220000
_cell_length_b   25.92000000
_cell_length_c   17.43950000
_cell_angle_alpha   90.00000000
_cell_angle_beta   107.38400000
_cell_angle_gamma   90.00000000
_symmetry_Int_Tables_number   1
_chemical_formula_structural   Zn3H10C23N5O12
_chemical_formula_sum   'Zn12 H40 C92 N20 O48'
_cell_volume   6212.88934464
_cell_formula_units_Z   4
loop_
 _symmetry_equiv_pos_site_id
 _symmetry_equiv_pos_as_xyz
  1  'x, y, z'
loop_
 _atom_site_type_symbol
 _atom_site_label
 _atom_site_symmetry_multiplicity
 _atom_site_fract_x
 _atom_site_fract_y
 _atom_site_fract_z
 _atom_site_occupancy
 _atom_site_charge
  Zn  Zn1  1  0.834660  0.000720  0.125700  1.0  1.0132
  Zn  Zn2  1  0.897690  0.065980  0.310730  1.0  1.0377
  Zn  Zn3  1  0.040640  0.319690  0.773470  1.0  0.9848
  Zn  Zn4  1  0.665340  0.500720  0.374300  1.0  1.0135
  Zn  Zn5  1  0.602310  0.565980  0.189270  1.0  1.0364
  Zn  Zn6  1  0.459360  0.819690  0.726530  1.0  0.9805
  Zn  Zn7  1  0.165340  0.999280  0.874300  1.0  1.0133
  Zn  Zn8  1  0.102310  0.934020  0.689270  1.0  1.0367
  Zn  Zn9  1  0.959360  0.680310  0.226530  1.0  0.9804
  Zn  Zn10  1  0.334660  0.499280  0.625700  1.0  1.0132
  Zn  Zn11  1  0.397690  0.434020  0.810730  1.0  1.0379
  Zn  Zn12  1  0.540640  0.180310  0.273470  1.0  0.985
  H  H13  1  0.953600  0.202600  0.533700  1.0  0.1111
  H  H14  1  0.553400  0.456200  0.577600  1.0  0.1057
  H  H15  1  0.021900  0.052700  0.570000  1.0  0.1008
  H  H16  1  0.076700  0.149700  0.758900  1.0  0.1196
  H  H17  1  0.819500  0.397400  0.622700  1.0  0.0871
  H  H18  1  0.674200  0.378300  0.781800  1.0  0.1099
  H  H19  1  0.418300  0.119200  0.027100  1.0  0.3347
  H  H20  1  0.456400  0.151400  0.100600  1.0  0.3134
  H  H21  1  0.636100  0.007300  0.025100  1.0  0.0604
  H  H22  1  0.747600  0.143100  0.325700  1.0  0.094
  H  H23  1  0.546400  0.702600  0.966300  1.0  0.1111
  H  H24  1  0.946600  0.956200  0.922400  1.0  0.105
  H  H25  1  0.478100  0.552700  0.930000  1.0  0.1006
  H  H26  1  0.423300  0.649700  0.741100  1.0  0.1197
  H  H27  1  0.680500  0.897400  0.877300  1.0  0.0871
  H  H28  1  0.825800  0.878300  0.718200  1.0  0.1098
  H  H29  1  0.081700  0.619200  0.472900  1.0  0.3351
  H  H30  1  0.043600  0.651400  0.399400  1.0  0.3136
  H  H31  1  0.863900  0.507300  0.474900  1.0  0.0581
  H  H32  1  0.752400  0.643100  0.174300  1.0  0.0921
  H  H33  1  0.046400  0.797400  0.466300  1.0  0.1113
  H  H34  1  0.446600  0.543800  0.422400  1.0  0.104
  H  H35  1  0.978100  0.947300  0.430000  1.0  0.1004
  H  H36  1  0.923300  0.850300  0.241100  1.0  0.1196
  H  H37  1  0.180500  0.602600  0.377300  1.0  0.0869
  H  H38  1  0.325800  0.621700  0.218200  1.0  0.1097
  H  H39  1  0.581700  0.880800  0.972900  1.0  0.3348
  H  H40  1  0.543600  0.848600  0.899400  1.0  0.314
  H  H41  1  0.363900  0.992700  0.974900  1.0  0.0584
  H  H42  1  0.252400  0.856900  0.674300  1.0  0.0922
  H  H43  1  0.453600  0.297400  0.033700  1.0  0.1108
  H  H44  1  0.053400  0.043800  0.077600  1.0  0.1044
  H  H45  1  0.521900  0.447300  0.070000  1.0  0.101
  H  H46  1  0.576700  0.350300  0.258900  1.0  0.1196
  H  H47  1  0.319500  0.102600  0.122700  1.0  0.0871
  H  H48  1  0.174200  0.121700  0.281800  1.0  0.1099
  H  H49  1  0.918300  0.380800  0.527100  1.0  0.336
  H  H50  1  0.956400  0.348600  0.600600  1.0  0.3134
  H  H51  1  0.136100  0.492700  0.525100  1.0  0.0566
  H  H52  1  0.247600  0.356900  0.825700  1.0  0.0938
  C  C53  1  0.944200  0.117600  0.449900  1.0  0.6977
  C  C54  1  0.979100  0.175400  0.568500  1.0  0.0319
  C  C55  1  0.605500  0.437900  0.610900  1.0  0.0004
  C  C56  1  0.599500  0.418300  0.683600  1.0  -0.1943
  C  C57  1  0.010300  0.237700  0.681100  1.0  0.6836
  C  C58  1  0.020800  0.085900  0.590000  1.0  0.0302
  C  C59  1  0.982400  0.125600  0.537700  1.0  -0.173
  C  C60  1  0.053600  0.144000  0.703900  1.0  0.0254
  C  C61  1  0.764200  0.403300  0.638500  1.0  -0.0038
  C  C62  1  0.013900  0.184300  0.651100  1.0  -0.1702
  C  C63  1  0.057800  0.094500  0.671900  1.0  -0.1603
  C  C64  1  0.678200  0.391600  0.733400  1.0  0.0211
  C  C65  1  0.688500  0.430300  0.588100  1.0  -0.1738
  C  C66  1  0.510300  0.427600  0.708800  1.0  0.7224
  C  C67  1  0.761300  0.384600  0.712200  1.0  -0.1888
  C  C68  1  0.697100  0.450700  0.509400  1.0  0.7254
  C  C69  1  0.847600  0.354100  0.765400  1.0  0.6715
  C  C70  1  0.620100  0.105700  0.164100  1.0  -0.0164
  C  C71  1  0.703800  0.075900  0.175400  1.0  0.3667
  C  C72  1  0.633100  0.033200  0.061100  1.0  0.3154
  C  C73  1  0.720200  0.127200  0.276300  1.0  0.2126
  C  C74  1  0.542700  0.098200  0.091900  1.0  0.4703
  C  C75  1  0.099500  0.050200  0.727000  1.0  0.7375
  C  C76  1  0.555800  0.617600  0.050100  1.0  0.6969
  C  C77  1  0.520900  0.675400  0.931500  1.0  0.032
  C  C78  1  0.894500  0.937900  0.889100  1.0  0.0009
  C  C79  1  0.900500  0.918300  0.816400  1.0  -0.1934
  C  C80  1  0.489700  0.737700  0.818900  1.0  0.6833
  C  C81  1  0.479200  0.585900  0.910000  1.0  0.0306
  C  C82  1  0.517600  0.625600  0.962300  1.0  -0.1742
  C  C83  1  0.446400  0.644000  0.796100  1.0  0.0258
  C  C84  1  0.735800  0.903300  0.861500  1.0  -0.0039
  C  C85  1  0.486100  0.684300  0.848900  1.0  -0.1698
  C  C86  1  0.442200  0.594500  0.828100  1.0  -0.1607
  C  C87  1  0.821800  0.891600  0.766600  1.0  0.021
  C  C88  1  0.811500  0.930300  0.911900  1.0  -0.1754
  C  C89  1  0.989700  0.927600  0.791200  1.0  0.7221
  C  C90  1  0.738700  0.884600  0.787800  1.0  -0.1898
  C  C91  1  0.802900  0.950700  0.990600  1.0  0.7246
  C  C92  1  0.652400  0.854100  0.734600  1.0  0.6707
  C  C93  1  0.879900  0.605700  0.335900  1.0  -0.016
  C  C94  1  0.796200  0.575900  0.324600  1.0  0.3642
  C  C95  1  0.866900  0.533200  0.438900  1.0  0.316
  C  C96  1  0.779800  0.627200  0.223700  1.0  0.2133
  C  C97  1  0.957300  0.598200  0.408100  1.0  0.4694
  C  C98  1  0.400500  0.550200  0.773000  1.0  0.7375
  C  C99  1  0.055800  0.882400  0.550100  1.0  0.6974
  C  C100  1  0.020900  0.824600  0.431500  1.0  0.0325
  C  C101  1  0.394500  0.562100  0.389100  1.0  -0.0008
  C  C102  1  0.400500  0.581700  0.316400  1.0  -0.1932
  C  C103  1  0.989700  0.762300  0.318900  1.0  0.6836
  C  C104  1  0.979200  0.914100  0.410000  1.0  0.0312
  C  C105  1  0.017600  0.874400  0.462300  1.0  -0.1741
  C  C106  1  0.946400  0.856000  0.296100  1.0  0.0262
  C  C107  1  0.235800  0.596700  0.361500  1.0  -0.004
  C  C108  1  0.986100  0.815700  0.348900  1.0  -0.1702
  C  C109  1  0.942200  0.905500  0.328100  1.0  -0.1604
  C  C110  1  0.321800  0.608400  0.266600  1.0  0.0207
  C  C111  1  0.311500  0.569700  0.411900  1.0  -0.1753
  C  C112  1  0.489700  0.572400  0.291200  1.0  0.7218
  C  C113  1  0.238700  0.615400  0.287800  1.0  -0.1895
  C  C114  1  0.302900  0.549300  0.490600  1.0  0.7247
  C  C115  1  0.152400  0.645900  0.234600  1.0  0.6711
  C  C116  1  0.379900  0.894300  0.835900  1.0  -0.0159
  C  C117  1  0.296200  0.924100  0.824600  1.0  0.364
  C  C118  1  0.366900  0.966800  0.938900  1.0  0.3155
  C  C119  1  0.279800  0.872800  0.723700  1.0  0.2134
  C  C120  1  0.457300  0.901800  0.908100  1.0  0.4697
  C  C121  1  0.900500  0.949800  0.273000  1.0  0.7371
  C  C122  1  0.444200  0.382400  0.949900  1.0  0.6976
  C  C123  1  0.479100  0.324600  0.068500  1.0  0.0311
  C  C124  1  0.105500  0.062100  0.110900  1.0  -0.0014
  C  C125  1  0.099500  0.081700  0.183600  1.0  -0.1942
  C  C126  1  0.510300  0.262300  0.181100  1.0  0.6835
  C  C127  1  0.520800  0.414100  0.090000  1.0  0.0307
  C  C128  1  0.482400  0.374400  0.037700  1.0  -0.173
  C  C129  1  0.553600  0.356000  0.203900  1.0  0.0265
  C  C130  1  0.264200  0.096700  0.138500  1.0  -0.0037
  C  C131  1  0.513900  0.315700  0.151100  1.0  -0.1705
  C  C132  1  0.557800  0.405500  0.171900  1.0  -0.1603
  C  C133  1  0.178200  0.108400  0.233400  1.0  0.0206
  C  C134  1  0.188500  0.069700  0.088100  1.0  -0.1748
  C  C135  1  0.010300  0.072400  0.208800  1.0  0.7223
  C  C136  1  0.261300  0.115400  0.212200  1.0  -0.1889
  C  C137  1  0.197100  0.049300  0.009400  1.0  0.7254
  C  C138  1  0.347600  0.145900  0.265400  1.0  0.6705
  C  C139  1  0.120100  0.394300  0.664100  1.0  -0.0164
  C  C140  1  0.203800  0.424100  0.675400  1.0  0.3665
  C  C141  1  0.133100  0.466800  0.561100  1.0  0.3147
  C  C142  1  0.220200  0.372800  0.776300  1.0  0.2133
  C  C143  1  0.042700  0.401800  0.591900  1.0  0.4714
  C  C144  1  0.599500  0.449800  0.227000  1.0  0.737
  N  N145  1  0.767900  0.090500  0.246900  1.0  -0.2998
  N  N146  1  0.714000  0.039300  0.124400  1.0  -0.2783
  N  N147  1  0.631300  0.138600  0.229100  1.0  -0.3483
  N  N148  1  0.463400  0.126100  0.070800  1.0  -0.6855
  N  N149  1  0.550900  0.059100  0.043600  1.0  -0.4436
  N  N150  1  0.732100  0.590500  0.253100  1.0  -0.3019
  N  N151  1  0.786000  0.539300  0.375600  1.0  -0.2769
  N  N152  1  0.868700  0.638600  0.270900  1.0  -0.349
  N  N153  1  0.036600  0.626100  0.429200  1.0  -0.6868
  N  N154  1  0.949100  0.559100  0.456400  1.0  -0.4507
  N  N155  1  0.232100  0.909500  0.753100  1.0  -0.3013
  N  N156  1  0.286000  0.960700  0.875600  1.0  -0.2768
  N  N157  1  0.368700  0.861400  0.770900  1.0  -0.3484
  N  N158  1  0.536600  0.873900  0.929200  1.0  -0.6861
  N  N159  1  0.449100  0.940900  0.956400  1.0  -0.4434
  N  N160  1  0.267900  0.409500  0.746900  1.0  -0.2999
  N  N161  1  0.214000  0.460700  0.624400  1.0  -0.2786
  N  N162  1  0.131300  0.361400  0.729100  1.0  -0.3484
  N  N163  1  0.963400  0.373900  0.570800  1.0  -0.6853
  N  N164  1  0.050900  0.440900  0.543600  1.0  -0.4508
  O  O165  1  0.937900  0.070700  0.427000  1.0  -0.5915
  O  O166  1  0.046400  0.245190  0.757000  1.0  -0.6045
  O  O167  1  0.762400  0.435100  0.483800  1.0  -0.5535
  O  O168  1  0.923200  0.358400  0.744100  1.0  -0.5943
  O  O169  1  0.512700  0.417100  0.779300  1.0  -0.5946
  O  O170  1  0.972500  0.272900  0.633400  1.0  -0.6398
  O  O171  1  0.919400  0.154100  0.402700  1.0  -0.4676
  O  O172  1  0.436300  0.445000  0.656900  1.0  -0.7026
  O  O173  1  0.637200  0.484200  0.474400  1.0  -0.5777
  O  O174  1  0.839500  0.328900  0.819500  1.0  -0.4518
  O  O175  1  0.117700  0.056600  0.801100  1.0  -0.5888
  O  O176  1  0.115800  0.010000  0.695100  1.0  -0.6665
  O  O177  1  0.562100  0.570700  0.073000  1.0  -0.5923
  O  O178  1  0.453600  0.745190  0.743000  1.0  -0.6017
  O  O179  1  0.737600  0.935100  0.016200  1.0  -0.5533
  O  O180  1  0.576800  0.858400  0.755900  1.0  -0.599
  O  O181  1  0.987300  0.917100  0.720700  1.0  -0.5953
  O  O182  1  0.527500  0.772900  0.866600  1.0  -0.6393
  O  O183  1  0.580600  0.654100  0.097300  1.0  -0.4671
  O  O184  1  0.063700  0.945000  0.843100  1.0  -0.7026
  O  O185  1  0.862800  0.984200  0.025600  1.0  -0.5781
  O  O186  1  0.660500  0.828900  0.680500  1.0  -0.4499
  O  O187  1  0.382300  0.556600  0.698900  1.0  -0.5885
  O  O188  1  0.384200  0.510000  0.804900  1.0  -0.6664
  O  O189  1  0.062100  0.929300  0.573000  1.0  -0.5936
  O  O190  1  0.953600  0.754810  0.243000  1.0  -0.6017
  O  O191  1  0.237600  0.564900  0.516200  1.0  -0.5528
  O  O192  1  0.076800  0.641600  0.255900  1.0  -0.5953
  O  O193  1  0.487300  0.582900  0.220700  1.0  -0.5952
  O  O194  1  0.027500  0.727100  0.366600  1.0  -0.6402
  O  O195  1  0.080600  0.845900  0.597300  1.0  -0.468
  O  O196  1  0.563700  0.555000  0.343100  1.0  -0.7029
  O  O197  1  0.362800  0.515800  0.525600  1.0  -0.5762
  O  O198  1  0.160500  0.671100  0.180500  1.0  -0.4511
  O  O199  1  0.882300  0.943400  0.198900  1.0  -0.5885
  O  O200  1  0.884200  0.990000  0.304900  1.0  -0.6668
  O  O201  1  0.437900  0.429300  0.927000  1.0  -0.5936
  O  O202  1  0.546400  0.254810  0.257000  1.0  -0.6043
  O  O203  1  0.262400  0.064900  0.983800  1.0  -0.5537
  O  O204  1  0.423200  0.141600  0.244100  1.0  -0.5984
  O  O205  1  0.012700  0.082900  0.279300  1.0  -0.5945
  O  O206  1  0.472500  0.227100  0.133400  1.0  -0.6398
  O  O207  1  0.419400  0.345900  0.902700  1.0  -0.4686
  O  O208  1  0.936300  0.055000  0.156900  1.0  -0.7026
  O  O209  1  0.137200  0.015800  0.974400  1.0  -0.5767
  O  O210  1  0.339500  0.171100  0.319500  1.0  -0.4496
  O  O211  1  0.617700  0.443400  0.301100  1.0  -0.5886
  O  O212  1  0.615800  0.490000  0.195100  1.0  -0.6666
