# generated using pymatgen
data_Pr(CO2)3
_symmetry_space_group_name_H-M   'P 1'
_cell_length_a   8.28110000
_cell_length_b   9.88340000
_cell_length_c   10.18180000
_cell_angle_alpha   99.05300000
_cell_angle_beta   90.00000000
_cell_angle_gamma   90.00000000
_symmetry_Int_Tables_number   1
_chemical_formula_structural   Pr(CO2)3
_chemical_formula_sum   'Pr4 C12 O24'
_cell_volume   822.95307404
_cell_formula_units_Z   4
loop_
 _symmetry_equiv_pos_site_id
 _symmetry_equiv_pos_as_xyz
  1  'x, y, z'
loop_
 _atom_site_type_symbol
 _atom_site_label
 _atom_site_symmetry_multiplicity
 _atom_site_fract_x
 _atom_site_fract_y
 _atom_site_fract_z
 _atom_site_occupancy
 _atom_site_charge
  Pr  Pr1  1  0.901610  0.815000  0.562930  1.0  2.1519
  Pr  Pr2  1  0.401610  0.185000  0.937070  1.0  2.1516
  Pr  Pr3  1  0.098390  0.185000  0.437070  1.0  2.1516
  Pr  Pr4  1  0.598390  0.815000  0.062930  1.0  2.1519
  C  C5  1  0.595000  0.022200  0.670900  1.0  0.5621
  C  C6  1  0.603200  0.917100  0.768100  1.0  0.5887
  C  C7  1  0.983500  0.494600  0.573900  1.0  0.5562
  C  C8  1  0.095000  0.977800  0.829100  1.0  0.5621
  C  C9  1  0.103200  0.082900  0.731900  1.0  0.5878
  C  C10  1  0.483500  0.505400  0.926100  1.0  0.5567
  C  C11  1  0.405000  0.977800  0.329100  1.0  0.5636
  C  C12  1  0.396800  0.082900  0.231900  1.0  0.5874
  C  C13  1  0.016500  0.505400  0.426100  1.0  0.5565
  C  C14  1  0.905000  0.022200  0.170900  1.0  0.5635
  C  C15  1  0.896800  0.917100  0.268100  1.0  0.5886
  C  C16  1  0.516500  0.494600  0.073900  1.0  0.5562
  O  O17  1  0.683300  0.995800  0.569800  1.0  -0.6383
  O  O18  1  0.505500  0.122900  0.700900  1.0  -0.6053
  O  O19  1  0.690800  0.816200  0.739000  1.0  -0.6081
  O  O20  1  0.519800  0.943600  0.873860  1.0  -0.751
  O  O21  1  0.933500  0.598900  0.647100  1.0  -0.6176
  O  O22  1  0.009000  0.380100  0.607600  1.0  -0.6381
  O  O23  1  0.183300  0.004200  0.930200  1.0  -0.6401
  O  O24  1  0.005500  0.877100  0.799100  1.0  -0.6063
  O  O25  1  0.190800  0.183800  0.761000  1.0  -0.608
  O  O26  1  0.019800  0.056400  0.626140  1.0  -0.7507
  O  O27  1  0.433500  0.401100  0.852900  1.0  -0.6165
  O  O28  1  0.509000  0.619900  0.892400  1.0  -0.6373
  O  O29  1  0.316700  0.004200  0.430200  1.0  -0.6387
  O  O30  1  0.494500  0.877100  0.299100  1.0  -0.6078
  O  O31  1  0.309200  0.183800  0.261000  1.0  -0.6073
  O  O32  1  0.480200  0.056400  0.126140  1.0  -0.7519
  O  O33  1  0.066500  0.401100  0.352900  1.0  -0.6159
  O  O34  1  0.991000  0.619900  0.392400  1.0  -0.6367
  O  O35  1  0.816700  0.995800  0.069800  1.0  -0.6374
  O  O36  1  0.994500  0.122900  0.200900  1.0  -0.6071
  O  O37  1  0.809200  0.816200  0.239000  1.0  -0.6073
  O  O38  1  0.980200  0.943600  0.373860  1.0  -0.7523
  O  O39  1  0.566500  0.598900  0.147100  1.0  -0.6193
  O  O40  1  0.491000  0.380100  0.107600  1.0  -0.6375
