# generated using pymatgen
data_Pr(CO2)3
_symmetry_space_group_name_H-M   'P 1'
_cell_length_a   8.28830000
_cell_length_b   9.89170000
_cell_length_c   10.18870000
_cell_angle_alpha   99.04000000
_cell_angle_beta   90.00000000
_cell_angle_gamma   90.00000000
_symmetry_Int_Tables_number   1
_chemical_formula_structural   Pr(CO2)3
_chemical_formula_sum   'Pr4 C12 O24'
_cell_volume   824.94875373
_cell_formula_units_Z   4
loop_
 _symmetry_equiv_pos_site_id
 _symmetry_equiv_pos_as_xyz
  1  'x, y, z'
loop_
 _atom_site_type_symbol
 _atom_site_label
 _atom_site_symmetry_multiplicity
 _atom_site_fract_x
 _atom_site_fract_y
 _atom_site_fract_z
 _atom_site_occupancy
 _atom_site_charge
  Pr  Pr1  1  0.901550  0.315020  0.562930  1.0  2.1539
  Pr  Pr2  1  0.401550  0.684980  0.937070  1.0  2.1538
  Pr  Pr3  1  0.098450  0.684980  0.437070  1.0  2.1538
  Pr  Pr4  1  0.598450  0.315020  0.062930  1.0  2.154
  C  C5  1  0.602000  0.417500  0.768000  1.0  0.5707
  C  C6  1  0.595100  0.522700  0.670400  1.0  0.5655
  C  C7  1  0.015700  0.005500  0.425700  1.0  0.5535
  C  C8  1  0.102000  0.582500  0.732000  1.0  0.5702
  C  C9  1  0.095100  0.477300  0.829600  1.0  0.566
  C  C10  1  0.515700  0.994500  0.074300  1.0  0.5534
  C  C11  1  0.398000  0.582500  0.232000  1.0  0.5701
  C  C12  1  0.404900  0.477300  0.329600  1.0  0.5661
  C  C13  1  0.984300  0.994500  0.574300  1.0  0.5535
  C  C14  1  0.898000  0.417500  0.268000  1.0  0.5708
  C  C15  1  0.904900  0.522700  0.170400  1.0  0.5656
  C  C16  1  0.484300  0.005500  0.925700  1.0  0.5539
  O  O17  1  0.690900  0.316100  0.739000  1.0  -0.6185
  O  O18  1  0.520000  0.443600  0.873900  1.0  -0.7448
  O  O19  1  0.683500  0.495900  0.569600  1.0  -0.6322
  O  O20  1  0.505500  0.623100  0.700500  1.0  -0.6027
  O  O21  1  0.990300  0.119700  0.392500  1.0  -0.6281
  O  O22  1  0.066400  0.900900  0.352700  1.0  -0.6124
  O  O23  1  0.190900  0.683900  0.761000  1.0  -0.6195
  O  O24  1  0.020000  0.556400  0.626100  1.0  -0.7459
  O  O25  1  0.183500  0.504100  0.930400  1.0  -0.6339
  O  O26  1  0.005500  0.376900  0.799500  1.0  -0.6039
  O  O27  1  0.490300  0.880300  0.107500  1.0  -0.6295
  O  O28  1  0.566400  0.099100  0.147300  1.0  -0.6133
  O  O29  1  0.309100  0.683900  0.261000  1.0  -0.6198
  O  O30  1  0.480000  0.556400  0.126100  1.0  -0.7475
  O  O31  1  0.316500  0.504100  0.430400  1.0  -0.6326
  O  O32  1  0.494500  0.376900  0.299500  1.0  -0.605
  O  O33  1  0.009700  0.880300  0.607500  1.0  -0.6298
  O  O34  1  0.933600  0.099100  0.647300  1.0  -0.614
  O  O35  1  0.809100  0.316100  0.239000  1.0  -0.618
  O  O36  1  0.980000  0.443600  0.373900  1.0  -0.7461
  O  O37  1  0.816500  0.495900  0.069600  1.0  -0.6312
  O  O38  1  0.994500  0.623100  0.200500  1.0  -0.6046
  O  O39  1  0.509700  0.119700  0.892500  1.0  -0.6285
  O  O40  1  0.433600  0.900900  0.852700  1.0  -0.613
