# generated using pymatgen
data_LaH3C7(N5O)2
_symmetry_space_group_name_H-M   'P 1'
_cell_length_a   8.88400000
_cell_length_b   10.28190000
_cell_length_c   10.28190000
_cell_angle_alpha   79.09260000
_cell_angle_beta   64.40410000
_cell_angle_gamma   64.40410000
_symmetry_Int_Tables_number   1
_chemical_formula_structural   LaH3C7(N5O)2
_chemical_formula_sum   'La2 H6 C14 N20 O4'
_cell_volume   763.89678683
_cell_formula_units_Z   2
loop_
 _symmetry_equiv_pos_site_id
 _symmetry_equiv_pos_as_xyz
  1  'x, y, z'
loop_
 _atom_site_type_symbol
 _atom_site_label
 _atom_site_symmetry_multiplicity
 _atom_site_fract_x
 _atom_site_fract_y
 _atom_site_fract_z
 _atom_site_occupancy
 _atom_site_charge
  La  La1  1  0.205950  0.544050  0.044050  1.0  2.0887
  La  La2  1  0.294050  0.955950  0.455950  1.0  2.0883
  H  H3  1  0.008500  0.361200  0.404600  1.0  0.0683
  H  H4  1  0.225700  0.904600  0.861200  1.0  0.0671
  H  H5  1  0.491500  0.595400  0.638800  1.0  0.0672
  H  H6  1  0.274300  0.138800  0.095400  1.0  0.0668
  H  H7  1  0.750000  0.388500  0.611500  1.0  0.1365
  H  H8  1  0.250000  0.111500  0.888500  1.0  0.1365
  C  C9  1  0.903290  0.444010  0.416810  1.0  0.2848
  C  C10  1  0.235890  0.916810  0.944010  1.0  0.2862
  C  C11  1  0.596710  0.583190  0.555990  1.0  0.2896
  C  C12  1  0.264110  0.055990  0.083190  1.0  0.295
  C  C13  1  0.750000  0.773590  0.226410  1.0  0.304
  C  C14  1  0.750000  0.661340  0.338660  1.0  0.4501
  C  C15  1  0.750000  0.459500  0.540500  1.0  -0.2173
  C  C16  1  0.250000  0.726410  0.273590  1.0  0.3048
  C  C17  1  0.250000  0.838660  0.161340  1.0  0.4507
  C  C18  1  0.250000  0.040500  0.959500  1.0  -0.2066
  C  C19  1  0.563000  0.250000  0.250000  1.0  0.1616
  C  C20  1  0.394900  0.250000  0.250000  1.0  0.7599
  C  C21  1  0.937000  0.750000  0.750000  1.0  0.1582
  C  C22  1  0.105100  0.750000  0.750000  1.0  0.7596
  N  N23  1  0.895940  0.769230  0.110430  1.0  -0.4067
  N  N24  1  0.837190  0.891090  0.037530  1.0  -0.0352
  N  N25  1  0.904930  0.545720  0.312880  1.0  -0.5227
  N  N26  1  0.661970  0.317740  0.152200  1.0  -0.3518
  N  N27  1  0.798020  0.290180  0.191620  1.0  -0.134
  N  N28  1  0.224400  0.610430  0.269230  1.0  -0.4083
  N  N29  1  0.234190  0.537530  0.391090  1.0  -0.0364
  N  N30  1  0.236470  0.812880  0.045720  1.0  -0.5256
  N  N31  1  0.868090  0.652200  0.817740  1.0  -0.35
  N  N32  1  0.720180  0.691620  0.790180  1.0  -0.1309
  N  N33  1  0.604060  0.889570  0.230770  1.0  -0.4066
  N  N34  1  0.662810  0.962470  0.108910  1.0  -0.0352
  N  N35  1  0.595070  0.687120  0.454280  1.0  -0.5226
  N  N36  1  0.838030  0.847800  0.682260  1.0  -0.3485
  N  N37  1  0.701980  0.808380  0.709820  1.0  -0.1266
  N  N38  1  0.275600  0.730770  0.389570  1.0  -0.4023
  N  N39  1  0.265810  0.608910  0.462470  1.0  -0.0327
  N  N40  1  0.263530  0.954280  0.187120  1.0  -0.5256
  N  N41  1  0.631910  0.182260  0.347800  1.0  -0.3471
  N  N42  1  0.779820  0.209820  0.308380  1.0  -0.1317
  O  O43  1  0.341410  0.321180  0.154600  1.0  -0.7593
  O  O44  1  0.182810  0.654600  0.821180  1.0  -0.7517
  O  O45  1  0.158590  0.845400  0.678820  1.0  -0.7526
  O  O46  1  0.317190  0.178820  0.345400  1.0  -0.7562
