# generated using pymatgen
data_Dy(CO2)4
_symmetry_space_group_name_H-M   'P 1'
_cell_length_a   9.61910000
_cell_length_b   11.60230000
_cell_length_c   14.30440000
_cell_angle_alpha   90.00000000
_cell_angle_beta   122.45600000
_cell_angle_gamma   90.00000000
_symmetry_Int_Tables_number   1
_chemical_formula_structural   Dy(CO2)4
_chemical_formula_sum   'Dy4 C16 O32'
_cell_volume   1347.06843684
_cell_formula_units_Z   4
loop_
 _symmetry_equiv_pos_site_id
 _symmetry_equiv_pos_as_xyz
  1  'x, y, z'
loop_
 _atom_site_type_symbol
 _atom_site_label
 _atom_site_symmetry_multiplicity
 _atom_site_fract_x
 _atom_site_fract_y
 _atom_site_fract_z
 _atom_site_occupancy
 _atom_site_charge
  Dy  Dy1  1  0.382340  0.512980  0.667600  1.0  2.1432
  Dy  Dy2  1  0.617660  0.012980  0.832400  1.0  2.1434
  Dy  Dy3  1  0.617660  0.487020  0.332400  1.0  2.1432
  Dy  Dy4  1  0.382340  0.987020  0.167600  1.0  2.1432
  C  C5  1  0.583400  0.742900  0.783400  1.0  0.588
  C  C6  1  0.505600  0.565800  0.500900  1.0  0.5618
  C  C7  1  0.403400  0.786800  0.706900  1.0  0.5494
  C  C8  1  0.984500  0.499800  0.547200  1.0  0.5502
  C  C9  1  0.416600  0.242900  0.716600  1.0  0.5879
  C  C10  1  0.494400  0.065800  0.999100  1.0  0.562
  C  C11  1  0.596600  0.286800  0.793100  1.0  0.5493
  C  C12  1  0.015500  0.999800  0.952800  1.0  0.5528
  C  C13  1  0.416600  0.257100  0.216600  1.0  0.5879
  C  C14  1  0.494400  0.434200  0.499100  1.0  0.5635
  C  C15  1  0.596600  0.213200  0.293100  1.0  0.5499
  C  C16  1  0.015500  0.500200  0.452800  1.0  0.5527
  C  C17  1  0.583400  0.757100  0.283400  1.0  0.5874
  C  C18  1  0.505600  0.934200  0.000900  1.0  0.5632
  C  C19  1  0.403400  0.713200  0.206900  1.0  0.5491
  C  C20  1  0.984500  0.000200  0.047200  1.0  0.5529
  O  O21  1  0.603200  0.637000  0.793200  1.0  -0.5603
  O  O22  1  0.384000  0.893700  0.703500  1.0  -0.5213
  O  O23  1  0.295200  0.711700  0.656600  1.0  -0.5386
  O  O24  1  0.480000  0.617700  0.567000  1.0  -0.562
  O  O25  1  0.693300  0.818000  0.828600  1.0  -0.5597
  O  O26  1  0.538300  0.611300  0.436100  1.0  -0.5728
  O  O27  1  0.111100  0.510500  0.643500  1.0  -0.5479
  O  O28  1  0.839200  0.488600  0.521700  1.0  -0.5298
  O  O29  1  0.396800  0.137000  0.706800  1.0  -0.5613
  O  O30  1  0.616000  0.393700  0.796500  1.0  -0.5182
  O  O31  1  0.704800  0.211700  0.843400  1.0  -0.5401
  O  O32  1  0.520000  0.117700  0.933000  1.0  -0.5614
  O  O33  1  0.306700  0.318000  0.671400  1.0  -0.5585
  O  O34  1  0.461700  0.111300  0.063900  1.0  -0.5727
  O  O35  1  0.888900  0.010500  0.856500  1.0  -0.5486
  O  O36  1  0.160800  0.988600  0.978300  1.0  -0.5309
  O  O37  1  0.396800  0.363000  0.206800  1.0  -0.5618
  O  O38  1  0.616000  0.106300  0.296500  1.0  -0.5203
  O  O39  1  0.704800  0.288300  0.343400  1.0  -0.5403
  O  O40  1  0.520000  0.382300  0.433000  1.0  -0.5614
  O  O41  1  0.306700  0.182000  0.171400  1.0  -0.559
  O  O42  1  0.461700  0.388700  0.563900  1.0  -0.5723
  O  O43  1  0.888900  0.489500  0.356500  1.0  -0.5525
  O  O44  1  0.160800  0.511400  0.478300  1.0  -0.5312
  O  O45  1  0.603200  0.863000  0.293200  1.0  -0.5619
  O  O46  1  0.384000  0.606300  0.203500  1.0  -0.5221
  O  O47  1  0.295200  0.788300  0.156600  1.0  -0.538
  O  O48  1  0.480000  0.882300  0.067000  1.0  -0.5618
  O  O49  1  0.693300  0.682000  0.328600  1.0  -0.5598
  O  O50  1  0.538300  0.888700  0.936100  1.0  -0.5722
  O  O51  1  0.111100  0.989500  0.143500  1.0  -0.5526
  O  O52  1  0.839200  0.011400  0.021700  1.0  -0.5298
