# generated using pymatgen
data_Dy(CO2)4
_symmetry_space_group_name_H-M   'P 1'
_cell_length_a   9.62390000
_cell_length_b   11.60300000
_cell_length_c   14.30500000
_cell_angle_alpha   90.00000000
_cell_angle_beta   122.46300000
_cell_angle_gamma   90.00000000
_symmetry_Int_Tables_number   1
_chemical_formula_structural   Dy(CO2)4
_chemical_formula_sum   'Dy4 C16 O32'
_cell_volume   1347.77373976
_cell_formula_units_Z   4
loop_
 _symmetry_equiv_pos_site_id
 _symmetry_equiv_pos_as_xyz
  1  'x, y, z'
loop_
 _atom_site_type_symbol
 _atom_site_label
 _atom_site_symmetry_multiplicity
 _atom_site_fract_x
 _atom_site_fract_y
 _atom_site_fract_z
 _atom_site_occupancy
 _atom_site_charge
  Dy  Dy1  1  0.117660  0.986890  0.832320  1.0  2.1451
  Dy  Dy2  1  0.882340  0.486890  0.667680  1.0  2.1452
  Dy  Dy3  1  0.882340  0.013110  0.167680  1.0  2.1452
  Dy  Dy4  1  0.117660  0.513110  0.332320  1.0  2.1452
  C  C5  1  0.096500  0.712800  0.793100  1.0  0.5549
  C  C6  1  0.917100  0.756500  0.716800  1.0  0.5538
  C  C7  1  0.485600  0.999900  0.048300  1.0  0.5718
  C  C8  1  0.994500  0.933600  0.999000  1.0  0.5509
  C  C9  1  0.903500  0.212800  0.706900  1.0  0.5537
  C  C10  1  0.082900  0.256500  0.783200  1.0  0.5538
  C  C11  1  0.514400  0.499900  0.451700  1.0  0.5702
  C  C12  1  0.005500  0.433600  0.501000  1.0  0.5509
  C  C13  1  0.903500  0.287200  0.206900  1.0  0.5536
  C  C14  1  0.082900  0.243500  0.283200  1.0  0.5544
  C  C15  1  0.514400  0.000100  0.951700  1.0  0.5717
  C  C16  1  0.005500  0.066400  0.001000  1.0  0.5495
  C  C17  1  0.096500  0.787200  0.293100  1.0  0.554
  C  C18  1  0.917100  0.743500  0.216800  1.0  0.5541
  C  C19  1  0.485600  0.500100  0.548300  1.0  0.5704
  C  C20  1  0.994500  0.566400  0.499000  1.0  0.5496
  O  O21  1  0.204800  0.787760  0.843760  1.0  -0.5377
  O  O22  1  0.897000  0.862880  0.707090  1.0  -0.5505
  O  O23  1  0.806100  0.681700  0.670930  1.0  -0.5395
  O  O24  1  0.116900  0.606250  0.796620  1.0  -0.5172
  O  O25  1  0.340000  0.988780  0.022140  1.0  -0.5405
  O  O26  1  0.019200  0.882210  0.932590  1.0  -0.5632
  O  O27  1  0.961900  0.888660  0.064330  1.0  -0.5636
  O  O28  1  0.610600  0.011010  0.143190  1.0  -0.5606
  O  O29  1  0.795200  0.287760  0.656240  1.0  -0.5353
  O  O30  1  0.103000  0.362880  0.792910  1.0  -0.5499
  O  O31  1  0.193900  0.181700  0.829070  1.0  -0.5404
  O  O32  1  0.883100  0.106250  0.703380  1.0  -0.5186
  O  O33  1  0.660000  0.488780  0.477860  1.0  -0.5414
  O  O34  1  0.980800  0.382210  0.567410  1.0  -0.5629
  O  O35  1  0.038100  0.388660  0.435670  1.0  -0.5634
  O  O36  1  0.389400  0.511010  0.356810  1.0  -0.5591
  O  O37  1  0.795200  0.212240  0.156240  1.0  -0.536
  O  O38  1  0.103000  0.137120  0.292910  1.0  -0.5506
  O  O39  1  0.193900  0.318300  0.329070  1.0  -0.5408
  O  O40  1  0.883100  0.393750  0.203380  1.0  -0.5186
  O  O41  1  0.660000  0.011220  0.977860  1.0  -0.5418
  O  O42  1  0.980800  0.117790  0.067410  1.0  -0.5614
  O  O43  1  0.038100  0.111340  0.935670  1.0  -0.5631
  O  O44  1  0.389400  0.988990  0.856810  1.0  -0.5663
  O  O45  1  0.204800  0.712240  0.343760  1.0  -0.5375
  O  O46  1  0.897000  0.637120  0.207090  1.0  -0.5498
  O  O47  1  0.806100  0.818300  0.170930  1.0  -0.5392
  O  O48  1  0.116900  0.893750  0.296620  1.0  -0.518
  O  O49  1  0.340000  0.511220  0.522140  1.0  -0.5406
  O  O50  1  0.019200  0.617790  0.432590  1.0  -0.5614
  O  O51  1  0.961900  0.611340  0.564330  1.0  -0.5631
  O  O52  1  0.610600  0.488990  0.643190  1.0  -0.5661
