# generated using pymatgen
data_Zn2H12C22O9
_symmetry_space_group_name_H-M   'P 1'
_cell_length_a   10.19160000
_cell_length_b   16.42200000
_cell_length_c   15.56240000
_cell_angle_alpha   90.00000000
_cell_angle_beta   107.07300000
_cell_angle_gamma   90.00000000
_symmetry_Int_Tables_number   1
_chemical_formula_structural   Zn2H12C22O9
_chemical_formula_sum   'Zn4 H24 C44 O18'
_cell_volume   2489.84178872
_cell_formula_units_Z   2
loop_
 _symmetry_equiv_pos_site_id
 _symmetry_equiv_pos_as_xyz
  1  'x, y, z'
loop_
 _atom_site_type_symbol
 _atom_site_label
 _atom_site_symmetry_multiplicity
 _atom_site_fract_x
 _atom_site_fract_y
 _atom_site_fract_z
 _atom_site_occupancy
 _atom_site_charge
  Zn  Zn1  1  0.511750  0.388040  0.146820  1.0  1.0548
  Zn  Zn2  1  0.235520  0.292040  0.001550  1.0  0.9623
  Zn  Zn3  1  0.488250  0.888040  0.853180  1.0  1.0529
  Zn  Zn4  1  0.764480  0.792040  0.998450  1.0  0.9741
  H  H5  1  0.162400  0.297000  0.878200  1.0  0.2375
  H  H6  1  0.091500  0.284300  0.939400  1.0  0.2922
  H  H7  1  0.500500  0.584000  0.978700  1.0  0.1253
  H  H8  1  0.288400  0.463400  0.328500  1.0  0.1127
  H  H9  1  0.975500  0.383000  0.122900  1.0  0.1142
  H  H10  1  0.409300  0.591800  0.590500  1.0  0.1173
  H  H11  1  0.907800  0.459600  0.352000  1.0  0.1137
  H  H12  1  0.313300  0.565800  0.439200  1.0  0.1187
  H  H13  1  0.392200  0.662000  0.721900  1.0  0.112
  H  H14  1  0.290700  0.436100  0.779800  1.0  0.1135
  H  H15  1  0.115200  0.459500  0.646600  1.0  0.1153
  H  H16  1  0.021700  0.430100  0.496700  1.0  0.1207
  H  H17  1  0.837600  0.797000  0.121800  1.0  0.24
  H  H18  1  0.908500  0.784300  0.060600  1.0  0.291
  H  H19  1  0.499500  0.084000  0.021300  1.0  0.1253
  H  H20  1  0.711600  0.963400  0.671500  1.0  0.1138
  H  H21  1  0.024500  0.883000  0.877100  1.0  0.1139
  H  H22  1  0.590700  0.091800  0.409500  1.0  0.1174
  H  H23  1  0.092200  0.959600  0.648000  1.0  0.1136
  H  H24  1  0.686700  0.065800  0.560800  1.0  0.1176
  H  H25  1  0.607800  0.162000  0.278100  1.0  0.1117
  H  H26  1  0.709300  0.936100  0.220200  1.0  0.1135
  H  H27  1  0.884800  0.959500  0.353400  1.0  0.1151
  H  H28  1  0.978300  0.930100  0.503300  1.0  0.1203
  C  C29  1  0.390600  0.436400  0.957400  1.0  0.7208
  C  C30  1  0.394400  0.499800  0.887800  1.0  -0.1465
  C  C31  1  0.273000  0.529400  0.635600  1.0  0.0045
  C  C32  1  0.247500  0.402000  0.165400  1.0  0.7222
  C  C33  1  0.458300  0.574600  0.917900  1.0  0.0191
  C  C34  1  0.195400  0.452000  0.304500  1.0  -0.0311
  C  C35  1  0.147100  0.421400  0.217100  1.0  -0.1553
  C  C36  1  0.106500  0.466100  0.356700  1.0  -0.0012
  C  C37  1  0.007800  0.404700  0.180500  1.0  0.025
  C  C38  1  0.915400  0.420600  0.230800  1.0  -0.1621
  C  C39  1  0.331000  0.559500  0.572000  1.0  -0.1074
  C  C40  1  0.767500  0.403500  0.189600  1.0  0.6702
  C  C41  1  0.967900  0.450200  0.318200  1.0  -0.0718
  C  C42  1  0.333500  0.545100  0.733700  1.0  0.0261
  C  C43  1  0.274800  0.542700  0.480800  1.0  -0.1367
  C  C44  1  0.394100  0.620900  0.763300  1.0  -0.0409
  C  C45  1  0.333200  0.485900  0.798100  1.0  -0.0173
  C  C46  1  0.161000  0.491400  0.451200  1.0  0.047
  C  C47  1  0.523500  0.715600  0.884500  1.0  0.75
  C  C48  1  0.156200  0.480300  0.605200  1.0  -0.131
  C  C49  1  0.456400  0.634400  0.853700  1.0  -0.136
  C  C50  1  0.100300  0.462100  0.515100  1.0  -0.1389
  C  C51  1  0.609400  0.936400  0.042600  1.0  0.7201
  C  C52  1  0.605600  0.999800  0.112200  1.0  -0.1461
  C  C53  1  0.727000  0.029400  0.364400  1.0  0.0046
  C  C54  1  0.752500  0.902000  0.834600  1.0  0.723
  C  C55  1  0.541700  0.074600  0.082100  1.0  0.0194
  C  C56  1  0.804600  0.952000  0.695500  1.0  -0.0342
  C  C57  1  0.852900  0.921400  0.782900  1.0  -0.1559
  C  C58  1  0.893500  0.966100  0.643300  1.0  -0.0013
  C  C59  1  0.992200  0.904700  0.819500  1.0  0.0268
  C  C60  1  0.084600  0.920600  0.769200  1.0  -0.1627
  C  C61  1  0.669000  0.059500  0.428000  1.0  -0.1079
  C  C62  1  0.232500  0.903500  0.810400  1.0  0.6704
  C  C63  1  0.032100  0.950200  0.681800  1.0  -0.0721
  C  C64  1  0.666500  0.045100  0.266300  1.0  0.0258
  C  C65  1  0.725200  0.042700  0.519200  1.0  -0.1356
  C  C66  1  0.605900  0.120900  0.236700  1.0  -0.0423
  C  C67  1  0.666800  0.985900  0.201900  1.0  -0.0166
  C  C68  1  0.839000  0.991400  0.548800  1.0  0.0468
  C  C69  1  0.476500  0.215600  0.115500  1.0  0.7498
  C  C70  1  0.843800  0.980300  0.394800  1.0  -0.1304
  C  C71  1  0.543600  0.134400  0.146300  1.0  -0.1355
  C  C72  1  0.899700  0.962100  0.484900  1.0  -0.1389
  O  O73  1  0.371600  0.420890  0.204790  1.0  -0.5716
  O  O74  1  0.685500  0.432160  0.230880  1.0  -0.5695
  O  O75  1  0.315500  0.375150  0.931890  1.0  -0.6074
  O  O76  1  0.458200  0.451720  0.036610  1.0  -0.5817
  O  O77  1  0.498400  0.770880  0.826520  1.0  -0.5789
  O  O78  1  0.201000  0.371060  0.090680  1.0  -0.6384
  O  O79  1  0.727100  0.363300  0.119420  1.0  -0.5695
  O  O80  1  0.597400  0.721510  0.964100  1.0  -0.5947
  O  O81  1  0.094700  0.271800  0.887100  1.0  -0.7134
  O  O82  1  0.628400  0.920890  0.795210  1.0  -0.5718
  O  O83  1  0.314500  0.932160  0.769120  1.0  -0.5689
  O  O84  1  0.684500  0.875150  0.068110  1.0  -0.6077
  O  O85  1  0.541800  0.951720  0.963390  1.0  -0.5816
  O  O86  1  0.501600  0.270880  0.173480  1.0  -0.5775
  O  O87  1  0.799000  0.871060  0.909320  1.0  -0.6394
  O  O88  1  0.272900  0.863300  0.880580  1.0  -0.5703
  O  O89  1  0.402600  0.221510  0.035900  1.0  -0.5935
  O  O90  1  0.905300  0.771800  0.112900  1.0  -0.7104
