# generated using pymatgen
data_ZnH5C11O4
_symmetry_space_group_name_H-M   'P 1'
_cell_length_a   18.41600000
_cell_length_b   10.15400000
_cell_length_c   27.01000000
_cell_angle_alpha   90.00000000
_cell_angle_beta   90.00000000
_cell_angle_gamma   90.00000000
_symmetry_Int_Tables_number   1
_chemical_formula_structural   ZnH5C11O4
_chemical_formula_sum   'Zn8 H40 C88 O32'
_cell_volume   5050.76368864
_cell_formula_units_Z   8
loop_
 _symmetry_equiv_pos_site_id
 _symmetry_equiv_pos_as_xyz
  1  'x, y, z'
loop_
 _atom_site_type_symbol
 _atom_site_label
 _atom_site_symmetry_multiplicity
 _atom_site_fract_x
 _atom_site_fract_y
 _atom_site_fract_z
 _atom_site_occupancy
 _atom_site_charge
  Zn  Zn1  1  0.828340  0.687960  0.967520  1.0  1.0552
  Zn  Zn2  1  0.687850  0.990960  0.566300  1.0  0.9102
  Zn  Zn3  1  0.171660  0.312040  0.467520  1.0  1.0555
  Zn  Zn4  1  0.312150  0.009040  0.066300  1.0  0.9106
  Zn  Zn5  1  0.328340  0.812040  0.967520  1.0  1.0533
  Zn  Zn6  1  0.187850  0.509040  0.566300  1.0  0.9107
  Zn  Zn7  1  0.671660  0.187960  0.467520  1.0  1.0529
  Zn  Zn8  1  0.812150  0.490960  0.066300  1.0  0.9106
  H  H9  1  0.568000  0.758900  0.990700  1.0  0.1166
  H  H10  1  0.493200  0.813700  0.129600  1.0  0.1076
  H  H11  1  0.692400  0.667400  0.108700  1.0  0.1116
  H  H12  1  0.689800  0.543800  0.264500  1.0  0.1161
  H  H13  1  0.658200  0.550600  0.180400  1.0  0.1
  H  H14  1  0.551500  0.887900  0.203800  1.0  0.1274
  H  H15  1  0.678700  0.657700  0.475700  1.0  0.1111
  H  H16  1  0.569400  0.861100  0.287900  1.0  0.1151
  H  H17  1  0.646200  0.883300  0.354500  1.0  0.1206
  H  H18  1  0.650200  0.488600  0.343100  1.0  0.1073
  H  H19  1  0.432000  0.241100  0.490700  1.0  0.1164
  H  H20  1  0.506800  0.186300  0.629600  1.0  0.1073
  H  H21  1  0.307600  0.332600  0.608700  1.0  0.1105
  H  H22  1  0.310200  0.456200  0.764500  1.0  0.1165
  H  H23  1  0.341800  0.449400  0.680400  1.0  0.1
  H  H24  1  0.448500  0.112100  0.703800  1.0  0.1269
  H  H25  1  0.321300  0.342300  0.975700  1.0  0.1111
  H  H26  1  0.430600  0.138900  0.787900  1.0  0.1151
  H  H27  1  0.353800  0.116700  0.854500  1.0  0.1211
  H  H28  1  0.349800  0.511400  0.843100  1.0  0.1077
  H  H29  1  0.068000  0.741100  0.990700  1.0  0.1165
  H  H30  1  0.993200  0.686300  0.129600  1.0  0.1076
  H  H31  1  0.192400  0.832600  0.108700  1.0  0.111
  H  H32  1  0.189800  0.956200  0.264500  1.0  0.1163
  H  H33  1  0.158200  0.949400  0.180400  1.0  0.0999
  H  H34  1  0.051500  0.612100  0.203800  1.0  0.127
  H  H35  1  0.178700  0.842300  0.475700  1.0  0.111
  H  H36  1  0.069400  0.638900  0.287900  1.0  0.1153
  H  H37  1  0.146200  0.616700  0.354500  1.0  0.1212
  H  H38  1  0.150200  0.011400  0.343100  1.0  0.1077
  H  H39  1  0.932000  0.258900  0.490700  1.0  0.1165
  H  H40  1  0.006800  0.313700  0.629600  1.0  0.1073
  H  H41  1  0.807600  0.167400  0.608700  1.0  0.1109
  H  H42  1  0.810200  0.043800  0.764500  1.0  0.1159
  H  H43  1  0.841800  0.050600  0.680400  1.0  0.0997
  H  H44  1  0.948500  0.387900  0.703800  1.0  0.1269
  H  H45  1  0.821300  0.157700  0.975700  1.0  0.1114
  H  H46  1  0.930600  0.361100  0.787900  1.0  0.1147
  H  H47  1  0.853800  0.383300  0.854500  1.0  0.1205
  H  H48  1  0.849800  0.988600  0.843100  1.0  0.1074
  C  C49  1  0.574800  0.756400  0.024800  1.0  0.0015
  C  C50  1  0.529500  0.786400  0.107900  1.0  -0.051
  C  C51  1  0.648900  0.700800  0.096400  1.0  -0.101
  C  C52  1  0.659600  0.610300  0.252900  1.0  -0.143
  C  C53  1  0.605900  0.718800  0.182700  1.0  0.0531
  C  C54  1  0.448800  0.850800  0.038500  1.0  0.7207
  C  C55  1  0.642900  0.617800  0.201400  1.0  -0.1447
  C  C56  1  0.595200  0.735800  0.127900  1.0  0.0246
  C  C57  1  0.577500  0.816200  0.215700  1.0  -0.1496
  C  C58  1  0.638800  0.715200  0.044300  1.0  -0.1185
  C  C59  1  0.631900  0.698800  0.284600  1.0  0.027
  C  C60  1  0.669000  0.664900  0.442000  1.0  0.0249
  C  C61  1  0.670600  0.910800  0.453100  1.0  0.7176
  C  C62  1  0.660900  0.549800  0.413100  1.0  -0.1723
  C  C63  1  0.589900  0.801000  0.266000  1.0  -0.1279
  C  C64  1  0.650600  0.800500  0.368900  1.0  -0.0496
  C  C65  1  0.704400  0.687900  0.010500  1.0  0.6701
  C  C66  1  0.645600  0.686400  0.340100  1.0  0.0269
  C  C67  1  0.662500  0.787700  0.420700  1.0  -0.1269
  C  C68  1  0.517600  0.796400  0.057900  1.0  -0.1081
  C  C69  1  0.652000  0.563800  0.362700  1.0  -0.0356
  C  C70  1  0.668300  0.419900  0.436200  1.0  0.6278
  C  C71  1  0.425200  0.243600  0.524800  1.0  0.0013
  C  C72  1  0.470500  0.213600  0.607900  1.0  -0.0498
  C  C73  1  0.351100  0.299200  0.596400  1.0  -0.1016
  C  C74  1  0.340400  0.389700  0.752900  1.0  -0.1429
  C  C75  1  0.394100  0.281200  0.682700  1.0  0.0536
  C  C76  1  0.551200  0.149200  0.538500  1.0  0.721
  C  C77  1  0.357100  0.382200  0.701400  1.0  -0.1467
  C  C78  1  0.404800  0.264200  0.627900  1.0  0.0251
  C  C79  1  0.422500  0.183800  0.715700  1.0  -0.1493
  C  C80  1  0.361200  0.284800  0.544300  1.0  -0.1191
  C  C81  1  0.368100  0.301200  0.784600  1.0  0.0271
  C  C82  1  0.331000  0.335100  0.942000  1.0  0.0245
  C  C83  1  0.329400  0.089200  0.953100  1.0  0.7172
  C  C84  1  0.339100  0.450200  0.913100  1.0  -0.1721
  C  C85  1  0.410100  0.199000  0.766000  1.0  -0.1273
  C  C86  1  0.349400  0.199500  0.868900  1.0  -0.0487
  C  C87  1  0.295600  0.312100  0.510500  1.0  0.6697
  C  C88  1  0.354400  0.313600  0.840100  1.0  0.0269
  C  C89  1  0.337500  0.212300  0.920700  1.0  -0.1266
  C  C90  1  0.482400  0.203600  0.557900  1.0  -0.1077
  C  C91  1  0.348000  0.436200  0.862700  1.0  -0.0365
  C  C92  1  0.331700  0.580100  0.936200  1.0  0.6278
  C  C93  1  0.074800  0.743600  0.024800  1.0  0.0017
  C  C94  1  0.029500  0.713600  0.107900  1.0  -0.0508
  C  C95  1  0.148900  0.799200  0.096400  1.0  -0.1008
  C  C96  1  0.159600  0.889700  0.252900  1.0  -0.1426
  C  C97  1  0.105900  0.781200  0.182700  1.0  0.0533
  C  C98  1  0.948800  0.649200  0.038500  1.0  0.7211
  C  C99  1  0.142900  0.882200  0.201400  1.0  -0.1442
  C  C100  1  0.095200  0.764200  0.127900  1.0  0.0245
  C  C101  1  0.077500  0.683800  0.215700  1.0  -0.1486
  C  C102  1  0.138800  0.784800  0.044300  1.0  -0.1184
  C  C103  1  0.131900  0.801200  0.284600  1.0  0.0271
  C  C104  1  0.169000  0.835100  0.442000  1.0  0.0248
  C  C105  1  0.170600  0.589200  0.453100  1.0  0.7176
  C  C106  1  0.160900  0.950200  0.413100  1.0  -0.1722
  C  C107  1  0.089900  0.699000  0.266000  1.0  -0.1274
  C  C108  1  0.150600  0.699500  0.368900  1.0  -0.0485
  C  C109  1  0.204400  0.812100  0.010500  1.0  0.6702
  C  C110  1  0.145600  0.813600  0.340100  1.0  0.0268
  C  C111  1  0.162500  0.712300  0.420700  1.0  -0.1268
  C  C112  1  0.017600  0.703600  0.057900  1.0  -0.1082
  C  C113  1  0.152000  0.936200  0.362700  1.0  -0.0368
  C  C114  1  0.168300  0.080100  0.436200  1.0  0.6278
  C  C115  1  0.925200  0.256400  0.524800  1.0  0.001
  C  C116  1  0.970500  0.286400  0.607900  1.0  -0.0495
  C  C117  1  0.851100  0.200800  0.596400  1.0  -0.1017
  C  C118  1  0.840400  0.110300  0.752900  1.0  -0.1421
  C  C119  1  0.894100  0.218800  0.682700  1.0  0.0534
  C  C120  1  0.051200  0.350800  0.538500  1.0  0.7207
  C  C121  1  0.857100  0.117800  0.701400  1.0  -0.1455
  C  C122  1  0.904800  0.235800  0.627900  1.0  0.0251
  C  C123  1  0.922500  0.316200  0.715700  1.0  -0.1491
  C  C124  1  0.861200  0.215200  0.544300  1.0  -0.1193
  C  C125  1  0.868100  0.198800  0.784600  1.0  0.0271
  C  C126  1  0.831000  0.164900  0.942000  1.0  0.0246
  C  C127  1  0.829400  0.410800  0.953100  1.0  0.7172
  C  C128  1  0.839100  0.049800  0.913100  1.0  -0.172
  C  C129  1  0.910100  0.301000  0.766000  1.0  -0.1271
  C  C130  1  0.849400  0.300500  0.868900  1.0  -0.0495
  C  C131  1  0.795600  0.187900  0.510500  1.0  0.6696
  C  C132  1  0.854400  0.186400  0.840100  1.0  0.0269
  C  C133  1  0.837500  0.287700  0.920700  1.0  -0.1267
  C  C134  1  0.982400  0.296400  0.557900  1.0  -0.1077
  C  C135  1  0.848000  0.063800  0.862700  1.0  -0.0354
  C  C136  1  0.831700  0.919900  0.936200  1.0  0.6277
  O  O137  1  0.413000  0.922200  0.065780  1.0  -0.6169
  O  O138  1  0.430600  0.811500  0.994150  1.0  -0.5623
  O  O139  1  0.764900  0.655400  0.029150  1.0  -0.6373
  O  O140  1  0.668800  0.021100  0.429990  1.0  -0.5606
  O  O141  1  0.658900  0.318100  0.410330  1.0  -0.5351
  O  O142  1  0.679600  0.411200  0.482370  1.0  -0.5345
  O  O143  1  0.677400  0.893300  0.498090  1.0  -0.6302
  O  O144  1  0.697400  0.708400  0.965170  1.0  -0.5849
  O  O145  1  0.587000  0.077800  0.565780  1.0  -0.6179
  O  O146  1  0.569400  0.188500  0.494150  1.0  -0.562
  O  O147  1  0.235100  0.344600  0.529150  1.0  -0.6375
  O  O148  1  0.331200  0.978900  0.929990  1.0  -0.5618
  O  O149  1  0.341100  0.681900  0.910330  1.0  -0.5381
  O  O150  1  0.320400  0.588800  0.982370  1.0  -0.5354
  O  O151  1  0.322600  0.106700  0.998090  1.0  -0.63
  O  O152  1  0.302600  0.291600  0.465170  1.0  -0.585
  O  O153  1  0.913000  0.577800  0.065780  1.0  -0.6174
  O  O154  1  0.930600  0.688500  0.994150  1.0  -0.5616
  O  O155  1  0.264900  0.844600  0.029150  1.0  -0.6373
  O  O156  1  0.168800  0.478900  0.429990  1.0  -0.5611
  O  O157  1  0.158900  0.181900  0.410330  1.0  -0.5363
  O  O158  1  0.179600  0.088800  0.482370  1.0  -0.5353
  O  O159  1  0.177400  0.606700  0.498090  1.0  -0.63
  O  O160  1  0.197400  0.791600  0.965170  1.0  -0.5851
  O  O161  1  0.087000  0.422200  0.565780  1.0  -0.6168
  O  O162  1  0.069400  0.311500  0.494150  1.0  -0.5626
  O  O163  1  0.735100  0.155400  0.529150  1.0  -0.6375
  O  O164  1  0.831200  0.521100  0.929990  1.0  -0.5615
  O  O165  1  0.841100  0.818100  0.910330  1.0  -0.5372
  O  O166  1  0.820400  0.911200  0.982370  1.0  -0.5347
  O  O167  1  0.822600  0.393300  0.998090  1.0  -0.6301
  O  O168  1  0.802600  0.208400  0.465170  1.0  -0.585
