# generated using pymatgen
data_Zn3H21C30N14(O2F)3
_symmetry_space_group_name_H-M   'P 1'
_cell_length_a   20.65800000
_cell_length_b   20.65800000
_cell_length_c   13.77500000
_cell_angle_alpha   90.00000000
_cell_angle_beta   90.00000000
_cell_angle_gamma   120.00000000
_symmetry_Int_Tables_number   1
_chemical_formula_structural   Zn3H21C30N14(O2F)3
_chemical_formula_sum   'Zn9 H63 C90 N42 O18 F9'
_cell_volume   5090.94945721
_cell_formula_units_Z   3
loop_
 _symmetry_equiv_pos_site_id
 _symmetry_equiv_pos_as_xyz
  1  'x, y, z'
loop_
 _atom_site_type_symbol
 _atom_site_label
 _atom_site_symmetry_multiplicity
 _atom_site_fract_x
 _atom_site_fract_y
 _atom_site_fract_z
 _atom_site_occupancy
 _atom_site_charge
  Zn  Zn1  1  0.666667  0.333333  0.363260  1.0  0.8583
  Zn  Zn2  1  0.666667  0.333333  0.623430  1.0  0.8541
  Zn  Zn3  1  0.333333  0.666667  0.696590  1.0  0.8586
  Zn  Zn4  1  0.333333  0.666667  0.956760  1.0  0.8541
  Zn  Zn5  1  0.000000  0.000000  0.029930  1.0  0.8586
  Zn  Zn6  1  0.000000  0.000000  0.290100  1.0  0.8545
  Zn  Zn7  1  0.333333  0.666667  0.436500  1.0  0.926
  Zn  Zn8  1  0.000000  0.000000  0.769830  1.0  0.926
  Zn  Zn9  1  0.666667  0.333333  0.103170  1.0  0.926
  H  H10  1  0.320100  0.564000  0.119900  1.0  0.0723
  H  H11  1  0.320800  0.565800  0.279900  1.0  0.0887
  H  H12  1  0.986770  0.897330  0.453230  1.0  0.0723
  H  H13  1  0.987470  0.899130  0.613230  1.0  0.0853
  H  H14  1  0.653430  0.230670  0.786570  1.0  0.0723
  H  H15  1  0.654130  0.232470  0.946570  1.0  0.0887
  H  H16  1  0.436000  0.756100  0.119900  1.0  0.0714
  H  H17  1  0.434200  0.755000  0.279900  1.0  0.0844
  H  H18  1  0.102670  0.089430  0.453230  1.0  0.0708
  H  H19  1  0.100870  0.088330  0.613230  1.0  0.0877
  H  H20  1  0.769330  0.422770  0.786570  1.0  0.0706
  H  H21  1  0.767530  0.421670  0.946570  1.0  0.0844
  H  H22  1  0.243900  0.679900  0.119900  1.0  0.0667
  H  H23  1  0.245000  0.679200  0.279900  1.0  0.0814
  H  H24  1  0.910570  0.013230  0.453230  1.0  0.0666
  H  H25  1  0.911670  0.012530  0.613230  1.0  0.0813
  H  H26  1  0.577230  0.346570  0.786570  1.0  0.0664
  H  H27  1  0.578330  0.345870  0.946570  1.0  0.0814
  H  H28  1  0.436000  0.679900  0.119900  1.0  0.0665
  H  H29  1  0.434200  0.679200  0.279900  1.0  0.0848
  H  H30  1  0.102670  0.013230  0.453230  1.0  0.0666
  H  H31  1  0.100870  0.012530  0.613230  1.0  0.081
  H  H32  1  0.769330  0.346570  0.786570  1.0  0.0665
  H  H33  1  0.767530  0.345870  0.946570  1.0  0.0848
  H  H34  1  0.243900  0.564000  0.119900  1.0  0.0726
  H  H35  1  0.245000  0.565800  0.279900  1.0  0.0858
  H  H36  1  0.910570  0.897330  0.453230  1.0  0.0728
  H  H37  1  0.911670  0.899130  0.613230  1.0  0.089
  H  H38  1  0.577230  0.230670  0.786570  1.0  0.0719
  H  H39  1  0.578330  0.232470  0.946570  1.0  0.0858
  H  H40  1  0.320100  0.756100  0.119900  1.0  0.0693
  H  H41  1  0.320800  0.755000  0.279900  1.0  0.0842
  H  H42  1  0.986770  0.089430  0.453230  1.0  0.0688
  H  H43  1  0.987470  0.088330  0.613230  1.0  0.0842
  H  H44  1  0.653430  0.422770  0.786570  1.0  0.0689
  H  H45  1  0.654130  0.421670  0.946570  1.0  0.0842
  H  H46  1  0.518800  0.037600  0.670000  1.0  0.1336
  H  H47  1  0.447400  0.894800  0.394100  1.0  0.1119
  H  H48  1  0.511150  0.022300  0.382400  1.0  0.1195
  H  H49  1  0.185470  0.370930  0.003330  1.0  0.1336
  H  H50  1  0.114070  0.228130  0.727430  1.0  0.1121
  H  H51  1  0.177820  0.355630  0.715730  1.0  0.1194
  H  H52  1  0.852130  0.704270  0.336670  1.0  0.1337
  H  H53  1  0.780730  0.561470  0.060770  1.0  0.1119
  H  H54  1  0.844480  0.688970  0.049070  1.0  0.1194
  H  H55  1  0.962400  0.481200  0.670000  1.0  0.1341
  H  H56  1  0.105200  0.552600  0.394100  1.0  0.1127
  H  H57  1  0.977700  0.488850  0.382400  1.0  0.1202
  H  H58  1  0.629070  0.814530  0.003330  1.0  0.1341
  H  H59  1  0.771870  0.885930  0.727430  1.0  0.1129
  H  H60  1  0.644370  0.822180  0.715730  1.0  0.1201
  H  H61  1  0.295730  0.147870  0.336670  1.0  0.1341
  H  H62  1  0.438530  0.219270  0.060770  1.0  0.1127
  H  H63  1  0.311030  0.155520  0.049070  1.0  0.1202
  H  H64  1  0.518800  0.481200  0.670000  1.0  0.1344
  H  H65  1  0.447400  0.552600  0.394100  1.0  0.1127
  H  H66  1  0.511150  0.488850  0.382400  1.0  0.1201
  H  H67  1  0.185470  0.814530  0.003330  1.0  0.1346
  H  H68  1  0.114070  0.885930  0.727430  1.0  0.1126
  H  H69  1  0.177820  0.822180  0.715730  1.0  0.1201
  H  H70  1  0.852130  0.147870  0.336670  1.0  0.1346
  H  H71  1  0.780730  0.219270  0.060770  1.0  0.1127
  H  H72  1  0.844480  0.155520  0.049070  1.0  0.1201
  C  C73  1  0.563000  0.126000  0.514100  1.0  0.2722
  C  C74  1  0.522350  0.044700  0.524300  1.0  -0.0661
  C  C75  1  0.504700  0.009400  0.613300  1.0  -0.0794
  C  C76  1  0.466450  0.932900  0.618500  1.0  0.2926
  C  C77  1  0.441600  0.883200  0.539300  1.0  -0.0158
  C  C78  1  0.461250  0.922500  0.451300  1.0  -0.0734
  C  C79  1  0.500150  0.000300  0.443500  1.0  -0.1231
  C  C80  1  0.403900  0.807800  0.544400  1.0  0.5521
  C  C81  1  0.295000  0.590000  0.143400  1.0  -0.0105
  C  C82  1  0.296100  0.592200  0.256300  1.0  -0.0114
  C  C83  1  0.229670  0.459330  0.847430  1.0  0.2722
  C  C84  1  0.189020  0.378030  0.857630  1.0  -0.0661
  C  C85  1  0.171370  0.342730  0.946630  1.0  -0.0794
  C  C86  1  0.133120  0.266230  0.951830  1.0  0.2926
  C  C87  1  0.108270  0.216530  0.872630  1.0  -0.0158
  C  C88  1  0.127920  0.255830  0.784630  1.0  -0.0734
  C  C89  1  0.166820  0.333630  0.776830  1.0  -0.1231
  C  C90  1  0.070570  0.141130  0.877730  1.0  0.5521
  C  C91  1  0.961670  0.923330  0.476730  1.0  -0.0105
  C  C92  1  0.962770  0.925530  0.589630  1.0  -0.0115
  C  C93  1  0.896330  0.792670  0.180770  1.0  0.2722
  C  C94  1  0.855680  0.711370  0.190970  1.0  -0.0661
  C  C95  1  0.838030  0.676070  0.279970  1.0  -0.0794
  C  C96  1  0.799780  0.599570  0.285170  1.0  0.2926
  C  C97  1  0.774930  0.549870  0.205970  1.0  -0.0158
  C  C98  1  0.794580  0.589170  0.117970  1.0  -0.0734
  C  C99  1  0.833480  0.666970  0.110170  1.0  -0.1231
  C  C100  1  0.737230  0.474470  0.211070  1.0  0.5521
  C  C101  1  0.628330  0.256670  0.810070  1.0  -0.0105
  C  C102  1  0.629430  0.258870  0.922970  1.0  -0.0114
  C  C103  1  0.874000  0.437000  0.514100  1.0  0.2722
  C  C104  1  0.955300  0.477650  0.524300  1.0  -0.067
  C  C105  1  0.990600  0.495300  0.613300  1.0  -0.0804
  C  C106  1  0.067100  0.533550  0.618500  1.0  0.2921
  C  C107  1  0.116800  0.558400  0.539300  1.0  -0.016
  C  C108  1  0.077500  0.538750  0.451300  1.0  -0.0749
  C  C109  1  0.999700  0.499850  0.443500  1.0  -0.1243
  C  C110  1  0.192200  0.596100  0.544400  1.0  0.5519
  C  C111  1  0.410000  0.705000  0.143400  1.0  -0.0079
  C  C112  1  0.407800  0.703900  0.256300  1.0  -0.012
  C  C113  1  0.540670  0.770330  0.847430  1.0  0.2722
  C  C114  1  0.621970  0.810980  0.857630  1.0  -0.067
  C  C115  1  0.657270  0.828630  0.946630  1.0  -0.0804
  C  C116  1  0.733770  0.866880  0.951830  1.0  0.2921
  C  C117  1  0.783470  0.891730  0.872630  1.0  -0.016
  C  C118  1  0.744170  0.872080  0.784630  1.0  -0.0749
  C  C119  1  0.666370  0.833180  0.776830  1.0  -0.1243
  C  C120  1  0.858870  0.929430  0.877730  1.0  0.5519
  C  C121  1  0.076670  0.038330  0.476730  1.0  -0.0079
  C  C122  1  0.074470  0.037230  0.589630  1.0  -0.012
  C  C123  1  0.207330  0.103670  0.180770  1.0  0.2722
  C  C124  1  0.288630  0.144320  0.190970  1.0  -0.067
  C  C125  1  0.323930  0.161970  0.279970  1.0  -0.0803
  C  C126  1  0.400430  0.200220  0.285170  1.0  0.2921
  C  C127  1  0.450130  0.225070  0.205970  1.0  -0.016
  C  C128  1  0.410830  0.205420  0.117970  1.0  -0.0749
  C  C129  1  0.333030  0.166520  0.110170  1.0  -0.1243
  C  C130  1  0.525530  0.262770  0.211070  1.0  0.5519
  C  C131  1  0.743330  0.371670  0.810070  1.0  -0.0079
  C  C132  1  0.741130  0.370570  0.922970  1.0  -0.012
  C  C133  1  0.563000  0.437000  0.514100  1.0  0.2732
  C  C134  1  0.522350  0.477650  0.524300  1.0  -0.066
  C  C135  1  0.504700  0.495300  0.613300  1.0  -0.0797
  C  C136  1  0.466450  0.533550  0.618500  1.0  0.2915
  C  C137  1  0.441600  0.558400  0.539300  1.0  -0.0154
  C  C138  1  0.461250  0.538750  0.451300  1.0  -0.0737
  C  C139  1  0.500150  0.499850  0.443500  1.0  -0.1247
  C  C140  1  0.403900  0.596100  0.544400  1.0  0.5505
  C  C141  1  0.295000  0.705000  0.143400  1.0  -0.0059
  C  C142  1  0.296100  0.703900  0.256300  1.0  -0.0124
  C  C143  1  0.229670  0.770330  0.847430  1.0  0.2732
  C  C144  1  0.189020  0.810980  0.857630  1.0  -0.066
  C  C145  1  0.171370  0.828630  0.946630  1.0  -0.0797
  C  C146  1  0.133120  0.866880  0.951830  1.0  0.2915
  C  C147  1  0.108270  0.891730  0.872630  1.0  -0.0154
  C  C148  1  0.127920  0.872080  0.784630  1.0  -0.0737
  C  C149  1  0.166820  0.833180  0.776830  1.0  -0.1247
  C  C150  1  0.070570  0.929430  0.877730  1.0  0.5505
  C  C151  1  0.961670  0.038330  0.476730  1.0  -0.0059
  C  C152  1  0.962770  0.037230  0.589630  1.0  -0.0124
  C  C153  1  0.896330  0.103670  0.180770  1.0  0.2732
  C  C154  1  0.855680  0.144320  0.190970  1.0  -0.066
  C  C155  1  0.838030  0.161970  0.279970  1.0  -0.0796
  C  C156  1  0.799780  0.200220  0.285170  1.0  0.2915
  C  C157  1  0.774930  0.225070  0.205970  1.0  -0.0154
  C  C158  1  0.794580  0.205420  0.117970  1.0  -0.0737
  C  C159  1  0.833480  0.166520  0.110170  1.0  -0.1247
  C  C160  1  0.737230  0.262770  0.211070  1.0  0.5505
  C  C161  1  0.628330  0.371670  0.810070  1.0  -0.0054
  C  C162  1  0.629430  0.370570  0.922970  1.0  -0.0124
  N  N163  1  0.617900  0.235800  0.452600  1.0  -0.0462
  N  N164  1  0.622450  0.244900  0.551700  1.0  -0.1909
  N  N165  1  0.587950  0.175900  0.591600  1.0  -0.2734
  N  N166  1  0.582400  0.164800  0.428500  1.0  -0.273
  N  N167  1  0.284570  0.569130  0.785930  1.0  -0.0462
  N  N168  1  0.289120  0.578230  0.885030  1.0  -0.1911
  N  N169  1  0.254620  0.509230  0.924930  1.0  -0.2734
  N  N170  1  0.249070  0.498130  0.761830  1.0  -0.273
  N  N171  1  0.951230  0.902470  0.119270  1.0  -0.0462
  N  N172  1  0.955780  0.911570  0.218370  1.0  -0.2012
  N  N173  1  0.921280  0.842570  0.258270  1.0  -0.2734
  N  N174  1  0.915730  0.831470  0.095170  1.0  -0.2728
  N  N175  1  0.764200  0.382100  0.452600  1.0  -0.0433
  N  N176  1  0.755100  0.377550  0.551700  1.0  -0.1902
  N  N177  1  0.824100  0.412050  0.591600  1.0  -0.274
  N  N178  1  0.835200  0.417600  0.428500  1.0  -0.2726
  N  N179  1  0.430870  0.715430  0.785930  1.0  -0.0433
  N  N180  1  0.421770  0.710880  0.885030  1.0  -0.1903
  N  N181  1  0.490770  0.745380  0.924930  1.0  -0.274
  N  N182  1  0.501870  0.750930  0.761830  1.0  -0.2726
  N  N183  1  0.097530  0.048770  0.119270  1.0  -0.0433
  N  N184  1  0.088430  0.044220  0.218370  1.0  -0.2004
  N  N185  1  0.157430  0.078720  0.258270  1.0  -0.274
  N  N186  1  0.168530  0.084270  0.095170  1.0  -0.2724
  N  N187  1  0.617900  0.382100  0.452600  1.0  -0.0451
  N  N188  1  0.622450  0.377550  0.551700  1.0  -0.1988
  N  N189  1  0.587950  0.412050  0.591600  1.0  -0.2746
  N  N190  1  0.582400  0.417600  0.428500  1.0  -0.273
  N  N191  1  0.284570  0.715430  0.785930  1.0  -0.0451
  N  N192  1  0.289120  0.710880  0.885030  1.0  -0.1989
  N  N193  1  0.254620  0.745380  0.924930  1.0  -0.2748
  N  N194  1  0.249070  0.750930  0.761830  1.0  -0.273
  N  N195  1  0.951230  0.048770  0.119270  1.0  -0.0451
  N  N196  1  0.955780  0.044220  0.218370  1.0  -0.1909
  N  N197  1  0.921280  0.078720  0.258270  1.0  -0.2746
  N  N198  1  0.915730  0.084270  0.095170  1.0  -0.2734
  N  N199  1  0.333333  0.666667  0.109200  1.0  -0.1206
  N  N200  1  0.333333  0.666667  0.296600  1.0  -0.1538
  N  N201  1  0.000000  0.000000  0.442530  1.0  -0.1195
  N  N202  1  0.000000  0.000000  0.629930  1.0  -0.1538
  N  N203  1  0.666667  0.333333  0.775870  1.0  -0.1204
  N  N204  1  0.666667  0.333333  0.963270  1.0  -0.1538
  O  O205  1  0.384900  0.769800  0.615000  1.0  -0.6289
  O  O206  1  0.385700  0.771400  0.469500  1.0  -0.638
  O  O207  1  0.051570  0.103130  0.948330  1.0  -0.6289
  O  O208  1  0.052370  0.104730  0.802830  1.0  -0.638
  O  O209  1  0.718230  0.436470  0.281670  1.0  -0.6288
  O  O210  1  0.719030  0.438070  0.136170  1.0  -0.638
  O  O211  1  0.230200  0.615100  0.615000  1.0  -0.629
  O  O212  1  0.228600  0.614300  0.469500  1.0  -0.6385
  O  O213  1  0.896870  0.948430  0.948330  1.0  -0.629
  O  O214  1  0.895270  0.947630  0.802830  1.0  -0.6383
  O  O215  1  0.563530  0.281770  0.281670  1.0  -0.6288
  O  O216  1  0.561930  0.280970  0.136170  1.0  -0.6385
  O  O217  1  0.384900  0.615100  0.615000  1.0  -0.6297
  O  O218  1  0.385700  0.614300  0.469500  1.0  -0.6387
  O  O219  1  0.051570  0.948430  0.948330  1.0  -0.6294
  O  O220  1  0.052370  0.947630  0.802830  1.0  -0.6387
  O  O221  1  0.718230  0.281770  0.281670  1.0  -0.6298
  O  O222  1  0.719030  0.280970  0.136170  1.0  -0.6387
  F  F223  1  0.453600  0.907200  0.710900  1.0  -0.1491
  F  F224  1  0.120270  0.240530  0.044230  1.0  -0.1424
  F  F225  1  0.786930  0.573870  0.377570  1.0  -0.1423
  F  F226  1  0.092800  0.546400  0.710900  1.0  -0.1507
  F  F227  1  0.759470  0.879730  0.044230  1.0  -0.1437
  F  F228  1  0.426130  0.213070  0.377570  1.0  -0.1437
  F  F229  1  0.453600  0.546400  0.710900  1.0  -0.1469
  F  F230  1  0.120270  0.879730  0.044230  1.0  -0.1469
  F  F231  1  0.786930  0.213070  0.377570  1.0  -0.1469
