# generated using pymatgen
data_CdH3(C2O)4
_symmetry_space_group_name_H-M   'P 1'
_cell_length_a   26.70630000
_cell_length_b   19.51300000
_cell_length_c   28.89380000
_cell_angle_alpha   90.00000000
_cell_angle_beta   90.00000000
_cell_angle_gamma   90.00000000
_symmetry_Int_Tables_number   1
_chemical_formula_structural   CdH3(C2O)4
_chemical_formula_sum   'Cd32 H96 C256 O128'
_cell_volume   15057.13797771
_cell_formula_units_Z   32
loop_
 _symmetry_equiv_pos_site_id
 _symmetry_equiv_pos_as_xyz
  1  'x, y, z'
loop_
 _atom_site_type_symbol
 _atom_site_label
 _atom_site_symmetry_multiplicity
 _atom_site_fract_x
 _atom_site_fract_y
 _atom_site_fract_z
 _atom_site_occupancy
 _atom_site_charge
  Cd  Cd1  1  0.520180  0.728440  0.015500  1.0  1.0608
  Cd  Cd2  1  0.464810  0.868890  0.078530  1.0  0.8698
  Cd  Cd3  1  0.847450  0.878750  0.204390  1.0  0.9423
  Cd  Cd4  1  0.764010  0.743670  0.245570  1.0  1.0784
  Cd  Cd5  1  0.979820  0.771560  0.515500  1.0  1.0632
  Cd  Cd6  1  0.035190  0.631110  0.578530  1.0  0.8708
  Cd  Cd7  1  0.652550  0.621250  0.704390  1.0  0.9382
  Cd  Cd8  1  0.735990  0.756330  0.745570  1.0  1.0783
  Cd  Cd9  1  0.479820  0.728440  0.484500  1.0  1.0629
  Cd  Cd10  1  0.535190  0.868890  0.421470  1.0  0.8748
  Cd  Cd11  1  0.152550  0.878750  0.295610  1.0  0.9388
  Cd  Cd12  1  0.235990  0.743670  0.254430  1.0  1.0783
  Cd  Cd13  1  0.020180  0.771560  0.984500  1.0  1.0622
  Cd  Cd14  1  0.964810  0.631110  0.921470  1.0  0.8752
  Cd  Cd15  1  0.347450  0.621250  0.795610  1.0  0.9407
  Cd  Cd16  1  0.264010  0.756330  0.754430  1.0  1.0789
  Cd  Cd17  1  0.479820  0.271560  0.984500  1.0  1.0632
  Cd  Cd18  1  0.535190  0.131110  0.921470  1.0  0.875
  Cd  Cd19  1  0.152550  0.121250  0.795610  1.0  0.9379
  Cd  Cd20  1  0.235990  0.256330  0.754430  1.0  1.079
  Cd  Cd21  1  0.020180  0.228440  0.484500  1.0  1.0608
  Cd  Cd22  1  0.964810  0.368890  0.421470  1.0  0.8746
  Cd  Cd23  1  0.347450  0.378750  0.295610  1.0  0.942
  Cd  Cd24  1  0.264010  0.243670  0.254430  1.0  1.0791
  Cd  Cd25  1  0.520180  0.271560  0.515500  1.0  1.0612
  Cd  Cd26  1  0.464810  0.131110  0.578530  1.0  0.8702
  Cd  Cd27  1  0.847450  0.121250  0.704390  1.0  0.9414
  Cd  Cd28  1  0.764010  0.256330  0.745570  1.0  1.0789
  Cd  Cd29  1  0.979820  0.228440  0.015500  1.0  1.0617
  Cd  Cd30  1  0.035190  0.368890  0.078530  1.0  0.8712
  Cd  Cd31  1  0.652550  0.378750  0.204390  1.0  0.939
  Cd  Cd32  1  0.735990  0.243670  0.245570  1.0  1.0789
  H  H33  1  0.621700  0.263700  0.849600  1.0  0.1303
  H  H34  1  0.681600  0.447300  0.816100  1.0  0.1184
  H  H35  1  0.569500  0.437000  0.909500  1.0  0.1208
  H  H36  1  0.667100  0.551400  0.810800  1.0  0.1235
  H  H37  1  0.633400  0.721700  0.885100  1.0  0.132
  H  H38  1  0.587500  0.535100  0.929400  1.0  0.1179
  H  H39  1  0.661800  0.783100  0.125000  1.0  0.1261
  H  H40  1  0.704500  0.979000  0.149300  1.0  0.1155
  H  H41  1  0.577400  0.939800  0.077000  1.0  0.1114
  H  H42  1  0.591400  0.043200  0.047700  1.0  0.1175
  H  H43  1  0.590600  0.232100  0.105200  1.0  0.1271
  H  H44  1  0.663000  0.076600  0.169200  1.0  0.1205
  H  H45  1  0.878300  0.236300  0.349600  1.0  0.1302
  H  H46  1  0.818400  0.052700  0.316100  1.0  0.1182
  H  H47  1  0.930500  0.063000  0.409500  1.0  0.1202
  H  H48  1  0.832900  0.948600  0.310800  1.0  0.1235
  H  H49  1  0.866600  0.778300  0.385100  1.0  0.1321
  H  H50  1  0.912500  0.964900  0.429400  1.0  0.1174
  H  H51  1  0.838200  0.716900  0.625000  1.0  0.1257
  H  H52  1  0.795500  0.521000  0.649300  1.0  0.116
  H  H53  1  0.922600  0.560200  0.577000  1.0  0.1111
  H  H54  1  0.908600  0.456800  0.547700  1.0  0.1172
  H  H55  1  0.909400  0.267900  0.605200  1.0  0.1275
  H  H56  1  0.837000  0.423400  0.669200  1.0  0.1207
  H  H57  1  0.378300  0.263700  0.650400  1.0  0.1309
  H  H58  1  0.318400  0.447300  0.683900  1.0  0.1181
  H  H59  1  0.430500  0.437000  0.590500  1.0  0.1207
  H  H60  1  0.332900  0.551400  0.689200  1.0  0.1239
  H  H61  1  0.366600  0.721700  0.614900  1.0  0.1318
  H  H62  1  0.412500  0.535100  0.570600  1.0  0.1179
  H  H63  1  0.338200  0.783100  0.375000  1.0  0.1262
  H  H64  1  0.295500  0.979000  0.350700  1.0  0.1168
  H  H65  1  0.422600  0.939800  0.423000  1.0  0.1106
  H  H66  1  0.408600  0.043200  0.452300  1.0  0.1173
  H  H67  1  0.409400  0.232100  0.394800  1.0  0.1272
  H  H68  1  0.337000  0.076600  0.330800  1.0  0.1207
  H  H69  1  0.121700  0.236300  0.150400  1.0  0.1304
  H  H70  1  0.181600  0.052700  0.183900  1.0  0.1181
  H  H71  1  0.069500  0.063000  0.090500  1.0  0.1208
  H  H72  1  0.167100  0.948600  0.189200  1.0  0.1233
  H  H73  1  0.133400  0.778300  0.114900  1.0  0.1321
  H  H74  1  0.087500  0.964900  0.070600  1.0  0.118
  H  H75  1  0.161800  0.716900  0.875000  1.0  0.1254
  H  H76  1  0.204500  0.521000  0.850700  1.0  0.116
  H  H77  1  0.077400  0.560200  0.923000  1.0  0.1109
  H  H78  1  0.091400  0.456800  0.952300  1.0  0.1175
  H  H79  1  0.090600  0.267900  0.894800  1.0  0.1277
  H  H80  1  0.163000  0.423400  0.830800  1.0  0.1206
  H  H81  1  0.378300  0.736300  0.150400  1.0  0.1303
  H  H82  1  0.318400  0.552700  0.183900  1.0  0.118
  H  H83  1  0.430500  0.563000  0.090500  1.0  0.1208
  H  H84  1  0.332900  0.448600  0.189200  1.0  0.1235
  H  H85  1  0.366600  0.278300  0.114900  1.0  0.1319
  H  H86  1  0.412500  0.464900  0.070600  1.0  0.1177
  H  H87  1  0.338200  0.216900  0.875000  1.0  0.1258
  H  H88  1  0.295500  0.021000  0.850700  1.0  0.1161
  H  H89  1  0.422600  0.060200  0.923000  1.0  0.1106
  H  H90  1  0.408600  0.956800  0.952300  1.0  0.1173
  H  H91  1  0.409400  0.767900  0.894800  1.0  0.1276
  H  H92  1  0.337000  0.923400  0.830800  1.0  0.1209
  H  H93  1  0.121700  0.763700  0.650400  1.0  0.1309
  H  H94  1  0.181600  0.947300  0.683900  1.0  0.118
  H  H95  1  0.069500  0.937000  0.590500  1.0  0.121
  H  H96  1  0.167100  0.051400  0.689200  1.0  0.1235
  H  H97  1  0.133400  0.221700  0.614900  1.0  0.1321
  H  H98  1  0.087500  0.035100  0.570600  1.0  0.1181
  H  H99  1  0.161800  0.283100  0.375000  1.0  0.126
  H  H100  1  0.204500  0.479000  0.350700  1.0  0.1163
  H  H101  1  0.077400  0.439800  0.423000  1.0  0.111
  H  H102  1  0.091400  0.543200  0.452300  1.0  0.1174
  H  H103  1  0.090600  0.732100  0.394800  1.0  0.1273
  H  H104  1  0.163000  0.576600  0.330800  1.0  0.1206
  H  H105  1  0.621700  0.736300  0.349600  1.0  0.1302
  H  H106  1  0.681600  0.552700  0.316100  1.0  0.1182
  H  H107  1  0.569500  0.563000  0.409500  1.0  0.1208
  H  H108  1  0.667100  0.448600  0.310800  1.0  0.1235
  H  H109  1  0.633400  0.278300  0.385100  1.0  0.1322
  H  H110  1  0.587500  0.464900  0.429400  1.0  0.1176
  H  H111  1  0.661800  0.216900  0.625000  1.0  0.1254
  H  H112  1  0.704500  0.021000  0.649300  1.0  0.1156
  H  H113  1  0.577400  0.060200  0.577000  1.0  0.111
  H  H114  1  0.591400  0.956800  0.547700  1.0  0.1176
  H  H115  1  0.590600  0.767900  0.605200  1.0  0.1276
  H  H116  1  0.663000  0.923400  0.669200  1.0  0.1205
  H  H117  1  0.878300  0.763700  0.849600  1.0  0.1304
  H  H118  1  0.818400  0.947300  0.816100  1.0  0.1186
  H  H119  1  0.930500  0.937000  0.909500  1.0  0.1202
  H  H120  1  0.832900  0.051400  0.810800  1.0  0.1237
  H  H121  1  0.866600  0.221700  0.885100  1.0  0.1318
  H  H122  1  0.912500  0.035100  0.929400  1.0  0.1177
  H  H123  1  0.838200  0.283100  0.125000  1.0  0.1261
  H  H124  1  0.795500  0.479000  0.149300  1.0  0.1161
  H  H125  1  0.922600  0.439800  0.077000  1.0  0.1112
  H  H126  1  0.908600  0.543200  0.047700  1.0  0.1174
  H  H127  1  0.909400  0.732100  0.105200  1.0  0.1271
  H  H128  1  0.837000  0.576600  0.169200  1.0  0.1206
  C  C129  1  0.556010  0.302800  0.913750  1.0  0.7444
  C  C130  1  0.591210  0.344200  0.884140  1.0  -0.153
  C  C131  1  0.622870  0.312100  0.853190  1.0  0.047
  C  C132  1  0.656620  0.350900  0.827280  1.0  -0.1567
  C  C133  1  0.691980  0.316400  0.794840  1.0  0.6461
  C  C134  1  0.658030  0.421200  0.833230  1.0  -0.0701
  C  C135  1  0.625890  0.454820  0.863640  1.0  0.0564
  C  C136  1  0.592180  0.415300  0.888820  1.0  -0.0432
  C  C137  1  0.627720  0.530800  0.869880  1.0  0.0649
  C  C138  1  0.652100  0.571800  0.837240  1.0  -0.0502
  C  C139  1  0.654470  0.642700  0.843380  1.0  -0.1377
  C  C140  1  0.631470  0.673500  0.880980  1.0  0.0478
  C  C141  1  0.605410  0.633300  0.912840  1.0  -0.1513
  C  C142  1  0.604470  0.562400  0.907200  1.0  -0.057
  C  C143  1  0.680900  0.685760  0.808280  1.0  0.7011
  C  C144  1  0.576750  0.666100  0.951680  1.0  0.673
  C  C145  1  0.580790  0.804300  0.073400  1.0  0.6852
  C  C146  1  0.615600  0.854100  0.096530  1.0  -0.1228
  C  C147  1  0.656520  0.831000  0.121330  1.0  0.0432
  C  C148  1  0.690120  0.877100  0.141040  1.0  -0.1731
  C  C149  1  0.681310  0.947300  0.136550  1.0  -0.0576
  C  C150  1  0.638550  0.972000  0.113370  1.0  0.0384
  C  C151  1  0.606220  0.924200  0.093200  1.0  -0.0427
  C  C152  1  0.627390  0.046700  0.109880  1.0  0.0365
  C  C153  1  0.600260  0.072900  0.072420  1.0  -0.0598
  C  C154  1  0.585920  0.141500  0.070640  1.0  -0.1528
  C  C155  1  0.600880  0.185500  0.105800  1.0  0.034
  C  C156  1  0.630590  0.162100  0.141710  1.0  -0.1517
  C  C157  1  0.643330  0.092700  0.144080  1.0  -0.0463
  C  C158  1  0.650960  0.211000  0.177210  1.0  0.7413
  C  C159  1  0.555840  0.166700  0.029900  1.0  0.7209
  C  C160  1  0.734430  0.851300  0.167790  1.0  0.7146
  C  C161  1  0.943990  0.197200  0.413750  1.0  0.7449
  C  C162  1  0.908790  0.155800  0.384140  1.0  -0.1525
  C  C163  1  0.877130  0.187900  0.353190  1.0  0.0458
  C  C164  1  0.843380  0.149100  0.327280  1.0  -0.1557
  C  C165  1  0.808020  0.183600  0.294840  1.0  0.6482
  C  C166  1  0.841970  0.078800  0.333230  1.0  -0.0706
  C  C167  1  0.874110  0.045180  0.363640  1.0  0.056
  C  C168  1  0.907820  0.084700  0.388820  1.0  -0.0442
  C  C169  1  0.872280  0.969200  0.369880  1.0  0.0651
  C  C170  1  0.847900  0.928200  0.337240  1.0  -0.0505
  C  C171  1  0.845530  0.857300  0.343380  1.0  -0.138
  C  C172  1  0.868530  0.826500  0.380980  1.0  0.0475
  C  C173  1  0.894590  0.866700  0.412840  1.0  -0.1518
  C  C174  1  0.895530  0.937600  0.407200  1.0  -0.0562
  C  C175  1  0.819100  0.814240  0.308280  1.0  0.7006
  C  C176  1  0.923250  0.833900  0.451680  1.0  0.6742
  C  C177  1  0.919210  0.695700  0.573400  1.0  0.6844
  C  C178  1  0.884400  0.645900  0.596530  1.0  -0.1229
  C  C179  1  0.843480  0.669000  0.621330  1.0  0.0427
  C  C180  1  0.809880  0.622900  0.641040  1.0  -0.1728
  C  C181  1  0.818690  0.552700  0.636550  1.0  -0.0572
  C  C182  1  0.861450  0.528000  0.613370  1.0  0.038
  C  C183  1  0.893780  0.575800  0.593200  1.0  -0.0435
  C  C184  1  0.872610  0.453300  0.609880  1.0  0.0368
  C  C185  1  0.899740  0.427100  0.572420  1.0  -0.0597
  C  C186  1  0.914080  0.358500  0.570640  1.0  -0.1535
  C  C187  1  0.899120  0.314500  0.605800  1.0  0.0355
  C  C188  1  0.869410  0.337900  0.641710  1.0  -0.1524
  C  C189  1  0.856670  0.407300  0.644080  1.0  -0.047
  C  C190  1  0.849040  0.289000  0.677210  1.0  0.7429
  C  C191  1  0.944160  0.333333  0.529900  1.0  0.7158
  C  C192  1  0.765570  0.648700  0.667790  1.0  0.7156
  C  C193  1  0.443990  0.302800  0.586250  1.0  0.7442
  C  C194  1  0.408790  0.344200  0.615860  1.0  -0.1531
  C  C195  1  0.377130  0.312100  0.646810  1.0  0.0473
  C  C196  1  0.343380  0.350900  0.672720  1.0  -0.1572
  C  C197  1  0.308020  0.316400  0.705160  1.0  0.6488
  C  C198  1  0.341970  0.421200  0.666770  1.0  -0.0697
  C  C199  1  0.374110  0.454820  0.636360  1.0  0.0566
  C  C200  1  0.407820  0.415300  0.611180  1.0  -0.0435
  C  C201  1  0.372280  0.530800  0.630120  1.0  0.0652
  C  C202  1  0.347900  0.571800  0.662760  1.0  -0.0507
  C  C203  1  0.345530  0.642700  0.656620  1.0  -0.1376
  C  C204  1  0.368530  0.673500  0.619020  1.0  0.0473
  C  C205  1  0.394590  0.633300  0.587160  1.0  -0.1515
  C  C206  1  0.395530  0.562400  0.592800  1.0  -0.056
  C  C207  1  0.319100  0.685760  0.691720  1.0  0.7008
  C  C208  1  0.423250  0.666100  0.548320  1.0  0.6746
  C  C209  1  0.419210  0.804300  0.426600  1.0  0.6857
  C  C210  1  0.384400  0.854100  0.403470  1.0  -0.1227
  C  C211  1  0.343480  0.831000  0.378670  1.0  0.0437
  C  C212  1  0.309880  0.877100  0.358960  1.0  -0.1728
  C  C213  1  0.318690  0.947300  0.363450  1.0  -0.058
  C  C214  1  0.361450  0.972000  0.386630  1.0  0.0383
  C  C215  1  0.393780  0.924200  0.406800  1.0  -0.0436
  C  C216  1  0.372610  0.046700  0.390120  1.0  0.0362
  C  C217  1  0.399740  0.072900  0.427580  1.0  -0.059
  C  C218  1  0.414080  0.141500  0.429360  1.0  -0.1541
  C  C219  1  0.399120  0.185500  0.394200  1.0  0.0351
  C  C220  1  0.369410  0.162100  0.358290  1.0  -0.1498
  C  C221  1  0.356670  0.092700  0.355920  1.0  -0.0458
  C  C222  1  0.349040  0.211000  0.322790  1.0  0.743
  C  C223  1  0.444160  0.166700  0.470100  1.0  0.7208
  C  C224  1  0.265570  0.851300  0.332210  1.0  0.7151
  C  C225  1  0.056010  0.197200  0.086250  1.0  0.7452
  C  C226  1  0.091210  0.155800  0.115860  1.0  -0.1522
  C  C227  1  0.122870  0.187900  0.146810  1.0  0.0464
  C  C228  1  0.156620  0.149100  0.172720  1.0  -0.1575
  C  C229  1  0.191980  0.183600  0.205160  1.0  0.6468
  C  C230  1  0.158030  0.078800  0.166770  1.0  -0.0705
  C  C231  1  0.125890  0.045180  0.136360  1.0  0.0561
  C  C232  1  0.092180  0.084700  0.111180  1.0  -0.0432
  C  C233  1  0.127720  0.969200  0.130120  1.0  0.0652
  C  C234  1  0.152100  0.928200  0.162760  1.0  -0.0503
  C  C235  1  0.154470  0.857300  0.156620  1.0  -0.1381
  C  C236  1  0.131470  0.826500  0.119020  1.0  0.047
  C  C237  1  0.105410  0.866700  0.087160  1.0  -0.1525
  C  C238  1  0.104470  0.937600  0.092800  1.0  -0.0559
  C  C239  1  0.180900  0.814240  0.191720  1.0  0.7014
  C  C240  1  0.076750  0.833900  0.048320  1.0  0.6742
  C  C241  1  0.080790  0.695700  0.926600  1.0  0.6843
  C  C242  1  0.115600  0.645900  0.903470  1.0  -0.1229
  C  C243  1  0.156520  0.669000  0.878670  1.0  0.0424
  C  C244  1  0.190120  0.622900  0.858960  1.0  -0.1729
  C  C245  1  0.181310  0.552700  0.863450  1.0  -0.0575
  C  C246  1  0.138550  0.528000  0.886630  1.0  0.0385
  C  C247  1  0.106220  0.575800  0.906800  1.0  -0.043
  C  C248  1  0.127390  0.453300  0.890120  1.0  0.037
  C  C249  1  0.100260  0.427100  0.927580  1.0  -0.0598
  C  C250  1  0.085920  0.358500  0.929360  1.0  -0.1541
  C  C251  1  0.100880  0.314500  0.894200  1.0  0.0347
  C  C252  1  0.130590  0.337900  0.858290  1.0  -0.1508
  C  C253  1  0.143330  0.407300  0.855920  1.0  -0.0458
  C  C254  1  0.150960  0.289000  0.822790  1.0  0.7421
  C  C255  1  0.055840  0.333333  0.970100  1.0  0.7163
  C  C256  1  0.234430  0.648700  0.832210  1.0  0.7145
  C  C257  1  0.443990  0.697200  0.086250  1.0  0.7449
  C  C258  1  0.408790  0.655800  0.115860  1.0  -0.1521
  C  C259  1  0.377130  0.687900  0.146810  1.0  0.0465
  C  C260  1  0.343380  0.649100  0.172720  1.0  -0.1568
  C  C261  1  0.308020  0.683600  0.205160  1.0  0.6487
  C  C262  1  0.341970  0.578800  0.166770  1.0  -0.0705
  C  C263  1  0.374110  0.545180  0.136360  1.0  0.0561
  C  C264  1  0.407820  0.584700  0.111180  1.0  -0.0435
  C  C265  1  0.372280  0.469200  0.130120  1.0  0.0653
  C  C266  1  0.347900  0.428200  0.162760  1.0  -0.0507
  C  C267  1  0.345530  0.357300  0.156620  1.0  -0.138
  C  C268  1  0.368530  0.326500  0.119020  1.0  0.0472
  C  C269  1  0.394590  0.366700  0.087160  1.0  -0.1523
  C  C270  1  0.395530  0.437600  0.092800  1.0  -0.0558
  C  C271  1  0.319100  0.314240  0.191720  1.0  0.7009
  C  C272  1  0.423250  0.333900  0.048320  1.0  0.6745
  C  C273  1  0.419210  0.195700  0.926600  1.0  0.6847
  C  C274  1  0.384400  0.145900  0.903470  1.0  -0.123
  C  C275  1  0.343480  0.169000  0.878670  1.0  0.0427
  C  C276  1  0.309880  0.122900  0.858960  1.0  -0.1728
  C  C277  1  0.318690  0.052700  0.863450  1.0  -0.0576
  C  C278  1  0.361450  0.028000  0.886630  1.0  0.0382
  C  C279  1  0.393780  0.075800  0.906800  1.0  -0.0434
  C  C280  1  0.372610  0.953300  0.890120  1.0  0.0367
  C  C281  1  0.399740  0.927100  0.927580  1.0  -0.059
  C  C282  1  0.414080  0.858500  0.929360  1.0  -0.1538
  C  C283  1  0.399120  0.814500  0.894200  1.0  0.0356
  C  C284  1  0.369410  0.837900  0.858290  1.0  -0.1512
  C  C285  1  0.356670  0.907300  0.855920  1.0  -0.0459
  C  C286  1  0.349040  0.789000  0.822790  1.0  0.7431
  C  C287  1  0.444160  0.833300  0.970100  1.0  0.721
  C  C288  1  0.265570  0.148700  0.832210  1.0  0.7152
  C  C289  1  0.056010  0.802800  0.586250  1.0  0.7445
  C  C290  1  0.091210  0.844200  0.615860  1.0  -0.1533
  C  C291  1  0.122870  0.812100  0.646810  1.0  0.0474
  C  C292  1  0.156620  0.850900  0.672720  1.0  -0.1575
  C  C293  1  0.191980  0.816400  0.705160  1.0  0.6469
  C  C294  1  0.158030  0.921200  0.666770  1.0  -0.0699
  C  C295  1  0.125890  0.954820  0.636360  1.0  0.0566
  C  C296  1  0.092180  0.915300  0.611180  1.0  -0.043
  C  C297  1  0.127720  0.030800  0.630120  1.0  0.0651
  C  C298  1  0.152100  0.071800  0.662760  1.0  -0.0502
  C  C299  1  0.154470  0.142700  0.656620  1.0  -0.1381
  C  C300  1  0.131470  0.173500  0.619020  1.0  0.0472
  C  C301  1  0.105410  0.133300  0.587160  1.0  -0.1514
  C  C302  1  0.104470  0.062400  0.592800  1.0  -0.0561
  C  C303  1  0.180900  0.185760  0.691720  1.0  0.7014
  C  C304  1  0.076750  0.166100  0.548320  1.0  0.6742
  C  C305  1  0.080790  0.304300  0.426600  1.0  0.6855
  C  C306  1  0.115600  0.354100  0.403470  1.0  -0.1229
  C  C307  1  0.156520  0.331000  0.378670  1.0  0.0434
  C  C308  1  0.190120  0.377100  0.358960  1.0  -0.1729
  C  C309  1  0.181310  0.447300  0.363450  1.0  -0.0577
  C  C310  1  0.138550  0.472000  0.386630  1.0  0.0386
  C  C311  1  0.106220  0.424200  0.406800  1.0  -0.0432
  C  C312  1  0.127390  0.546700  0.390120  1.0  0.0366
  C  C313  1  0.100260  0.572900  0.427580  1.0  -0.0597
  C  C314  1  0.085920  0.641500  0.429360  1.0  -0.1541
  C  C315  1  0.100880  0.685500  0.394200  1.0  0.0342
  C  C316  1  0.130590  0.662100  0.358290  1.0  -0.1495
  C  C317  1  0.143330  0.592700  0.355920  1.0  -0.0456
  C  C318  1  0.150960  0.711000  0.322790  1.0  0.7425
  C  C319  1  0.055840  0.666667  0.470100  1.0  0.7162
  C  C320  1  0.234430  0.351300  0.332210  1.0  0.7142
  C  C321  1  0.556010  0.697200  0.413750  1.0  0.7449
  C  C322  1  0.591210  0.655800  0.384140  1.0  -0.1521
  C  C323  1  0.622870  0.687900  0.353190  1.0  0.0457
  C  C324  1  0.656620  0.649100  0.327280  1.0  -0.156
  C  C325  1  0.691980  0.683600  0.294840  1.0  0.6462
  C  C326  1  0.658030  0.578800  0.333230  1.0  -0.0704
  C  C327  1  0.625890  0.545180  0.363640  1.0  0.056
  C  C328  1  0.592180  0.584700  0.388820  1.0  -0.0438
  C  C329  1  0.627720  0.469200  0.369880  1.0  0.0651
  C  C330  1  0.652100  0.428200  0.337240  1.0  -0.0504
  C  C331  1  0.654470  0.357300  0.343380  1.0  -0.138
  C  C332  1  0.631470  0.326500  0.380980  1.0  0.0473
  C  C333  1  0.605410  0.366700  0.412840  1.0  -0.1517
  C  C334  1  0.604470  0.437600  0.407200  1.0  -0.0567
  C  C335  1  0.680900  0.314240  0.308280  1.0  0.7012
  C  C336  1  0.576750  0.333900  0.451680  1.0  0.6736
  C  C337  1  0.580790  0.195700  0.573400  1.0  0.6841
  C  C338  1  0.615600  0.145900  0.596530  1.0  -0.1228
  C  C339  1  0.656520  0.169000  0.621330  1.0  0.0423
  C  C340  1  0.690120  0.122900  0.641040  1.0  -0.1732
  C  C341  1  0.681310  0.052700  0.636550  1.0  -0.0572
  C  C342  1  0.638550  0.028000  0.613370  1.0  0.0383
  C  C343  1  0.606220  0.075800  0.593200  1.0  -0.0425
  C  C344  1  0.627390  0.953300  0.609880  1.0  0.0368
  C  C345  1  0.600260  0.927100  0.572420  1.0  -0.06
  C  C346  1  0.585920  0.858500  0.570640  1.0  -0.1535
  C  C347  1  0.600880  0.814500  0.605800  1.0  0.0346
  C  C348  1  0.630590  0.837900  0.641710  1.0  -0.1521
  C  C349  1  0.643330  0.907300  0.644080  1.0  -0.0463
  C  C350  1  0.650960  0.789000  0.677210  1.0  0.7419
  C  C351  1  0.555840  0.833300  0.529900  1.0  0.7206
  C  C352  1  0.734430  0.148700  0.667790  1.0  0.7148
  C  C353  1  0.943990  0.802800  0.913750  1.0  0.7444
  C  C354  1  0.908790  0.844200  0.884140  1.0  -0.1532
  C  C355  1  0.877130  0.812100  0.853190  1.0  0.0469
  C  C356  1  0.843380  0.850900  0.827280  1.0  -0.1567
  C  C357  1  0.808020  0.816400  0.794840  1.0  0.6483
  C  C358  1  0.841970  0.921200  0.833230  1.0  -0.0703
  C  C359  1  0.874110  0.954820  0.863640  1.0  0.0564
  C  C360  1  0.907820  0.915300  0.888820  1.0  -0.0439
  C  C361  1  0.872280  0.030800  0.869880  1.0  0.065
  C  C362  1  0.847900  0.071800  0.837240  1.0  -0.0503
  C  C363  1  0.845530  0.142700  0.843380  1.0  -0.1374
  C  C364  1  0.868530  0.173500  0.880980  1.0  0.0479
  C  C365  1  0.894590  0.133300  0.912840  1.0  -0.1515
  C  C366  1  0.895530  0.062400  0.907200  1.0  -0.0564
  C  C367  1  0.819100  0.185760  0.808280  1.0  0.7005
  C  C368  1  0.923250  0.166100  0.951680  1.0  0.6738
  C  C369  1  0.919210  0.304300  0.073400  1.0  0.6853
  C  C370  1  0.884400  0.354100  0.096530  1.0  -0.1225
  C  C371  1  0.843480  0.331000  0.121330  1.0  0.0435
  C  C372  1  0.809880  0.377100  0.141040  1.0  -0.1726
  C  C373  1  0.818690  0.447300  0.136550  1.0  -0.0578
  C  C374  1  0.861450  0.472000  0.113370  1.0  0.0381
  C  C375  1  0.893780  0.424200  0.093200  1.0  -0.0436
  C  C376  1  0.872610  0.546700  0.109880  1.0  0.0364
  C  C377  1  0.899740  0.572900  0.072420  1.0  -0.0596
  C  C378  1  0.914080  0.641500  0.070640  1.0  -0.153
  C  C379  1  0.899120  0.685500  0.105800  1.0  0.0349
  C  C380  1  0.869410  0.662100  0.141710  1.0  -0.152
  C  C381  1  0.856670  0.592700  0.144080  1.0  -0.047
  C  C382  1  0.849040  0.711000  0.177210  1.0  0.7418
  C  C383  1  0.944160  0.666667  0.029900  1.0  0.7162
  C  C384  1  0.765570  0.351300  0.167790  1.0  0.7155
  O  O385  1  0.722580  0.352590  0.771780  1.0  -0.5864
  O  O386  1  0.691890  0.252490  0.791710  1.0  -0.5409
  O  O387  1  0.559380  0.239640  0.911610  1.0  -0.6802
  O  O388  1  0.525920  0.335460  0.939330  1.0  -0.5658
  O  O389  1  0.695480  0.657250  0.770330  1.0  -0.665
  O  O390  1  0.688830  0.747300  0.816420  1.0  -0.5678
  O  O391  1  0.580730  0.729610  0.957520  1.0  -0.5806
  O  O392  1  0.548910  0.629780  0.976490  1.0  -0.5837
  O  O393  1  0.542070  0.828060  0.053320  1.0  -0.6118
  O  O394  1  0.591000  0.742030  0.072490  1.0  -0.5822
  O  O395  1  0.550210  0.125240  0.997130  1.0  -0.7016
  O  O396  1  0.538240  0.226090  0.032400  1.0  -0.566
  O  O397  1  0.638040  0.272520  0.174580  1.0  -0.7014
  O  O398  1  0.679490  0.185490  0.207220  1.0  -0.6025
  O  O399  1  0.731060  0.791040  0.183060  1.0  -0.6158
  O  O400  1  0.770770  0.891220  0.173040  1.0  -0.6307
  O  O401  1  0.777420  0.147410  0.271780  1.0  -0.5861
  O  O402  1  0.808110  0.247510  0.291710  1.0  -0.5424
  O  O403  1  0.940620  0.260360  0.411610  1.0  -0.6819
  O  O404  1  0.974080  0.164540  0.439330  1.0  -0.5642
  O  O405  1  0.804520  0.842750  0.270330  1.0  -0.664
  O  O406  1  0.811170  0.752700  0.316420  1.0  -0.5658
  O  O407  1  0.919270  0.770390  0.457520  1.0  -0.5788
  O  O408  1  0.951090  0.870220  0.476490  1.0  -0.5846
  O  O409  1  0.957930  0.671940  0.553320  1.0  -0.6131
  O  O410  1  0.909000  0.757970  0.572490  1.0  -0.5825
  O  O411  1  0.949790  0.374760  0.497130  1.0  -0.7029
  O  O412  1  0.961760  0.273910  0.532400  1.0  -0.5672
  O  O413  1  0.861960  0.227480  0.674580  1.0  -0.7022
  O  O414  1  0.820510  0.314510  0.707220  1.0  -0.6025
  O  O415  1  0.768940  0.708960  0.683060  1.0  -0.6126
  O  O416  1  0.729230  0.608780  0.673040  1.0  -0.6305
  O  O417  1  0.277420  0.352590  0.728220  1.0  -0.5868
  O  O418  1  0.308110  0.252490  0.708290  1.0  -0.54
  O  O419  1  0.440620  0.239640  0.588390  1.0  -0.6809
  O  O420  1  0.474080  0.335460  0.560670  1.0  -0.5659
  O  O421  1  0.304520  0.657250  0.729670  1.0  -0.6644
  O  O422  1  0.311170  0.747300  0.683580  1.0  -0.5683
  O  O423  1  0.419270  0.729610  0.542480  1.0  -0.5809
  O  O424  1  0.451090  0.629780  0.523510  1.0  -0.586
  O  O425  1  0.457930  0.828060  0.446680  1.0  -0.6132
  O  O426  1  0.409000  0.742030  0.427510  1.0  -0.5824
  O  O427  1  0.449790  0.125240  0.502870  1.0  -0.7018
  O  O428  1  0.461760  0.226090  0.467600  1.0  -0.5661
  O  O429  1  0.361960  0.272520  0.325420  1.0  -0.7021
  O  O430  1  0.320510  0.185490  0.292780  1.0  -0.6034
  O  O431  1  0.268940  0.791040  0.316940  1.0  -0.6156
  O  O432  1  0.229230  0.891220  0.326960  1.0  -0.6308
  O  O433  1  0.222580  0.147410  0.228220  1.0  -0.5854
  O  O434  1  0.191890  0.247510  0.208290  1.0  -0.5433
  O  O435  1  0.059380  0.260360  0.088390  1.0  -0.6819
  O  O436  1  0.025920  0.164540  0.060670  1.0  -0.5663
  O  O437  1  0.195480  0.842750  0.229670  1.0  -0.6653
  O  O438  1  0.188830  0.752700  0.183580  1.0  -0.5634
  O  O439  1  0.080730  0.770390  0.042480  1.0  -0.5775
  O  O440  1  0.048910  0.870220  0.023510  1.0  -0.5866
  O  O441  1  0.042070  0.671940  0.946680  1.0  -0.6124
  O  O442  1  0.091000  0.757970  0.927510  1.0  -0.5824
  O  O443  1  0.050210  0.374760  0.002870  1.0  -0.702
  O  O444  1  0.038240  0.273910  0.967600  1.0  -0.5673
  O  O445  1  0.138040  0.227480  0.825420  1.0  -0.7011
  O  O446  1  0.179490  0.314510  0.792780  1.0  -0.6026
  O  O447  1  0.231060  0.708960  0.816940  1.0  -0.6128
  O  O448  1  0.270770  0.608780  0.826960  1.0  -0.6306
  O  O449  1  0.277420  0.647410  0.228220  1.0  -0.5843
  O  O450  1  0.308110  0.747510  0.208290  1.0  -0.5425
  O  O451  1  0.440620  0.760360  0.088390  1.0  -0.682
  O  O452  1  0.474080  0.664540  0.060670  1.0  -0.5657
  O  O453  1  0.304520  0.342750  0.229670  1.0  -0.6662
  O  O454  1  0.311170  0.252700  0.183580  1.0  -0.566
  O  O455  1  0.419270  0.270390  0.042480  1.0  -0.5782
  O  O456  1  0.451090  0.370220  0.023510  1.0  -0.587
  O  O457  1  0.457930  0.171940  0.946680  1.0  -0.6132
  O  O458  1  0.409000  0.257970  0.927510  1.0  -0.5821
  O  O459  1  0.449790  0.874760  0.002870  1.0  -0.7023
  O  O460  1  0.461760  0.773910  0.967600  1.0  -0.567
  O  O461  1  0.361960  0.727480  0.825420  1.0  -0.7021
  O  O462  1  0.320510  0.814510  0.792780  1.0  -0.6032
  O  O463  1  0.268940  0.208960  0.816940  1.0  -0.6124
  O  O464  1  0.229230  0.108780  0.826960  1.0  -0.6305
  O  O465  1  0.222580  0.852590  0.728220  1.0  -0.5847
  O  O466  1  0.191890  0.752490  0.708290  1.0  -0.5422
  O  O467  1  0.059380  0.739640  0.588390  1.0  -0.6803
  O  O468  1  0.025920  0.835460  0.560670  1.0  -0.567
  O  O469  1  0.195480  0.157250  0.729670  1.0  -0.6637
  O  O470  1  0.188830  0.247300  0.683580  1.0  -0.5685
  O  O471  1  0.080730  0.229610  0.542480  1.0  -0.58
  O  O472  1  0.048910  0.129780  0.523510  1.0  -0.5852
  O  O473  1  0.042070  0.328060  0.446680  1.0  -0.6124
  O  O474  1  0.091000  0.242030  0.427510  1.0  -0.5825
  O  O475  1  0.050210  0.625240  0.502870  1.0  -0.7023
  O  O476  1  0.038240  0.726090  0.467600  1.0  -0.5665
  O  O477  1  0.138040  0.772520  0.325420  1.0  -0.7013
  O  O478  1  0.179490  0.685490  0.292780  1.0  -0.6035
  O  O479  1  0.231060  0.291040  0.316940  1.0  -0.6159
  O  O480  1  0.270770  0.391220  0.326960  1.0  -0.6306
  O  O481  1  0.722580  0.647410  0.271780  1.0  -0.5847
  O  O482  1  0.691890  0.747510  0.291710  1.0  -0.5434
  O  O483  1  0.559380  0.760360  0.411610  1.0  -0.6815
  O  O484  1  0.525920  0.664540  0.439330  1.0  -0.5654
  O  O485  1  0.695480  0.342750  0.270330  1.0  -0.665
  O  O486  1  0.688830  0.252700  0.316420  1.0  -0.5652
  O  O487  1  0.580730  0.270390  0.457520  1.0  -0.5783
  O  O488  1  0.548910  0.370220  0.476490  1.0  -0.5839
  O  O489  1  0.542070  0.171940  0.553320  1.0  -0.6121
  O  O490  1  0.591000  0.257970  0.572490  1.0  -0.5827
  O  O491  1  0.550210  0.874760  0.497130  1.0  -0.7025
  O  O492  1  0.538240  0.773910  0.532400  1.0  -0.5664
  O  O493  1  0.638040  0.727480  0.674580  1.0  -0.701
  O  O494  1  0.679490  0.814510  0.707220  1.0  -0.6023
  O  O495  1  0.731060  0.208960  0.683060  1.0  -0.6127
  O  O496  1  0.770770  0.108780  0.673040  1.0  -0.6315
  O  O497  1  0.777420  0.852590  0.771780  1.0  -0.5855
  O  O498  1  0.808110  0.752490  0.791710  1.0  -0.5417
  O  O499  1  0.940620  0.739640  0.911610  1.0  -0.6804
  O  O500  1  0.974080  0.835460  0.939330  1.0  -0.5654
  O  O501  1  0.804520  0.157250  0.770330  1.0  -0.6638
  O  O502  1  0.811170  0.247300  0.816420  1.0  -0.5695
  O  O503  1  0.919270  0.229610  0.957520  1.0  -0.5814
  O  O504  1  0.951090  0.129780  0.976490  1.0  -0.5844
  O  O505  1  0.957930  0.328060  0.053320  1.0  -0.6127
  O  O506  1  0.909000  0.242030  0.072490  1.0  -0.5821
  O  O507  1  0.949790  0.625240  0.997130  1.0  -0.7016
  O  O508  1  0.961760  0.726090  0.032400  1.0  -0.5669
  O  O509  1  0.861960  0.772520  0.174580  1.0  -0.7026
  O  O510  1  0.820510  0.685490  0.207220  1.0  -0.6029
  O  O511  1  0.768940  0.291040  0.183060  1.0  -0.6154
  O  O512  1  0.729230  0.391220  0.173040  1.0  -0.631
