# generated using pymatgen
data_CdH13C21S2(NO2)3
_symmetry_space_group_name_H-M   'P 1'
_cell_length_a   12.80970000
_cell_length_b   8.17850000
_cell_length_c   23.33870000
_cell_angle_alpha   90.00000000
_cell_angle_beta   104.41400000
_cell_angle_gamma   90.00000000
_symmetry_Int_Tables_number   1
_chemical_formula_structural   CdH13C21S2(NO2)3
_chemical_formula_sum   'Cd4 H52 C84 S8 N12 O24'
_cell_volume   2368.09397340
_cell_formula_units_Z   4
loop_
 _symmetry_equiv_pos_site_id
 _symmetry_equiv_pos_as_xyz
  1  'x, y, z'
loop_
 _atom_site_type_symbol
 _atom_site_label
 _atom_site_symmetry_multiplicity
 _atom_site_fract_x
 _atom_site_fract_y
 _atom_site_fract_z
 _atom_site_occupancy
 _atom_site_charge
  Cd  Cd1  1  0.310750  0.770390  0.403660  1.0  0.9159
  Cd  Cd2  1  0.189250  0.270390  0.096340  1.0  0.912
  Cd  Cd3  1  0.689250  0.229610  0.596340  1.0  0.9127
  Cd  Cd4  1  0.810750  0.729610  0.903660  1.0  0.9141
  H  H5  1  0.700100  0.153200  0.467400  1.0  0.0824
  H  H6  1  0.104500  0.826700  0.240700  1.0  0.1041
  H  H7  1  0.689100  0.935800  0.239100  1.0  0.1044
  H  H8  1  0.275700  0.734800  0.266900  1.0  0.0849
  H  H9  1  0.895000  0.074900  0.114100  1.0  0.1233
  H  H10  1  0.828800  0.522000  0.563400  1.0  0.0804
  H  H11  1  0.905600  0.614200  0.490400  1.0  0.1301
  H  H12  1  0.910400  0.203000  0.352400  1.0  0.1246
  H  H13  1  0.882300  0.465600  0.403700  1.0  0.1185
  H  H14  1  0.793100  0.131500  0.180500  1.0  0.1075
  H  H15  1  0.341700  0.802200  0.188200  1.0  0.1216
  H  H16  1  0.503300  0.943200  0.203100  1.0  0.1296
  H  H17  1  0.510700  0.961600  0.375100  1.0  0.0801
  H  H18  1  0.799900  0.653200  0.032600  1.0  0.0815
  H  H19  1  0.395500  0.326700  0.259300  1.0  0.1042
  H  H20  1  0.810900  0.435800  0.260900  1.0  0.1039
  H  H21  1  0.224300  0.234800  0.233100  1.0  0.085
  H  H22  1  0.605000  0.574900  0.385900  1.0  0.1234
  H  H23  1  0.671200  0.022000  0.936600  1.0  0.0806
  H  H24  1  0.594400  0.114200  0.009600  1.0  0.1298
  H  H25  1  0.589600  0.703000  0.147600  1.0  0.1251
  H  H26  1  0.617700  0.965600  0.096300  1.0  0.1185
  H  H27  1  0.706900  0.631500  0.319500  1.0  0.1072
  H  H28  1  0.158300  0.302200  0.311800  1.0  0.1218
  H  H29  1  0.996700  0.443200  0.296900  1.0  0.1288
  H  H30  1  0.989300  0.461600  0.124900  1.0  0.0802
  H  H31  1  0.299900  0.846800  0.532600  1.0  0.0805
  H  H32  1  0.895500  0.173300  0.759300  1.0  0.1042
  H  H33  1  0.310900  0.064200  0.760900  1.0  0.1036
  H  H34  1  0.724300  0.265200  0.733100  1.0  0.085
  H  H35  1  0.105000  0.925100  0.885900  1.0  0.1232
  H  H36  1  0.171200  0.478000  0.436600  1.0  0.0806
  H  H37  1  0.094400  0.385800  0.509600  1.0  0.1298
  H  H38  1  0.089600  0.797000  0.647600  1.0  0.1254
  H  H39  1  0.117700  0.534400  0.596300  1.0  0.1184
  H  H40  1  0.206900  0.868500  0.819500  1.0  0.1077
  H  H41  1  0.658300  0.197800  0.811800  1.0  0.1216
  H  H42  1  0.496700  0.056800  0.796900  1.0  0.1286
  H  H43  1  0.489300  0.038400  0.624900  1.0  0.0802
  H  H44  1  0.200100  0.346800  0.967400  1.0  0.0813
  H  H45  1  0.604500  0.673300  0.740700  1.0  0.1039
  H  H46  1  0.189100  0.564200  0.739100  1.0  0.1044
  H  H47  1  0.775700  0.765200  0.766900  1.0  0.0847
  H  H48  1  0.395000  0.425100  0.614100  1.0  0.1232
  H  H49  1  0.328800  0.978000  0.063400  1.0  0.0804
  H  H50  1  0.405600  0.885800  0.990400  1.0  0.1302
  H  H51  1  0.410400  0.297000  0.852400  1.0  0.1245
  H  H52  1  0.382300  0.034400  0.903700  1.0  0.1183
  H  H53  1  0.293100  0.368500  0.680500  1.0  0.1077
  H  H54  1  0.841700  0.697800  0.688200  1.0  0.1216
  H  H55  1  0.003300  0.556800  0.703100  1.0  0.1297
  H  H56  1  0.010700  0.538400  0.875100  1.0  0.0803
  C  C57  1  0.742700  0.246600  0.472000  1.0  0.192
  C  C58  1  0.042100  0.888900  0.228840  1.0  -0.0036
  C  C59  1  0.787800  0.291000  0.426120  1.0  0.0035
  C  C60  1  0.008900  0.943500  0.170510  1.0  -0.2504
  C  C61  1  0.637600  0.033300  0.306700  1.0  0.173
  C  C62  1  0.814700  0.059200  0.289810  1.0  0.0652
  C  C63  1  0.710500  0.999300  0.273100  1.0  -0.1637
  C  C64  1  0.983200  0.926600  0.268930  1.0  -0.1606
  C  C65  1  0.338400  0.796700  0.273300  1.0  0.1792
  C  C66  1  0.527600  0.961400  0.292490  1.0  -0.0108
  C  C67  1  0.764200  0.189000  0.371220  1.0  0.1928
  C  C68  1  0.916600  0.036300  0.152740  1.0  -0.0371
  C  C69  1  0.817600  0.463400  0.528200  1.0  0.17
  C  C70  1  0.864700  0.518800  0.484900  1.0  -0.112
  C  C71  1  0.841700  0.158200  0.339970  1.0  -0.0796
  C  C72  1  0.888600  0.019200  0.251740  1.0  0.0319
  C  C73  1  0.850400  0.431300  0.433400  1.0  -0.0485
  C  C74  1  0.856500  0.071600  0.192930  1.0  -0.1377
  C  C75  1  0.378800  0.833500  0.226100  1.0  -0.1504
  C  C76  1  0.474500  0.917000  0.234800  1.0  -0.0574
  C  C77  1  0.477700  0.926600  0.337000  1.0  0.2011
  C  C78  1  0.757300  0.746600  0.028000  1.0  0.1902
  C  C79  1  0.457900  0.388900  0.271160  1.0  -0.0041
  C  C80  1  0.712200  0.791000  0.073880  1.0  0.003
  C  C81  1  0.491100  0.443500  0.329490  1.0  -0.2513
  C  C82  1  0.862400  0.533300  0.193300  1.0  0.1738
  C  C83  1  0.685300  0.559200  0.210190  1.0  0.0648
  C  C84  1  0.789500  0.499300  0.226900  1.0  -0.1624
  C  C85  1  0.516800  0.426600  0.231070  1.0  -0.1586
  C  C86  1  0.161600  0.296700  0.226700  1.0  0.179
  C  C87  1  0.972400  0.461400  0.207510  1.0  -0.0112
  C  C88  1  0.735800  0.689000  0.128780  1.0  0.1918
  C  C89  1  0.583400  0.536300  0.347260  1.0  -0.0364
  C  C90  1  0.682400  0.963400  0.971800  1.0  0.1693
  C  C91  1  0.635300  0.018800  0.015100  1.0  -0.1126
  C  C92  1  0.658300  0.658200  0.160030  1.0  -0.0778
  C  C93  1  0.611400  0.519200  0.248260  1.0  0.0305
  C  C94  1  0.649600  0.931300  0.066600  1.0  -0.0468
  C  C95  1  0.643500  0.571600  0.307070  1.0  -0.1377
  C  C96  1  0.121200  0.333500  0.273900  1.0  -0.1509
  C  C97  1  0.025500  0.417000  0.265200  1.0  -0.0604
  C  C98  1  0.022300  0.426600  0.163000  1.0  0.2008
  C  C99  1  0.257300  0.753400  0.528000  1.0  0.1914
  C  C100  1  0.957900  0.111100  0.771160  1.0  -0.0037
  C  C101  1  0.212200  0.709000  0.573880  1.0  0.0037
  C  C102  1  0.991100  0.056500  0.829490  1.0  -0.2523
  C  C103  1  0.362400  0.966700  0.693300  1.0  0.174
  C  C104  1  0.185300  0.940800  0.710190  1.0  0.0647
  C  C105  1  0.289500  0.000700  0.726900  1.0  -0.1625
  C  C106  1  0.016800  0.073400  0.731070  1.0  -0.1584
  C  C107  1  0.661600  0.203300  0.726700  1.0  0.1792
  C  C108  1  0.472400  0.038600  0.707510  1.0  -0.0115
  C  C109  1  0.235800  0.811000  0.628780  1.0  0.1923
  C  C110  1  0.083400  0.963700  0.847260  1.0  -0.036
  C  C111  1  0.182400  0.536600  0.471800  1.0  0.1694
  C  C112  1  0.135300  0.481200  0.515100  1.0  -0.1142
  C  C113  1  0.158300  0.841800  0.660030  1.0  -0.0779
  C  C114  1  0.111400  0.980800  0.748260  1.0  0.0304
  C  C115  1  0.149600  0.568700  0.566600  1.0  -0.0469
  C  C116  1  0.143500  0.928400  0.807070  1.0  -0.1383
  C  C117  1  0.621200  0.166500  0.773900  1.0  -0.151
  C  C118  1  0.525500  0.083000  0.765200  1.0  -0.06
  C  C119  1  0.522300  0.073400  0.663000  1.0  0.201
  C  C120  1  0.242700  0.253400  0.972000  1.0  0.1904
  C  C121  1  0.542100  0.611100  0.728840  1.0  -0.0034
  C  C122  1  0.287800  0.209000  0.926120  1.0  0.0041
  C  C123  1  0.508900  0.556500  0.670510  1.0  -0.2501
  C  C124  1  0.137600  0.466700  0.806700  1.0  0.1734
  C  C125  1  0.314700  0.440800  0.789810  1.0  0.065
  C  C126  1  0.210500  0.500700  0.773100  1.0  -0.1635
  C  C127  1  0.483200  0.573400  0.768930  1.0  -0.1608
  C  C128  1  0.838400  0.703300  0.773300  1.0  0.1794
  C  C129  1  0.027600  0.538600  0.792490  1.0  -0.0102
  C  C130  1  0.264200  0.311000  0.871220  1.0  0.193
  C  C131  1  0.416600  0.463700  0.652740  1.0  -0.0364
  C  C132  1  0.317600  0.036600  0.028200  1.0  0.1703
  C  C133  1  0.364700  0.981200  0.984900  1.0  -0.1145
  C  C134  1  0.341700  0.341800  0.839970  1.0  -0.0796
  C  C135  1  0.388600  0.480800  0.751740  1.0  0.0319
  C  C136  1  0.350400  0.068700  0.933400  1.0  -0.0485
  C  C137  1  0.356500  0.428400  0.692930  1.0  -0.1383
  C  C138  1  0.878800  0.666500  0.726100  1.0  -0.1504
  C  C139  1  0.974500  0.583000  0.734800  1.0  -0.0571
  C  C140  1  0.977700  0.573400  0.837000  1.0  0.2013
  S  S141  1  0.030520  0.843960  0.342160  1.0  1.3505
  S  S142  1  0.086510  0.893860  0.119790  1.0  1.387
  S  S143  1  0.469480  0.343960  0.157840  1.0  1.351
  S  S144  1  0.413490  0.393860  0.380210  1.0  1.3865
  S  S145  1  0.969480  0.156040  0.657840  1.0  1.351
  S  S146  1  0.913490  0.106140  0.880210  1.0  1.386
  S  S147  1  0.530520  0.656040  0.842160  1.0  1.351
  S  S148  1  0.586510  0.606140  0.619790  1.0  1.3872
  N  N149  1  0.384900  0.845700  0.328520  1.0  -0.3433
  N  N150  1  0.756900  0.329500  0.521990  1.0  -0.3127
  N  N151  1  0.664500  0.125700  0.356150  1.0  -0.4705
  N  N152  1  0.115100  0.345700  0.171480  1.0  -0.341
  N  N153  1  0.743100  0.829500  0.978010  1.0  -0.3155
  N  N154  1  0.835500  0.625700  0.143850  1.0  -0.4671
  N  N155  1  0.615100  0.154300  0.671480  1.0  -0.3397
  N  N156  1  0.243100  0.670500  0.478010  1.0  -0.3145
  N  N157  1  0.335500  0.874300  0.643850  1.0  -0.4675
  N  N158  1  0.884900  0.654300  0.828520  1.0  -0.3442
  N  N159  1  0.256900  0.170500  0.021990  1.0  -0.3134
  N  N160  1  0.164500  0.374300  0.856150  1.0  -0.4707
  O  O161  1  0.130600  0.758100  0.341010  1.0  -0.7297
  O  O162  1  0.175200  0.010600  0.130400  1.0  -0.7107
  O  O163  1  0.946800  0.737400  0.351550  1.0  -0.6362
  O  O164  1  0.051400  0.983500  0.382220  1.0  -0.6375
  O  O165  1  0.127600  0.729500  0.135000  1.0  -0.6253
  O  O166  1  0.016000  0.909300  0.062190  1.0  -0.5684
  O  O167  1  0.369400  0.258100  0.158990  1.0  -0.7304
  O  O168  1  0.324800  0.510600  0.369600  1.0  -0.7115
  O  O169  1  0.553200  0.237400  0.148450  1.0  -0.6402
  O  O170  1  0.448600  0.483500  0.117780  1.0  -0.638
  O  O171  1  0.372400  0.229500  0.365000  1.0  -0.6255
  O  O172  1  0.484000  0.409300  0.437810  1.0  -0.5685
  O  O173  1  0.869400  0.241900  0.658990  1.0  -0.7303
  O  O174  1  0.824800  0.989400  0.869600  1.0  -0.7115
  O  O175  1  0.053200  0.262600  0.648450  1.0  -0.6391
  O  O176  1  0.948600  0.016500  0.617780  1.0  -0.6378
  O  O177  1  0.872400  0.270500  0.865000  1.0  -0.6272
  O  O178  1  0.984000  0.090700  0.937810  1.0  -0.5683
  O  O179  1  0.630600  0.741900  0.841010  1.0  -0.7295
  O  O180  1  0.675200  0.489400  0.630400  1.0  -0.7112
  O  O181  1  0.446800  0.762600  0.851550  1.0  -0.6355
  O  O182  1  0.551400  0.516500  0.882220  1.0  -0.6368
  O  O183  1  0.627600  0.770500  0.635000  1.0  -0.6271
  O  O184  1  0.516000  0.590700  0.562190  1.0  -0.5681
