# generated using pymatgen
data_Zn2H10C9(N8O)2
_symmetry_space_group_name_H-M   'P 1'
_cell_length_a   20.07100000
_cell_length_b   9.69800000
_cell_length_c   10.98600000
_cell_angle_alpha   90.00000000
_cell_angle_beta   90.00000000
_cell_angle_gamma   90.00000000
_symmetry_Int_Tables_number   1
_chemical_formula_structural   Zn2H10C9(N8O)2
_chemical_formula_sum   'Zn8 H40 C36 N64 O8'
_cell_volume   2138.40905819
_cell_formula_units_Z   4
loop_
 _symmetry_equiv_pos_site_id
 _symmetry_equiv_pos_as_xyz
  1  'x, y, z'
loop_
 _atom_site_type_symbol
 _atom_site_label
 _atom_site_symmetry_multiplicity
 _atom_site_fract_x
 _atom_site_fract_y
 _atom_site_fract_z
 _atom_site_occupancy
 _atom_site_charge
  Zn  Zn1  1  0.647440  0.867790  0.507030  1.0  0.8816
  Zn  Zn2  1  0.147440  0.367790  0.507030  1.0  0.8816
  Zn  Zn3  1  0.352560  0.132210  0.007030  1.0  0.8825
  Zn  Zn4  1  0.852560  0.632210  0.007030  1.0  0.8825
  Zn  Zn5  1  0.647440  0.132210  0.007030  1.0  0.8829
  Zn  Zn6  1  0.147440  0.632210  0.007030  1.0  0.8829
  Zn  Zn7  1  0.352560  0.867790  0.507030  1.0  0.8825
  Zn  Zn8  1  0.852560  0.367790  0.507030  1.0  0.8825
  H  H9  1  0.747300  0.172500  0.272000  1.0  0.1635
  H  H10  1  0.730100  0.300600  0.352800  1.0  0.1484
  H  H11  1  0.627800  0.179400  0.406500  1.0  0.1662
  H  H12  1  0.630800  0.244400  0.276300  1.0  0.1487
  H  H13  1  0.247300  0.672500  0.272000  1.0  0.1635
  H  H14  1  0.230100  0.800600  0.352800  1.0  0.1484
  H  H15  1  0.127800  0.679400  0.406500  1.0  0.1662
  H  H16  1  0.130800  0.744400  0.276300  1.0  0.1487
  H  H17  1  0.252700  0.827500  0.772000  1.0  0.1635
  H  H18  1  0.269900  0.699400  0.852800  1.0  0.1488
  H  H19  1  0.372200  0.820600  0.906500  1.0  0.1654
  H  H20  1  0.369200  0.755600  0.776300  1.0  0.1486
  H  H21  1  0.752700  0.327500  0.772000  1.0  0.1635
  H  H22  1  0.769900  0.199400  0.852800  1.0  0.1488
  H  H23  1  0.872200  0.320600  0.906500  1.0  0.1654
  H  H24  1  0.869200  0.255600  0.776300  1.0  0.1486
  H  H25  1  0.747300  0.827500  0.772000  1.0  0.1635
  H  H26  1  0.730100  0.699400  0.852800  1.0  0.1487
  H  H27  1  0.627800  0.820600  0.906500  1.0  0.1668
  H  H28  1  0.630800  0.755600  0.776300  1.0  0.1486
  H  H29  1  0.247300  0.327500  0.772000  1.0  0.1635
  H  H30  1  0.230100  0.199400  0.852800  1.0  0.1487
  H  H31  1  0.127800  0.320600  0.906500  1.0  0.1668
  H  H32  1  0.130800  0.255600  0.776300  1.0  0.1486
  H  H33  1  0.252700  0.172500  0.272000  1.0  0.1634
  H  H34  1  0.269900  0.300600  0.352800  1.0  0.1481
  H  H35  1  0.372200  0.179400  0.406500  1.0  0.1659
  H  H36  1  0.369200  0.244400  0.276300  1.0  0.1483
  H  H37  1  0.752700  0.672500  0.272000  1.0  0.1634
  H  H38  1  0.769900  0.800600  0.352800  1.0  0.1481
  H  H39  1  0.872200  0.679400  0.406500  1.0  0.1659
  H  H40  1  0.869200  0.744400  0.276300  1.0  0.1483
  H  H41  1  0.500000  0.873900  0.607300  1.0  0.1666
  H  H42  1  0.500000  0.881200  0.466200  1.0  0.1643
  H  H43  1  0.000000  0.373900  0.607300  1.0  0.1666
  H  H44  1  0.000000  0.381200  0.466200  1.0  0.1643
  H  H45  1  0.500000  0.126100  0.107300  1.0  0.1667
  H  H46  1  0.500000  0.118800  0.966200  1.0  0.1643
  H  H47  1  0.000000  0.626100  0.107300  1.0  0.1667
  H  H48  1  0.000000  0.618800  0.966200  1.0  0.1643
  C  C49  1  0.754470  0.132700  0.451800  1.0  0.4175
  C  C50  1  0.723850  0.201800  0.344800  1.0  -0.2873
  C  C51  1  0.649470  0.173000  0.327800  1.0  -0.2701
  C  C52  1  0.633180  0.035400  0.273100  1.0  0.3932
  C  C53  1  0.254470  0.632700  0.451800  1.0  0.4175
  C  C54  1  0.223850  0.701800  0.344800  1.0  -0.2873
  C  C55  1  0.149470  0.673000  0.327800  1.0  -0.2701
  C  C56  1  0.133180  0.535400  0.273100  1.0  0.3932
  C  C57  1  0.245530  0.867300  0.951800  1.0  0.4175
  C  C58  1  0.276150  0.798200  0.844800  1.0  -0.2879
  C  C59  1  0.350530  0.827000  0.827800  1.0  -0.2705
  C  C60  1  0.366820  0.964600  0.773100  1.0  0.3926
  C  C61  1  0.745530  0.367300  0.951800  1.0  0.4175
  C  C62  1  0.776150  0.298200  0.844800  1.0  -0.2879
  C  C63  1  0.850530  0.327000  0.827800  1.0  -0.2705
  C  C64  1  0.866820  0.464600  0.773100  1.0  0.3926
  C  C65  1  0.754470  0.867300  0.951800  1.0  0.4171
  C  C66  1  0.723850  0.798200  0.844800  1.0  -0.2873
  C  C67  1  0.649470  0.827000  0.827800  1.0  -0.2724
  C  C68  1  0.633180  0.964600  0.773100  1.0  0.3936
  C  C69  1  0.254470  0.367300  0.951800  1.0  0.4171
  C  C70  1  0.223850  0.298200  0.844800  1.0  -0.2873
  C  C71  1  0.149470  0.327000  0.827800  1.0  -0.2724
  C  C72  1  0.133180  0.464600  0.773100  1.0  0.3936
  C  C73  1  0.245530  0.132700  0.451800  1.0  0.4178
  C  C74  1  0.276150  0.201800  0.344800  1.0  -0.2882
  C  C75  1  0.350530  0.173000  0.327800  1.0  -0.2698
  C  C76  1  0.366820  0.035400  0.273100  1.0  0.3927
  C  C77  1  0.745530  0.632700  0.451800  1.0  0.4178
  C  C78  1  0.776150  0.701800  0.344800  1.0  -0.2882
  C  C79  1  0.850530  0.673000  0.327800  1.0  -0.2698
  C  C80  1  0.866820  0.535400  0.273100  1.0  0.3927
  C  C81  1  0.500000  0.817600  0.534300  1.0  0.0185
  C  C82  1  0.000000  0.317600  0.534300  1.0  0.0185
  C  C83  1  0.500000  0.182400  0.034300  1.0  0.0184
  C  C84  1  0.000000  0.682400  0.034300  1.0  0.0184
  N  N85  1  0.739170  0.006600  0.493300  1.0  -0.2856
  N  N86  1  0.780830  0.984700  0.590400  1.0  -0.0906
  N  N87  1  0.819390  0.092000  0.603700  1.0  -0.0771
  N  N88  1  0.803430  0.187100  0.516800  1.0  -0.3102
  N  N89  1  0.623900  0.919600  0.333800  1.0  -0.2643
  N  N90  1  0.610230  0.820700  0.248300  1.0  -0.0555
  N  N91  1  0.611100  0.876900  0.142000  1.0  -0.0534
  N  N92  1  0.625130  0.013400  0.154800  1.0  -0.2283
  N  N93  1  0.239170  0.506600  0.493300  1.0  -0.2856
  N  N94  1  0.280830  0.484700  0.590400  1.0  -0.0906
  N  N95  1  0.319390  0.592000  0.603700  1.0  -0.0771
  N  N96  1  0.303430  0.687100  0.516800  1.0  -0.3102
  N  N97  1  0.123900  0.419600  0.333800  1.0  -0.2643
  N  N98  1  0.110230  0.320700  0.248300  1.0  -0.0555
  N  N99  1  0.111100  0.376900  0.142000  1.0  -0.0534
  N  N100  1  0.125130  0.513400  0.154800  1.0  -0.2283
  N  N101  1  0.260830  0.993400  0.993300  1.0  -0.2867
  N  N102  1  0.219170  0.015300  0.090400  1.0  -0.0893
  N  N103  1  0.180610  0.908000  0.103700  1.0  -0.0785
  N  N104  1  0.196570  0.812900  0.016800  1.0  -0.3104
  N  N105  1  0.376100  0.080400  0.833800  1.0  -0.2658
  N  N106  1  0.389770  0.179300  0.748300  1.0  -0.0571
  N  N107  1  0.388900  0.123100  0.642000  1.0  -0.0523
  N  N108  1  0.374870  0.986600  0.654800  1.0  -0.2289
  N  N109  1  0.760830  0.493400  0.993300  1.0  -0.2867
  N  N110  1  0.719170  0.515300  0.090400  1.0  -0.0893
  N  N111  1  0.680610  0.408000  0.103700  1.0  -0.0785
  N  N112  1  0.696570  0.312900  0.016800  1.0  -0.3104
  N  N113  1  0.876100  0.580400  0.833800  1.0  -0.2658
  N  N114  1  0.889770  0.679300  0.748300  1.0  -0.0571
  N  N115  1  0.888900  0.623100  0.642000  1.0  -0.0523
  N  N116  1  0.874870  0.486600  0.654800  1.0  -0.2289
  N  N117  1  0.739170  0.993400  0.993300  1.0  -0.2864
  N  N118  1  0.780830  0.015300  0.090400  1.0  -0.0894
  N  N119  1  0.819390  0.908000  0.103700  1.0  -0.0779
  N  N120  1  0.803430  0.812900  0.016800  1.0  -0.31
  N  N121  1  0.623900  0.080400  0.833800  1.0  -0.2654
  N  N122  1  0.610230  0.179300  0.748300  1.0  -0.058
  N  N123  1  0.611100  0.123100  0.642000  1.0  -0.0529
  N  N124  1  0.625130  0.986600  0.654800  1.0  -0.2287
  N  N125  1  0.239170  0.493400  0.993300  1.0  -0.2864
  N  N126  1  0.280830  0.515300  0.090400  1.0  -0.0894
  N  N127  1  0.319390  0.408000  0.103700  1.0  -0.0779
  N  N128  1  0.303430  0.312900  0.016800  1.0  -0.31
  N  N129  1  0.123900  0.580400  0.833800  1.0  -0.2654
  N  N130  1  0.110230  0.679300  0.748300  1.0  -0.058
  N  N131  1  0.111100  0.623100  0.642000  1.0  -0.0529
  N  N132  1  0.125130  0.486600  0.654800  1.0  -0.2287
  N  N133  1  0.260830  0.006600  0.493300  1.0  -0.2861
  N  N134  1  0.219170  0.984700  0.590400  1.0  -0.0882
  N  N135  1  0.180610  0.092000  0.603700  1.0  -0.0776
  N  N136  1  0.196570  0.187100  0.516800  1.0  -0.31
  N  N137  1  0.376100  0.919600  0.333800  1.0  -0.2651
  N  N138  1  0.389770  0.820700  0.248300  1.0  -0.0573
  N  N139  1  0.388900  0.876900  0.142000  1.0  -0.052
  N  N140  1  0.374870  0.013400  0.154800  1.0  -0.2288
  N  N141  1  0.760830  0.506600  0.493300  1.0  -0.2861
  N  N142  1  0.719170  0.484700  0.590400  1.0  -0.0882
  N  N143  1  0.680610  0.592000  0.603700  1.0  -0.0776
  N  N144  1  0.696570  0.687100  0.516800  1.0  -0.31
  N  N145  1  0.876100  0.419600  0.333800  1.0  -0.2651
  N  N146  1  0.889770  0.320700  0.248300  1.0  -0.0573
  N  N147  1  0.888900  0.376900  0.142000  1.0  -0.052
  N  N148  1  0.874870  0.513400  0.154800  1.0  -0.2288
  O  O149  1  0.555070  0.759300  0.532000  1.0  -0.5705
  O  O150  1  0.055070  0.259300  0.532000  1.0  -0.5705
  O  O151  1  0.444930  0.240700  0.032000  1.0  -0.5668
  O  O152  1  0.944930  0.740700  0.032000  1.0  -0.5668
  O  O153  1  0.555070  0.240700  0.032000  1.0  -0.5691
  O  O154  1  0.055070  0.740700  0.032000  1.0  -0.5691
  O  O155  1  0.444930  0.759300  0.532000  1.0  -0.5687
  O  O156  1  0.944930  0.259300  0.532000  1.0  -0.5687
