# generated using pymatgen
data_Cd3H16(C8O7)4
_symmetry_space_group_name_H-M   'P 1'
_cell_length_a   18.31480000
_cell_length_b   9.45060000
_cell_length_c   19.09930000
_cell_angle_alpha   90.00000000
_cell_angle_beta   106.09100000
_cell_angle_gamma   90.00000000
_symmetry_Int_Tables_number   1
_chemical_formula_structural   Cd3H16(C8O7)4
_chemical_formula_sum   'Cd6 H32 C64 O56'
_cell_volume   3176.30551751
_cell_formula_units_Z   2
loop_
 _symmetry_equiv_pos_site_id
 _symmetry_equiv_pos_as_xyz
  1  'x, y, z'
loop_
 _atom_site_type_symbol
 _atom_site_label
 _atom_site_symmetry_multiplicity
 _atom_site_fract_x
 _atom_site_fract_y
 _atom_site_fract_z
 _atom_site_occupancy
 _atom_site_charge
  Cd  Cd1  1  0.284660  0.558530  0.444550  1.0  1.092
  Cd  Cd2  1  0.715340  0.058530  0.055450  1.0  1.0927
  Cd  Cd3  1  0.715340  0.441470  0.555450  1.0  1.0929
  Cd  Cd4  1  0.284660  0.941470  0.944550  1.0  1.0916
  Cd  Cd5  1  0.500000  0.500000  0.500000  1.0  1.0087
  Cd  Cd6  1  0.500000  0.000000  0.000000  1.0  1.0087
  H  H7  1  0.498900  0.183000  0.581100  1.0  0.1206
  H  H8  1  0.040900  0.321300  0.437600  1.0  0.1333
  H  H9  1  0.512900  0.091800  0.177800  1.0  0.4005
  H  H10  1  0.244400  0.343300  0.284000  1.0  0.3909
  H  H11  1  0.367600  0.937000  0.570800  1.0  0.4078
  H  H12  1  0.121000  0.739700  0.523100  1.0  0.4015
  H  H13  1  0.251300  0.139200  0.090400  1.0  0.3771
  H  H14  1  0.505900  0.289100  0.369500  1.0  0.4177
  H  H15  1  0.501100  0.683000  0.918900  1.0  0.1198
  H  H16  1  0.959100  0.821300  0.062400  1.0  0.1331
  H  H17  1  0.487100  0.591800  0.322200  1.0  0.4012
  H  H18  1  0.755600  0.843300  0.216000  1.0  0.393
  H  H19  1  0.632400  0.437000  0.929200  1.0  0.4053
  H  H20  1  0.879000  0.239700  0.976900  1.0  0.4015
  H  H21  1  0.748700  0.639200  0.409600  1.0  0.377
  H  H22  1  0.494100  0.789100  0.130500  1.0  0.4172
  H  H23  1  0.501100  0.817000  0.418900  1.0  0.1204
  H  H24  1  0.959100  0.678700  0.562400  1.0  0.1331
  H  H25  1  0.487100  0.908200  0.822200  1.0  0.4008
  H  H26  1  0.755600  0.656700  0.716000  1.0  0.3925
  H  H27  1  0.632400  0.063000  0.429200  1.0  0.4073
  H  H28  1  0.879000  0.260300  0.476900  1.0  0.4001
  H  H29  1  0.748700  0.860800  0.909600  1.0  0.3758
  H  H30  1  0.494100  0.710900  0.630500  1.0  0.4171
  H  H31  1  0.498900  0.317000  0.081100  1.0  0.1196
  H  H32  1  0.040900  0.178700  0.937600  1.0  0.1334
  H  H33  1  0.512900  0.408200  0.677800  1.0  0.4002
  H  H34  1  0.244400  0.156700  0.784000  1.0  0.3912
  H  H35  1  0.367600  0.563000  0.070800  1.0  0.4087
  H  H36  1  0.121000  0.760300  0.023100  1.0  0.4008
  H  H37  1  0.251300  0.360800  0.590400  1.0  0.3768
  H  H38  1  0.505900  0.210900  0.869500  1.0  0.4179
  C  C39  1  0.380040  0.086300  0.093080  1.0  0.6896
  C  C40  1  0.379590  0.151500  0.164750  1.0  -0.061
  C  C41  1  0.311300  0.196800  0.175030  1.0  0.2499
  C  C42  1  0.308330  0.258800  0.239330  1.0  0.2911
  C  C43  1  0.375170  0.276600  0.295880  1.0  -0.0723
  C  C44  1  0.443610  0.229800  0.286430  1.0  0.3265
  C  C45  1  0.446000  0.168500  0.221020  1.0  0.286
  C  C46  1  0.373940  0.345400  0.367140  1.0  0.7101
  C  C47  1  0.394830  0.770100  0.482720  1.0  0.715
  C  C48  1  0.448830  0.888800  0.491950  1.0  -0.211
  C  C49  1  0.448180  0.999000  0.541480  1.0  0.2628
  C  C50  1  0.499360  0.109600  0.548750  1.0  -0.1024
  C  C51  1  0.024300  0.393200  0.462750  1.0  -0.1098
  C  C52  1  0.043460  0.623000  0.519240  1.0  0.2358
  C  C53  1  0.067260  0.513300  0.481350  1.0  -0.2462
  C  C54  1  0.141670  0.527400  0.460530  1.0  0.7327
  C  C55  1  0.619960  0.586300  0.406920  1.0  0.6896
  C  C56  1  0.620410  0.651500  0.335250  1.0  -0.0595
  C  C57  1  0.688700  0.696800  0.324970  1.0  0.2494
  C  C58  1  0.691670  0.758800  0.260670  1.0  0.2908
  C  C59  1  0.624830  0.776600  0.204120  1.0  -0.0708
  C  C60  1  0.556390  0.729800  0.213570  1.0  0.3277
  C  C61  1  0.554000  0.668500  0.278980  1.0  0.2857
  C  C62  1  0.626060  0.845400  0.132860  1.0  0.7119
  C  C63  1  0.605170  0.270100  0.017280  1.0  0.7125
  C  C64  1  0.551170  0.388800  0.008050  1.0  -0.2131
  C  C65  1  0.551820  0.499000  0.958520  1.0  0.2639
  C  C66  1  0.500640  0.609600  0.951250  1.0  -0.1001
  C  C67  1  0.975700  0.893200  0.037250  1.0  -0.1092
  C  C68  1  0.956540  0.123000  0.980760  1.0  0.2361
  C  C69  1  0.932740  0.013300  0.018650  1.0  -0.2453
  C  C70  1  0.858330  0.027400  0.039470  1.0  0.7341
  C  C71  1  0.619960  0.913700  0.906920  1.0  0.6897
  C  C72  1  0.620410  0.848500  0.835250  1.0  -0.0592
  C  C73  1  0.688700  0.803200  0.824970  1.0  0.2491
  C  C74  1  0.691670  0.741200  0.760670  1.0  0.291
  C  C75  1  0.624830  0.723400  0.704120  1.0  -0.0711
  C  C76  1  0.556390  0.770200  0.713570  1.0  0.3275
  C  C77  1  0.554000  0.831500  0.778980  1.0  0.2859
  C  C78  1  0.626060  0.654600  0.632860  1.0  0.7122
  C  C79  1  0.605170  0.229900  0.517280  1.0  0.7125
  C  C80  1  0.551170  0.111200  0.508050  1.0  -0.2125
  C  C81  1  0.551820  0.001000  0.458520  1.0  0.2638
  C  C82  1  0.500640  0.890400  0.451250  1.0  -0.0998
  C  C83  1  0.975700  0.606800  0.537250  1.0  -0.1088
  C  C84  1  0.956540  0.377000  0.480760  1.0  0.2352
  C  C85  1  0.932740  0.486700  0.518650  1.0  -0.2451
  C  C86  1  0.858330  0.472600  0.539470  1.0  0.7341
  C  C87  1  0.380040  0.413700  0.593080  1.0  0.6904
  C  C88  1  0.379590  0.348500  0.664750  1.0  -0.0609
  C  C89  1  0.311300  0.303200  0.675030  1.0  0.2498
  C  C90  1  0.308330  0.241200  0.739330  1.0  0.291
  C  C91  1  0.375170  0.223400  0.795880  1.0  -0.0726
  C  C92  1  0.443610  0.270200  0.786430  1.0  0.3263
  C  C93  1  0.446000  0.331500  0.721020  1.0  0.2859
  C  C94  1  0.373940  0.154600  0.867140  1.0  0.7101
  C  C95  1  0.394830  0.729900  0.982720  1.0  0.7144
  C  C96  1  0.448830  0.611200  0.991950  1.0  -0.2103
  C  C97  1  0.448180  0.501000  0.041480  1.0  0.2628
  C  C98  1  0.499360  0.390400  0.048750  1.0  -0.1023
  C  C99  1  0.024300  0.106800  0.962750  1.0  -0.1094
  C  C100  1  0.043460  0.877000  0.019240  1.0  0.2352
  C  C101  1  0.067260  0.986700  0.981350  1.0  -0.2462
  C  C102  1  0.141670  0.972600  0.960530  1.0  0.733
  O  O103  1  0.443880  0.046000  0.087790  1.0  -0.5981
  O  O104  1  0.318340  0.073400  0.045950  1.0  -0.6068
  O  O105  1  0.516180  0.127200  0.217710  1.0  -0.5147
  O  O106  1  0.239260  0.305300  0.244300  1.0  -0.4832
  O  O107  1  0.310910  0.394100  0.369550  1.0  -0.6318
  O  O108  1  0.433530  0.348290  0.416670  1.0  -0.6204
  O  O109  1  0.404760  0.660370  0.448120  1.0  -0.6809
  O  O110  1  0.337630  0.778620  0.507290  1.0  -0.6436
  O  O111  1  0.397930  0.002300  0.582790  1.0  -0.5114
  O  O112  1  0.179040  0.638200  0.478070  1.0  -0.6514
  O  O113  1  0.163670  0.430000  0.427960  1.0  -0.566
  O  O114  1  0.082330  0.743300  0.536700  1.0  -0.4497
  O  O115  1  0.244900  0.176900  0.126900  1.0  -0.4902
  O  O116  1  0.511000  0.254300  0.331800  1.0  -0.495
  O  O117  1  0.556120  0.546000  0.412210  1.0  -0.5972
  O  O118  1  0.681660  0.573400  0.454050  1.0  -0.6063
  O  O119  1  0.483820  0.627200  0.282290  1.0  -0.5145
  O  O120  1  0.760740  0.805300  0.255700  1.0  -0.4824
  O  O121  1  0.689090  0.894100  0.130450  1.0  -0.6314
  O  O122  1  0.566470  0.848290  0.083330  1.0  -0.6209
  O  O123  1  0.595240  0.160370  0.051880  1.0  -0.6835
  O  O124  1  0.662370  0.278620  0.992710  1.0  -0.6455
  O  O125  1  0.602070  0.502300  0.917210  1.0  -0.509
  O  O126  1  0.820960  0.138200  0.021930  1.0  -0.6528
  O  O127  1  0.836330  0.930000  0.072040  1.0  -0.5669
  O  O128  1  0.917670  0.243300  0.963300  1.0  -0.4507
  O  O129  1  0.755100  0.676900  0.373100  1.0  -0.4897
  O  O130  1  0.489000  0.754300  0.168200  1.0  -0.4958
  O  O131  1  0.556120  0.954000  0.912210  1.0  -0.5969
  O  O132  1  0.681660  0.926600  0.954050  1.0  -0.6064
  O  O133  1  0.483820  0.872800  0.782290  1.0  -0.5148
  O  O134  1  0.760740  0.694700  0.755700  1.0  -0.4822
  O  O135  1  0.689090  0.605900  0.630450  1.0  -0.6313
  O  O136  1  0.566470  0.651710  0.583330  1.0  -0.6208
  O  O137  1  0.595240  0.339630  0.551880  1.0  -0.6852
  O  O138  1  0.662370  0.221380  0.492710  1.0  -0.6449
  O  O139  1  0.602070  0.997700  0.417210  1.0  -0.5124
  O  O140  1  0.820960  0.361800  0.521930  1.0  -0.652
  O  O141  1  0.836330  0.570000  0.572040  1.0  -0.5665
  O  O142  1  0.917670  0.256700  0.463300  1.0  -0.45
  O  O143  1  0.755100  0.823100  0.873100  1.0  -0.4891
  O  O144  1  0.489000  0.745700  0.668200  1.0  -0.496
  O  O145  1  0.443880  0.454000  0.587790  1.0  -0.5979
  O  O146  1  0.318340  0.426600  0.545950  1.0  -0.6066
  O  O147  1  0.516180  0.372800  0.717710  1.0  -0.5142
  O  O148  1  0.239260  0.194700  0.744300  1.0  -0.4831
  O  O149  1  0.310910  0.105900  0.869550  1.0  -0.6316
  O  O150  1  0.433530  0.151710  0.916670  1.0  -0.6205
  O  O151  1  0.404760  0.839630  0.948120  1.0  -0.6825
  O  O152  1  0.337630  0.721380  0.007290  1.0  -0.6436
  O  O153  1  0.397930  0.497700  0.082790  1.0  -0.5092
  O  O154  1  0.179040  0.861800  0.978070  1.0  -0.6508
  O  O155  1  0.163670  0.070000  0.927960  1.0  -0.5686
  O  O156  1  0.082330  0.756700  0.036700  1.0  -0.4512
  O  O157  1  0.244900  0.323100  0.626900  1.0  -0.4894
  O  O158  1  0.511000  0.245700  0.831800  1.0  -0.4945
