# generated using pymatgen
data_MgPH2(CO4)2
_symmetry_space_group_name_H-M   'P 1'
_cell_length_a   9.37550000
_cell_length_b   7.47460000
_cell_length_c   15.43100000
_cell_angle_alpha   90.00000000
_cell_angle_beta   100.11900000
_cell_angle_gamma   90.00000000
_symmetry_Int_Tables_number   1
_chemical_formula_structural   MgPH2(CO4)2
_chemical_formula_sum   'Mg4 P4 H8 C8 O32'
_cell_volume   1064.55452708
_cell_formula_units_Z   4
loop_
 _symmetry_equiv_pos_site_id
 _symmetry_equiv_pos_as_xyz
  1  'x, y, z'
loop_
 _atom_site_type_symbol
 _atom_site_label
 _atom_site_symmetry_multiplicity
 _atom_site_fract_x
 _atom_site_fract_y
 _atom_site_fract_z
 _atom_site_occupancy
 _atom_site_charge
  Mg  Mg1  1  0.780150  0.467190  0.598490  1.0  1.4947
  Mg  Mg2  1  0.719850  0.967190  0.901510  1.0  1.4948
  Mg  Mg3  1  0.219850  0.532810  0.401510  1.0  1.4957
  Mg  Mg4  1  0.280150  0.032810  0.098490  1.0  1.4957
  P  P5  1  0.652470  0.597150  0.774340  1.0  1.7847
  P  P6  1  0.847530  0.097150  0.725660  1.0  1.7842
  P  P7  1  0.347530  0.402850  0.225660  1.0  1.7843
  P  P8  1  0.152470  0.902850  0.274340  1.0  1.7856
  H  H9  1  0.727100  0.358300  0.819200  1.0  0.4066
  H  H10  1  0.439400  0.543300  0.755300  1.0  0.4458
  H  H11  1  0.772900  0.858300  0.680800  1.0  0.4066
  H  H12  1  0.060600  0.043300  0.744700  1.0  0.446
  H  H13  1  0.272900  0.641700  0.180800  1.0  0.4069
  H  H14  1  0.560600  0.456700  0.244700  1.0  0.4454
  H  H15  1  0.227100  0.141700  0.319200  1.0  0.4072
  H  H16  1  0.939400  0.956700  0.255300  1.0  0.4473
  C  C17  1  0.514300  0.599500  0.490470  1.0  0.5469
  C  C18  1  0.034800  0.575700  0.531530  1.0  0.5429
  C  C19  1  0.985700  0.099500  0.009530  1.0  0.5463
  C  C20  1  0.465200  0.075700  0.968470  1.0  0.5428
  C  C21  1  0.485700  0.400500  0.509530  1.0  0.546
  C  C22  1  0.965200  0.424300  0.468470  1.0  0.5425
  C  C23  1  0.014300  0.900500  0.990470  1.0  0.5465
  C  C24  1  0.534800  0.924300  0.031530  1.0  0.5442
  O  O25  1  0.743480  0.614600  0.703990  1.0  -0.7924
  O  O26  1  0.715400  0.452600  0.844250  1.0  -0.7137
  O  O27  1  0.634420  0.763900  0.824070  1.0  -0.8527
  O  O28  1  0.501600  0.524600  0.725070  1.0  -0.7013
  O  O29  1  0.637310  0.657900  0.520950  1.0  -0.5541
  O  O30  1  0.411850  0.685500  0.446440  1.0  -0.5475
  O  O31  1  0.967880  0.617600  0.591810  1.0  -0.5392
  O  O32  1  0.149430  0.640400  0.514970  1.0  -0.523
  O  O33  1  0.756520  0.114600  0.796010  1.0  -0.7926
  O  O34  1  0.784600  0.952600  0.655750  1.0  -0.7126
  O  O35  1  0.865580  0.263900  0.675930  1.0  -0.8522
  O  O36  1  0.998400  0.024600  0.774930  1.0  -0.6982
  O  O37  1  0.862690  0.157900  0.979050  1.0  -0.5524
  O  O38  1  0.088150  0.185500  0.053560  1.0  -0.5469
  O  O39  1  0.532120  0.117600  0.908190  1.0  -0.5404
  O  O40  1  0.350570  0.140400  0.985030  1.0  -0.5229
  O  O41  1  0.256520  0.385400  0.296010  1.0  -0.7927
  O  O42  1  0.284600  0.547400  0.155750  1.0  -0.7139
  O  O43  1  0.365580  0.236100  0.175930  1.0  -0.8511
  O  O44  1  0.498400  0.475400  0.274930  1.0  -0.6984
  O  O45  1  0.362690  0.342100  0.479050  1.0  -0.553
  O  O46  1  0.588150  0.314500  0.553560  1.0  -0.5487
  O  O47  1  0.032120  0.382400  0.408190  1.0  -0.5397
  O  O48  1  0.850570  0.359600  0.485030  1.0  -0.5238
  O  O49  1  0.243480  0.885400  0.203990  1.0  -0.7922
  O  O50  1  0.215400  0.047400  0.344250  1.0  -0.7157
  O  O51  1  0.134420  0.736100  0.324070  1.0  -0.8515
  O  O52  1  0.001600  0.975400  0.225070  1.0  -0.7019
  O  O53  1  0.137310  0.842100  0.020950  1.0  -0.5539
  O  O54  1  0.911850  0.814500  0.946440  1.0  -0.5492
  O  O55  1  0.467880  0.882400  0.091810  1.0  -0.5387
  O  O56  1  0.649430  0.859600  0.014970  1.0  -0.523
