# generated using pymatgen
data_Mg2PHC3O10
_symmetry_space_group_name_H-M   'P 1'
_cell_length_a   7.66270000
_cell_length_b   7.84320000
_cell_length_c   9.76950000
_cell_angle_alpha   72.09200000
_cell_angle_beta   83.27500000
_cell_angle_gamma   84.99800000
_symmetry_Int_Tables_number   1
_chemical_formula_structural   Mg2PHC3O10
_chemical_formula_sum   'Mg4 P2 H2 C6 O20'
_cell_volume   554.04290454
_cell_formula_units_Z   2
loop_
 _symmetry_equiv_pos_site_id
 _symmetry_equiv_pos_as_xyz
  1  'x, y, z'
loop_
 _atom_site_type_symbol
 _atom_site_label
 _atom_site_symmetry_multiplicity
 _atom_site_fract_x
 _atom_site_fract_y
 _atom_site_fract_z
 _atom_site_occupancy
 _atom_site_charge
  Mg  Mg1  1  0.372310  0.016720  0.737550  1.0  1.5096
  Mg  Mg2  1  0.305140  0.711660  0.373310  1.0  1.5344
  Mg  Mg3  1  0.627690  0.983280  0.262450  1.0  1.5081
  Mg  Mg4  1  0.694860  0.288340  0.626690  1.0  1.536
  P  P5  1  0.415070  0.280970  0.407780  1.0  1.7071
  P  P6  1  0.584930  0.719030  0.592220  1.0  1.7064
  H  H7  1  0.204600  0.149100  0.398700  1.0  0.3909
  H  H8  1  0.795400  0.850900  0.601300  1.0  0.3944
  C  C9  1  0.005900  0.044700  0.692200  1.0  0.6006
  C  C10  1  0.042100  0.217900  0.726700  1.0  0.5704
  C  C11  1  0.564500  0.075200  0.960600  1.0  0.5662
  C  C12  1  0.994100  0.955300  0.307800  1.0  0.6009
  C  C13  1  0.957900  0.782100  0.273300  1.0  0.57
  C  C14  1  0.435500  0.924800  0.039400  1.0  0.5649
  O  O15  1  0.489900  0.195100  0.554360  1.0  -0.9229
  O  O16  1  0.416800  0.482100  0.360790  1.0  -0.8474
  O  O17  1  0.509300  0.204900  0.292630  1.0  -0.857
  O  O18  1  0.214700  0.233100  0.430100  1.0  -0.7238
  O  O19  1  0.130600  0.929600  0.701250  1.0  -0.5538
  O  O20  1  0.855800  0.038700  0.656900  1.0  -0.6222
  O  O21  1  0.189200  0.219700  0.769000  1.0  -0.5736
  O  O22  1  0.923400  0.339400  0.707400  1.0  -0.566
  O  O23  1  0.557600  0.135600  0.825430  1.0  -0.656
  O  O24  1  0.658300  0.122700  0.034690  1.0  -0.5589
  O  O25  1  0.510100  0.804900  0.445640  1.0  -0.9233
  O  O26  1  0.583200  0.517900  0.639210  1.0  -0.8459
  O  O27  1  0.490700  0.795100  0.707370  1.0  -0.856
  O  O28  1  0.785300  0.766900  0.569900  1.0  -0.7241
  O  O29  1  0.869400  0.070400  0.298750  1.0  -0.5553
  O  O30  1  0.144200  0.961300  0.343100  1.0  -0.6244
  O  O31  1  0.810800  0.780300  0.231000  1.0  -0.5721
  O  O32  1  0.076600  0.660600  0.292600  1.0  -0.5658
  O  O33  1  0.442400  0.864400  0.174570  1.0  -0.655
  O  O34  1  0.341700  0.877300  0.965310  1.0  -0.5566
