# generated using pymatgen
data_Mg4P3H5(C2O7)4
_symmetry_space_group_name_H-M   'P 1'
_cell_length_a   7.77380000
_cell_length_b   9.48400000
_cell_length_c   11.92430000
_cell_angle_alpha   78.10200000
_cell_angle_beta   78.57400000
_cell_angle_gamma   86.18300000
_symmetry_Int_Tables_number   1
_chemical_formula_structural   Mg4P3H5(C2O7)4
_chemical_formula_sum   'Mg4 P3 H5 C8 O28'
_cell_volume   842.89983080
_cell_formula_units_Z   1
loop_
 _symmetry_equiv_pos_site_id
 _symmetry_equiv_pos_as_xyz
  1  'x, y, z'
loop_
 _atom_site_type_symbol
 _atom_site_label
 _atom_site_symmetry_multiplicity
 _atom_site_fract_x
 _atom_site_fract_y
 _atom_site_fract_z
 _atom_site_occupancy
 _atom_site_charge
  Mg  Mg1  1  0.996600  0.583610  0.186450  1.0  1.5158
  Mg  Mg2  1  0.315100  0.476400  0.996690  1.0  1.526
  Mg  Mg3  1  0.125500  0.026200  0.396270  1.0  1.5197
  Mg  Mg4  1  0.215900  0.045100  0.771280  1.0  1.5075
  P  P5  1  0.618860  0.501320  0.154140  1.0  1.8142
  P  P6  1  0.433320  0.146590  0.499980  1.0  1.6506
  P  P7  1  0.945410  0.884140  0.671530  1.0  1.7805
  H  H8  1  0.423400  0.581900  0.263800  1.0  0.4117
  H  H9  1  0.546600  0.335700  0.282100  1.0  0.3677
  H  H10  1  0.694500  0.136600  0.509300  1.0  0.3791
  H  H11  1  0.698100  0.954000  0.662800  1.0  0.4226
  H  H12  1  0.905400  0.693900  0.778500  1.0  0.5057
  C  C13  1  0.968600  0.841100  0.281000  1.0  0.5983
  C  C14  1  0.153700  0.775600  0.293000  1.0  0.6239
  C  C15  1  0.130800  0.293500  0.237400  1.0  0.6207
  C  C16  1  0.987500  0.313200  0.345500  1.0  0.6125
  C  C17  1  0.322200  0.747800  0.836400  1.0  0.6534
  C  C18  1  0.188600  0.775200  0.946000  1.0  0.6086
  C  C19  1  0.165000  0.288400  0.882800  1.0  0.5413
  C  C20  1  0.352100  0.227400  0.894000  1.0  0.5878
  O  O21  1  0.520200  0.527000  0.054900  1.0  -0.8496
  O  O22  1  0.802500  0.551300  0.114100  1.0  -0.8292
  O  O23  1  0.529500  0.594400  0.248000  1.0  -0.631
  O  O24  1  0.609700  0.341900  0.217500  1.0  -0.6652
  O  O25  1  0.358800  0.047300  0.439400  1.0  -0.8051
  O  O26  1  0.329800  0.153000  0.618000  1.0  -0.8794
  O  O27  1  0.473500  0.295300  0.426200  1.0  -0.8347
  O  O28  1  0.622100  0.073500  0.521800  1.0  -0.6575
  O  O29  1  0.032100  0.894600  0.547100  1.0  -0.8518
  O  O30  1  0.988100  0.001600  0.727500  1.0  -0.7854
  O  O31  1  0.739600  0.874900  0.688200  1.0  -0.6654
  O  O32  1  0.995100  0.735000  0.742100  1.0  -0.6797
  O  O33  1  0.879000  0.771200  0.235900  1.0  -0.5788
  O  O34  1  0.927300  0.954200  0.316300  1.0  -0.5544
  O  O35  1  0.188000  0.654900  0.265700  1.0  -0.6007
  O  O36  1  0.253000  0.847400  0.327900  1.0  -0.5452
  O  O37  1  0.160300  0.405700  0.158000  1.0  -0.6571
  O  O38  1  0.199500  0.172900  0.235700  1.0  -0.544
  O  O39  1  0.916800  0.434100  0.343000  1.0  -0.5415
  O  O40  1  0.960600  0.203600  0.424500  1.0  -0.5532
  O  O41  1  0.350500  0.850700  0.752600  1.0  -0.5653
  O  O42  1  0.391300  0.625100  0.841600  1.0  -0.5757
  O  O43  1  0.127000  0.898800  0.944000  1.0  -0.5543
  O  O44  1  0.157200  0.665700  0.026400  1.0  -0.6818
  O  O45  1  0.077800  0.217700  0.836700  1.0  -0.5378
  O  O46  1  0.118200  0.399700  0.922400  1.0  -0.5457
  O  O47  1  0.398700  0.117800  0.854900  1.0  -0.5115
  O  O48  1  0.440700  0.295300  0.942300  1.0  -0.5666
