# generated using pymatgen
data_Mg4P3H6(C2O7)4
_symmetry_space_group_name_H-M   'P 1'
_cell_length_a   15.10140000
_cell_length_b   10.96860000
_cell_length_c   22.33380000
_cell_angle_alpha   90.00000000
_cell_angle_beta   103.09900000
_cell_angle_gamma   90.00000000
_symmetry_Int_Tables_number   1
_chemical_formula_structural   Mg4P3H6(C2O7)4
_chemical_formula_sum   'Mg16 P12 H24 C32 O112'
_cell_volume   3603.13917521
_cell_formula_units_Z   4
loop_
 _symmetry_equiv_pos_site_id
 _symmetry_equiv_pos_as_xyz
  1  'x, y, z'
loop_
 _atom_site_type_symbol
 _atom_site_label
 _atom_site_symmetry_multiplicity
 _atom_site_fract_x
 _atom_site_fract_y
 _atom_site_fract_z
 _atom_site_occupancy
 _atom_site_charge
  Mg  Mg1  1  0.480370  0.525880  0.568880  1.0  1.5139
  Mg  Mg2  1  0.354810  0.979190  0.621410  1.0  1.4768
  Mg  Mg3  1  0.980370  0.025880  0.568880  1.0  1.5139
  Mg  Mg4  1  0.854810  0.479190  0.621410  1.0  1.4768
  Mg  Mg5  1  0.519630  0.525880  0.931120  1.0  1.5164
  Mg  Mg6  1  0.645190  0.979190  0.878590  1.0  1.4769
  Mg  Mg7  1  0.019630  0.025880  0.931120  1.0  1.5164
  Mg  Mg8  1  0.145190  0.479190  0.878590  1.0  1.4769
  Mg  Mg9  1  0.519630  0.474120  0.431120  1.0  1.5165
  Mg  Mg10  1  0.645190  0.020810  0.378590  1.0  1.4769
  Mg  Mg11  1  0.019630  0.974120  0.431120  1.0  1.5165
  Mg  Mg12  1  0.145190  0.520810  0.378590  1.0  1.4769
  Mg  Mg13  1  0.480370  0.474120  0.068880  1.0  1.5145
  Mg  Mg14  1  0.354810  0.020810  0.121410  1.0  1.4769
  Mg  Mg15  1  0.980370  0.974120  0.068880  1.0  1.5145
  Mg  Mg16  1  0.854810  0.520810  0.121410  1.0  1.4769
  P  P17  1  0.382170  0.260510  0.572630  1.0  1.7566
  P  P18  1  0.882170  0.760510  0.572630  1.0  1.7566
  P  P19  1  0.617830  0.260510  0.927370  1.0  1.7564
  P  P20  1  0.117830  0.760510  0.927370  1.0  1.7564
  P  P21  1  0.617830  0.739490  0.427370  1.0  1.7564
  P  P22  1  0.117830  0.239490  0.427370  1.0  1.7564
  P  P23  1  0.382170  0.739490  0.072630  1.0  1.7563
  P  P24  1  0.882170  0.239490  0.072630  1.0  1.7563
  P  P25  1  0.500000  0.902850  0.750000  1.0  1.8027
  P  P26  1  0.000000  0.402850  0.750000  1.0  1.8027
  P  P27  1  0.500000  0.097150  0.250000  1.0  1.802
  P  P28  1  0.000000  0.597150  0.250000  1.0  1.802
  H  H29  1  0.248000  0.283300  0.549500  1.0  0.3736
  H  H30  1  0.421300  0.231000  0.493800  1.0  0.3878
  H  H31  1  0.434800  0.753400  0.767000  1.0  0.4601
  H  H32  1  0.748000  0.783300  0.549500  1.0  0.3736
  H  H33  1  0.921300  0.731000  0.493800  1.0  0.3878
  H  H34  1  0.934800  0.253400  0.767000  1.0  0.4601
  H  H35  1  0.752000  0.283300  0.950500  1.0  0.3753
  H  H36  1  0.578700  0.231000  0.006200  1.0  0.3893
  H  H37  1  0.565200  0.753400  0.733000  1.0  0.4585
  H  H38  1  0.252000  0.783300  0.950500  1.0  0.3753
  H  H39  1  0.078700  0.731000  0.006200  1.0  0.3893
  H  H40  1  0.065200  0.253400  0.733000  1.0  0.4585
  H  H41  1  0.752000  0.716700  0.450500  1.0  0.3757
  H  H42  1  0.578700  0.769000  0.506200  1.0  0.3891
  H  H43  1  0.565200  0.246600  0.233000  1.0  0.4602
  H  H44  1  0.252000  0.216700  0.450500  1.0  0.3757
  H  H45  1  0.078700  0.269000  0.506200  1.0  0.3891
  H  H46  1  0.065200  0.746600  0.233000  1.0  0.4602
  H  H47  1  0.248000  0.716700  0.049500  1.0  0.3743
  H  H48  1  0.421300  0.769000  0.993800  1.0  0.3876
  H  H49  1  0.434800  0.246600  0.267000  1.0  0.4599
  H  H50  1  0.748000  0.216700  0.049500  1.0  0.3743
  H  H51  1  0.921300  0.269000  0.993800  1.0  0.3876
  H  H52  1  0.934800  0.746600  0.267000  1.0  0.4599
  C  C53  1  0.448540  0.786800  0.574830  1.0  0.5872
  C  C54  1  0.383030  0.720400  0.608430  1.0  0.5503
  C  C55  1  0.666980  0.494100  0.558390  1.0  0.6242
  C  C56  1  0.669450  0.515200  0.627570  1.0  0.5753
  C  C57  1  0.948540  0.286800  0.574830  1.0  0.5872
  C  C58  1  0.883030  0.220400  0.608430  1.0  0.5503
  C  C59  1  0.166980  0.994100  0.558390  1.0  0.6242
  C  C60  1  0.169450  0.015200  0.627570  1.0  0.5753
  C  C61  1  0.551460  0.786800  0.925170  1.0  0.5869
  C  C62  1  0.616970  0.720400  0.891570  1.0  0.5612
  C  C63  1  0.333020  0.494100  0.941610  1.0  0.623
  C  C64  1  0.330550  0.515200  0.872430  1.0  0.5779
  C  C65  1  0.051460  0.286800  0.925170  1.0  0.5869
  C  C66  1  0.116970  0.220400  0.891570  1.0  0.5612
  C  C67  1  0.833020  0.994100  0.941610  1.0  0.623
  C  C68  1  0.830550  0.015200  0.872430  1.0  0.5779
  C  C69  1  0.551460  0.213200  0.425170  1.0  0.5872
  C  C70  1  0.616970  0.279600  0.391570  1.0  0.55
  C  C71  1  0.333020  0.505900  0.441610  1.0  0.6229
  C  C72  1  0.330550  0.484800  0.372430  1.0  0.5782
  C  C73  1  0.051460  0.713200  0.425170  1.0  0.5872
  C  C74  1  0.116970  0.779600  0.391570  1.0  0.55
  C  C75  1  0.833020  0.005900  0.441610  1.0  0.6229
  C  C76  1  0.830550  0.984800  0.372430  1.0  0.5782
  C  C77  1  0.448540  0.213200  0.074830  1.0  0.5862
  C  C78  1  0.383030  0.279600  0.108430  1.0  0.5612
  C  C79  1  0.666980  0.505900  0.058390  1.0  0.6249
  C  C80  1  0.669450  0.484800  0.127570  1.0  0.5752
  C  C81  1  0.948540  0.713200  0.074830  1.0  0.5862
  C  C82  1  0.883030  0.779600  0.108430  1.0  0.5612
  C  C83  1  0.166980  0.005900  0.058390  1.0  0.6249
  C  C84  1  0.169450  0.984800  0.127570  1.0  0.5752
  O  O85  1  0.453520  0.355750  0.590810  1.0  -0.8115
  O  O86  1  0.395670  0.151670  0.613220  1.0  -0.833
  O  O87  1  0.288610  0.320500  0.573080  1.0  -0.7076
  O  O88  1  0.372440  0.221800  0.503330  1.0  -0.6612
  O  O89  1  0.440180  0.978170  0.703760  1.0  -0.7851
  O  O90  1  0.447890  0.817100  0.786170  1.0  -0.6873
  O  O91  1  0.498680  0.716720  0.551830  1.0  -0.6158
  O  O92  1  0.445110  0.899280  0.572890  1.0  -0.556
  O  O93  1  0.389470  0.606800  0.612450  1.0  -0.6057
  O  O94  1  0.328520  0.785650  0.628150  1.0  -0.5624
  O  O95  1  0.588320  0.490400  0.523570  1.0  -0.6824
  O  O96  1  0.740540  0.481810  0.544120  1.0  -0.565
  O  O97  1  0.594380  0.529870  0.641610  1.0  -0.5942
  O  O98  1  0.745600  0.513790  0.662930  1.0  -0.5543
  O  O99  1  0.953520  0.855750  0.590810  1.0  -0.8115
  O  O100  1  0.895670  0.651670  0.613220  1.0  -0.833
  O  O101  1  0.788610  0.820500  0.573080  1.0  -0.7076
  O  O102  1  0.872440  0.721800  0.503330  1.0  -0.6612
  O  O103  1  0.940180  0.478170  0.703760  1.0  -0.7851
  O  O104  1  0.947890  0.317100  0.786170  1.0  -0.6873
  O  O105  1  0.998680  0.216720  0.551830  1.0  -0.6158
  O  O106  1  0.945110  0.399280  0.572890  1.0  -0.556
  O  O107  1  0.889470  0.106800  0.612450  1.0  -0.6057
  O  O108  1  0.828520  0.285650  0.628150  1.0  -0.5614
  O  O109  1  0.088320  0.990400  0.523570  1.0  -0.6824
  O  O110  1  0.240540  0.981810  0.544120  1.0  -0.5648
  O  O111  1  0.094380  0.029870  0.641610  1.0  -0.5942
  O  O112  1  0.245600  0.013790  0.662930  1.0  -0.5541
  O  O113  1  0.546480  0.355750  0.909190  1.0  -0.8119
  O  O114  1  0.604330  0.151670  0.886780  1.0  -0.832
  O  O115  1  0.711390  0.320500  0.926920  1.0  -0.7085
  O  O116  1  0.627560  0.221800  0.996670  1.0  -0.6606
  O  O117  1  0.559820  0.978170  0.796240  1.0  -0.7855
  O  O118  1  0.552110  0.817100  0.713830  1.0  -0.6832
  O  O119  1  0.501320  0.716720  0.948170  1.0  -0.615
  O  O120  1  0.554890  0.899280  0.927110  1.0  -0.5562
  O  O121  1  0.610530  0.606800  0.887550  1.0  -0.6051
  O  O122  1  0.671480  0.785650  0.871850  1.0  -0.5634
  O  O123  1  0.411680  0.490400  0.976430  1.0  -0.6824
  O  O124  1  0.259460  0.481810  0.955880  1.0  -0.5633
  O  O125  1  0.405620  0.529870  0.858390  1.0  -0.5944
  O  O126  1  0.254400  0.513790  0.837070  1.0  -0.554
  O  O127  1  0.046480  0.855750  0.909190  1.0  -0.8119
  O  O128  1  0.104330  0.651670  0.886780  1.0  -0.832
  O  O129  1  0.211390  0.820500  0.926920  1.0  -0.7085
  O  O130  1  0.127560  0.721800  0.996670  1.0  -0.6606
  O  O131  1  0.059820  0.478170  0.796240  1.0  -0.7855
  O  O132  1  0.052110  0.317100  0.713830  1.0  -0.6832
  O  O133  1  0.001320  0.216720  0.948170  1.0  -0.615
  O  O134  1  0.054890  0.399280  0.927110  1.0  -0.5562
  O  O135  1  0.110530  0.106800  0.887550  1.0  -0.6051
  O  O136  1  0.171480  0.285650  0.871850  1.0  -0.5623
  O  O137  1  0.911680  0.990400  0.976430  1.0  -0.6824
  O  O138  1  0.759460  0.981810  0.955880  1.0  -0.5633
  O  O139  1  0.905620  0.029870  0.858390  1.0  -0.5944
  O  O140  1  0.754400  0.013790  0.837070  1.0  -0.5535
  O  O141  1  0.546480  0.644250  0.409190  1.0  -0.8124
  O  O142  1  0.604330  0.848330  0.386780  1.0  -0.8314
  O  O143  1  0.711390  0.679500  0.426920  1.0  -0.7075
  O  O144  1  0.627560  0.778200  0.496670  1.0  -0.6595
  O  O145  1  0.559820  0.021830  0.296240  1.0  -0.7849
  O  O146  1  0.552110  0.182900  0.213830  1.0  -0.6841
  O  O147  1  0.501320  0.283280  0.448170  1.0  -0.614
  O  O148  1  0.554890  0.100720  0.427110  1.0  -0.5549
  O  O149  1  0.610530  0.393200  0.387550  1.0  -0.6038
  O  O150  1  0.671480  0.214350  0.371850  1.0  -0.5631
  O  O151  1  0.411680  0.509600  0.476430  1.0  -0.6822
  O  O152  1  0.259460  0.518190  0.455880  1.0  -0.5636
  O  O153  1  0.405620  0.470130  0.358390  1.0  -0.5948
  O  O154  1  0.254400  0.486210  0.337070  1.0  -0.5542
  O  O155  1  0.046480  0.144250  0.409190  1.0  -0.8124
  O  O156  1  0.104330  0.348330  0.386780  1.0  -0.8314
  O  O157  1  0.211390  0.179500  0.426920  1.0  -0.7075
  O  O158  1  0.127560  0.278200  0.496670  1.0  -0.6595
  O  O159  1  0.059820  0.521830  0.296240  1.0  -0.7849
  O  O160  1  0.052110  0.682900  0.213830  1.0  -0.6841
  O  O161  1  0.001320  0.783280  0.448170  1.0  -0.614
  O  O162  1  0.054890  0.600720  0.427110  1.0  -0.5549
  O  O163  1  0.110530  0.893200  0.387550  1.0  -0.6038
  O  O164  1  0.171480  0.714350  0.371850  1.0  -0.562
  O  O165  1  0.911680  0.009600  0.476430  1.0  -0.6822
  O  O166  1  0.759460  0.018190  0.455880  1.0  -0.5636
  O  O167  1  0.905620  0.970130  0.358390  1.0  -0.5948
  O  O168  1  0.754400  0.986210  0.337070  1.0  -0.5536
  O  O169  1  0.453520  0.644250  0.090810  1.0  -0.8124
  O  O170  1  0.395670  0.848330  0.113220  1.0  -0.8328
  O  O171  1  0.288610  0.679500  0.073080  1.0  -0.7062
  O  O172  1  0.372440  0.778200  0.003330  1.0  -0.6598
  O  O173  1  0.440180  0.021830  0.203760  1.0  -0.7848
  O  O174  1  0.447890  0.182900  0.286170  1.0  -0.6875
  O  O175  1  0.498680  0.283280  0.051830  1.0  -0.615
  O  O176  1  0.445110  0.100720  0.072890  1.0  -0.5558
  O  O177  1  0.389470  0.393200  0.112450  1.0  -0.605
  O  O178  1  0.328520  0.214350  0.128150  1.0  -0.5634
  O  O179  1  0.588320  0.509600  0.023570  1.0  -0.682
  O  O180  1  0.740540  0.518190  0.044120  1.0  -0.5652
  O  O181  1  0.594380  0.470130  0.141610  1.0  -0.5941
  O  O182  1  0.745600  0.486210  0.162930  1.0  -0.5541
  O  O183  1  0.953520  0.144250  0.090810  1.0  -0.8124
  O  O184  1  0.895670  0.348330  0.113220  1.0  -0.8328
  O  O185  1  0.788610  0.179500  0.073080  1.0  -0.7062
  O  O186  1  0.872440  0.278200  0.003330  1.0  -0.6598
  O  O187  1  0.940180  0.521830  0.203760  1.0  -0.7848
  O  O188  1  0.947890  0.682900  0.286170  1.0  -0.6875
  O  O189  1  0.998680  0.783280  0.051830  1.0  -0.615
  O  O190  1  0.945110  0.600720  0.072890  1.0  -0.5558
  O  O191  1  0.889470  0.893200  0.112450  1.0  -0.605
  O  O192  1  0.828520  0.714350  0.128150  1.0  -0.5624
  O  O193  1  0.088320  0.009600  0.023570  1.0  -0.682
  O  O194  1  0.240540  0.018190  0.044120  1.0  -0.565
  O  O195  1  0.094380  0.970130  0.141610  1.0  -0.5941
  O  O196  1  0.245600  0.986210  0.162930  1.0  -0.5539
