# generated using pymatgen
data_Mg2PH(CO3)4
_symmetry_space_group_name_H-M   'P 1'
_cell_length_a   9.32540000
_cell_length_b   9.42800000
_cell_length_c   14.30600000
_cell_angle_alpha   96.44900000
_cell_angle_beta   103.87900000
_cell_angle_gamma   104.35000000
_symmetry_Int_Tables_number   1
_chemical_formula_structural   Mg2PH(CO3)4
_chemical_formula_sum   'Mg4 P2 H2 C8 O24'
_cell_volume   1163.06654186
_cell_formula_units_Z   2
loop_
 _symmetry_equiv_pos_site_id
 _symmetry_equiv_pos_as_xyz
  1  'x, y, z'
loop_
 _atom_site_type_symbol
 _atom_site_label
 _atom_site_symmetry_multiplicity
 _atom_site_fract_x
 _atom_site_fract_y
 _atom_site_fract_z
 _atom_site_occupancy
 _atom_site_charge
  Mg  Mg1  1  0.206950  0.482370  0.892140  1.0  1.5334
  Mg  Mg2  1  0.160840  0.298210  0.536750  1.0  1.5351
  Mg  Mg3  1  0.793050  0.517630  0.107860  1.0  1.5335
  Mg  Mg4  1  0.839160  0.701790  0.463250  1.0  1.5351
  P  P5  1  0.339490  0.593430  0.711230  1.0  1.6234
  P  P6  1  0.660510  0.406570  0.288770  1.0  1.6212
  H  H7  1  0.331800  0.730400  0.612700  1.0  0.4303
  H  H8  1  0.668200  0.269600  0.387300  1.0  0.4307
  C  C9  1  0.981800  0.565500  0.975380  1.0  0.5694
  C  C10  1  0.506400  0.577500  0.027720  1.0  0.4723
  C  C11  1  0.962200  0.004600  0.446200  1.0  0.5427
  C  C12  1  0.041100  0.522400  0.460200  1.0  0.5524
  C  C13  1  0.018200  0.434500  0.024620  1.0  0.5709
  C  C14  1  0.493600  0.422500  0.972280  1.0  0.4736
  C  C15  1  0.037800  0.995400  0.553800  1.0  0.546
  C  C16  1  0.958900  0.477600  0.539800  1.0  0.548
  O  O17  1  0.259110  0.597030  0.790620  1.0  -0.8085
  O  O18  1  0.312490  0.441020  0.654590  1.0  -0.8208
  O  O19  1  0.514540  0.667670  0.751130  1.0  -0.6003
  O  O20  1  0.270010  0.694710  0.641980  1.0  -0.6903
  O  O21  1  0.050860  0.602780  0.913500  1.0  -0.5292
  O  O22  1  0.886830  0.620100  0.002280  1.0  -0.5198
  O  O23  1  0.394290  0.627700  0.004600  1.0  -0.529
  O  O24  1  0.631220  0.639040  0.093090  1.0  -0.5546
  O  O25  1  0.996050  0.128680  0.422570  1.0  -0.5492
  O  O26  1  0.874230  0.885530  0.392720  1.0  -0.5407
  O  O27  1  0.127490  0.445670  0.442590  1.0  -0.5771
  O  O28  1  0.014100  0.627250  0.421080  1.0  -0.5448
  O  O29  1  0.740890  0.402970  0.209380  1.0  -0.81
  O  O30  1  0.687510  0.558980  0.345410  1.0  -0.8198
  O  O31  1  0.485460  0.332330  0.248870  1.0  -0.5899
  O  O32  1  0.729990  0.305290  0.358020  1.0  -0.6906
  O  O33  1  0.949140  0.397220  0.086500  1.0  -0.5255
  O  O34  1  0.113170  0.379900  0.997720  1.0  -0.5241
  O  O35  1  0.605710  0.372300  0.995400  1.0  -0.5283
  O  O36  1  0.368780  0.360960  0.906910  1.0  -0.5551
  O  O37  1  0.003950  0.871320  0.577430  1.0  -0.5483
  O  O38  1  0.125770  0.114470  0.607280  1.0  -0.5381
  O  O39  1  0.872510  0.554330  0.557410  1.0  -0.5764
  O  O40  1  0.985900  0.372750  0.578920  1.0  -0.5478
