# generated using pymatgen
data_MgPHCO6
_symmetry_space_group_name_H-M   'P 1'
_cell_length_a   5.41340000
_cell_length_b   15.25900000
_cell_length_c   9.01760000
_cell_angle_alpha   90.00000000
_cell_angle_beta   94.70400000
_cell_angle_gamma   90.00000000
_symmetry_Int_Tables_number   1
_chemical_formula_structural   MgPHCO6
_chemical_formula_sum   'Mg4 P4 H4 C4 O24'
_cell_volume   742.37243844
_cell_formula_units_Z   4
loop_
 _symmetry_equiv_pos_site_id
 _symmetry_equiv_pos_as_xyz
  1  'x, y, z'
loop_
 _atom_site_type_symbol
 _atom_site_label
 _atom_site_symmetry_multiplicity
 _atom_site_fract_x
 _atom_site_fract_y
 _atom_site_fract_z
 _atom_site_occupancy
 _atom_site_charge
  Mg  Mg1  1  0.179200  0.673270  0.491780  1.0  1.5721
  Mg  Mg2  1  0.320800  0.173270  0.008220  1.0  1.5737
  Mg  Mg3  1  0.820800  0.326730  0.508220  1.0  1.5749
  Mg  Mg4  1  0.679200  0.826730  0.991780  1.0  1.5734
  P  P5  1  0.149440  0.818340  0.766180  1.0  1.7323
  P  P6  1  0.350560  0.318340  0.733820  1.0  1.7331
  P  P7  1  0.850560  0.181660  0.233820  1.0  1.734
  P  P8  1  0.649440  0.681660  0.266180  1.0  1.7327
  H  H9  1  0.015900  0.939600  0.801000  1.0  0.4036
  H  H10  1  0.484100  0.439600  0.699000  1.0  0.4055
  H  H11  1  0.984100  0.060400  0.199000  1.0  0.4066
  H  H12  1  0.515900  0.560400  0.301000  1.0  0.4043
  C  C13  1  0.093200  0.485900  0.444900  1.0  0.5744
  C  C14  1  0.406800  0.985900  0.055100  1.0  0.5755
  C  C15  1  0.906800  0.514100  0.555100  1.0  0.5756
  C  C16  1  0.593200  0.014100  0.944900  1.0  0.5751
  O  O17  1  0.112500  0.785090  0.606500  1.0  -0.7856
  O  O18  1  0.948400  0.786600  0.860800  1.0  -0.7978
  O  O19  1  0.409000  0.795560  0.831000  1.0  -0.7942
  O  O20  1  0.133200  0.922520  0.756800  1.0  -0.6934
  O  O21  1  0.239800  0.544100  0.408400  1.0  -0.6478
  O  O22  1  0.082100  0.408060  0.401400  1.0  -0.5635
  O  O23  1  0.387500  0.285090  0.893500  1.0  -0.7862
  O  O24  1  0.551600  0.286600  0.639200  1.0  -0.7972
  O  O25  1  0.091000  0.295560  0.669000  1.0  -0.7947
  O  O26  1  0.366800  0.422520  0.743200  1.0  -0.6959
  O  O27  1  0.260200  0.044100  0.091600  1.0  -0.6492
  O  O28  1  0.417900  0.908060  0.098600  1.0  -0.5649
  O  O29  1  0.887500  0.214910  0.393500  1.0  -0.7862
  O  O30  1  0.051600  0.213400  0.139200  1.0  -0.8
  O  O31  1  0.591000  0.204440  0.169000  1.0  -0.7949
  O  O32  1  0.866800  0.077480  0.243200  1.0  -0.6962
  O  O33  1  0.760200  0.455900  0.591600  1.0  -0.6487
  O  O34  1  0.917900  0.591940  0.598600  1.0  -0.5639
  O  O35  1  0.612500  0.714910  0.106500  1.0  -0.7861
  O  O36  1  0.448400  0.713400  0.360800  1.0  -0.801
  O  O37  1  0.909000  0.704440  0.331000  1.0  -0.7944
  O  O38  1  0.633200  0.577480  0.256800  1.0  -0.6937
  O  O39  1  0.739800  0.955900  0.908400  1.0  -0.6477
  O  O40  1  0.582100  0.091940  0.901400  1.0  -0.5635
