# generated using pymatgen
data_V12Ni4H60C75N15O22
_symmetry_space_group_name_H-M   'P 1'
_cell_length_a   11.27840000
_cell_length_b   22.52100000
_cell_length_c   22.60000000
_cell_angle_alpha   104.62600000
_cell_angle_beta   96.24100000
_cell_angle_gamma   100.21500000
_symmetry_Int_Tables_number   1
_chemical_formula_structural   V12Ni4H60C75N15O22
_chemical_formula_sum   'V24 Ni8 H120 C150 N30 O44'
_cell_volume   5394.87905061
_cell_formula_units_Z   2
loop_
 _symmetry_equiv_pos_site_id
 _symmetry_equiv_pos_as_xyz
  1  'x, y, z'
loop_
 _atom_site_type_symbol
 _atom_site_label
 _atom_site_symmetry_multiplicity
 _atom_site_fract_x
 _atom_site_fract_y
 _atom_site_fract_z
 _atom_site_occupancy
 _atom_site_charge
  V  V1  1  0.127860  0.381860  0.537660  1.0  1.2505
  V  V2  1  0.341300  0.439470  0.314890  1.0  1.2101
  V  V3  1  0.482630  0.362690  0.501660  1.0  1.2604
  V  V4  1  0.289070  0.420730  0.161200  1.0  1.1781
  V  V5  1  0.476780  0.337760  0.978990  1.0  1.2209
  V  V6  1  0.325270  0.448280  0.821330  1.0  1.2122
  V  V7  1  0.253490  0.395900  0.936830  1.0  1.1957
  V  V8  1  0.351990  0.291580  0.102950  1.0  1.225
  V  V9  1  0.455600  0.783350  0.895670  1.0  1.2095
  V  V10  1  0.123400  0.469660  0.050970  1.0  1.1426
  V  V11  1  0.241590  0.344430  0.403240  1.0  1.1546
  V  V12  1  0.232000  0.940020  0.524880  1.0  1.1942
  V  V13  1  0.306860  0.411640  0.671770  1.0  1.1812
  V  V14  1  0.192470  0.947180  0.016220  1.0  1.2015
  V  V15  1  0.436600  0.881860  0.040300  1.0  1.1307
  V  V16  1  0.924120  0.855700  0.017560  1.0  1.1872
  V  V17  1  0.934300  0.866900  0.522970  1.0  1.1877
  V  V18  1  0.754020  0.855360  0.896290  1.0  1.2494
  V  V19  1  0.461400  0.771540  0.394050  1.0  1.1626
  V  V20  1  0.402780  0.286060  0.615560  1.0  1.195
  V  V21  1  0.751500  0.860400  0.400700  1.0  1.1716
  V  V22  1  0.729170  0.928780  0.105230  1.0  1.2562
  V  V23  1  0.713100  0.919530  0.604930  1.0  1.1984
  V  V24  1  0.412200  0.846170  0.535440  1.0  1.1359
  Ni  Ni25  1  0.240530  0.121120  0.055030  1.0  0.6906
  Ni  Ni26  1  0.747020  0.880460  0.246240  1.0  0.8469
  Ni  Ni27  1  0.296520  0.113350  0.557000  1.0  0.7522
  Ni  Ni28  1  0.402320  0.620020  0.893410  1.0  0.6387
  Ni  Ni29  1  0.406520  0.607070  0.389980  1.0  0.7146
  Ni  Ni30  1  0.812120  0.385840  0.009520  1.0  0.7719
  Ni  Ni31  1  0.811330  0.385080  0.508660  1.0  0.6945
  Ni  Ni32  1  0.795290  0.886580  0.749780  1.0  0.7631
  H  H33  1  0.701900  0.796800  0.618400  1.0  0.0725
  H  H34  1  0.718200  0.698200  0.559000  1.0  0.1245
  H  H35  1  0.899200  0.674600  0.715400  1.0  0.1114
  H  H36  1  0.867400  0.773200  0.769800  1.0  0.0848
  H  H37  1  0.988300  0.506600  0.591900  1.0  0.0756
  H  H38  1  0.987200  0.610100  0.640900  1.0  0.1203
  H  H39  1  0.652200  0.586300  0.539600  1.0  0.1057
  H  H40  1  0.670700  0.485500  0.491600  1.0  0.065
  H  H41  1  0.956700  0.833400  0.303100  1.0  0.0744
  H  H42  1  0.160700  0.833200  0.300200  1.0  0.1136
  H  H43  1  0.152800  0.922700  0.169300  1.0  0.1028
  H  H44  1  0.953800  0.928200  0.178900  1.0  0.0732
  H  H45  1  0.562100  0.952500  0.206300  1.0  0.078
  H  H46  1  0.358800  0.954200  0.202900  1.0  0.0983
  H  H47  1  0.305300  0.790100  0.251700  1.0  0.1174
  H  H48  1  0.510500  0.791800  0.252900  1.0  0.0796
  H  H49  1  0.549300  0.823500  0.671600  1.0  0.0813
  H  H50  1  0.341000  0.822500  0.670100  1.0  0.119
  H  H51  1  0.424200  0.935900  0.846400  1.0  0.1007
  H  H52  1  0.628100  0.933700  0.844400  1.0  0.0798
  H  H53  1  0.992100  0.895000  0.666667  1.0  0.0635
  H  H54  1  0.199300  0.887600  0.664300  1.0  0.1095
  H  H55  1  0.220200  0.889600  0.849200  1.0  0.1123
  H  H56  1  0.010300  0.894200  0.839900  1.0  0.0821
  H  H57  1  0.650600  0.252900  0.492900  1.0  0.062
  H  H58  1  0.624900  0.150800  0.432800  1.0  0.1046
  H  H59  1  0.950000  0.202100  0.379600  1.0  0.1075
  H  H60  1  0.959500  0.303700  0.435600  1.0  0.058
  H  H61  1  0.633700  0.956600  0.340600  1.0  0.076
  H  H62  1  0.633100  0.057000  0.395400  1.0  0.1092
  H  H63  1  0.912600  0.118600  0.312100  1.0  0.109
  H  H64  1  0.894300  0.018200  0.254500  1.0  0.0693
  H  H65  1  0.951500  0.986200  0.863000  1.0  0.0709
  H  H66  1  0.957700  0.088900  0.921800  1.0  0.0921
  H  H67  1  0.722400  0.103400  0.779500  1.0  0.111
  H  H68  1  0.722200  0.998400  0.731100  1.0  0.0693
  H  H69  1  0.652000  0.271500  0.920400  1.0  0.0918
  H  H70  1  0.655000  0.169900  0.864800  1.0  0.1
  H  H71  1  0.005700  0.197100  0.943000  1.0  0.0936
  H  H72  1  0.996600  0.297200  0.997200  1.0  0.0813
  H  H73  1  0.706100  0.491100  0.979000  1.0  0.0686
  H  H74  1  0.693500  0.593700  0.023500  1.0  0.0937
  H  H75  1  0.873700  0.583700  0.183400  1.0  0.1077
  H  H76  1  0.900900  0.485900  0.130600  1.0  0.057
  H  H77  1  0.729300  0.646600  0.223200  1.0  0.1056
  H  H78  1  0.700200  0.746700  0.271100  1.0  0.0944
  H  H79  1  0.760100  0.800900  0.117100  1.0  0.0962
  H  H80  1  0.789200  0.700700  0.069100  1.0  0.096
  H  H81  1  0.549100  0.188800  0.627400  1.0  0.0766
  H  H82  1  0.752400  0.196800  0.616500  1.0  0.109
  H  H83  1  0.658400  0.026100  0.488600  1.0  0.1151
  H  H84  1  0.454600  0.028400  0.498000  1.0  0.0698
  H  H85  1  0.051800  0.019400  0.521600  1.0  0.0999
  H  H86  1  0.843600  0.018200  0.519900  1.0  0.1038
  H  H87  1  0.916400  0.208300  0.561900  1.0  0.0986
  H  H88  1  0.124700  0.209500  0.563600  1.0  0.0933
  H  H89  1  0.391400  0.050200  0.653900  1.0  0.0899
  H  H90  1  0.373200  0.048500  0.754700  1.0  0.091
  H  H91  1  0.166300  0.178200  0.764200  1.0  0.1073
  H  H92  1  0.195300  0.179100  0.665100  1.0  0.064
  H  H93  1  0.236500  0.025800  0.931400  1.0  0.0792
  H  H94  1  0.249600  0.021700  0.828400  1.0  0.0815
  H  H95  1  0.242700  0.204800  0.867300  1.0  0.1057
  H  H96  1  0.226800  0.204800  0.968400  1.0  0.0748
  H  H97  1  0.429400  0.050600  0.092100  1.0  0.0736
  H  H98  1  0.634400  0.048100  0.090500  1.0  0.1041
  H  H99  1  0.671900  0.201900  0.028000  1.0  0.0998
  H  H100  1  0.465700  0.197300  0.025400  1.0  0.0717
  H  H101  1  0.079100  0.211200  0.099800  1.0  0.0772
  H  H102  1  0.874400  0.215500  0.101600  1.0  0.1096
  H  H103  1  0.784200  0.030000  0.013200  1.0  0.1125
  H  H104  1  0.990400  0.032000  0.010500  1.0  0.0693
  H  H105  1  0.988300  0.399400  0.919600  1.0  0.0762
  H  H106  1  0.992200  0.391500  0.814900  1.0  0.1038
  H  H107  1  0.627800  0.387400  0.792100  1.0  0.122
  H  H108  1  0.633000  0.392200  0.896300  1.0  0.0685
  H  H109  1  0.669000  0.425500  0.612900  1.0  0.0784
  H  H110  1  0.671700  0.432500  0.716000  1.0  0.1062
  H  H111  1  0.937800  0.331500  0.706800  1.0  0.1074
  H  H112  1  0.928400  0.326700  0.603500  1.0  0.0703
  H  H113  1  0.642200  0.380300  0.102400  1.0  0.085
  H  H114  1  0.647200  0.390000  0.207300  1.0  0.108
  H  H115  1  0.990400  0.358000  0.215800  1.0  0.1102
  H  H116  1  0.979600  0.354800  0.112200  1.0  0.0659
  H  H117  1  0.994500  0.424100  0.424700  1.0  0.0705
  H  H118  1  0.005300  0.412600  0.320700  1.0  0.108
  H  H119  1  0.636100  0.353000  0.284600  1.0  0.1069
  H  H120  1  0.637500  0.357700  0.388900  1.0  0.0913
  H  H121  1  0.113900  0.049000  0.136900  1.0  0.0673
  H  H122  1  0.122400  0.046700  0.238500  1.0  0.1121
  H  H123  1  0.407400  0.194800  0.285400  1.0  0.1094
  H  H124  1  0.389100  0.196500  0.183800  1.0  0.0746
  H  H125  1  0.347100  0.206300  0.480800  1.0  0.0732
  H  H126  1  0.336500  0.212000  0.380200  1.0  0.1019
  H  H127  1  0.222700  0.022500  0.323900  1.0  0.0953
  H  H128  1  0.233000  0.022700  0.426100  1.0  0.072
  H  H129  1  0.345500  0.516500  0.470000  1.0  0.071
  H  H130  1  0.338800  0.516600  0.571600  1.0  0.1112
  H  H131  1  0.466000  0.706300  0.620800  1.0  0.1054
  H  H132  1  0.476500  0.699000  0.517500  1.0  0.0721
  H  H133  1  0.550700  0.682300  0.813100  1.0  0.0725
  H  H134  1  0.558900  0.678900  0.710600  1.0  0.103
  H  H135  1  0.234900  0.553200  0.664700  1.0  0.1077
  H  H136  1  0.239700  0.560100  0.767700  1.0  0.0592
  H  H137  1  0.183100  0.545600  0.926800  1.0  0.0772
  H  H138  1  0.977400  0.542100  0.930700  1.0  0.1101
  H  H139  1  0.008100  0.696300  0.867500  1.0  0.1095
  H  H140  1  0.213200  0.692600  0.861100  1.0  0.0661
  H  H141  1  0.651700  0.708900  0.942900  1.0  0.0733
  H  H142  1  0.856700  0.711800  0.946100  1.0  0.1109
  H  H143  1  0.773600  0.526300  0.858500  1.0  0.1016
  H  H144  1  0.570000  0.528800  0.858100  1.0  0.0697
  H  H145  1  0.246900  0.684500  0.457900  1.0  0.0739
  H  H146  1  0.044900  0.687300  0.463300  1.0  0.1128
  H  H147  1  0.949100  0.530800  0.318800  1.0  0.1109
  H  H148  1  0.153500  0.531800  0.316300  1.0  0.0778
  H  H149  1  0.581700  0.518300  0.387800  1.0  0.0685
  H  H150  1  0.783000  0.514200  0.378900  1.0  0.104
  H  H151  1  0.855700  0.703900  0.411600  1.0  0.1186
  H  H152  1  0.651700  0.700500  0.415100  1.0  0.0658
  C  C153  1  0.738800  0.770500  0.638200  1.0  0.1381
  C  C154  1  0.748500  0.712100  0.602200  1.0  -0.2336
  C  C155  1  0.805000  0.674700  0.632200  1.0  -0.0074
  C  C156  1  0.854800  0.697900  0.695000  1.0  -0.195
  C  C157  1  0.836800  0.757000  0.726700  1.0  0.1357
  C  C158  1  0.917400  0.522200  0.583100  1.0  0.1448
  C  C159  1  0.919200  0.584500  0.611400  1.0  -0.2151
  C  C160  1  0.819000  0.608900  0.595800  1.0  -0.015
  C  C161  1  0.722000  0.571100  0.551400  1.0  -0.1862
  C  C162  1  0.732000  0.510000  0.525000  1.0  0.1495
  C  C163  1  0.998100  0.854900  0.277600  1.0  0.131
  C  C164  1  0.118100  0.852200  0.274100  1.0  -0.1983
  C  C165  1  0.175400  0.876900  0.233200  1.0  0.0351
  C  C166  1  0.114500  0.905300  0.198300  1.0  -0.1856
  C  C167  1  0.996500  0.909000  0.204800  1.0  0.1291
  C  C168  1  0.509100  0.919600  0.215800  1.0  0.1349
  C  C169  1  0.388700  0.920800  0.213800  1.0  -0.1819
  C  C170  1  0.308000  0.872700  0.227700  1.0  0.0323
  C  C171  1  0.356700  0.823700  0.242500  1.0  -0.2011
  C  C172  1  0.478500  0.825200  0.243300  1.0  0.1515
  C  C173  1  0.523800  0.846600  0.707500  1.0  0.1544
  C  C174  1  0.398400  0.846300  0.705800  1.0  -0.1986
  C  C175  1  0.359700  0.882000  0.757800  1.0  0.0836
  C  C176  1  0.447900  0.913100  0.809800  1.0  -0.1687
  C  C177  1  0.569900  0.911200  0.808600  1.0  0.1391
  C  C178  1  0.039500  0.892100  0.702800  1.0  0.1615
  C  C179  1  0.163000  0.887500  0.700300  1.0  -0.1662
  C  C180  1  0.228000  0.882800  0.756000  1.0  -0.0648
  C  C181  1  0.174900  0.888400  0.810800  1.0  -0.167
  C  C182  1  0.050100  0.892100  0.804700  1.0  0.1158
  C  C183  1  0.710800  0.242500  0.468100  1.0  0.1566
  C  C184  1  0.695600  0.181200  0.433500  1.0  -0.2197
  C  C185  1  0.786700  0.164500  0.399300  1.0  0.0618
  C  C186  1  0.885600  0.211700  0.401700  1.0  -0.2121
  C  C187  1  0.891400  0.272100  0.435700  1.0  0.1586
  C  C188  1  0.691800  0.989900  0.334900  1.0  0.1463
  C  C189  1  0.691700  0.050200  0.368600  1.0  -0.2236
  C  C190  1  0.778000  0.101800  0.363600  1.0  0.0103
  C  C191  1  0.853900  0.086200  0.319000  1.0  -0.2487
  C  C192  1  0.844600  0.025500  0.285800  1.0  0.1534
  C  C193  1  0.897400  0.009200  0.848500  1.0  0.1646
  C  C194  1  0.904500  0.070600  0.883300  1.0  -0.1872
  C  C195  1  0.830000  0.103100  0.858600  1.0  -0.0653
  C  C196  1  0.764700  0.079200  0.799700  1.0  -0.2009
  C  C197  1  0.765900  0.016700  0.771900  1.0  0.1762
  C  C198  1  0.723900  0.255600  0.925800  1.0  0.1237
  C  C199  1  0.726100  0.195200  0.892100  1.0  -0.1584
  C  C200  1  0.830500  0.171100  0.897600  1.0  0.0247
  C  C201  1  0.931600  0.211100  0.938000  1.0  -0.1754
  C  C202  1  0.925700  0.270600  0.970700  1.0  0.1418
  C  C203  1  0.743100  0.510800  0.020900  1.0  0.1436
  C  C204  1  0.733200  0.571800  0.047700  1.0  -0.2006
  C  C205  1  0.781000  0.601500  0.109900  1.0  0.0861
  C  C206  1  0.840900  0.566800  0.140700  1.0  -0.2285
  C  C207  1  0.853200  0.507200  0.109280  1.0  0.1402
  C  C208  1  0.762000  0.664230  0.141620  1.0  0.0332
  C  C209  1  0.735500  0.677900  0.201630  1.0  -0.1387
  C  C210  1  0.718300  0.737400  0.230120  1.0  0.1344
  C  C211  1  0.753900  0.769550  0.138610  1.0  0.1206
  C  C212  1  0.771100  0.710050  0.110120  1.0  -0.1505
  C  C213  1  0.571400  0.156950  0.597090  1.0  0.1453
  C  C214  1  0.693400  0.160910  0.592310  1.0  -0.189
  C  C215  1  0.729800  0.112500  0.552300  1.0  0.0747
  C  C216  1  0.638200  0.060900  0.516200  1.0  -0.2091
  C  C217  1  0.516700  0.062790  0.522350  1.0  0.1496
  C  C218  1  0.024300  0.057750  0.529810  1.0  0.1474
  C  C219  1  0.900600  0.057050  0.528770  1.0  -0.1294
  C  C220  1  0.860400  0.113150  0.540730  1.0  0.0373
  C  C221  1  0.943900  0.169940  0.553730  1.0  -0.1412
  C  C222  1  0.067600  0.170650  0.554760  1.0  0.1194
  C  C223  1  0.345600  0.076700  0.676900  1.0  0.1257
  C  C224  1  0.334400  0.075600  0.737000  1.0  -0.1621
  C  C225  1  0.266600  0.113700  0.772500  1.0  0.0595
  C  C226  1  0.214200  0.151600  0.743100  1.0  -0.2162
  C  C227  1  0.230600  0.151400  0.683400  1.0  0.1591
  C  C228  1  0.238200  0.062900  0.918500  1.0  0.1357
  C  C229  1  0.247100  0.060500  0.856700  1.0  -0.1935
  C  C230  1  0.252400  0.113600  0.836000  1.0  0.0805
  C  C231  1  0.242700  0.167200  0.879100  1.0  -0.2162
  C  C232  1  0.233100  0.166900  0.939800  1.0  0.1545
  C  C233  1  0.478800  0.081000  0.077700  1.0  0.1509
  C  C234  1  0.601700  0.079600  0.077400  1.0  -0.231
  C  C235  1  0.675700  0.124200  0.057900  1.0  0.0762
  C  C236  1  0.623200  0.169400  0.040000  1.0  -0.2082
  C  C237  1  0.500400  0.166900  0.039500  1.0  0.1524
  C  C238  1  0.018400  0.174200  0.080500  1.0  0.1521
  C  C239  1  0.896000  0.177100  0.082600  1.0  -0.2213
  C  C240  1  0.806800  0.122800  0.056500  1.0  0.0736
  C  C241  1  0.842800  0.068200  0.030200  1.0  -0.244
  C  C242  1  0.966700  0.069900  0.029000  1.0  0.1552
  C  C243  1  0.914600  0.396400  0.893300  1.0  0.1459
  C  C244  1  0.917600  0.391600  0.830700  1.0  -0.1958
  C  C245  1  0.809400  0.386800  0.791400  1.0  0.043
  C  C246  1  0.702200  0.388700  0.817000  1.0  -0.2238
  C  C247  1  0.706800  0.392600  0.879600  1.0  0.1424
  C  C248  1  0.725200  0.406900  0.632700  1.0  0.1476
  C  C249  1  0.725800  0.410900  0.694100  1.0  -0.2098
  C  C250  1  0.805700  0.383400  0.724900  1.0  0.0713
  C  C251  1  0.882400  0.351400  0.688400  1.0  -0.1917
  C  C252  1  0.877100  0.349100  0.626900  1.0  0.1581
  C  C253  1  0.714500  0.376900  0.126000  1.0  0.1515
  C  C254  1  0.716200  0.381600  0.188700  1.0  -0.2122
  C  C255  1  0.819100  0.374000  0.224600  1.0  0.0645
  C  C256  1  0.918200  0.363600  0.194000  1.0  -0.226
  C  C257  1  0.910600  0.361300  0.131600  1.0  0.1637
  C  C258  1  0.921200  0.408100  0.395500  1.0  0.1619
  C  C259  1  0.928800  0.402000  0.333600  1.0  -0.2382
  C  C260  1  0.821100  0.379700  0.290300  1.0  0.0475
  C  C261  1  0.711200  0.365800  0.312400  1.0  -0.1747
  C  C262  1  0.712000  0.370500  0.375100  1.0  0.1411
  C  C263  1  0.174300  0.079400  0.167500  1.0  0.1507
  C  C264  1  0.179400  0.077300  0.228000  1.0  -0.2272
  C  C265  1  0.268500  0.120100  0.273700  1.0  0.0714
  C  C266  1  0.345900  0.164300  0.255400  1.0  -0.218
  C  C267  1  0.335100  0.164900  0.194600  1.0  0.1517
  C  C268  1  0.320600  0.168500  0.448100  1.0  0.1584
  C  C269  1  0.314500  0.172300  0.388100  1.0  -0.2208
  C  C270  1  0.275600  0.117500  0.338200  1.0  0.0685
  C  C271  1  0.247300  0.061300  0.355300  1.0  -0.2087
  C  C272  1  0.254700  0.061600  0.416700  1.0  0.1478
  C  C273  1  0.371100  0.555300  0.501300  1.0  0.1578
  C  C274  1  0.365500  0.554900  0.561800  1.0  -0.2303
  C  C275  1  0.400000  0.611800  0.608800  1.0  0.0802
  C  C276  1  0.441600  0.666667  0.590700  1.0  -0.2143
  C  C277  1  0.446400  0.661900  0.528800  1.0  0.1539
  C  C278  1  0.486500  0.655400  0.782100  1.0  0.1465
  C  C279  1  0.491600  0.653800  0.720900  1.0  -0.2101
  C  C280  1  0.398000  0.615500  0.674300  1.0  0.0707
  C  C281  1  0.301800  0.580100  0.694100  1.0  -0.2453
  C  C282  1  0.305600  0.584500  0.755700  1.0  0.1621
  C  C283  1  0.146400  0.575900  0.913500  1.0  0.1596
  C  C284  1  0.024200  0.574000  0.917100  1.0  -0.2295
  C  C285  1  0.971800  0.619900  0.900400  1.0  0.0239
  C  C286  1  0.042000  0.664500  0.879400  1.0  -0.1964
  C  C287  1  0.164900  0.662000  0.875800  1.0  0.1544
  C  C288  1  0.676700  0.671100  0.925000  1.0  0.1513
  C  C289  1  0.799600  0.673300  0.927200  1.0  -0.2515
  C  C290  1  0.840400  0.619300  0.901900  1.0  0.1041
  C  C291  1  0.750900  0.564800  0.876000  1.0  -0.2309
  C  C292  1  0.629000  0.566800  0.875800  1.0  0.1469
  C  C293  1  0.185300  0.652800  0.429300  1.0  0.1417
  C  C294  1  0.065500  0.654700  0.433000  1.0  -0.2398
  C  C295  1  0.975600  0.609200  0.392400  1.0  0.0811
  C  C296  1  0.009500  0.562700  0.347900  1.0  -0.2237
  C  C297  1  0.130900  0.563500  0.346700  1.0  0.1572
  C  C298  1  0.637800  0.556200  0.390900  1.0  0.1493
  C  C299  1  0.758600  0.553400  0.387000  1.0  -0.2307
  C  C300  1  0.843400  0.609000  0.395100  1.0  0.0879
  C  C301  1  0.801100  0.664800  0.405700  1.0  -0.2382
  C  C302  1  0.678800  0.662000  0.407400  1.0  0.1489
  N  N303  1  0.778000  0.791300  0.698400  1.0  -0.3145
  N  N304  1  0.820000  0.481700  0.543300  1.0  -0.3538
  N  N305  1  0.937500  0.886500  0.246600  1.0  -0.3344
  N  N306  1  0.556100  0.872900  0.231000  1.0  -0.3424
  N  N307  1  0.609800  0.877900  0.757600  1.0  -0.3544
  N  N308  1  0.986600  0.892600  0.752100  1.0  -0.3146
  N  N309  1  0.805200  0.288800  0.469100  1.0  -0.336
  N  N310  1  0.770000  0.974800  0.293800  1.0  -0.35
  N  N311  1  0.821900  0.981200  0.797400  1.0  -0.2959
  N  N312  1  0.822200  0.292100  0.966200  1.0  -0.3344
  N  N313  1  0.801800  0.478600  0.051100  1.0  -0.3211
  N  N314  1  0.727400  0.783230  0.198620  1.0  -0.3565
  N  N315  1  0.483300  0.110170  0.560450  1.0  -0.3247
  N  N316  1  0.107800  0.114540  0.542800  1.0  -0.3527
  N  N317  1  0.292700  0.114700  0.650600  1.0  -0.3169
  N  N318  1  0.232200  0.115800  0.959600  1.0  -0.3227
  N  N319  1  0.427300  0.123700  0.058200  1.0  -0.3264
  N  N320  1  0.054200  0.122300  0.052700  1.0  -0.3391
  N  N321  1  0.810100  0.397000  0.917900  1.0  -0.318
  N  N322  1  0.801700  0.377400  0.598300  1.0  -0.3407
  N  N323  1  0.811500  0.367800  0.097200  1.0  -0.3359
  N  N324  1  0.816100  0.392800  0.417000  1.0  -0.3463
  N  N325  1  0.250700  0.122400  0.148900  1.0  -0.3381
  N  N326  1  0.290900  0.113700  0.463300  1.0  -0.344
  N  N327  1  0.410500  0.607600  0.483800  1.0  -0.3312
  N  N328  1  0.394600  0.620500  0.799600  1.0  -0.3385
  N  N329  1  0.216000  0.618300  0.892000  1.0  -0.3102
  N  N330  1  0.589600  0.618900  0.899100  1.0  -0.3469
  N  N331  1  0.219500  0.607900  0.387100  1.0  -0.3563
  N  N332  1  0.595300  0.609500  0.399000  1.0  -0.3501
  O  O333  1  0.256500  0.016300  0.535500  1.0  -0.6783
  O  O334  1  0.336200  0.210200  0.585900  1.0  -0.7432
  O  O335  1  0.627300  0.363300  0.995900  1.0  -0.7482
  O  O336  1  0.627200  0.365300  0.491300  1.0  -0.7079
  O  O337  1  0.995200  0.403400  0.528800  1.0  -0.7555
  O  O338  1  0.366100  0.511300  0.361800  1.0  -0.7154
  O  O339  1  0.228200  0.400300  0.859300  1.0  -0.6716
  O  O340  1  0.354700  0.523200  0.861400  1.0  -0.7603
  O  O341  1  0.208200  0.025700  0.035100  1.0  -0.7196
  O  O342  1  0.245800  0.385200  0.346900  1.0  -0.7962
  O  O343  1  0.295500  0.329300  0.654700  1.0  -0.6841
  O  O344  1  0.252500  0.437400  0.742300  1.0  -0.7162
  O  O345  1  0.407700  0.401000  0.962900  1.0  -0.7038
  O  O346  1  0.349300  0.916600  0.567300  1.0  -0.6894
  O  O347  1  0.322200  0.924500  0.053700  1.0  -0.799
  O  O348  1  0.237500  0.338300  0.126300  1.0  -0.7142
  O  O349  1  0.263400  0.438300  0.239500  1.0  -0.7301
  O  O350  1  0.995700  0.414200  0.030600  1.0  -0.7795
  O  O351  1  0.203900  0.457500  0.985400  1.0  -0.7558
  O  O352  1  0.798800  0.862600  0.829000  1.0  -0.8254
  O  O353  1  0.832300  0.909700  0.557100  1.0  -0.8085
  O  O354  1  0.442700  0.717300  0.919100  1.0  -0.8152
  O  O355  1  0.221900  0.429200  0.610300  1.0  -0.7428
  O  O356  1  0.422500  0.312700  0.042000  1.0  -0.798
  O  O357  1  0.430100  0.848400  0.959400  1.0  -0.7767
  O  O358  1  0.609400  0.802600  0.881100  1.0  -0.8348
  O  O359  1  0.440900  0.703300  0.412500  1.0  -0.8071
  O  O360  1  0.619400  0.800400  0.397300  1.0  -0.8204
  O  O361  1  0.212900  0.463500  0.119900  1.0  -0.7627
  O  O362  1  0.579200  0.929500  0.069300  1.0  -0.8548
  O  O363  1  0.193400  0.388000  0.469300  1.0  -0.7739
  O  O364  1  0.276300  0.216600  0.076800  1.0  -0.7324
  O  O365  1  0.866200  0.826100  0.939200  1.0  -0.7394
  O  O366  1  0.384300  0.327900  0.426200  1.0  -0.7491
  O  O367  1  0.445200  0.315500  0.553200  1.0  -0.781
  O  O368  1  0.764200  0.859900  0.327700  1.0  -0.8184
  O  O369  1  0.890500  0.846200  0.441900  1.0  -0.6893
  O  O370  1  0.401400  0.820300  0.455700  1.0  -0.7118
  O  O371  1  0.776600  0.907500  0.668200  1.0  -0.6948
  O  O372  1  0.053600  0.913600  0.040100  1.0  -0.8464
  O  O373  1  0.805500  0.876200  0.056900  1.0  -0.8169
  O  O374  1  0.083700  0.911800  0.544300  1.0  -0.7797
  O  O375  1  0.567100  0.867500  0.570700  1.0  -0.808
  O  O376  1  0.722600  0.899300  0.164600  1.0  -0.7483
