# generated using pymatgen
data_UH30C18(NO2)4
_symmetry_space_group_name_H-M   'P 1'
_cell_length_a   10.19190000
_cell_length_b   13.52800000
_cell_length_c   13.52800000
_cell_angle_alpha   104.00200000
_cell_angle_beta   96.18100000
_cell_angle_gamma   83.81900000
_symmetry_Int_Tables_number   1
_chemical_formula_structural   UH30C18(NO2)4
_chemical_formula_sum   'U2 H60 C36 N8 O16'
_cell_volume   1792.79461600
_cell_formula_units_Z   2
loop_
 _symmetry_equiv_pos_site_id
 _symmetry_equiv_pos_as_xyz
  1  'x, y, z'
loop_
 _atom_site_type_symbol
 _atom_site_label
 _atom_site_symmetry_multiplicity
 _atom_site_fract_x
 _atom_site_fract_y
 _atom_site_fract_z
 _atom_site_occupancy
 _atom_site_charge
  U  U1  1  0.750000  0.648900  0.648900  1.0  1.2528
  U  U2  1  0.250000  0.351100  0.351100  1.0  1.2584
  H  H3  1  0.399100  0.310900  0.749500  1.0  0.2279
  H  H4  1  0.807500  0.427000  0.893800  1.0  0.0873
  H  H5  1  0.740700  0.420000  0.990800  1.0  0.0885
  H  H6  1  0.612800  0.510400  0.832800  1.0  0.0501
  H  H7  1  0.545900  0.513200  0.933000  1.0  0.0603
  H  H8  1  0.626700  0.329500  0.793900  1.0  0.0915
  H  H9  1  0.555600  0.333900  0.892300  1.0  0.0881
  H  H10  1  0.337500  0.499200  0.872800  1.0  0.0929
  H  H11  1  0.235900  0.434500  0.794900  1.0  0.1117
  H  H12  1  0.623000  0.644500  0.045500  1.0  0.0639
  H  H13  1  0.748300  0.688200  0.112400  1.0  0.0684
  H  H14  1  0.731700  0.636300  0.885700  1.0  0.0141
  H  H15  1  0.836000  0.695100  0.966100  1.0  0.0977
  H  H16  1  0.526600  0.410200  0.667600  1.0  0.1176
  H  H17  1  0.413600  0.494400  0.707600  1.0  0.1004
  H  H18  1  0.100900  0.749500  0.310900  1.0  0.2351
  H  H19  1  0.692500  0.893800  0.427000  1.0  0.0873
  H  H20  1  0.759300  0.990800  0.420000  1.0  0.0889
  H  H21  1  0.887200  0.832800  0.510400  1.0  0.0504
  H  H22  1  0.954100  0.933000  0.513200  1.0  0.0621
  H  H23  1  0.873300  0.793900  0.329500  1.0  0.0894
  H  H24  1  0.944400  0.892300  0.333900  1.0  0.0864
  H  H25  1  0.162500  0.872800  0.499200  1.0  0.0922
  H  H26  1  0.264100  0.794900  0.434500  1.0  0.1129
  H  H27  1  0.877000  0.045500  0.644500  1.0  0.0654
  H  H28  1  0.751700  0.112400  0.688200  1.0  0.0661
  H  H29  1  0.768300  0.885700  0.636300  1.0  0.0153
  H  H30  1  0.664000  0.966100  0.695100  1.0  0.0985
  H  H31  1  0.973400  0.667600  0.410200  1.0  0.1183
  H  H32  1  0.086400  0.707600  0.494400  1.0  0.0932
  H  H33  1  0.600900  0.689100  0.250500  1.0  0.2349
  H  H34  1  0.192500  0.573000  0.106200  1.0  0.0878
  H  H35  1  0.259300  0.580000  0.009200  1.0  0.0889
  H  H36  1  0.387200  0.489600  0.167200  1.0  0.0505
  H  H37  1  0.454100  0.486800  0.067000  1.0  0.0631
  H  H38  1  0.373300  0.670500  0.206100  1.0  0.0904
  H  H39  1  0.444400  0.666100  0.107700  1.0  0.0864
  H  H40  1  0.662500  0.500800  0.127200  1.0  0.0971
  H  H41  1  0.764100  0.565500  0.205100  1.0  0.1126
  H  H42  1  0.377000  0.355500  0.954500  1.0  0.0634
  H  H43  1  0.251700  0.311800  0.887600  1.0  0.0656
  H  H44  1  0.268300  0.363700  0.114300  1.0  0.0136
  H  H45  1  0.164000  0.304900  0.033900  1.0  0.095
  H  H46  1  0.473400  0.589800  0.332400  1.0  0.1179
  H  H47  1  0.586400  0.505600  0.292400  1.0  0.101
  H  H48  1  0.899100  0.250500  0.689100  1.0  0.2336
  H  H49  1  0.307500  0.106200  0.573000  1.0  0.0847
  H  H50  1  0.240700  0.009200  0.580000  1.0  0.0888
  H  H51  1  0.112800  0.167200  0.489600  1.0  0.0492
  H  H52  1  0.045900  0.067000  0.486800  1.0  0.0614
  H  H53  1  0.126700  0.206100  0.670500  1.0  0.0894
  H  H54  1  0.055600  0.107700  0.666100  1.0  0.0871
  H  H55  1  0.837500  0.127200  0.500800  1.0  0.0924
  H  H56  1  0.735900  0.205100  0.565500  1.0  0.1105
  H  H57  1  0.123000  0.954500  0.355500  1.0  0.064
  H  H58  1  0.248300  0.887600  0.311800  1.0  0.0652
  H  H59  1  0.231700  0.114300  0.363700  1.0  0.0149
  H  H60  1  0.336000  0.033900  0.304900  1.0  0.0984
  H  H61  1  0.026600  0.332400  0.589800  1.0  0.1185
  H  H62  1  0.913600  0.292400  0.505600  1.0  0.094
  C  C63  1  0.744900  0.462100  0.942500  1.0  0.0047
  C  C64  1  0.608100  0.474000  0.885800  1.0  -0.1726
  C  C65  1  0.561800  0.368900  0.838500  1.0  -0.0652
  C  C66  1  0.316000  0.430200  0.840000  1.0  -0.1142
  C  C67  1  0.707800  0.625700  0.079100  1.0  -0.0119
  C  C68  1  0.814000  0.627900  0.927300  1.0  -0.1614
  C  C69  1  0.923400  0.580500  0.857500  1.0  0.7087
  C  C70  1  0.436700  0.421200  0.687800  1.0  -0.2478
  C  C71  1  0.343200  0.373900  0.598300  1.0  0.701
  C  C72  1  0.755100  0.942500  0.462100  1.0  0.005
  C  C73  1  0.891900  0.885800  0.474000  1.0  -0.1734
  C  C74  1  0.938200  0.838500  0.368900  1.0  -0.0642
  C  C75  1  0.184000  0.840000  0.430200  1.0  -0.1139
  C  C76  1  0.792200  0.079100  0.625700  1.0  -0.0136
  C  C77  1  0.686000  0.927300  0.627900  1.0  -0.1593
  C  C78  1  0.576600  0.857500  0.580500  1.0  0.7095
  C  C79  1  0.063300  0.687800  0.421200  1.0  -0.2492
  C  C80  1  0.156800  0.598300  0.373900  1.0  0.6997
  C  C81  1  0.255100  0.537900  0.057500  1.0  0.0052
  C  C82  1  0.391900  0.526000  0.114200  1.0  -0.1721
  C  C83  1  0.438200  0.631100  0.161500  1.0  -0.0643
  C  C84  1  0.684000  0.569800  0.160000  1.0  -0.1135
  C  C85  1  0.292200  0.374300  0.920900  1.0  -0.0119
  C  C86  1  0.186000  0.372100  0.072700  1.0  -0.1577
  C  C87  1  0.076600  0.419500  0.142500  1.0  0.7098
  C  C88  1  0.563300  0.578800  0.312200  1.0  -0.2435
  C  C89  1  0.656800  0.626100  0.401700  1.0  0.7004
  C  C90  1  0.244900  0.057500  0.537900  1.0  0.0015
  C  C91  1  0.108100  0.114200  0.526000  1.0  -0.1735
  C  C92  1  0.061800  0.161500  0.631100  1.0  -0.0638
  C  C93  1  0.816000  0.160000  0.569800  1.0  -0.1139
  C  C94  1  0.207800  0.920900  0.374300  1.0  -0.0137
  C  C95  1  0.314000  0.072700  0.372100  1.0  -0.1562
  C  C96  1  0.423400  0.142500  0.419500  1.0  0.7076
  C  C97  1  0.936700  0.312200  0.578800  1.0  -0.2507
  C  C98  1  0.843200  0.401700  0.626100  1.0  0.7009
  N  N99  1  0.794300  0.563900  0.999700  1.0  -0.1796
  N  N100  1  0.428900  0.374100  0.777900  1.0  0.0871
  N  N101  1  0.705700  0.999700  0.563900  1.0  -0.178
  N  N102  1  0.071100  0.777900  0.374100  1.0  0.0861
  N  N103  1  0.205700  0.436100  0.000300  1.0  -0.1821
  N  N104  1  0.571100  0.625900  0.222100  1.0  0.0873
  N  N105  1  0.294300  0.000300  0.436100  1.0  -0.1771
  N  N106  1  0.928900  0.222100  0.625900  1.0  0.0869
  O  O107  1  0.915100  0.609100  0.774300  1.0  -0.7199
  O  O108  1  0.014200  0.524100  0.886300  1.0  -0.5723
  O  O109  1  0.343800  0.413280  0.521120  1.0  -0.6332
  O  O110  1  0.280600  0.304100  0.605100  1.0  -0.607
  O  O111  1  0.584900  0.774300  0.609100  1.0  -0.7273
  O  O112  1  0.485800  0.886300  0.524100  1.0  -0.5721
  O  O113  1  0.156200  0.521120  0.413280  1.0  -0.6376
  O  O114  1  0.219400  0.605100  0.304100  1.0  -0.6078
  O  O115  1  0.084900  0.390900  0.225700  1.0  -0.7244
  O  O116  1  0.985800  0.475900  0.113700  1.0  -0.5734
  O  O117  1  0.656200  0.586720  0.478880  1.0  -0.6338
  O  O118  1  0.719400  0.695900  0.394900  1.0  -0.6078
  O  O119  1  0.415100  0.225700  0.390900  1.0  -0.7245
  O  O120  1  0.514200  0.113700  0.475900  1.0  -0.5723
  O  O121  1  0.843800  0.478880  0.586720  1.0  -0.6356
  O  O122  1  0.780600  0.394900  0.695900  1.0  -0.6076
