# generated using pymatgen
data_MnH8C14N2O5
_symmetry_space_group_name_H-M   'P 1'
_cell_length_a   10.23190000
_cell_length_b   18.73300000
_cell_length_c   20.28300000
_cell_angle_alpha   90.00000000
_cell_angle_beta   90.00000000
_cell_angle_gamma   90.00000000
_symmetry_Int_Tables_number   1
_chemical_formula_structural   MnH8C14N2O5
_chemical_formula_sum   'Mn8 H64 C112 N16 O40'
_cell_volume   3887.72744770
_cell_formula_units_Z   8
loop_
 _symmetry_equiv_pos_site_id
 _symmetry_equiv_pos_as_xyz
  1  'x, y, z'
loop_
 _atom_site_type_symbol
 _atom_site_label
 _atom_site_symmetry_multiplicity
 _atom_site_fract_x
 _atom_site_fract_y
 _atom_site_fract_z
 _atom_site_occupancy
 _atom_site_charge
  Mn  Mn1  1  0.163150  0.949690  0.948930  1.0  1.0549
  Mn  Mn2  1  0.336850  0.550310  0.448930  1.0  1.0542
  Mn  Mn3  1  0.836850  0.050310  0.051070  1.0  1.0548
  Mn  Mn4  1  0.663150  0.449690  0.551070  1.0  1.0544
  Mn  Mn5  1  0.163150  0.050310  0.551070  1.0  1.0544
  Mn  Mn6  1  0.336850  0.449690  0.051070  1.0  1.0547
  Mn  Mn7  1  0.836850  0.949690  0.448930  1.0  1.0551
  Mn  Mn8  1  0.663150  0.550310  0.948930  1.0  1.0539
  H  H9  1  0.726600  0.696400  0.816800  1.0  0.2909
  H  H10  1  0.466100  0.801900  0.834100  1.0  0.1081
  H  H11  1  0.626000  0.954700  0.949300  1.0  0.1087
  H  H12  1  0.857600  0.806100  0.863800  1.0  0.1147
  H  H13  1  0.796800  0.515900  0.680200  1.0  0.0798
  H  H14  1  0.790500  0.615800  0.747500  1.0  0.1295
  H  H15  1  0.459100  0.674800  0.654900  1.0  0.136
  H  H16  1  0.475700  0.573700  0.590400  1.0  0.0727
  H  H17  1  0.773400  0.803600  0.316800  1.0  0.2912
  H  H18  1  0.033900  0.698100  0.334100  1.0  0.108
  H  H19  1  0.874000  0.545300  0.449300  1.0  0.1089
  H  H20  1  0.642400  0.693900  0.363800  1.0  0.1144
  H  H21  1  0.703200  0.984100  0.180200  1.0  0.079
  H  H22  1  0.709500  0.884200  0.247500  1.0  0.1293
  H  H23  1  0.040900  0.825200  0.154900  1.0  0.1358
  H  H24  1  0.024300  0.926300  0.090400  1.0  0.0729
  H  H25  1  0.273400  0.303600  0.183200  1.0  0.2915
  H  H26  1  0.533900  0.198100  0.165900  1.0  0.1081
  H  H27  1  0.374000  0.045300  0.050700  1.0  0.109
  H  H28  1  0.142400  0.193900  0.136200  1.0  0.1143
  H  H29  1  0.203200  0.484100  0.319800  1.0  0.0789
  H  H30  1  0.209500  0.384200  0.252500  1.0  0.1294
  H  H31  1  0.540900  0.325200  0.345100  1.0  0.1357
  H  H32  1  0.524300  0.426300  0.409600  1.0  0.0731
  H  H33  1  0.226600  0.196400  0.683200  1.0  0.2912
  H  H34  1  0.966100  0.301900  0.665900  1.0  0.1081
  H  H35  1  0.126000  0.454700  0.550700  1.0  0.109
  H  H36  1  0.357600  0.306100  0.636200  1.0  0.1145
  H  H37  1  0.296800  0.015900  0.819800  1.0  0.0797
  H  H38  1  0.290500  0.115800  0.752500  1.0  0.1297
  H  H39  1  0.959100  0.174800  0.845100  1.0  0.1358
  H  H40  1  0.975700  0.073700  0.909600  1.0  0.0727
  H  H41  1  0.726600  0.303600  0.683200  1.0  0.2919
  H  H42  1  0.466100  0.198100  0.665900  1.0  0.108
  H  H43  1  0.626000  0.045300  0.550700  1.0  0.1092
  H  H44  1  0.857600  0.193900  0.636200  1.0  0.1143
  H  H45  1  0.796800  0.484100  0.819800  1.0  0.0794
  H  H46  1  0.790500  0.384200  0.752500  1.0  0.1295
  H  H47  1  0.459100  0.325200  0.845100  1.0  0.1359
  H  H48  1  0.475700  0.426300  0.909600  1.0  0.073
  H  H49  1  0.773400  0.196400  0.183200  1.0  0.2909
  H  H50  1  0.033900  0.301900  0.165900  1.0  0.1084
  H  H51  1  0.874000  0.454700  0.050700  1.0  0.109
  H  H52  1  0.642400  0.306100  0.136200  1.0  0.1144
  H  H53  1  0.703200  0.015900  0.319800  1.0  0.0789
  H  H54  1  0.709500  0.115800  0.252500  1.0  0.1295
  H  H55  1  0.040900  0.174800  0.345100  1.0  0.1357
  H  H56  1  0.024300  0.073700  0.409600  1.0  0.0727
  H  H57  1  0.273400  0.696400  0.316800  1.0  0.2905
  H  H58  1  0.533900  0.801900  0.334100  1.0  0.1084
  H  H59  1  0.374000  0.954700  0.449300  1.0  0.1084
  H  H60  1  0.142400  0.806100  0.363800  1.0  0.1144
  H  H61  1  0.203200  0.515900  0.180200  1.0  0.0791
  H  H62  1  0.209500  0.615800  0.247500  1.0  0.1294
  H  H63  1  0.540900  0.674800  0.154900  1.0  0.136
  H  H64  1  0.524300  0.573700  0.090400  1.0  0.0729
  H  H65  1  0.226600  0.803600  0.816800  1.0  0.2917
  H  H66  1  0.966100  0.698100  0.834100  1.0  0.108
  H  H67  1  0.126000  0.545300  0.949300  1.0  0.1091
  H  H68  1  0.357600  0.693900  0.863800  1.0  0.1144
  H  H69  1  0.296800  0.984100  0.680200  1.0  0.0794
  H  H70  1  0.290500  0.884200  0.747500  1.0  0.1294
  H  H71  1  0.959100  0.825200  0.654900  1.0  0.136
  H  H72  1  0.975700  0.926300  0.590400  1.0  0.0727
  C  C73  1  0.663900  0.794140  0.842940  1.0  0.2024
  C  C74  1  0.540800  0.823290  0.853680  1.0  -0.1128
  C  C75  1  0.526500  0.883300  0.892810  1.0  -0.1232
  C  C76  1  0.635800  0.914080  0.921770  1.0  0.0092
  C  C77  1  0.758700  0.885910  0.910720  1.0  -0.1437
  C  C78  1  0.773200  0.825630  0.871290  1.0  -0.1148
  C  C79  1  0.612800  0.726150  0.744540  1.0  0.5189
  C  C80  1  0.727800  0.549300  0.674580  1.0  0.1714
  C  C81  1  0.724600  0.608600  0.715180  1.0  -0.1676
  C  C82  1  0.624700  0.656910  0.707900  1.0  0.0089
  C  C83  1  0.530500  0.643060  0.660770  1.0  -0.1568
  C  C84  1  0.541400  0.582680  0.622430  1.0  0.1728
  C  C85  1  0.392500  0.912780  0.905100  1.0  0.6308
  C  C86  1  0.877200  0.921580  0.939700  1.0  0.7294
  C  C87  1  0.836100  0.705860  0.342940  1.0  0.2023
  C  C88  1  0.959200  0.676710  0.353680  1.0  -0.111
  C  C89  1  0.973500  0.616700  0.392810  1.0  -0.1236
  C  C90  1  0.864200  0.585920  0.421770  1.0  0.009
  C  C91  1  0.741300  0.614090  0.410720  1.0  -0.1433
  C  C92  1  0.726800  0.674370  0.371290  1.0  -0.1158
  C  C93  1  0.887200  0.773850  0.244540  1.0  0.5189
  C  C94  1  0.772200  0.950700  0.174580  1.0  0.1724
  C  C95  1  0.775400  0.891400  0.215180  1.0  -0.1694
  C  C96  1  0.875300  0.843090  0.207900  1.0  0.0086
  C  C97  1  0.969500  0.856940  0.160770  1.0  -0.1555
  C  C98  1  0.958600  0.917320  0.122430  1.0  0.173
  C  C99  1  0.107500  0.587220  0.405100  1.0  0.6311
  C  C100  1  0.622800  0.578420  0.439700  1.0  0.73
  C  C101  1  0.336100  0.205860  0.157060  1.0  0.2024
  C  C102  1  0.459200  0.176710  0.146320  1.0  -0.1112
  C  C103  1  0.473500  0.116700  0.107190  1.0  -0.1239
  C  C104  1  0.364200  0.085920  0.078230  1.0  0.0085
  C  C105  1  0.241300  0.114090  0.089280  1.0  -0.1434
  C  C106  1  0.226800  0.174370  0.128710  1.0  -0.1155
  C  C107  1  0.387200  0.273850  0.255460  1.0  0.5216
  C  C108  1  0.272200  0.450700  0.325420  1.0  0.173
  C  C109  1  0.275400  0.391400  0.284820  1.0  -0.1696
  C  C110  1  0.375300  0.343090  0.292100  1.0  0.0079
  C  C111  1  0.469500  0.356940  0.339230  1.0  -0.1553
  C  C112  1  0.458600  0.417320  0.377570  1.0  0.1735
  C  C113  1  0.607500  0.087220  0.094900  1.0  0.6314
  C  C114  1  0.122800  0.078420  0.060300  1.0  0.7301
  C  C115  1  0.163900  0.294140  0.657060  1.0  0.2025
  C  C116  1  0.040800  0.323290  0.646320  1.0  -0.1131
  C  C117  1  0.026500  0.383300  0.607190  1.0  -0.1237
  C  C118  1  0.135800  0.414080  0.578230  1.0  0.0095
  C  C119  1  0.258700  0.385910  0.589280  1.0  -0.1435
  C  C120  1  0.273200  0.325630  0.628710  1.0  -0.1144
  C  C121  1  0.112800  0.226150  0.755460  1.0  0.5182
  C  C122  1  0.227800  0.049300  0.825420  1.0  0.1713
  C  C123  1  0.224600  0.108600  0.784820  1.0  -0.1679
  C  C124  1  0.124700  0.156910  0.792100  1.0  0.0089
  C  C125  1  0.030500  0.143060  0.839230  1.0  -0.1565
  C  C126  1  0.041400  0.082680  0.877570  1.0  0.1733
  C  C127  1  0.892500  0.412780  0.594900  1.0  0.6324
  C  C128  1  0.377200  0.421580  0.560300  1.0  0.7295
  C  C129  1  0.663900  0.205860  0.657060  1.0  0.2025
  C  C130  1  0.540800  0.176710  0.646320  1.0  -0.1121
  C  C131  1  0.526500  0.116700  0.607190  1.0  -0.1247
  C  C132  1  0.635800  0.085920  0.578230  1.0  0.0085
  C  C133  1  0.758700  0.114090  0.589280  1.0  -0.1437
  C  C134  1  0.773200  0.174370  0.628710  1.0  -0.115
  C  C135  1  0.612800  0.273850  0.755460  1.0  0.5221
  C  C136  1  0.727800  0.450700  0.825420  1.0  0.1724
  C  C137  1  0.724600  0.391400  0.784820  1.0  -0.1683
  C  C138  1  0.624700  0.343090  0.792100  1.0  0.0079
  C  C139  1  0.530500  0.356940  0.839230  1.0  -0.1564
  C  C140  1  0.541400  0.417320  0.877570  1.0  0.1738
  C  C141  1  0.392500  0.087220  0.594900  1.0  0.6323
  C  C142  1  0.877200  0.078420  0.560300  1.0  0.7297
  C  C143  1  0.836100  0.294140  0.157060  1.0  0.2024
  C  C144  1  0.959200  0.323290  0.146320  1.0  -0.1118
  C  C145  1  0.973500  0.383300  0.107190  1.0  -0.1234
  C  C146  1  0.864200  0.414080  0.078230  1.0  0.0098
  C  C147  1  0.741300  0.385910  0.089280  1.0  -0.1432
  C  C148  1  0.726800  0.325630  0.128710  1.0  -0.1151
  C  C149  1  0.887200  0.226150  0.255460  1.0  0.518
  C  C150  1  0.772200  0.049300  0.325420  1.0  0.1721
  C  C151  1  0.775400  0.108600  0.284820  1.0  -0.1691
  C  C152  1  0.875300  0.156910  0.292100  1.0  0.0088
  C  C153  1  0.969500  0.143060  0.339230  1.0  -0.155
  C  C154  1  0.958600  0.082680  0.377570  1.0  0.1732
  C  C155  1  0.107500  0.412780  0.094900  1.0  0.6316
  C  C156  1  0.622800  0.421580  0.060300  1.0  0.7299
  C  C157  1  0.336100  0.794140  0.342940  1.0  0.2023
  C  C158  1  0.459200  0.823290  0.353680  1.0  -0.1117
  C  C159  1  0.473500  0.883300  0.392810  1.0  -0.1229
  C  C160  1  0.364200  0.914080  0.421770  1.0  0.0096
  C  C161  1  0.241300  0.885910  0.410720  1.0  -0.1433
  C  C162  1  0.226800  0.825630  0.371290  1.0  -0.1158
  C  C163  1  0.387200  0.726150  0.244540  1.0  0.5175
  C  C164  1  0.272200  0.549300  0.174580  1.0  0.1719
  C  C165  1  0.275400  0.608600  0.215180  1.0  -0.1689
  C  C166  1  0.375300  0.656910  0.207900  1.0  0.0089
  C  C167  1  0.469500  0.643060  0.160770  1.0  -0.1551
  C  C168  1  0.458600  0.582680  0.122430  1.0  0.1726
  C  C169  1  0.607500  0.912780  0.405100  1.0  0.6311
  C  C170  1  0.122800  0.921580  0.439700  1.0  0.7298
  C  C171  1  0.163900  0.705860  0.842940  1.0  0.2024
  C  C172  1  0.040800  0.676710  0.853680  1.0  -0.1117
  C  C173  1  0.026500  0.616700  0.892810  1.0  -0.1243
  C  C174  1  0.135800  0.585920  0.921770  1.0  0.0088
  C  C175  1  0.258700  0.614090  0.910720  1.0  -0.1438
  C  C176  1  0.273200  0.674370  0.871290  1.0  -0.1152
  C  C177  1  0.112800  0.773850  0.744540  1.0  0.5203
  C  C178  1  0.227800  0.950700  0.674580  1.0  0.1721
  C  C179  1  0.224600  0.891400  0.715180  1.0  -0.1679
  C  C180  1  0.124700  0.843090  0.707900  1.0  0.0082
  C  C181  1  0.030500  0.856940  0.660770  1.0  -0.1569
  C  C182  1  0.041400  0.917320  0.622430  1.0  0.173
  C  C183  1  0.892500  0.587220  0.905100  1.0  0.6309
  C  C184  1  0.377200  0.578420  0.939700  1.0  0.7296
  N  N185  1  0.676800  0.731710  0.803210  1.0  -0.4067
  N  N186  1  0.638900  0.536530  0.627960  1.0  -0.3601
  N  N187  1  0.823200  0.768290  0.303210  1.0  -0.4057
  N  N188  1  0.861100  0.963470  0.127960  1.0  -0.361
  N  N189  1  0.323200  0.268290  0.196790  1.0  -0.4055
  N  N190  1  0.361100  0.463470  0.372040  1.0  -0.362
  N  N191  1  0.176800  0.231710  0.696790  1.0  -0.4065
  N  N192  1  0.138900  0.036530  0.872040  1.0  -0.3601
  N  N193  1  0.676800  0.268290  0.696790  1.0  -0.4053
  N  N194  1  0.638900  0.463470  0.872040  1.0  -0.3618
  N  N195  1  0.823200  0.231710  0.196790  1.0  -0.4068
  N  N196  1  0.861100  0.036530  0.372040  1.0  -0.3601
  N  N197  1  0.323200  0.731710  0.303210  1.0  -0.407
  N  N198  1  0.361100  0.536530  0.127960  1.0  -0.3601
  N  N199  1  0.176800  0.768290  0.803210  1.0  -0.4055
  N  N200  1  0.138900  0.963470  0.627960  1.0  -0.3606
  O  O201  1  0.546900  0.774270  0.721280  1.0  -0.5066
  O  O202  1  0.293620  0.881860  0.880840  1.0  -0.6169
  O  O203  1  0.381400  0.966670  0.941330  1.0  -0.5683
  O  O204  1  0.987980  0.896460  0.925780  1.0  -0.6084
  O  O205  1  0.860430  0.975670  0.974650  1.0  -0.6544
  O  O206  1  0.953100  0.725730  0.221280  1.0  -0.5068
  O  O207  1  0.206380  0.618140  0.380840  1.0  -0.6163
  O  O208  1  0.118600  0.533330  0.441330  1.0  -0.5688
  O  O209  1  0.512020  0.603540  0.425780  1.0  -0.6081
  O  O210  1  0.639570  0.524330  0.474650  1.0  -0.6546
  O  O211  1  0.453100  0.225730  0.278720  1.0  -0.5058
  O  O212  1  0.706380  0.118140  0.119160  1.0  -0.6166
  O  O213  1  0.618600  0.033330  0.058670  1.0  -0.5695
  O  O214  1  0.012020  0.103540  0.074220  1.0  -0.6084
  O  O215  1  0.139570  0.024330  0.025350  1.0  -0.6545
  O  O216  1  0.046900  0.274270  0.778720  1.0  -0.5056
  O  O217  1  0.793620  0.381860  0.619160  1.0  -0.617
  O  O218  1  0.881400  0.466670  0.558670  1.0  -0.5692
  O  O219  1  0.487980  0.396460  0.574220  1.0  -0.6087
  O  O220  1  0.360430  0.475670  0.525350  1.0  -0.6546
  O  O221  1  0.546900  0.225730  0.778720  1.0  -0.5059
  O  O222  1  0.293620  0.118140  0.619160  1.0  -0.6171
  O  O223  1  0.381400  0.033330  0.558670  1.0  -0.5686
  O  O224  1  0.987980  0.103540  0.574220  1.0  -0.609
  O  O225  1  0.860430  0.024330  0.525350  1.0  -0.654
  O  O226  1  0.953100  0.274270  0.278720  1.0  -0.5057
  O  O227  1  0.206380  0.381860  0.119160  1.0  -0.6164
  O  O228  1  0.118600  0.466670  0.058670  1.0  -0.5693
  O  O229  1  0.512020  0.396460  0.074220  1.0  -0.6084
  O  O230  1  0.639570  0.475670  0.025350  1.0  -0.6549
  O  O231  1  0.453100  0.774270  0.221280  1.0  -0.5064
  O  O232  1  0.706380  0.881860  0.380840  1.0  -0.6161
  O  O233  1  0.618600  0.966670  0.441330  1.0  -0.5693
  O  O234  1  0.012020  0.896460  0.425780  1.0  -0.608
  O  O235  1  0.139570  0.975670  0.474650  1.0  -0.655
  O  O236  1  0.046900  0.725730  0.721280  1.0  -0.5072
  O  O237  1  0.793620  0.618140  0.880840  1.0  -0.6168
  O  O238  1  0.881400  0.533330  0.941330  1.0  -0.5688
  O  O239  1  0.487980  0.603540  0.925780  1.0  -0.6088
  O  O240  1  0.360430  0.524330  0.974650  1.0  -0.6542
