# generated using pymatgen
data_Co2H22C37(N3O4)2
_symmetry_space_group_name_H-M   'P 1'
_cell_length_a   11.57300000
_cell_length_b   13.89200000
_cell_length_c   14.65500000
_cell_angle_alpha   62.63100000
_cell_angle_beta   68.97700000
_cell_angle_gamma   68.80000000
_symmetry_Int_Tables_number   1
_chemical_formula_structural   Co2H22C37(N3O4)2
_chemical_formula_sum   'Co4 H44 C74 N12 O16'
_cell_volume   1897.32164475
_cell_formula_units_Z   2
loop_
 _symmetry_equiv_pos_site_id
 _symmetry_equiv_pos_as_xyz
  1  'x, y, z'
loop_
 _atom_site_type_symbol
 _atom_site_label
 _atom_site_symmetry_multiplicity
 _atom_site_fract_x
 _atom_site_fract_y
 _atom_site_fract_z
 _atom_site_occupancy
 _atom_site_charge
  Co  Co1  1  0.384010  0.432840  0.453970  1.0  0.961
  Co  Co2  1  0.727180  0.056650  0.984410  1.0  0.915
  Co  Co3  1  0.615990  0.567160  0.546030  1.0  0.9604
  Co  Co4  1  0.272820  0.943350  0.015590  1.0  0.9142
  H  H5  1  0.889800  0.390000  0.388100  1.0  0.1248
  H  H6  1  0.934300  0.204300  0.227600  1.0  0.1218
  H  H7  1  0.237100  0.286600  0.220600  1.0  0.128
  H  H8  1  0.017000  0.565800  0.293800  1.0  0.1031
  H  H9  1  0.327600  0.255000  0.063600  1.0  0.1242
  H  H10  1  0.085800  0.061300  0.180300  1.0  0.1059
  H  H11  1  0.672300  0.443000  0.372100  1.0  0.1012
  H  H12  1  0.754500  0.147000  0.359300  1.0  0.1301
  H  H13  1  0.525000  0.204300  0.426000  1.0  0.1093
  H  H14  1  0.271900  0.292500  0.394600  1.0  0.0908
  H  H15  1  0.160400  0.604200  0.352000  1.0  0.1023
  H  H16  1  0.547200  0.813400  0.214300  1.0  0.112
  H  H17  1  0.214600  0.769200  0.421000  1.0  0.1049
  H  H18  1  0.314700  0.053500  0.319800  1.0  0.107
  H  H19  1  0.015700  0.887400  0.418100  1.0  0.1073
  H  H20  1  0.177500  0.053300  0.481000  1.0  0.1204
  H  H21  1  0.124400  0.171600  0.748400  1.0  0.1105
  H  H22  1  0.929300  0.260800  0.995900  1.0  0.1099
  H  H23  1  0.212800  0.401500  0.785600  1.0  0.0993
  H  H24  1  0.846700  0.426800  0.006300  1.0  0.114
  H  H25  1  0.207800  0.446000  0.916000  1.0  0.1138
  H  H26  1  0.405800  0.124400  0.976100  1.0  0.1055
  H  H27  1  0.110200  0.610000  0.611900  1.0  0.1255
  H  H28  1  0.065700  0.795700  0.772400  1.0  0.122
  H  H29  1  0.762900  0.713400  0.779400  1.0  0.128
  H  H30  1  0.983000  0.434200  0.706200  1.0  0.1025
  H  H31  1  0.672400  0.745000  0.936400  1.0  0.1228
  H  H32  1  0.914200  0.938700  0.819700  1.0  0.1058
  H  H33  1  0.327700  0.557000  0.627900  1.0  0.1008
  H  H34  1  0.245500  0.853000  0.640700  1.0  0.1299
  H  H35  1  0.475000  0.795700  0.574000  1.0  0.1065
  H  H36  1  0.728100  0.707500  0.605400  1.0  0.0908
  H  H37  1  0.839600  0.395800  0.648000  1.0  0.1062
  H  H38  1  0.452800  0.186600  0.785700  1.0  0.1117
  H  H39  1  0.785400  0.230800  0.579000  1.0  0.1048
  H  H40  1  0.685300  0.946500  0.680200  1.0  0.1076
  H  H41  1  0.984300  0.112600  0.581900  1.0  0.1069
  H  H42  1  0.822500  0.946700  0.519000  1.0  0.1195
  H  H43  1  0.875600  0.828400  0.251600  1.0  0.1105
  H  H44  1  0.070700  0.739200  0.004100  1.0  0.1099
  H  H45  1  0.787200  0.598500  0.214400  1.0  0.0993
  H  H46  1  0.153300  0.573200  0.993700  1.0  0.1132
  H  H47  1  0.792200  0.554000  0.084000  1.0  0.112
  H  H48  1  0.594200  0.875600  0.023900  1.0  0.1065
  C  C49  1  0.942000  0.351900  0.344000  1.0  -0.2031
  C  C50  1  0.892800  0.297100  0.313600  1.0  0.1503
  C  C51  1  0.969000  0.239700  0.248400  1.0  -0.2254
  C  C52  1  0.096600  0.236200  0.215200  1.0  0.1285
  C  C53  1  0.150200  0.289900  0.243600  1.0  -0.207
  C  C54  1  0.070800  0.348600  0.307400  1.0  0.1478
  C  C55  1  0.086200  0.514400  0.321200  1.0  -0.0828
  C  C56  1  0.288900  0.200600  0.075900  1.0  -0.1287
  C  C57  1  0.155500  0.092600  0.140500  1.0  0.1352
  C  C58  1  0.663700  0.376600  0.377400  1.0  0.1432
  C  C59  1  0.710300  0.213100  0.370100  1.0  -0.1658
  C  C60  1  0.584000  0.245400  0.406500  1.0  0.0186
  C  C61  1  0.225600  0.366400  0.376400  1.0  0.1836
  C  C62  1  0.165100  0.535300  0.353400  1.0  -0.018
  C  C63  1  0.539300  0.016500  0.191500  1.0  0.6879
  C  C64  1  0.446000  0.943200  0.259100  1.0  -0.1455
  C  C65  1  0.472400  0.838800  0.257400  1.0  -0.037
  C  C66  1  0.387000  0.772500  0.319900  1.0  -0.1386
  C  C67  1  0.272500  0.813800  0.379200  1.0  -0.0945
  C  C68  1  0.243700  0.919200  0.377200  1.0  0.024
  C  C69  1  0.332000  0.983000  0.318900  1.0  -0.0833
  C  C70  1  0.117400  0.962100  0.440000  1.0  0.0322
  C  C71  1  0.009700  0.932600  0.451500  1.0  -0.0929
  C  C72  1  0.106500  0.031300  0.488700  1.0  -0.1093
  C  C73  1  0.417100  0.655600  0.326100  1.0  0.6931
  C  C74  1  0.273600  0.311400  0.646000  1.0  0.6637
  C  C75  1  0.184300  0.288600  0.751400  1.0  -0.1198
  C  C76  1  0.110300  0.214300  0.786700  1.0  -0.0199
  C  C77  1  0.015000  0.202500  0.878700  1.0  -0.1681
  C  C78  1  0.993800  0.267800  0.934600  1.0  -0.1017
  C  C79  1  0.066900  0.343000  0.900500  1.0  0.0214
  C  C80  1  0.162300  0.351900  0.809000  1.0  -0.1049
  C  C81  1  0.033000  0.423200  0.953000  1.0  0.0201
  C  C82  1  0.909300  0.456000  0.003400  1.0  -0.1045
  C  C83  1  0.123500  0.467400  0.949900  1.0  -0.1188
  C  C84  1  0.927700  0.132400  0.907800  1.0  0.6728
  C  C85  1  0.331700  0.128100  0.028900  1.0  0.0253
  C  C86  1  0.058000  0.648100  0.656000  1.0  -0.2032
  C  C87  1  0.107200  0.702900  0.686400  1.0  0.1521
  C  C88  1  0.031000  0.760300  0.751600  1.0  -0.2231
  C  C89  1  0.903400  0.763800  0.784800  1.0  0.1269
  C  C90  1  0.849800  0.710100  0.756400  1.0  -0.2057
  C  C91  1  0.929200  0.651400  0.692600  1.0  0.1454
  C  C92  1  0.913800  0.485600  0.678800  1.0  -0.0834
  C  C93  1  0.711100  0.799400  0.924100  1.0  -0.1238
  C  C94  1  0.844500  0.907400  0.859500  1.0  0.134
  C  C95  1  0.336300  0.623400  0.622600  1.0  0.1446
  C  C96  1  0.289700  0.786900  0.629900  1.0  -0.1675
  C  C97  1  0.416000  0.754600  0.593500  1.0  0.0183
  C  C98  1  0.774400  0.633600  0.623600  1.0  0.1835
  C  C99  1  0.834900  0.464700  0.646600  1.0  -0.0167
  C  C100  1  0.460700  0.983500  0.808500  1.0  0.695
  C  C101  1  0.554000  0.056800  0.740900  1.0  -0.145
  C  C102  1  0.527600  0.161200  0.742600  1.0  -0.038
  C  C103  1  0.613000  0.227500  0.680100  1.0  -0.139
  C  C104  1  0.727500  0.186200  0.620800  1.0  -0.0975
  C  C105  1  0.756300  0.080800  0.622800  1.0  0.0224
  C  C106  1  0.668000  0.017000  0.681100  1.0  -0.0827
  C  C107  1  0.882600  0.037900  0.560000  1.0  0.0328
  C  C108  1  0.990300  0.067400  0.548500  1.0  -0.0936
  C  C109  1  0.893500  0.968700  0.511300  1.0  -0.1095
  C  C110  1  0.582900  0.344400  0.673900  1.0  0.6947
  C  C111  1  0.726400  0.688600  0.354000  1.0  0.6714
  C  C112  1  0.815700  0.711400  0.248600  1.0  -0.1199
  C  C113  1  0.889700  0.785700  0.213300  1.0  -0.023
  C  C114  1  0.985000  0.797500  0.121300  1.0  -0.1678
  C  C115  1  0.006200  0.732200  0.065400  1.0  -0.1032
  C  C116  1  0.933100  0.657000  0.099500  1.0  0.022
  C  C117  1  0.837700  0.648100  0.191000  1.0  -0.0995
  C  C118  1  0.967000  0.576800  0.047000  1.0  0.0199
  C  C119  1  0.090700  0.544000  0.996600  1.0  -0.1012
  C  C120  1  0.876500  0.532600  0.050100  1.0  -0.1191
  C  C121  1  0.072300  0.867600  0.092200  1.0  0.6733
  C  C122  1  0.668300  0.871900  0.971100  1.0  0.0242
  N  N123  1  0.556300  0.347200  0.410300  1.0  -0.3438
  N  N124  1  0.760000  0.296400  0.352300  1.0  0.048
  N  N125  1  0.175600  0.179400  0.146500  1.0  0.044
  N  N126  1  0.123700  0.406400  0.335100  1.0  0.0379
  N  N127  1  0.252200  0.441500  0.388000  1.0  -0.3523
  N  N128  1  0.249700  0.059100  0.070000  1.0  -0.3616
  N  N129  1  0.443700  0.652800  0.589700  1.0  -0.3463
  N  N130  1  0.240000  0.703600  0.647700  1.0  0.048
  N  N131  1  0.824400  0.820600  0.853500  1.0  0.0435
  N  N132  1  0.876300  0.593600  0.664900  1.0  0.0378
  N  N133  1  0.747800  0.558500  0.612000  1.0  -0.3532
  N  N134  1  0.750300  0.940900  0.930000  1.0  -0.3623
  O  O135  1  0.525600  0.098700  0.207500  1.0  -0.522
  O  O136  1  0.622800  0.985800  0.121900  1.0  -0.6266
  O  O137  1  0.476500  0.634100  0.247400  1.0  -0.5607
  O  O138  1  0.375900  0.588000  0.415300  1.0  -0.5871
  O  O139  1  0.306300  0.403600  0.604500  1.0  -0.5904
  O  O140  1  0.307600  0.248500  0.599000  1.0  -0.5637
  O  O141  1  0.922300  0.102700  0.842500  1.0  -0.6379
  O  O142  1  0.854400  0.108400  0.997400  1.0  -0.585
  O  O143  1  0.474400  0.901300  0.792500  1.0  -0.5196
  O  O144  1  0.377200  0.014200  0.878100  1.0  -0.6293
  O  O145  1  0.523500  0.365900  0.752600  1.0  -0.5625
  O  O146  1  0.624100  0.412000  0.584700  1.0  -0.5873
  O  O147  1  0.693700  0.596400  0.395500  1.0  -0.5906
  O  O148  1  0.692400  0.751500  0.401000  1.0  -0.5649
  O  O149  1  0.077700  0.897300  0.157500  1.0  -0.6434
  O  O150  1  0.145600  0.891600  0.002600  1.0  -0.5843
