# generated using pymatgen
data_CuH16C26(SN)4
_symmetry_space_group_name_H-M   'P 1'
_cell_length_a   15.85740000
_cell_length_b   19.33250000
_cell_length_c   25.29620000
_cell_angle_alpha   90.00000000
_cell_angle_beta   102.69400000
_cell_angle_gamma   90.00000000
_symmetry_Int_Tables_number   1
_chemical_formula_structural   CuH16C26(SN)4
_chemical_formula_sum   'Cu8 H128 C208 S32 N32'
_cell_volume   7565.33538114
_cell_formula_units_Z   8
loop_
 _symmetry_equiv_pos_site_id
 _symmetry_equiv_pos_as_xyz
  1  'x, y, z'
loop_
 _atom_site_type_symbol
 _atom_site_label
 _atom_site_symmetry_multiplicity
 _atom_site_fract_x
 _atom_site_fract_y
 _atom_site_fract_z
 _atom_site_occupancy
 _atom_site_charge
  Cu  Cu1  1  0.492220  0.986380  0.130110  1.0  0.4484
  Cu  Cu2  1  0.003850  0.995680  0.368780  1.0  0.4842
  Cu  Cu3  1  0.007780  0.486380  0.369890  1.0  0.4492
  Cu  Cu4  1  0.496150  0.495680  0.131220  1.0  0.4847
  Cu  Cu5  1  0.507780  0.013620  0.869890  1.0  0.4492
  Cu  Cu6  1  0.996150  0.004320  0.631220  1.0  0.4845
  Cu  Cu7  1  0.992220  0.513620  0.630110  1.0  0.4484
  Cu  Cu8  1  0.503850  0.504320  0.868780  1.0  0.484
  H  H9  1  0.478700  0.122300  0.070900  1.0  0.069
  H  H10  1  0.376800  0.201900  0.029800  1.0  0.1207
  H  H11  1  0.203100  0.101700  0.095900  1.0  0.1034
  H  H12  1  0.307100  0.020900  0.130100  1.0  0.0732
  H  H13  1  0.293300  0.379300  0.983400  1.0  0.1153
  H  H14  1  0.407100  0.447100  0.022800  1.0  0.0608
  H  H15  1  0.431100  0.353900  0.161200  1.0  0.073
  H  H16  1  0.318300  0.280200  0.126100  1.0  0.1151
  H  H17  1  0.796400  0.417200  0.874300  1.0  0.11
  H  H18  1  0.681600  0.490000  0.859000  1.0  0.0714
  H  H19  1  0.549400  0.367800  0.932400  1.0  0.0665
  H  H20  1  0.663700  0.291900  0.953000  1.0  0.1097
  H  H21  1  0.686200  0.213300  0.838800  1.0  0.1142
  H  H22  1  0.567800  0.142200  0.821200  1.0  0.0815
  H  H23  1  0.620700  0.073300  0.970100  1.0  0.0684
  H  H24  1  0.744300  0.140000  0.990900  1.0  0.1103
  H  H25  1  0.430000  0.060000  0.219600  1.0  0.0747
  H  H26  1  0.448800  0.060000  0.311100  1.0  0.1066
  H  H27  1  0.643500  0.924500  0.319500  1.0  0.1191
  H  H28  1  0.617100  0.927300  0.227100  1.0  0.0674
  H  H29  1  0.709000  0.081800  0.364400  1.0  0.1156
  H  H30  1  0.844300  0.082200  0.347500  1.0  0.075
  H  H31  1  0.908900  0.917500  0.436500  1.0  0.0684
  H  H32  1  0.776100  0.912900  0.457300  1.0  0.107
  H  H33  1  0.896300  0.922000  0.272400  1.0  0.0653
  H  H34  1  0.866900  0.923500  0.180100  1.0  0.1158
  H  H35  1  0.042000  0.074900  0.188400  1.0  0.1111
  H  H36  1  0.064400  0.070600  0.280900  1.0  0.0763
  H  H37  1  0.790700  0.069700  0.148600  1.0  0.1165
  H  H38  1  0.652700  0.064400  0.162800  1.0  0.0663
  H  H39  1  0.586000  0.928800  0.048700  1.0  0.0623
  H  H40  1  0.719600  0.932500  0.028900  1.0  0.1011
  H  H41  1  0.021300  0.622300  0.429100  1.0  0.0683
  H  H42  1  0.123200  0.701900  0.470200  1.0  0.1207
  H  H43  1  0.296900  0.601700  0.404100  1.0  0.1024
  H  H44  1  0.192900  0.520900  0.369900  1.0  0.0731
  H  H45  1  0.206700  0.879300  0.516600  1.0  0.1155
  H  H46  1  0.092900  0.947100  0.477200  1.0  0.062
  H  H47  1  0.068900  0.853900  0.338800  1.0  0.0743
  H  H48  1  0.181700  0.780200  0.373900  1.0  0.1141
  H  H49  1  0.703600  0.917200  0.625700  1.0  0.1105
  H  H50  1  0.818400  0.990000  0.641000  1.0  0.0723
  H  H51  1  0.950600  0.867800  0.567600  1.0  0.0667
  H  H52  1  0.836300  0.791900  0.547000  1.0  0.1094
  H  H53  1  0.813800  0.713300  0.661200  1.0  0.1148
  H  H54  1  0.932200  0.642200  0.678800  1.0  0.0814
  H  H55  1  0.879300  0.573300  0.529900  1.0  0.0689
  H  H56  1  0.755700  0.640000  0.509100  1.0  0.1107
  H  H57  1  0.070000  0.560000  0.280400  1.0  0.0739
  H  H58  1  0.051200  0.560000  0.188900  1.0  0.107
  H  H59  1  0.856500  0.424500  0.180500  1.0  0.119
  H  H60  1  0.882900  0.427300  0.272900  1.0  0.0673
  H  H61  1  0.791000  0.581800  0.135600  1.0  0.1147
  H  H62  1  0.655700  0.582200  0.152500  1.0  0.0747
  H  H63  1  0.591100  0.417500  0.063500  1.0  0.0682
  H  H64  1  0.723900  0.412900  0.042700  1.0  0.1073
  H  H65  1  0.603700  0.422000  0.227600  1.0  0.0657
  H  H66  1  0.633100  0.423500  0.319900  1.0  0.1167
  H  H67  1  0.458000  0.574900  0.311600  1.0  0.1112
  H  H68  1  0.435600  0.570600  0.219100  1.0  0.077
  H  H69  1  0.709300  0.569700  0.351400  1.0  0.1171
  H  H70  1  0.847300  0.564400  0.337200  1.0  0.0682
  H  H71  1  0.914000  0.428800  0.451300  1.0  0.0621
  H  H72  1  0.780400  0.432500  0.471100  1.0  0.1014
  H  H73  1  0.521300  0.877700  0.929100  1.0  0.0686
  H  H74  1  0.623200  0.798100  0.970200  1.0  0.1206
  H  H75  1  0.796900  0.898300  0.904100  1.0  0.1023
  H  H76  1  0.692900  0.979100  0.869900  1.0  0.0743
  H  H77  1  0.706700  0.620700  0.016600  1.0  0.1152
  H  H78  1  0.592900  0.552900  0.977200  1.0  0.0625
  H  H79  1  0.568900  0.646100  0.838800  1.0  0.0728
  H  H80  1  0.681700  0.719800  0.873900  1.0  0.1144
  H  H81  1  0.203600  0.582800  0.125700  1.0  0.1107
  H  H82  1  0.318400  0.510000  0.141000  1.0  0.0725
  H  H83  1  0.450600  0.632200  0.067600  1.0  0.0673
  H  H84  1  0.336300  0.708100  0.047000  1.0  0.1095
  H  H85  1  0.313800  0.786700  0.161200  1.0  0.1145
  H  H86  1  0.432200  0.857800  0.178800  1.0  0.0811
  H  H87  1  0.379300  0.926700  0.029900  1.0  0.068
  H  H88  1  0.255700  0.860000  0.009100  1.0  0.1107
  H  H89  1  0.570000  0.940000  0.780400  1.0  0.0737
  H  H90  1  0.551200  0.940000  0.688900  1.0  0.1065
  H  H91  1  0.356500  0.075500  0.680500  1.0  0.1196
  H  H92  1  0.382900  0.072700  0.772900  1.0  0.0674
  H  H93  1  0.291000  0.918200  0.635600  1.0  0.1152
  H  H94  1  0.155700  0.917800  0.652500  1.0  0.0758
  H  H95  1  0.091100  0.082500  0.563500  1.0  0.0681
  H  H96  1  0.223900  0.087100  0.542700  1.0  0.1077
  H  H97  1  0.103700  0.078000  0.727600  1.0  0.0647
  H  H98  1  0.133100  0.076500  0.819900  1.0  0.1159
  H  H99  1  0.958000  0.925100  0.811600  1.0  0.1112
  H  H100  1  0.935600  0.929400  0.719100  1.0  0.0775
  H  H101  1  0.209300  0.930300  0.851400  1.0  0.1152
  H  H102  1  0.347300  0.935600  0.837200  1.0  0.0665
  H  H103  1  0.414000  0.071200  0.951300  1.0  0.0623
  H  H104  1  0.280400  0.067500  0.971100  1.0  0.1021
  H  H105  1  0.978700  0.377700  0.570900  1.0  0.0689
  H  H106  1  0.876800  0.298100  0.529800  1.0  0.1203
  H  H107  1  0.703100  0.398300  0.595900  1.0  0.1032
  H  H108  1  0.807100  0.479100  0.630100  1.0  0.0747
  H  H109  1  0.793300  0.120700  0.483400  1.0  0.1151
  H  H110  1  0.907100  0.052900  0.522800  1.0  0.0617
  H  H111  1  0.931100  0.146100  0.661200  1.0  0.0738
  H  H112  1  0.818300  0.219800  0.626100  1.0  0.1147
  H  H113  1  0.296400  0.082800  0.374300  1.0  0.1103
  H  H114  1  0.181600  0.010000  0.359000  1.0  0.0717
  H  H115  1  0.049400  0.132200  0.432400  1.0  0.0664
  H  H116  1  0.163700  0.208100  0.453000  1.0  0.1091
  H  H117  1  0.186200  0.286700  0.338800  1.0  0.114
  H  H118  1  0.067800  0.357800  0.321200  1.0  0.0813
  H  H119  1  0.120700  0.426700  0.470100  1.0  0.0679
  H  H120  1  0.244300  0.360000  0.490900  1.0  0.1104
  H  H121  1  0.930000  0.440000  0.719600  1.0  0.0742
  H  H122  1  0.948800  0.440000  0.811100  1.0  0.1065
  H  H123  1  0.143500  0.575500  0.819500  1.0  0.1192
  H  H124  1  0.117100  0.572700  0.727100  1.0  0.0678
  H  H125  1  0.209000  0.418200  0.864400  1.0  0.1149
  H  H126  1  0.344300  0.417800  0.847500  1.0  0.0752
  H  H127  1  0.408900  0.582500  0.936500  1.0  0.0678
  H  H128  1  0.276100  0.587100  0.957300  1.0  0.1073
  H  H129  1  0.396300  0.578000  0.772400  1.0  0.0646
  H  H130  1  0.366900  0.576500  0.680100  1.0  0.1166
  H  H131  1  0.542000  0.425100  0.688400  1.0  0.1106
  H  H132  1  0.564400  0.429400  0.780900  1.0  0.0772
  H  H133  1  0.290700  0.430300  0.648600  1.0  0.1167
  H  H134  1  0.152700  0.435600  0.662800  1.0  0.0684
  H  H135  1  0.086000  0.571200  0.548700  1.0  0.0625
  H  H136  1  0.219600  0.567500  0.528900  1.0  0.1024
  C  C137  1  0.422000  0.117200  0.074530  1.0  0.1587
  C  C138  1  0.361400  0.166200  0.050400  1.0  -0.1908
  C  C139  1  0.277000  0.160800  0.057810  1.0  0.0311
  C  C140  1  0.258200  0.106000  0.089100  1.0  -0.1305
  C  C141  1  0.321400  0.057900  0.110200  1.0  0.1276
  C  C142  1  0.216000  0.278000  0.025500  1.0  -0.1708
  C  C143  1  0.291000  0.321800  0.050100  1.0  0.0511
  C  C144  1  0.319800  0.373000  0.019700  1.0  -0.1714
  C  C145  1  0.387800  0.413900  0.044000  1.0  0.1535
  C  C146  1  0.402500  0.359300  0.125200  1.0  0.1519
  C  C147  1  0.334400  0.314400  0.104400  1.0  -0.1684
  C  C148  1  0.058700  0.249100  0.976500  1.0  -0.0698
  C  C149  1  0.973700  0.253100  0.954300  1.0  -0.0523
  C  C150  1  0.815500  0.295400  0.924100  1.0  -0.1556
  C  C151  1  0.742900  0.344100  0.913300  1.0  0.0187
  C  C152  1  0.746900  0.405500  0.886300  1.0  -0.188
  C  C153  1  0.677400  0.449000  0.877500  1.0  0.1441
  C  C154  1  0.599700  0.378100  0.920700  1.0  0.157
  C  C155  1  0.667900  0.331300  0.932500  1.0  -0.1883
  C  C156  1  0.810700  0.226100  0.928000  1.0  -0.1731
  C  C157  1  0.730400  0.183400  0.917000  1.0  0.026
  C  C158  1  0.675100  0.184200  0.865700  1.0  -0.1557
  C  C159  1  0.604000  0.141400  0.855600  1.0  0.1481
  C  C160  1  0.635500  0.100300  0.943100  1.0  0.1551
  C  C161  1  0.709400  0.141200  0.956200  1.0  -0.1592
  C  C162  1  0.472700  0.031900  0.239900  1.0  0.1388
  C  C163  1  0.484500  0.032900  0.294900  1.0  -0.165
  C  C164  1  0.549300  0.993600  0.326880  1.0  0.0499
  C  C165  1  0.599600  0.952400  0.300030  1.0  -0.1965
  C  C166  1  0.582600  0.954300  0.244380  1.0  0.1489
  C  C167  1  0.562300  0.992700  0.386300  1.0  -0.1514
  C  C168  1  0.521100  0.995300  0.479940  1.0  -0.0262
  C  C169  1  0.637600  0.993400  0.423180  1.0  -0.1465
  C  C170  1  0.725100  0.996200  0.411750  1.0  0.0541
  C  C171  1  0.748400  0.047800  0.379400  1.0  -0.1973
  C  C172  1  0.830000  0.047800  0.369800  1.0  0.1372
  C  C173  1  0.868200  0.951100  0.422270  1.0  0.1528
  C  C174  1  0.788300  0.947300  0.434430  1.0  -0.1748
  C  C175  1  0.925700  0.953500  0.255300  1.0  0.1477
  C  C176  1  0.907600  0.953800  0.199600  1.0  -0.1882
  C  C177  1  0.951100  0.000600  0.172800  1.0  0.0419
  C  C178  1  0.010800  0.043700  0.204600  1.0  -0.1654
  C  C179  1  0.024600  0.040400  0.260400  1.0  0.1559
  C  C180  1  0.936000  0.003100  0.113300  1.0  -0.1606
  C  C181  1  0.860900  0.002400  0.076600  1.0  -0.1603
  C  C182  1  0.772400  0.001300  0.087100  1.0  0.0356
  C  C183  1  0.750100  0.040700  0.127300  1.0  -0.2111
  C  C184  1  0.666667  0.036800  0.135900  1.0  0.1451
  C  C185  1  0.627500  0.957900  0.068910  1.0  0.1637
  C  C186  1  0.708200  0.959400  0.056900  1.0  -0.1682
  C  C187  1  0.978400  0.004000  0.019900  1.0  -0.0319
  C  C188  1  0.209200  0.208800  0.031100  1.0  -0.1564
  C  C189  1  0.078000  0.617200  0.425470  1.0  0.1576
  C  C190  1  0.138600  0.666200  0.449600  1.0  -0.1908
  C  C191  1  0.223000  0.660800  0.442190  1.0  0.0325
  C  C192  1  0.241800  0.606000  0.410900  1.0  -0.129
  C  C193  1  0.178600  0.557900  0.389800  1.0  0.1296
  C  C194  1  0.284000  0.778000  0.474500  1.0  -0.1727
  C  C195  1  0.209000  0.821800  0.449900  1.0  0.0513
  C  C196  1  0.180200  0.873000  0.480300  1.0  -0.1699
  C  C197  1  0.112200  0.913900  0.456000  1.0  0.1522
  C  C198  1  0.097500  0.859300  0.374800  1.0  0.1525
  C  C199  1  0.165600  0.814400  0.395600  1.0  -0.1669
  C  C200  1  0.441300  0.749100  0.523500  1.0  -0.0707
  C  C201  1  0.526300  0.753100  0.545700  1.0  -0.0517
  C  C202  1  0.684500  0.795400  0.575900  1.0  -0.1535
  C  C203  1  0.757100  0.844100  0.586700  1.0  0.0186
  C  C204  1  0.753100  0.905500  0.613700  1.0  -0.1879
  C  C205  1  0.822600  0.949000  0.622500  1.0  0.1446
  C  C206  1  0.900300  0.878100  0.579300  1.0  0.1573
  C  C207  1  0.832100  0.831300  0.567500  1.0  -0.1887
  C  C208  1  0.689300  0.726100  0.572000  1.0  -0.1709
  C  C209  1  0.769600  0.683400  0.583000  1.0  0.0244
  C  C210  1  0.824900  0.684200  0.634300  1.0  -0.1564
  C  C211  1  0.896000  0.641400  0.644400  1.0  0.1477
  C  C212  1  0.864500  0.600300  0.556900  1.0  0.1554
  C  C213  1  0.790600  0.641200  0.543800  1.0  -0.1591
  C  C214  1  0.027300  0.531900  0.260100  1.0  0.1379
  C  C215  1  0.015500  0.532900  0.205100  1.0  -0.1649
  C  C216  1  0.950700  0.493600  0.173120  1.0  0.0523
  C  C217  1  0.900400  0.452400  0.199970  1.0  -0.1962
  C  C218  1  0.917400  0.454300  0.255620  1.0  0.1501
  C  C219  1  0.937700  0.492700  0.113700  1.0  -0.1528
  C  C220  1  0.978900  0.495300  0.020060  1.0  -0.0279
  C  C221  1  0.862400  0.493400  0.076820  1.0  -0.1471
  C  C222  1  0.774900  0.496200  0.088250  1.0  0.0555
  C  C223  1  0.751600  0.547800  0.120600  1.0  -0.1971
  C  C224  1  0.670000  0.547800  0.130200  1.0  0.1369
  C  C225  1  0.631800  0.451100  0.077730  1.0  0.152
  C  C226  1  0.711700  0.447300  0.065570  1.0  -0.1754
  C  C227  1  0.574300  0.453500  0.244700  1.0  0.1461
  C  C228  1  0.592400  0.453800  0.300400  1.0  -0.1878
  C  C229  1  0.548900  0.500600  0.327200  1.0  0.0387
  C  C230  1  0.489200  0.543700  0.295400  1.0  -0.1653
  C  C231  1  0.475400  0.540400  0.239600  1.0  0.1567
  C  C232  1  0.564000  0.503100  0.386700  1.0  -0.1614
  C  C233  1  0.639100  0.502400  0.423400  1.0  -0.1618
  C  C234  1  0.727600  0.501300  0.412900  1.0  0.0332
  C  C235  1  0.749900  0.540700  0.372700  1.0  -0.2116
  C  C236  1  0.833300  0.536800  0.364100  1.0  0.1438
  C  C237  1  0.872500  0.457900  0.431090  1.0  0.1653
  C  C238  1  0.791800  0.459400  0.443100  1.0  -0.1682
  C  C239  1  0.521600  0.504000  0.480100  1.0  -0.0301
  C  C240  1  0.290800  0.708800  0.468900  1.0  -0.1576
  C  C241  1  0.578000  0.882800  0.925470  1.0  0.1574
  C  C242  1  0.638600  0.833800  0.949600  1.0  -0.1904
  C  C243  1  0.723000  0.839200  0.942190  1.0  0.0322
  C  C244  1  0.741800  0.894000  0.910900  1.0  -0.129
  C  C245  1  0.678600  0.942100  0.889800  1.0  0.1294
  C  C246  1  0.784000  0.722000  0.974500  1.0  -0.1738
  C  C247  1  0.709000  0.678200  0.949900  1.0  0.0511
  C  C248  1  0.680200  0.627000  0.980300  1.0  -0.1703
  C  C249  1  0.612200  0.586100  0.956000  1.0  0.1521
  C  C250  1  0.597500  0.640700  0.874800  1.0  0.1524
  C  C251  1  0.665600  0.685600  0.895600  1.0  -0.1667
  C  C252  1  0.941300  0.750900  0.023500  1.0  -0.0708
  C  C253  1  0.026300  0.746900  0.045700  1.0  -0.0517
  C  C254  1  0.184500  0.704600  0.075900  1.0  -0.1547
  C  C255  1  0.257100  0.655900  0.086700  1.0  0.0194
  C  C256  1  0.253100  0.594500  0.113700  1.0  -0.1873
  C  C257  1  0.322600  0.551000  0.122500  1.0  0.145
  C  C258  1  0.400300  0.621900  0.079300  1.0  0.158
  C  C259  1  0.332100  0.668700  0.067500  1.0  -0.1879
  C  C260  1  0.189300  0.773900  0.072000  1.0  -0.1702
  C  C261  1  0.269600  0.816600  0.083000  1.0  0.0245
  C  C262  1  0.324900  0.815800  0.134300  1.0  -0.1559
  C  C263  1  0.396000  0.858600  0.144400  1.0  0.1481
  C  C264  1  0.364500  0.899700  0.056900  1.0  0.1555
  C  C265  1  0.290600  0.858800  0.043800  1.0  -0.1587
  C  C266  1  0.527300  0.968100  0.760100  1.0  0.1384
  C  C267  1  0.515500  0.967100  0.705100  1.0  -0.1646
  C  C268  1  0.450700  0.006400  0.673120  1.0  0.0521
  C  C269  1  0.400400  0.047600  0.699970  1.0  -0.1966
  C  C270  1  0.417400  0.045700  0.755620  1.0  0.1492
  C  C271  1  0.437700  0.007300  0.613700  1.0  -0.153
  C  C272  1  0.478900  0.004700  0.520060  1.0  -0.028
  C  C273  1  0.362400  0.006600  0.576820  1.0  -0.147
  C  C274  1  0.274900  0.003800  0.588250  1.0  0.0557
  C  C275  1  0.251600  0.952200  0.620600  1.0  -0.1968
  C  C276  1  0.170000  0.952200  0.630200  1.0  0.1377
  C  C277  1  0.131800  0.048900  0.577730  1.0  0.1532
  C  C278  1  0.211700  0.052700  0.565570  1.0  -0.1759
  C  C279  1  0.074300  0.046500  0.744700  1.0  0.1471
  C  C280  1  0.092400  0.046200  0.800400  1.0  -0.1878
  C  C281  1  0.048900  0.999400  0.827200  1.0  0.0385
  C  C282  1  0.989200  0.956300  0.795400  1.0  -0.1642
  C  C283  1  0.975400  0.959600  0.739600  1.0  0.1573
  C  C284  1  0.064000  0.996900  0.886700  1.0  -0.1614
  C  C285  1  0.139100  0.997600  0.923400  1.0  -0.1617
  C  C286  1  0.227600  0.998700  0.912900  1.0  0.0324
  C  C287  1  0.249900  0.959300  0.872700  1.0  -0.2102
  C  C288  1  0.333333  0.963200  0.864100  1.0  0.1444
  C  C289  1  0.372500  0.042100  0.931090  1.0  0.1656
  C  C290  1  0.291800  0.040600  0.943100  1.0  -0.1688
  C  C291  1  0.021600  0.996000  0.980100  1.0  -0.029
  C  C292  1  0.790800  0.791200  0.968900  1.0  -0.1576
  C  C293  1  0.922000  0.382800  0.574530  1.0  0.1584
  C  C294  1  0.861400  0.333800  0.550400  1.0  -0.1912
  C  C295  1  0.777000  0.339200  0.557810  1.0  0.0309
  C  C296  1  0.758200  0.394000  0.589100  1.0  -0.13
  C  C297  1  0.821400  0.442100  0.610200  1.0  0.1275
  C  C298  1  0.716000  0.222000  0.525500  1.0  -0.1724
  C  C299  1  0.791000  0.178200  0.550100  1.0  0.0514
  C  C300  1  0.819800  0.127000  0.519700  1.0  -0.1717
  C  C301  1  0.887800  0.086100  0.544000  1.0  0.1533
  C  C302  1  0.902500  0.140700  0.625200  1.0  0.1519
  C  C303  1  0.834400  0.185600  0.604400  1.0  -0.1694
  C  C304  1  0.558700  0.250900  0.476500  1.0  -0.07
  C  C305  1  0.473700  0.246900  0.454300  1.0  -0.0526
  C  C306  1  0.315500  0.204600  0.424100  1.0  -0.1562
  C  C307  1  0.242900  0.155900  0.413300  1.0  0.0191
  C  C308  1  0.246900  0.094500  0.386300  1.0  -0.1874
  C  C309  1  0.177400  0.051000  0.377500  1.0  0.1441
  C  C310  1  0.099700  0.121900  0.420700  1.0  0.1567
  C  C311  1  0.167900  0.168700  0.432500  1.0  -0.1883
  C  C312  1  0.310700  0.273900  0.428000  1.0  -0.1726
  C  C313  1  0.230400  0.316600  0.417000  1.0  0.0261
  C  C314  1  0.175100  0.315800  0.365700  1.0  -0.156
  C  C315  1  0.104000  0.358600  0.355600  1.0  0.1483
  C  C316  1  0.135500  0.399700  0.443100  1.0  0.1556
  C  C317  1  0.209400  0.358800  0.456200  1.0  -0.1587
  C  C318  1  0.972700  0.468100  0.739900  1.0  0.1392
  C  C319  1  0.984500  0.467100  0.794900  1.0  -0.1639
  C  C320  1  0.049300  0.506400  0.826880  1.0  0.0495
  C  C321  1  0.099600  0.547600  0.800030  1.0  -0.1965
  C  C322  1  0.082600  0.545700  0.744380  1.0  0.1491
  C  C323  1  0.062300  0.507300  0.886300  1.0  -0.1515
  C  C324  1  0.021100  0.504700  0.979940  1.0  -0.0264
  C  C325  1  0.137600  0.506600  0.923180  1.0  -0.1466
  C  C326  1  0.225100  0.503800  0.911750  1.0  0.0541
  C  C327  1  0.248400  0.452200  0.879400  1.0  -0.1962
  C  C328  1  0.330000  0.452200  0.869800  1.0  0.1377
  C  C329  1  0.368200  0.548900  0.922270  1.0  0.1542
  C  C330  1  0.288300  0.552700  0.934430  1.0  -0.1757
  C  C331  1  0.425700  0.546500  0.755300  1.0  0.1462
  C  C332  1  0.407600  0.546200  0.699600  1.0  -0.1884
  C  C333  1  0.451100  0.499400  0.672800  1.0  0.0417
  C  C334  1  0.510800  0.456300  0.704600  1.0  -0.1658
  C  C335  1  0.524600  0.459600  0.760400  1.0  0.157
  C  C336  1  0.436000  0.496900  0.613300  1.0  -0.1607
  C  C337  1  0.360900  0.497600  0.576600  1.0  -0.1602
  C  C338  1  0.272400  0.498700  0.587100  1.0  0.0358
  C  C339  1  0.250100  0.459300  0.627300  1.0  -0.2116
  C  C340  1  0.166700  0.463200  0.635900  1.0  0.1438
  C  C341  1  0.127500  0.542100  0.568910  1.0  0.1639
  C  C342  1  0.208200  0.540600  0.556900  1.0  -0.1682
  C  C343  1  0.478400  0.496000  0.519900  1.0  -0.0309
  C  C344  1  0.709200  0.291200  0.531100  1.0  -0.1563
  S  S345  1  0.127050  0.322200  0.985460  1.0  0.0517
  S  S346  1  0.111780  0.170560  0.996590  1.0  0.0521
  S  S347  1  0.907750  0.179020  0.943780  1.0  0.0461
  S  S348  1  0.920850  0.330630  0.932300  1.0  0.0781
  S  S349  1  0.467620  0.987130  0.411700  1.0  0.0456
  S  S350  1  0.634290  0.988710  0.492040  1.0  0.0529
  S  S351  1  0.865060  0.007710  0.007600  1.0  0.0167
  S  S352  1  0.030730  0.010730  0.088300  1.0  0.0622
  S  S353  1  0.372950  0.822200  0.514540  1.0  0.052
  S  S354  1  0.388220  0.670560  0.503410  1.0  0.0513
  S  S355  1  0.592250  0.679020  0.556220  1.0  0.0464
  S  S356  1  0.579150  0.830630  0.567700  1.0  0.0784
  S  S357  1  0.032380  0.487130  0.088300  1.0  0.046
  S  S358  1  0.865710  0.488710  0.007960  1.0  0.056
  S  S359  1  0.634940  0.507710  0.492400  1.0  0.0166
  S  S360  1  0.469270  0.510730  0.411700  1.0  0.0622
  S  S361  1  0.872950  0.677800  0.014540  1.0  0.0519
  S  S362  1  0.888220  0.829440  0.003410  1.0  0.0507
  S  S363  1  0.092250  0.820980  0.056220  1.0  0.0467
  S  S364  1  0.079150  0.669370  0.067700  1.0  0.0778
  S  S365  1  0.532380  0.012870  0.588300  1.0  0.0453
  S  S366  1  0.365710  0.011290  0.507960  1.0  0.056
  S  S367  1  0.134940  0.992290  0.992400  1.0  0.0171
  S  S368  1  0.969270  0.989270  0.911700  1.0  0.0623
  S  S369  1  0.627050  0.177800  0.485460  1.0  0.0515
  S  S370  1  0.611780  0.329440  0.496590  1.0  0.0517
  S  S371  1  0.407750  0.320980  0.443780  1.0  0.0464
  S  S372  1  0.420850  0.169370  0.432300  1.0  0.0777
  S  S373  1  0.967620  0.512870  0.911700  1.0  0.0447
  S  S374  1  0.134290  0.511290  0.992040  1.0  0.053
  S  S375  1  0.365060  0.492290  0.507600  1.0  0.0162
  S  S376  1  0.530730  0.489270  0.588300  1.0  0.0624
  N  N377  1  0.402900  0.062800  0.102850  1.0  -0.3449
  N  N378  1  0.428900  0.409200  0.096780  1.0  -0.3296
  N  N379  1  0.602500  0.436600  0.893700  1.0  -0.3391
  N  N380  1  0.584500  0.098300  0.893130  1.0  -0.3233
  N  N381  1  0.520100  0.992100  0.213160  1.0  -0.3343
  N  N382  1  0.891200  0.000600  0.390870  1.0  -0.3367
  N  N383  1  0.605700  0.995700  0.107630  1.0  -0.3272
  N  N384  1  0.982900  0.995400  0.286560  1.0  -0.3406
  N  N385  1  0.097100  0.562800  0.397150  1.0  -0.3468
  N  N386  1  0.071100  0.909200  0.403220  1.0  -0.3306
  N  N387  1  0.897500  0.936600  0.606300  1.0  -0.3382
  N  N388  1  0.915500  0.598300  0.606870  1.0  -0.3231
  N  N389  1  0.979900  0.492100  0.286840  1.0  -0.3332
  N  N390  1  0.608800  0.500600  0.109130  1.0  -0.3377
  N  N391  1  0.894300  0.495700  0.392370  1.0  -0.3254
  N  N392  1  0.517100  0.495400  0.213440  1.0  -0.3408
  N  N393  1  0.597100  0.937200  0.897150  1.0  -0.346
  N  N394  1  0.571100  0.590800  0.903220  1.0  -0.3307
  N  N395  1  0.397500  0.563400  0.106300  1.0  -0.3388
  N  N396  1  0.415500  0.901700  0.106870  1.0  -0.3228
  N  N397  1  0.479900  0.007900  0.786840  1.0  -0.3332
  N  N398  1  0.108800  0.999400  0.609130  1.0  -0.3375
  N  N399  1  0.394300  0.004300  0.892370  1.0  -0.3257
  N  N400  1  0.017100  0.004600  0.713440  1.0  -0.3409
  N  N401  1  0.902900  0.437200  0.602850  1.0  -0.3442
  N  N402  1  0.928900  0.090800  0.596780  1.0  -0.3304
  N  N403  1  0.102500  0.063400  0.393700  1.0  -0.3399
  N  N404  1  0.084500  0.401700  0.393130  1.0  -0.3223
  N  N405  1  0.020100  0.507900  0.713160  1.0  -0.3344
  N  N406  1  0.391200  0.499400  0.890870  1.0  -0.3369
  N  N407  1  0.105700  0.504300  0.607630  1.0  -0.3269
  N  N408  1  0.482900  0.504600  0.786560  1.0  -0.3407
