# generated using pymatgen
data_CdH18C18(NO)4
_symmetry_space_group_name_H-M   'P 1'
_cell_length_a   7.08700000
_cell_length_b   17.66900000
_cell_length_c   17.79300000
_cell_angle_alpha   90.00000000
_cell_angle_beta   90.00000000
_cell_angle_gamma   90.00000000
_symmetry_Int_Tables_number   1
_chemical_formula_structural   CdH18C18(NO)4
_chemical_formula_sum   'Cd4 H72 C72 N16 O16'
_cell_volume   2228.04307198
_cell_formula_units_Z   4
loop_
 _symmetry_equiv_pos_site_id
 _symmetry_equiv_pos_as_xyz
  1  'x, y, z'
loop_
 _atom_site_type_symbol
 _atom_site_label
 _atom_site_symmetry_multiplicity
 _atom_site_fract_x
 _atom_site_fract_y
 _atom_site_fract_z
 _atom_site_occupancy
 _atom_site_charge
  Cd  Cd1  1  0.722460  0.986940  0.526770  1.0  0.9471
  Cd  Cd2  1  0.277540  0.013060  0.026770  1.0  0.9447
  Cd  Cd3  1  0.222460  0.513060  0.526770  1.0  0.9466
  Cd  Cd4  1  0.777540  0.486940  0.026770  1.0  0.9451
  H  H5  1  0.808100  0.839100  0.624400  1.0  0.0799
  H  H6  1  0.793100  0.647900  0.506700  1.0  0.1221
  H  H7  1  0.821700  0.709400  0.621200  1.0  0.1266
  H  H8  1  0.692200  0.612800  0.309600  1.0  0.1107
  H  H9  1  0.564900  0.622700  0.381000  1.0  0.1148
  H  H10  1  0.774500  0.595700  0.389700  1.0  0.1131
  H  H11  1  0.729300  0.850000  0.409500  1.0  0.0706
  H  H12  1  0.792600  0.623500  0.145200  1.0  0.0917
  H  H13  1  0.682800  0.869100  0.174300  1.0  0.1139
  H  H14  1  0.903900  0.869200  0.172300  1.0  0.1111
  H  H15  1  0.797800  0.861500  0.249200  1.0  0.1218
  H  H16  1  0.794100  0.828200  0.050900  1.0  0.1162
  H  H17  1  0.780600  0.639100  0.926900  1.0  0.0875
  H  H18  1  0.784900  0.770700  0.935200  1.0  0.108
  H  H19  1  0.246000  0.987700  0.711300  1.0  0.0914
  H  H20  1  0.334700  0.908100  0.727800  1.0  0.1227
  H  H21  1  0.500000  0.042800  0.776200  1.0  0.1026
  H  H22  1  0.567000  0.961500  0.798200  1.0  0.1201
  H  H23  1  0.191900  0.160900  0.124400  1.0  0.0804
  H  H24  1  0.206900  0.352100  0.006700  1.0  0.1198
  H  H25  1  0.178300  0.290600  0.121200  1.0  0.1264
  H  H26  1  0.307800  0.387200  0.809600  1.0  0.1103
  H  H27  1  0.435100  0.377300  0.881000  1.0  0.1149
  H  H28  1  0.225500  0.404300  0.889700  1.0  0.1117
  H  H29  1  0.270700  0.150000  0.909500  1.0  0.0702
  H  H30  1  0.207400  0.376500  0.645200  1.0  0.0914
  H  H31  1  0.317200  0.130900  0.674300  1.0  0.1164
  H  H32  1  0.096100  0.130800  0.672300  1.0  0.11
  H  H33  1  0.202200  0.138500  0.749200  1.0  0.1221
  H  H34  1  0.205900  0.171800  0.550900  1.0  0.116
  H  H35  1  0.219400  0.360900  0.426900  1.0  0.0873
  H  H36  1  0.215100  0.229300  0.435200  1.0  0.1078
  H  H37  1  0.754000  0.012300  0.211300  1.0  0.0933
  H  H38  1  0.665300  0.091900  0.227800  1.0  0.1228
  H  H39  1  0.500000  0.957200  0.276200  1.0  0.1053
  H  H40  1  0.433000  0.038500  0.298200  1.0  0.1201
  H  H41  1  0.308100  0.660900  0.624400  1.0  0.0801
  H  H42  1  0.293100  0.852100  0.506700  1.0  0.1198
  H  H43  1  0.321700  0.790600  0.621200  1.0  0.1265
  H  H44  1  0.192200  0.887200  0.309600  1.0  0.1101
  H  H45  1  0.064900  0.877300  0.381000  1.0  0.114
  H  H46  1  0.274500  0.904300  0.389700  1.0  0.1116
  H  H47  1  0.229300  0.650000  0.409500  1.0  0.0703
  H  H48  1  0.292600  0.876500  0.145200  1.0  0.0909
  H  H49  1  0.182800  0.630900  0.174300  1.0  0.1134
  H  H50  1  0.403900  0.630800  0.172300  1.0  0.1112
  H  H51  1  0.297800  0.638500  0.249200  1.0  0.1223
  H  H52  1  0.294100  0.671800  0.050900  1.0  0.1159
  H  H53  1  0.280600  0.860900  0.926900  1.0  0.0876
  H  H54  1  0.284900  0.729300  0.935200  1.0  0.1079
  H  H55  1  0.746000  0.512300  0.711300  1.0  0.0917
  H  H56  1  0.834700  0.591900  0.727800  1.0  0.1231
  H  H57  1  0.000000  0.457200  0.776200  1.0  0.1045
  H  H58  1  0.067000  0.538500  0.798200  1.0  0.121
  H  H59  1  0.691900  0.339100  0.124400  1.0  0.0801
  H  H60  1  0.706900  0.147900  0.006700  1.0  0.1222
  H  H61  1  0.678300  0.209400  0.121200  1.0  0.1264
  H  H62  1  0.807800  0.112800  0.809600  1.0  0.111
  H  H63  1  0.935100  0.122700  0.881000  1.0  0.1166
  H  H64  1  0.725500  0.095700  0.889700  1.0  0.1129
  H  H65  1  0.770700  0.350000  0.909500  1.0  0.0704
  H  H66  1  0.707400  0.123500  0.645200  1.0  0.092
  H  H67  1  0.817200  0.369100  0.674300  1.0  0.1162
  H  H68  1  0.596100  0.369200  0.672300  1.0  0.1099
  H  H69  1  0.702200  0.361500  0.749200  1.0  0.1216
  H  H70  1  0.705900  0.328200  0.550900  1.0  0.1161
  H  H71  1  0.719400  0.139100  0.426900  1.0  0.0879
  H  H72  1  0.715100  0.270700  0.435200  1.0  0.1079
  H  H73  1  0.254000  0.487700  0.211300  1.0  0.0925
  H  H74  1  0.165300  0.408100  0.227800  1.0  0.123
  H  H75  1  0.000000  0.542800  0.276200  1.0  0.1036
  H  H76  1  0.933000  0.461500  0.298200  1.0  0.121
  C  C77  1  0.793000  0.814600  0.578510  1.0  0.1768
  C  C78  1  0.761600  0.742480  0.443750  1.0  -0.0219
  C  C79  1  0.753100  0.707890  0.368250  1.0  0.2825
  C  C80  1  0.787200  0.700460  0.509060  1.0  -0.0617
  C  C81  1  0.794300  0.764270  0.188470  1.0  0.2478
  C  C82  1  0.803700  0.736800  0.577130  1.0  -0.1559
  C  C83  1  0.690600  0.627660  0.361550  1.0  -0.3813
  C  C84  1  0.748700  0.820830  0.452350  1.0  0.1961
  C  C85  1  0.791000  0.653800  0.102510  1.0  0.2025
  C  C86  1  0.792400  0.731810  0.111480  1.0  -0.0476
  C  C87  1  0.794700  0.848600  0.196820  1.0  -0.3675
  C  C88  1  0.791500  0.775710  0.047310  1.0  -0.0978
  C  C89  1  0.485200  0.968100  0.649190  1.0  0.7381
  C  C90  1  0.784300  0.662200  0.973800  1.0  0.1752
  C  C91  1  0.786700  0.741500  0.978800  1.0  -0.0657
  C  C92  1  0.364000  0.961120  0.719440  1.0  -0.3037
  C  C93  1  0.456300  0.992100  0.787710  1.0  -0.3398
  C  C94  1  0.338400  0.996010  0.859260  1.0  0.7249
  C  C95  1  0.207000  0.185400  0.078510  1.0  0.1763
  C  C96  1  0.238400  0.257520  0.943750  1.0  -0.0216
  C  C97  1  0.246900  0.292110  0.868250  1.0  0.281
  C  C98  1  0.212800  0.299540  0.009060  1.0  -0.0627
  C  C99  1  0.205700  0.235730  0.688470  1.0  0.2481
  C  C100  1  0.196300  0.263200  0.077130  1.0  -0.1563
  C  C101  1  0.309400  0.372340  0.861550  1.0  -0.3807
  C  C102  1  0.251300  0.179170  0.952350  1.0  0.1973
  C  C103  1  0.209000  0.346200  0.602510  1.0  0.2011
  C  C104  1  0.207600  0.268190  0.611480  1.0  -0.0482
  C  C105  1  0.205300  0.151400  0.696820  1.0  -0.3673
  C  C106  1  0.208500  0.224290  0.547310  1.0  -0.098
  C  C107  1  0.514800  0.031900  0.149190  1.0  0.7377
  C  C108  1  0.215700  0.337800  0.473800  1.0  0.1748
  C  C109  1  0.213300  0.258500  0.478800  1.0  -0.0648
  C  C110  1  0.636000  0.038880  0.219440  1.0  -0.3026
  C  C111  1  0.543700  0.007900  0.287710  1.0  -0.3412
  C  C112  1  0.661600  0.003990  0.359260  1.0  0.7273
  C  C113  1  0.293000  0.685400  0.578510  1.0  0.1771
  C  C114  1  0.261600  0.757520  0.443750  1.0  -0.0217
  C  C115  1  0.253100  0.792110  0.368250  1.0  0.282
  C  C116  1  0.287200  0.799540  0.509060  1.0  -0.0628
  C  C117  1  0.294300  0.735730  0.188470  1.0  0.2481
  C  C118  1  0.303700  0.763200  0.577130  1.0  -0.156
  C  C119  1  0.190600  0.872340  0.361550  1.0  -0.3801
  C  C120  1  0.248700  0.679170  0.452350  1.0  0.1972
  C  C121  1  0.291000  0.846200  0.102510  1.0  0.2014
  C  C122  1  0.292400  0.768190  0.111480  1.0  -0.048
  C  C123  1  0.294700  0.651400  0.196820  1.0  -0.3674
  C  C124  1  0.291500  0.724290  0.047310  1.0  -0.0979
  C  C125  1  0.985200  0.531900  0.649190  1.0  0.7378
  C  C126  1  0.284300  0.837800  0.973800  1.0  0.1749
  C  C127  1  0.286700  0.758500  0.978800  1.0  -0.0647
  C  C128  1  0.864000  0.538880  0.719440  1.0  -0.3056
  C  C129  1  0.956300  0.507900  0.787710  1.0  -0.3393
  C  C130  1  0.838400  0.503990  0.859260  1.0  0.7246
  C  C131  1  0.707000  0.314600  0.078510  1.0  0.1757
  C  C132  1  0.738400  0.242480  0.943750  1.0  -0.0218
  C  C133  1  0.746900  0.207890  0.868250  1.0  0.2814
  C  C134  1  0.712800  0.200460  0.009060  1.0  -0.0616
  C  C135  1  0.705700  0.264270  0.688470  1.0  0.2478
  C  C136  1  0.696300  0.236800  0.077130  1.0  -0.1561
  C  C137  1  0.809400  0.127660  0.861550  1.0  -0.3822
  C  C138  1  0.751300  0.320830  0.952350  1.0  0.1965
  C  C139  1  0.709000  0.153800  0.602510  1.0  0.202
  C  C140  1  0.707600  0.231810  0.611480  1.0  -0.0478
  C  C141  1  0.705300  0.348600  0.696820  1.0  -0.3674
  C  C142  1  0.708500  0.275710  0.547310  1.0  -0.098
  C  C143  1  0.014800  0.468100  0.149190  1.0  0.7377
  C  C144  1  0.715700  0.162200  0.473800  1.0  0.175
  C  C145  1  0.713300  0.241500  0.478800  1.0  -0.0658
  C  C146  1  0.136000  0.461120  0.219440  1.0  -0.3037
  C  C147  1  0.043700  0.492100  0.287710  1.0  -0.3407
  C  C148  1  0.161600  0.496010  0.359260  1.0  0.7276
  N  N149  1  0.762600  0.856270  0.518000  1.0  -0.3653
  N  N150  1  0.794200  0.717110  0.242640  1.0  -0.3138
  N  N151  1  0.800100  0.751430  0.314650  1.0  -0.3193
  N  N152  1  0.787300  0.620090  0.034800  1.0  -0.351
  N  N153  1  0.237400  0.143730  0.018000  1.0  -0.367
  N  N154  1  0.205800  0.282890  0.742640  1.0  -0.3137
  N  N155  1  0.199900  0.248570  0.814650  1.0  -0.3198
  N  N156  1  0.212700  0.379910  0.534800  1.0  -0.3513
  N  N157  1  0.262600  0.643730  0.518000  1.0  -0.3668
  N  N158  1  0.294200  0.782890  0.242640  1.0  -0.3139
  N  N159  1  0.300100  0.748570  0.314650  1.0  -0.3194
  N  N160  1  0.287300  0.879910  0.034800  1.0  -0.3517
  N  N161  1  0.737400  0.356270  0.018000  1.0  -0.3653
  N  N162  1  0.705800  0.217110  0.742640  1.0  -0.3137
  N  N163  1  0.699900  0.251430  0.814650  1.0  -0.3195
  N  N164  1  0.712700  0.120090  0.534800  1.0  -0.351
  O  O165  1  0.661800  0.976230  0.655460  1.0  -0.6187
  O  O166  1  0.406800  0.966680  0.587080  1.0  -0.6304
  O  O167  1  0.166900  0.992490  0.857800  1.0  -0.5568
  O  O168  1  0.434400  0.006130  0.918740  1.0  -0.6137
  O  O169  1  0.338200  0.023770  0.155460  1.0  -0.6215
  O  O170  1  0.593200  0.033320  0.087080  1.0  -0.6311
  O  O171  1  0.833100  0.007510  0.357800  1.0  -0.5544
  O  O172  1  0.565600  0.993870  0.418740  1.0  -0.6154
  O  O173  1  0.161800  0.523770  0.655460  1.0  -0.6185
  O  O174  1  0.906800  0.533320  0.587080  1.0  -0.6306
  O  O175  1  0.666900  0.507510  0.857800  1.0  -0.5579
  O  O176  1  0.934400  0.493870  0.918740  1.0  -0.6141
  O  O177  1  0.838200  0.476230  0.155460  1.0  -0.6217
  O  O178  1  0.093200  0.466680  0.087080  1.0  -0.6308
  O  O179  1  0.333100  0.492490  0.357800  1.0  -0.5542
  O  O180  1  0.065600  0.506130  0.418740  1.0  -0.615
