# generated using pymatgen
data_ZnH3(C2O)4
_symmetry_space_group_name_H-M   'P 1'
_cell_length_a   14.27860000
_cell_length_b   13.02680000
_cell_length_c   17.82550000
_cell_angle_alpha   90.00000000
_cell_angle_beta   95.84700000
_cell_angle_gamma   90.00000000
_symmetry_Int_Tables_number   1
_chemical_formula_structural   ZnH3(C2O)4
_chemical_formula_sum   'Zn8 H24 C64 O32'
_cell_volume   3298.37301481
_cell_formula_units_Z   8
loop_
 _symmetry_equiv_pos_site_id
 _symmetry_equiv_pos_as_xyz
  1  'x, y, z'
loop_
 _atom_site_type_symbol
 _atom_site_label
 _atom_site_symmetry_multiplicity
 _atom_site_fract_x
 _atom_site_fract_y
 _atom_site_fract_z
 _atom_site_occupancy
 _atom_site_charge
  Zn  Zn1  1  0.007760  0.556050  0.726530  1.0  1.0357
  Zn  Zn2  1  0.073310  0.719410  0.864640  1.0  0.9639
  Zn  Zn3  1  0.492240  0.056050  0.773470  1.0  1.0358
  Zn  Zn4  1  0.426690  0.219410  0.635360  1.0  0.9655
  Zn  Zn5  1  0.992240  0.443950  0.273470  1.0  1.0374
  Zn  Zn6  1  0.926690  0.280590  0.135360  1.0  0.9667
  Zn  Zn7  1  0.507760  0.943950  0.226530  1.0  1.0366
  Zn  Zn8  1  0.573310  0.780590  0.364640  1.0  0.9633
  H  H9  1  0.225300  0.885500  0.720300  1.0  0.1172
  H  H10  1  0.307900  0.939800  0.515800  1.0  0.1117
  H  H11  1  0.138300  0.703600  0.545700  1.0  0.109
  H  H12  1  0.347200  0.861000  0.420400  1.0  0.1098
  H  H13  1  0.236900  0.713800  0.236100  1.0  0.115
  H  H14  1  0.117500  0.687700  0.428300  1.0  0.1072
  H  H15  1  0.274700  0.385500  0.779700  1.0  0.1173
  H  H16  1  0.192100  0.439800  0.984200  1.0  0.1115
  H  H17  1  0.361700  0.203600  0.954300  1.0  0.1094
  H  H18  1  0.152800  0.361000  0.079600  1.0  0.109
  H  H19  1  0.263100  0.213800  0.263900  1.0  0.1151
  H  H20  1  0.382500  0.187700  0.071700  1.0  0.1072
  H  H21  1  0.774700  0.114500  0.279700  1.0  0.1172
  H  H22  1  0.692100  0.060200  0.484200  1.0  0.1114
  H  H23  1  0.861700  0.296400  0.454300  1.0  0.1091
  H  H24  1  0.652800  0.139000  0.579600  1.0  0.1069
  H  H25  1  0.763100  0.286200  0.763900  1.0  0.1149
  H  H26  1  0.882500  0.312300  0.571700  1.0  0.1079
  H  H27  1  0.725300  0.614500  0.220300  1.0  0.1173
  H  H28  1  0.807900  0.560200  0.015800  1.0  0.1115
  H  H29  1  0.638300  0.796400  0.045700  1.0  0.1096
  H  H30  1  0.847200  0.639000  0.920400  1.0  0.1085
  H  H31  1  0.736900  0.786200  0.736100  1.0  0.1149
  H  H32  1  0.617500  0.812300  0.928300  1.0  0.1066
  C  C33  1  0.169600  0.786600  0.640100  1.0  -0.1728
  C  C34  1  0.224100  0.868600  0.669600  1.0  0.0111
  C  C35  1  0.275700  0.924100  0.623600  1.0  -0.0604
  C  C36  1  0.274900  0.899500  0.547200  1.0  -0.0665
  C  C37  1  0.224500  0.814400  0.518200  1.0  -0.0566
  C  C38  1  0.172600  0.760100  0.564900  1.0  -0.024
  C  C39  1  0.112600  0.724200  0.690600  1.0  0.7117
  C  C40  1  0.340100  0.008500  0.656300  1.0  0.7354
  C  C41  1  0.230200  0.782100  0.437600  1.0  0.0196
  C  C42  1  0.300800  0.818600  0.396900  1.0  -0.0907
  C  C43  1  0.303300  0.792900  0.322000  1.0  -0.1297
  C  C44  1  0.236700  0.728500  0.287200  1.0  0.0157
  C  C45  1  0.169100  0.685200  0.327700  1.0  -0.1591
  C  C46  1  0.164900  0.714100  0.401800  1.0  -0.0134
  C  C47  1  0.376500  0.837600  0.276900  1.0  0.6423
  C  C48  1  0.101400  0.607200  0.289700  1.0  0.6866
  C  C49  1  0.330400  0.286600  0.859900  1.0  -0.1719
  C  C50  1  0.275900  0.368600  0.830400  1.0  0.0121
  C  C51  1  0.224300  0.424100  0.876400  1.0  -0.0619
  C  C52  1  0.225100  0.399500  0.952800  1.0  -0.0684
  C  C53  1  0.275500  0.314400  0.981800  1.0  -0.057
  C  C54  1  0.327400  0.260100  0.935100  1.0  -0.0226
  C  C55  1  0.387400  0.224200  0.809400  1.0  0.7073
  C  C56  1  0.159900  0.508500  0.843700  1.0  0.7356
  C  C57  1  0.269800  0.282100  0.062400  1.0  0.0195
  C  C58  1  0.199200  0.318600  0.103100  1.0  -0.0889
  C  C59  1  0.196700  0.292900  0.178000  1.0  -0.128
  C  C60  1  0.263300  0.228500  0.212800  1.0  0.0143
  C  C61  1  0.330900  0.185200  0.172300  1.0  -0.158
  C  C62  1  0.335100  0.214100  0.098200  1.0  -0.0133
  C  C63  1  0.123500  0.337600  0.223100  1.0  0.6429
  C  C64  1  0.398600  0.107200  0.210300  1.0  0.6876
  C  C65  1  0.830400  0.213400  0.359900  1.0  -0.1716
  C  C66  1  0.775900  0.131400  0.330400  1.0  0.0133
  C  C67  1  0.724300  0.075900  0.376400  1.0  -0.0624
  C  C68  1  0.725100  0.100500  0.452800  1.0  -0.0662
  C  C69  1  0.775500  0.185600  0.481800  1.0  -0.0569
  C  C70  1  0.827400  0.239900  0.435100  1.0  -0.0241
  C  C71  1  0.887400  0.275800  0.309400  1.0  0.7075
  C  C72  1  0.659900  0.991500  0.343700  1.0  0.7361
  C  C73  1  0.769800  0.217900  0.562400  1.0  0.0193
  C  C74  1  0.699200  0.181400  0.603100  1.0  -0.0891
  C  C75  1  0.696700  0.207100  0.678000  1.0  -0.1279
  C  C76  1  0.763300  0.271500  0.712800  1.0  0.0139
  C  C77  1  0.830900  0.314800  0.672300  1.0  -0.1582
  C  C78  1  0.835100  0.285900  0.598200  1.0  -0.0137
  C  C79  1  0.623500  0.162400  0.723100  1.0  0.6424
  C  C80  1  0.898600  0.392800  0.710300  1.0  0.6878
  C  C81  1  0.669600  0.713400  0.140100  1.0  -0.1728
  C  C82  1  0.724100  0.631400  0.169600  1.0  0.0118
  C  C83  1  0.775700  0.575900  0.123600  1.0  -0.0613
  C  C84  1  0.774900  0.600500  0.047200  1.0  -0.0664
  C  C85  1  0.724500  0.685600  0.018200  1.0  -0.0566
  C  C86  1  0.672600  0.739900  0.064900  1.0  -0.0241
  C  C87  1  0.612600  0.775800  0.190600  1.0  0.7094
  C  C88  1  0.840100  0.491500  0.156300  1.0  0.7361
  C  C89  1  0.730200  0.717900  0.937600  1.0  0.0197
  C  C90  1  0.800800  0.681400  0.896900  1.0  -0.0902
  C  C91  1  0.803300  0.707100  0.822000  1.0  -0.1297
  C  C92  1  0.736700  0.771500  0.787200  1.0  0.015
  C  C93  1  0.669100  0.814800  0.827700  1.0  -0.1581
  C  C94  1  0.664900  0.785900  0.901800  1.0  -0.0139
  C  C95  1  0.876500  0.662400  0.776900  1.0  0.6415
  C  C96  1  0.601400  0.892800  0.789700  1.0  0.6873
  O  O97  1  0.067600  0.649600  0.659440  1.0  -0.573
  O  O98  1  0.115300  0.749600  0.757190  1.0  -0.6342
  O  O99  1  0.375000  0.993500  0.722660  1.0  -0.5987
  O  O100  1  0.354200  0.084500  0.615580  1.0  -0.6564
  O  O101  1  0.454700  0.869000  0.313190  1.0  -0.6567
  O  O102  1  0.361200  0.846700  0.209170  1.0  -0.5337
  O  O103  1  0.096300  0.594300  0.222580  1.0  -0.4755
  O  O104  1  0.052400  0.556300  0.333850  1.0  -0.5879
  O  O105  1  0.432400  0.149600  0.840560  1.0  -0.573
  O  O106  1  0.384700  0.249600  0.742810  1.0  -0.6413
  O  O107  1  0.125000  0.493500  0.777340  1.0  -0.5987
  O  O108  1  0.145800  0.584500  0.884420  1.0  -0.6525
  O  O109  1  0.045300  0.369000  0.186810  1.0  -0.6572
  O  O110  1  0.138800  0.346700  0.290830  1.0  -0.5346
  O  O111  1  0.403700  0.094300  0.277420  1.0  -0.4758
  O  O112  1  0.447600  0.056300  0.166150  1.0  -0.5869
  O  O113  1  0.932400  0.350400  0.340560  1.0  -0.5738
  O  O114  1  0.884700  0.250400  0.242810  1.0  -0.6394
  O  O115  1  0.625000  0.006500  0.277340  1.0  -0.5991
  O  O116  1  0.645800  0.915500  0.384420  1.0  -0.6549
  O  O117  1  0.545300  0.131000  0.686810  1.0  -0.6575
  O  O118  1  0.638800  0.153300  0.790830  1.0  -0.5346
  O  O119  1  0.903700  0.405700  0.777420  1.0  -0.4756
  O  O120  1  0.947600  0.443700  0.666150  1.0  -0.5873
  O  O121  1  0.567600  0.850400  0.159440  1.0  -0.5739
  O  O122  1  0.615300  0.750400  0.257190  1.0  -0.6334
  O  O123  1  0.875000  0.506500  0.222660  1.0  -0.5996
  O  O124  1  0.854200  0.415500  0.115580  1.0  -0.6558
  O  O125  1  0.954700  0.631000  0.813190  1.0  -0.6571
  O  O126  1  0.861200  0.653300  0.709170  1.0  -0.534
  O  O127  1  0.596300  0.905700  0.722580  1.0  -0.4757
  O  O128  1  0.552400  0.943700  0.833850  1.0  -0.5884
