# generated using pymatgen
data_Mn3H10(C2O3)4
_symmetry_space_group_name_H-M   'P 1'
_cell_length_a   11.74630000
_cell_length_b   10.95700000
_cell_length_c   15.82170000
_cell_angle_alpha   90.00000000
_cell_angle_beta   91.76000000
_cell_angle_gamma   90.00000000
_symmetry_Int_Tables_number   1
_chemical_formula_structural   Mn3H10(C2O3)4
_chemical_formula_sum   'Mn12 H40 C32 O48'
_cell_volume   2035.35874256
_cell_formula_units_Z   4
loop_
 _symmetry_equiv_pos_site_id
 _symmetry_equiv_pos_as_xyz
  1  'x, y, z'
loop_
 _atom_site_type_symbol
 _atom_site_label
 _atom_site_symmetry_multiplicity
 _atom_site_fract_x
 _atom_site_fract_y
 _atom_site_fract_z
 _atom_site_occupancy
 _atom_site_charge
  Mn  Mn1  1  0.259270  0.042360  0.135140  1.0  1.0743
  Mn  Mn2  1  0.239820  0.828330  0.285870  1.0  1.0742
  Mn  Mn3  1  0.240730  0.542360  0.364860  1.0  1.0751
  Mn  Mn4  1  0.260180  0.328330  0.214130  1.0  1.0723
  Mn  Mn5  1  0.740730  0.957640  0.864860  1.0  1.0751
  Mn  Mn6  1  0.760180  0.171670  0.714130  1.0  1.072
  Mn  Mn7  1  0.759270  0.457640  0.635140  1.0  1.0744
  Mn  Mn8  1  0.739820  0.671670  0.785870  1.0  1.0741
  Mn  Mn9  1  0.000000  0.000000  0.000000  1.0  1.0154
  Mn  Mn10  1  0.500000  0.500000  0.500000  1.0  1.0154
  Mn  Mn11  1  0.500000  0.000000  0.000000  1.0  1.194
  Mn  Mn12  1  0.000000  0.500000  0.500000  1.0  1.194
  H  H13  1  0.981200  0.913300  0.242800  1.0  0.0124
  H  H14  1  0.053400  0.331300  0.087000  1.0  0.0104
  H  H15  1  0.333700  0.133900  0.454600  1.0  0.1409
  H  H16  1  0.317800  0.252000  0.395900  1.0  0.1268
  H  H17  1  0.437700  0.182600  0.400900  1.0  0.1275
  H  H18  1  0.198100  0.877300  0.918000  1.0  0.0032
  H  H19  1  0.500800  0.260300  0.052000  1.0  0.0029
  H  H20  1  0.542300  0.720900  0.232600  1.0  0.1464
  H  H21  1  0.506500  0.655400  0.145300  1.0  0.1446
  H  H22  1  0.415900  0.668600  0.218300  1.0  0.1509
  H  H23  1  0.518800  0.413300  0.257200  1.0  0.0128
  H  H24  1  0.446600  0.831300  0.413000  1.0  0.0098
  H  H25  1  0.166300  0.633900  0.045400  1.0  0.1408
  H  H26  1  0.182200  0.752000  0.104100  1.0  0.1256
  H  H27  1  0.062300  0.682600  0.099100  1.0  0.1291
  H  H28  1  0.301900  0.377300  0.582000  1.0  0.0042
  H  H29  1  0.999200  0.760300  0.448000  1.0  0.0035
  H  H30  1  0.957700  0.220900  0.267400  1.0  0.1467
  H  H31  1  0.993500  0.155400  0.354700  1.0  0.1453
  H  H32  1  0.084100  0.168600  0.281700  1.0  0.1491
  H  H33  1  0.018800  0.086700  0.757200  1.0  0.013
  H  H34  1  0.946600  0.668700  0.913000  1.0  0.0102
  H  H35  1  0.666300  0.866100  0.545400  1.0  0.1403
  H  H36  1  0.682200  0.748000  0.604100  1.0  0.1257
  H  H37  1  0.562300  0.817400  0.599100  1.0  0.129
  H  H38  1  0.801900  0.122700  0.082000  1.0  0.0033
  H  H39  1  0.499200  0.739700  0.948000  1.0  0.0037
  H  H40  1  0.457700  0.279100  0.767400  1.0  0.1468
  H  H41  1  0.493500  0.344600  0.854700  1.0  0.1455
  H  H42  1  0.584100  0.331400  0.781700  1.0  0.1496
  H  H43  1  0.481200  0.586700  0.742800  1.0  0.0119
  H  H44  1  0.553400  0.168700  0.587000  1.0  0.0102
  H  H45  1  0.833700  0.366100  0.954600  1.0  0.1409
  H  H46  1  0.817800  0.248000  0.895900  1.0  0.126
  H  H47  1  0.937700  0.317400  0.900900  1.0  0.1274
  H  H48  1  0.698100  0.622700  0.418000  1.0  0.0037
  H  H49  1  0.000800  0.239700  0.552000  1.0  0.0028
  H  H50  1  0.042300  0.779100  0.732600  1.0  0.1463
  H  H51  1  0.006500  0.844600  0.645300  1.0  0.1451
  H  H52  1  0.915900  0.831400  0.718300  1.0  0.1504
  C  C53  1  0.022200  0.938500  0.195000  1.0  0.6656
  C  C54  1  0.075300  0.248400  0.080900  1.0  0.7126
  C  C55  1  0.317900  0.094200  0.330300  1.0  0.7621
  C  C56  1  0.354800  0.172200  0.401300  1.0  -0.4286
  C  C57  1  0.241900  0.919200  0.960300  1.0  0.6897
  C  C58  1  0.437200  0.238300  0.084300  1.0  0.7017
  C  C59  1  0.442500  0.828000  0.154900  1.0  0.7494
  C  C60  1  0.480000  0.707900  0.190900  1.0  -0.4325
  C  C61  1  0.477800  0.438500  0.305000  1.0  0.6654
  C  C62  1  0.424700  0.748400  0.419100  1.0  0.7122
  C  C63  1  0.182100  0.594200  0.169700  1.0  0.7633
  C  C64  1  0.145200  0.672200  0.098700  1.0  -0.4287
  C  C65  1  0.258100  0.419200  0.539700  1.0  0.6902
  C  C66  1  0.062800  0.738300  0.415700  1.0  0.7004
  C  C67  1  0.057500  0.328000  0.345100  1.0  0.75
  C  C68  1  0.020000  0.207900  0.309100  1.0  -0.4337
  C  C69  1  0.977800  0.061500  0.805000  1.0  0.6652
  C  C70  1  0.924700  0.751600  0.919100  1.0  0.7118
  C  C71  1  0.682100  0.905800  0.669700  1.0  0.7627
  C  C72  1  0.645200  0.827800  0.598700  1.0  -0.4277
  C  C73  1  0.758100  0.080800  0.039700  1.0  0.6903
  C  C74  1  0.562800  0.761700  0.915700  1.0  0.7011
  C  C75  1  0.557500  0.172000  0.845100  1.0  0.7494
  C  C76  1  0.520000  0.292100  0.809100  1.0  -0.4327
  C  C77  1  0.522200  0.561500  0.695000  1.0  0.6649
  C  C78  1  0.575300  0.251600  0.580900  1.0  0.712
  C  C79  1  0.817900  0.405800  0.830300  1.0  0.7623
  C  C80  1  0.854800  0.327800  0.901300  1.0  -0.4286
  C  C81  1  0.741900  0.580800  0.460300  1.0  0.6892
  C  C82  1  0.937200  0.261700  0.584300  1.0  0.7019
  C  C83  1  0.942500  0.672000  0.654900  1.0  0.7481
  C  C84  1  0.980000  0.792100  0.690900  1.0  -0.4323
  O  O85  1  0.966200  0.967000  0.132230  1.0  -0.6005
  O  O86  1  0.129850  0.939160  0.202870  1.0  -0.6728
  O  O87  1  0.021300  0.188900  0.028530  1.0  -0.6076
  O  O88  1  0.157400  0.212110  0.128040  1.0  -0.6411
  O  O89  1  0.299940  0.141290  0.257110  1.0  -0.6508
  O  O90  1  0.308800  0.985000  0.346400  1.0  -0.5971
  O  O91  1  0.187480  0.971800  0.017420  1.0  -0.648
  O  O92  1  0.345200  0.916800  0.953980  1.0  -0.608
  O  O93  1  0.403480  0.129470  0.077900  1.0  -0.6573
  O  O94  1  0.396300  0.319000  0.128030  1.0  -0.5897
  O  O95  1  0.349830  0.875200  0.178510  1.0  -0.6619
  O  O96  1  0.504300  0.872300  0.101510  1.0  -0.6042
  O  O97  1  0.533800  0.467000  0.367770  1.0  -0.6005
  O  O98  1  0.370150  0.439160  0.297130  1.0  -0.6734
  O  O99  1  0.478700  0.688900  0.471470  1.0  -0.6081
  O  O100  1  0.342600  0.712110  0.371960  1.0  -0.6393
  O  O101  1  0.200060  0.641290  0.242890  1.0  -0.649
  O  O102  1  0.191200  0.485000  0.153600  1.0  -0.5966
  O  O103  1  0.312520  0.471800  0.482580  1.0  -0.6471
  O  O104  1  0.154800  0.416800  0.546020  1.0  -0.6075
  O  O105  1  0.096520  0.629470  0.422100  1.0  -0.6574
  O  O106  1  0.103700  0.819000  0.371970  1.0  -0.5891
  O  O107  1  0.150170  0.375200  0.321490  1.0  -0.6621
  O  O108  1  0.995700  0.372300  0.398490  1.0  -0.6061
  O  O109  1  0.033800  0.033000  0.867770  1.0  -0.6012
  O  O110  1  0.870150  0.060840  0.797130  1.0  -0.6738
  O  O111  1  0.978700  0.811100  0.971470  1.0  -0.608
  O  O112  1  0.842600  0.787890  0.871960  1.0  -0.6389
  O  O113  1  0.700060  0.858710  0.742890  1.0  -0.6505
  O  O114  1  0.691200  0.015000  0.653600  1.0  -0.5977
  O  O115  1  0.812520  0.028200  0.982580  1.0  -0.6461
  O  O116  1  0.654800  0.083200  0.046020  1.0  -0.6077
  O  O117  1  0.596520  0.870530  0.922100  1.0  -0.6579
  O  O118  1  0.603700  0.681000  0.871970  1.0  -0.5891
  O  O119  1  0.650170  0.124800  0.821490  1.0  -0.6622
  O  O120  1  0.495700  0.127700  0.898490  1.0  -0.606
  O  O121  1  0.466200  0.533000  0.632230  1.0  -0.6009
  O  O122  1  0.629850  0.560840  0.702870  1.0  -0.6722
  O  O123  1  0.521300  0.311100  0.528530  1.0  -0.6078
  O  O124  1  0.657400  0.287890  0.628040  1.0  -0.6406
  O  O125  1  0.799940  0.358710  0.757110  1.0  -0.65
  O  O126  1  0.808800  0.515000  0.846400  1.0  -0.5972
  O  O127  1  0.687480  0.528200  0.517420  1.0  -0.6472
  O  O128  1  0.845200  0.583200  0.453980  1.0  -0.6079
  O  O129  1  0.903480  0.370530  0.577900  1.0  -0.6576
  O  O130  1  0.896300  0.181000  0.628030  1.0  -0.589
  O  O131  1  0.849830  0.624800  0.678510  1.0  -0.6619
  O  O132  1  0.004300  0.627700  0.601510  1.0  -0.6043
