# generated using pymatgen
data_SrH3(CO)5
_symmetry_space_group_name_H-M   'P 1'
_cell_length_a   8.09870000
_cell_length_b   9.77280000
_cell_length_c   11.18060000
_cell_angle_alpha   97.12690000
_cell_angle_beta   90.00000000
_cell_angle_gamma   114.47800000
_symmetry_Int_Tables_number   1
_chemical_formula_structural   SrH3(CO)5
_chemical_formula_sum   'Sr4 H12 C20 O20'
_cell_volume   797.85702380
_cell_formula_units_Z   4
loop_
 _symmetry_equiv_pos_site_id
 _symmetry_equiv_pos_as_xyz
  1  'x, y, z'
loop_
 _atom_site_type_symbol
 _atom_site_label
 _atom_site_symmetry_multiplicity
 _atom_site_fract_x
 _atom_site_fract_y
 _atom_site_fract_z
 _atom_site_occupancy
 _atom_site_charge
  Sr  Sr1  1  0.892560  0.517160  0.686090  1.0  1.6111
  Sr  Sr2  1  0.375400  0.482840  0.813910  1.0  1.6105
  Sr  Sr3  1  0.107440  0.482840  0.313910  1.0  1.6109
  Sr  Sr4  1  0.624600  0.517160  0.186090  1.0  1.6111
  H  H5  1  0.995200  0.253600  0.660900  1.0  0.4791
  H  H6  1  0.096200  0.350000  0.588500  1.0  0.4542
  H  H7  1  0.360500  0.052200  0.844500  1.0  0.0985
  H  H8  1  0.741600  0.746400  0.839100  1.0  0.4801
  H  H9  1  0.746200  0.650000  0.911500  1.0  0.4542
  H  H10  1  0.308300  0.947800  0.655500  1.0  0.0979
  H  H11  1  0.004800  0.746400  0.339100  1.0  0.4809
  H  H12  1  0.903800  0.650000  0.411500  1.0  0.4544
  H  H13  1  0.639500  0.947800  0.155500  1.0  0.098
  H  H14  1  0.258400  0.253600  0.160900  1.0  0.4803
  H  H15  1  0.253800  0.350000  0.088500  1.0  0.4551
  H  H16  1  0.691700  0.052200  0.344500  1.0  0.0983
  C  C17  1  0.195300  0.760800  0.855600  1.0  0.7024
  C  C18  1  0.349300  0.884000  0.934600  1.0  -0.1239
  C  C19  1  0.431810  0.851820  0.030600  1.0  -0.0952
  C  C20  1  0.417680  0.030960  0.907200  1.0  -0.0616
  C  C21  1  0.361580  0.697560  0.075200  1.0  0.7634
  C  C22  1  0.434500  0.239200  0.644400  1.0  0.7021
  C  C23  1  0.465300  0.116000  0.565400  1.0  -0.1234
  C  C24  1  0.579990  0.148180  0.469400  1.0  -0.0953
  C  C25  1  0.386720  0.969040  0.592800  1.0  -0.0609
  C  C26  1  0.664020  0.302440  0.424800  1.0  0.7632
  C  C27  1  0.804700  0.239200  0.144400  1.0  0.7027
  C  C28  1  0.650700  0.116000  0.065400  1.0  -0.1247
  C  C29  1  0.568190  0.148180  0.969400  1.0  -0.0951
  C  C30  1  0.582320  0.969040  0.092800  1.0  -0.0607
  C  C31  1  0.638420  0.302440  0.924800  1.0  0.7633
  C  C32  1  0.565500  0.760800  0.355600  1.0  0.7024
  C  C33  1  0.534700  0.884000  0.434600  1.0  -0.1244
  C  C34  1  0.420010  0.851820  0.530600  1.0  -0.0954
  C  C35  1  0.613280  0.030960  0.407200  1.0  -0.0614
  C  C36  1  0.335980  0.697560  0.575200  1.0  0.7636
  O  O37  1  0.169920  0.624640  0.857200  1.0  -0.758
  O  O38  1  0.101480  0.798760  0.788700  1.0  -0.6615
  O  O39  1  0.444190  0.615580  0.044900  1.0  -0.811
  O  O40  1  0.233260  0.666520  0.144400  1.0  -0.6818
  O  O41  1  0.067470  0.346340  0.661400  1.0  -0.9162
  O  O42  1  0.545280  0.375360  0.642800  1.0  -0.7593
  O  O43  1  0.302720  0.201240  0.711300  1.0  -0.6614
  O  O44  1  0.828610  0.384420  0.455100  1.0  -0.8096
  O  O45  1  0.566740  0.333480  0.355600  1.0  -0.6829
  O  O46  1  0.721130  0.653660  0.838600  1.0  -0.9162
  O  O47  1  0.830080  0.375360  0.142800  1.0  -0.7589
  O  O48  1  0.898520  0.201240  0.211300  1.0  -0.6619
  O  O49  1  0.555810  0.384420  0.955100  1.0  -0.809
  O  O50  1  0.766740  0.333480  0.855600  1.0  -0.6821
  O  O51  1  0.932530  0.653660  0.338600  1.0  -0.9167
  O  O52  1  0.454720  0.624640  0.357200  1.0  -0.7576
  O  O53  1  0.697280  0.798760  0.288700  1.0  -0.662
  O  O54  1  0.171390  0.615580  0.544900  1.0  -0.8107
  O  O55  1  0.433260  0.666520  0.644400  1.0  -0.682
  O  O56  1  0.278870  0.346340  0.161400  1.0  -0.9168
