# generated using pymatgen
data_CuH6(C7O2)2
_symmetry_space_group_name_H-M   'P 1'
_cell_length_a   18.79670000
_cell_length_b   18.79670000
_cell_length_c   49.39400000
_cell_angle_alpha   90.00000000
_cell_angle_beta   90.00000000
_cell_angle_gamma   120.00000000
_symmetry_Int_Tables_number   1
_chemical_formula_structural   CuH6(C7O2)2
_chemical_formula_sum   'Cu18 H108 C252 O72'
_cell_volume   15113.60435917
_cell_formula_units_Z   18
loop_
 _symmetry_equiv_pos_site_id
 _symmetry_equiv_pos_as_xyz
  1  'x, y, z'
loop_
 _atom_site_type_symbol
 _atom_site_label
 _atom_site_symmetry_multiplicity
 _atom_site_fract_x
 _atom_site_fract_y
 _atom_site_fract_z
 _atom_site_occupancy
 _atom_site_charge
  Cu  Cu1  1  0.287370  0.143680  0.144330  1.0  0.8958
  Cu  Cu2  1  0.954040  0.477020  0.477660  1.0  0.8962
  Cu  Cu3  1  0.620700  0.810350  0.810990  1.0  0.886
  Cu  Cu4  1  0.856320  0.143680  0.144330  1.0  0.8945
  Cu  Cu5  1  0.522980  0.477020  0.477660  1.0  0.8806
  Cu  Cu6  1  0.189650  0.810350  0.810990  1.0  0.8926
  Cu  Cu7  1  0.856310  0.712630  0.144330  1.0  0.8858
  Cu  Cu8  1  0.522980  0.045960  0.477660  1.0  0.8959
  Cu  Cu9  1  0.189650  0.379300  0.810990  1.0  0.8858
  Cu  Cu10  1  0.143680  0.287370  0.855670  1.0  0.8964
  Cu  Cu11  1  0.810350  0.620700  0.189010  1.0  0.8857
  Cu  Cu12  1  0.477020  0.954040  0.522340  1.0  0.8958
  Cu  Cu13  1  0.143680  0.856320  0.855670  1.0  0.8951
  Cu  Cu14  1  0.810350  0.189650  0.189010  1.0  0.8937
  Cu  Cu15  1  0.477020  0.522980  0.522340  1.0  0.8804
  Cu  Cu16  1  0.712630  0.856310  0.855670  1.0  0.8864
  Cu  Cu17  1  0.379300  0.189650  0.189010  1.0  0.8865
  Cu  Cu18  1  0.045960  0.522980  0.522340  1.0  0.8963
  H  H19  1  0.238700  0.262600  0.236200  1.0  0.1072
  H  H20  1  0.045900  0.290300  0.276800  1.0  0.1074
  H  H21  1  0.905370  0.595930  0.569530  1.0  0.1072
  H  H22  1  0.712570  0.623630  0.610130  1.0  0.1089
  H  H23  1  0.572030  0.929270  0.902870  1.0  0.1072
  H  H24  1  0.379230  0.956970  0.943470  1.0  0.1074
  H  H25  1  0.737400  0.976100  0.236200  1.0  0.1064
  H  H26  1  0.709700  0.755600  0.276800  1.0  0.1085
  H  H27  1  0.404070  0.309430  0.569530  1.0  0.1064
  H  H28  1  0.376370  0.088930  0.610130  1.0  0.1085
  H  H29  1  0.070730  0.642770  0.902870  1.0  0.1064
  H  H30  1  0.043030  0.422270  0.943470  1.0  0.1085
  H  H31  1  0.023900  0.761300  0.236200  1.0  0.1073
  H  H32  1  0.244400  0.954100  0.276800  1.0  0.1087
  H  H33  1  0.690570  0.094630  0.569530  1.0  0.1073
  H  H34  1  0.911070  0.287430  0.610130  1.0  0.1068
  H  H35  1  0.357230  0.427970  0.902870  1.0  0.1073
  H  H36  1  0.577730  0.620770  0.943470  1.0  0.1086
  H  H37  1  0.262600  0.238700  0.763800  1.0  0.1069
  H  H38  1  0.290300  0.045900  0.723200  1.0  0.1077
  H  H39  1  0.929270  0.572030  0.097130  1.0  0.1069
  H  H40  1  0.956970  0.379230  0.056530  1.0  0.1077
  H  H41  1  0.595930  0.905370  0.430470  1.0  0.1069
  H  H42  1  0.623630  0.712570  0.389870  1.0  0.1089
  H  H43  1  0.976100  0.737400  0.763800  1.0  0.1066
  H  H44  1  0.755600  0.709700  0.723200  1.0  0.1096
  H  H45  1  0.642770  0.070730  0.097130  1.0  0.1066
  H  H46  1  0.422270  0.043030  0.056530  1.0  0.1096
  H  H47  1  0.309430  0.404070  0.430470  1.0  0.1066
  H  H48  1  0.088930  0.376370  0.389870  1.0  0.109
  H  H49  1  0.761300  0.023900  0.763800  1.0  0.1059
  H  H50  1  0.954100  0.244400  0.723200  1.0  0.1084
  H  H51  1  0.427970  0.357230  0.097130  1.0  0.1059
  H  H52  1  0.620770  0.577730  0.056530  1.0  0.1083
  H  H53  1  0.094630  0.690570  0.430470  1.0  0.1059
  H  H54  1  0.287430  0.911070  0.389870  1.0  0.1068
  H  H55  1  0.761300  0.737400  0.763800  1.0  0.1067
  H  H56  1  0.954100  0.709700  0.723200  1.0  0.1083
  H  H57  1  0.427970  0.070730  0.097130  1.0  0.1067
  H  H58  1  0.620770  0.043030  0.056530  1.0  0.1083
  H  H59  1  0.094630  0.404070  0.430470  1.0  0.1067
  H  H60  1  0.287430  0.376370  0.389870  1.0  0.1094
  H  H61  1  0.262600  0.023900  0.763800  1.0  0.1065
  H  H62  1  0.290300  0.244400  0.723200  1.0  0.1076
  H  H63  1  0.929270  0.357230  0.097130  1.0  0.1065
  H  H64  1  0.956970  0.577730  0.056530  1.0  0.1076
  H  H65  1  0.595930  0.690570  0.430470  1.0  0.1065
  H  H66  1  0.623630  0.911070  0.389870  1.0  0.1076
  H  H67  1  0.976100  0.238700  0.763800  1.0  0.1067
  H  H68  1  0.755600  0.045900  0.723200  1.0  0.1088
  H  H69  1  0.642770  0.572030  0.097130  1.0  0.1067
  H  H70  1  0.422270  0.379230  0.056530  1.0  0.1087
  H  H71  1  0.309430  0.905370  0.430470  1.0  0.1067
  H  H72  1  0.088930  0.712570  0.389870  1.0  0.1073
  H  H73  1  0.737400  0.761300  0.236200  1.0  0.1075
  H  H74  1  0.709700  0.954100  0.276800  1.0  0.1066
  H  H75  1  0.404070  0.094630  0.569530  1.0  0.1075
  H  H76  1  0.376370  0.287430  0.610130  1.0  0.1078
  H  H77  1  0.070730  0.427970  0.902870  1.0  0.1074
  H  H78  1  0.043030  0.620770  0.943470  1.0  0.1066
  H  H79  1  0.023900  0.262600  0.236200  1.0  0.1071
  H  H80  1  0.244400  0.290300  0.276800  1.0  0.1089
  H  H81  1  0.690570  0.595930  0.569530  1.0  0.1071
  H  H82  1  0.911070  0.623630  0.610130  1.0  0.1093
  H  H83  1  0.357230  0.929270  0.902870  1.0  0.1071
  H  H84  1  0.577730  0.956970  0.943470  1.0  0.1089
  H  H85  1  0.238700  0.976100  0.236200  1.0  0.1063
  H  H86  1  0.045900  0.755600  0.276800  1.0  0.1087
  H  H87  1  0.905370  0.309430  0.569530  1.0  0.1063
  H  H88  1  0.712570  0.088930  0.610130  1.0  0.1071
  H  H89  1  0.572030  0.642770  0.902870  1.0  0.1063
  H  H90  1  0.379230  0.422270  0.943470  1.0  0.1086
  H  H91  1  0.104050  0.208100  0.169000  1.0  0.0959
  H  H92  1  0.770720  0.541430  0.502330  1.0  0.0959
  H  H93  1  0.437380  0.874770  0.835670  1.0  0.0959
  H  H94  1  0.791900  0.895950  0.169000  1.0  0.0958
  H  H95  1  0.458570  0.229280  0.502330  1.0  0.0958
  H  H96  1  0.125230  0.562620  0.835670  1.0  0.0958
  H  H97  1  0.104050  0.895950  0.169000  1.0  0.0975
  H  H98  1  0.770720  0.229280  0.502330  1.0  0.0963
  H  H99  1  0.437380  0.562620  0.835670  1.0  0.0974
  H  H100  1  0.208100  0.104050  0.831000  1.0  0.0957
  H  H101  1  0.874770  0.437380  0.164330  1.0  0.0957
  H  H102  1  0.541430  0.770720  0.497670  1.0  0.0957
  H  H103  1  0.895950  0.791900  0.831000  1.0  0.0952
  H  H104  1  0.562620  0.125230  0.164330  1.0  0.0952
  H  H105  1  0.229280  0.458570  0.497670  1.0  0.0952
  H  H106  1  0.895950  0.104050  0.831000  1.0  0.0979
  H  H107  1  0.562620  0.437380  0.164330  1.0  0.0976
  H  H108  1  0.229280  0.770720  0.497670  1.0  0.0964
  H  H109  1  0.043820  0.333333  0.333333  1.0  0.1148
  H  H110  1  0.666667  0.710480  0.333333  1.0  0.1152
  H  H111  1  0.289520  0.956180  0.333333  1.0  0.115
  H  H112  1  0.333333  0.043820  0.666667  1.0  0.1154
  H  H113  1  0.000000  0.377150  0.000000  1.0  0.1157
  H  H114  1  0.710480  0.666667  0.666667  1.0  0.1154
  H  H115  1  0.377150  0.000000  0.000000  1.0  0.1155
  H  H116  1  0.956180  0.289520  0.666667  1.0  0.1151
  H  H117  1  0.622850  0.622850  0.000000  1.0  0.1157
  H  H118  1  0.956180  0.666667  0.666667  1.0  0.1145
  H  H119  1  0.622850  0.000000  0.000000  1.0  0.1127
  H  H120  1  0.289520  0.333333  0.333333  1.0  0.1142
  H  H121  1  0.333333  0.289520  0.666667  1.0  0.1155
  H  H122  1  0.000000  0.622850  0.000000  1.0  0.1159
  H  H123  1  0.710480  0.043820  0.666667  1.0  0.115
  H  H124  1  0.377150  0.377150  0.000000  1.0  0.1156
  H  H125  1  0.666667  0.956180  0.333333  1.0  0.1155
  H  H126  1  0.043820  0.710480  0.333333  1.0  0.115
  C  C127  1  0.239800  0.213300  0.186580  1.0  0.6875
  C  C128  1  0.180400  0.231400  0.199930  1.0  -0.1917
  C  C129  1  0.192500  0.255500  0.226940  1.0  -0.1119
  C  C130  1  0.096400  0.299800  0.283320  1.0  -0.117
  C  C131  1  0.125000  0.321900  0.309870  1.0  0.075
  C  C132  1  0.906470  0.546630  0.519910  1.0  0.6874
  C  C133  1  0.847070  0.564730  0.533260  1.0  -0.1917
  C  C134  1  0.859170  0.588830  0.560270  1.0  -0.1119
  C  C135  1  0.763070  0.633130  0.616650  1.0  -0.117
  C  C136  1  0.791670  0.655230  0.643200  1.0  0.0723
  C  C137  1  0.573130  0.879970  0.853250  1.0  0.6875
  C  C138  1  0.513730  0.898070  0.866600  1.0  -0.1917
  C  C139  1  0.525830  0.922170  0.893610  1.0  -0.1119
  C  C140  1  0.429730  0.966470  0.949990  1.0  -0.117
  C  C141  1  0.458330  0.988570  0.976540  1.0  0.0805
  C  C142  1  0.786700  0.026500  0.186580  1.0  0.6883
  C  C143  1  0.768600  0.949000  0.199930  1.0  -0.1927
  C  C144  1  0.744500  0.937000  0.226940  1.0  -0.1144
  C  C145  1  0.700200  0.796600  0.283320  1.0  -0.1205
  C  C146  1  0.678100  0.803100  0.309870  1.0  0.0766
  C  C147  1  0.453370  0.359830  0.519910  1.0  0.6883
  C  C148  1  0.435270  0.282330  0.533260  1.0  -0.1927
  C  C149  1  0.411170  0.270330  0.560270  1.0  -0.1144
  C  C150  1  0.366870  0.129930  0.616650  1.0  -0.1205
  C  C151  1  0.344770  0.136430  0.643200  1.0  0.0768
  C  C152  1  0.120030  0.693170  0.853250  1.0  0.6883
  C  C153  1  0.101930  0.615670  0.866600  1.0  -0.1927
  C  C154  1  0.077830  0.603670  0.893610  1.0  -0.1144
  C  C155  1  0.033530  0.463270  0.949990  1.0  -0.1205
  C  C156  1  0.011430  0.469770  0.976540  1.0  0.0696
  C  C157  1  0.973500  0.760200  0.186580  1.0  0.6881
  C  C158  1  0.051000  0.819600  0.199930  1.0  -0.1939
  C  C159  1  0.063000  0.807500  0.226940  1.0  -0.1125
  C  C160  1  0.203400  0.903600  0.283320  1.0  -0.1209
  C  C161  1  0.196900  0.875000  0.309870  1.0  0.0715
  C  C162  1  0.640170  0.093530  0.519910  1.0  0.688
  C  C163  1  0.717670  0.152930  0.533260  1.0  -0.1939
  C  C164  1  0.729670  0.140830  0.560270  1.0  -0.1125
  C  C165  1  0.870070  0.236930  0.616650  1.0  -0.1212
  C  C166  1  0.863570  0.208330  0.643200  1.0  0.0775
  C  C167  1  0.306830  0.426870  0.853250  1.0  0.6881
  C  C168  1  0.384330  0.486270  0.866600  1.0  -0.1939
  C  C169  1  0.396330  0.474170  0.893610  1.0  -0.1125
  C  C170  1  0.536730  0.570270  0.949990  1.0  -0.1209
  C  C171  1  0.530230  0.541670  0.976540  1.0  0.0735
  C  C172  1  0.213300  0.239800  0.813420  1.0  0.6885
  C  C173  1  0.231400  0.180400  0.800070  1.0  -0.1944
  C  C174  1  0.255500  0.192500  0.773060  1.0  -0.1133
  C  C175  1  0.299800  0.096400  0.716680  1.0  -0.1214
  C  C176  1  0.321900  0.125000  0.690130  1.0  0.074
  C  C177  1  0.879970  0.573130  0.146750  1.0  0.6885
  C  C178  1  0.898070  0.513730  0.133400  1.0  -0.1944
  C  C179  1  0.922170  0.525830  0.106390  1.0  -0.1133
  C  C180  1  0.966470  0.429730  0.050010  1.0  -0.1214
  C  C181  1  0.988570  0.458330  0.023460  1.0  0.0788
  C  C182  1  0.546630  0.906470  0.480090  1.0  0.6884
  C  C183  1  0.564730  0.847070  0.466740  1.0  -0.1944
  C  C184  1  0.588830  0.859170  0.439730  1.0  -0.1133
  C  C185  1  0.633130  0.763070  0.383350  1.0  -0.1214
  C  C186  1  0.655230  0.791670  0.356800  1.0  0.0713
  C  C187  1  0.026500  0.786700  0.813420  1.0  0.687
  C  C188  1  0.949000  0.768600  0.800070  1.0  -0.194
  C  C189  1  0.937000  0.744500  0.773060  1.0  -0.1108
  C  C190  1  0.796600  0.700200  0.716680  1.0  -0.1186
  C  C191  1  0.803100  0.678100  0.690130  1.0  0.0774
  C  C192  1  0.693170  0.120030  0.146750  1.0  0.687
  C  C193  1  0.615670  0.101930  0.133400  1.0  -0.194
  C  C194  1  0.603670  0.077830  0.106390  1.0  -0.1108
  C  C195  1  0.463270  0.033530  0.050010  1.0  -0.1186
  C  C196  1  0.469770  0.011430  0.023460  1.0  0.0708
  C  C197  1  0.359830  0.453370  0.480090  1.0  0.6871
  C  C198  1  0.282330  0.435270  0.466740  1.0  -0.194
  C  C199  1  0.270330  0.411170  0.439730  1.0  -0.1108
  C  C200  1  0.129930  0.366870  0.383350  1.0  -0.1186
  C  C201  1  0.136430  0.344770  0.356800  1.0  0.0774
  C  C202  1  0.760200  0.973500  0.813420  1.0  0.688
  C  C203  1  0.819600  0.051000  0.800070  1.0  -0.1954
  C  C204  1  0.807500  0.063000  0.773060  1.0  -0.1123
  C  C205  1  0.903600  0.203400  0.716680  1.0  -0.1217
  C  C206  1  0.875000  0.196900  0.690130  1.0  0.0713
  C  C207  1  0.426870  0.306830  0.146750  1.0  0.688
  C  C208  1  0.486270  0.384330  0.133400  1.0  -0.1954
  C  C209  1  0.474170  0.396330  0.106390  1.0  -0.1123
  C  C210  1  0.570270  0.536730  0.050010  1.0  -0.1217
  C  C211  1  0.541670  0.530230  0.023460  1.0  0.0731
  C  C212  1  0.093530  0.640170  0.480090  1.0  0.6879
  C  C213  1  0.152930  0.717670  0.466740  1.0  -0.1954
  C  C214  1  0.140830  0.729670  0.439730  1.0  -0.1123
  C  C215  1  0.236930  0.870070  0.383350  1.0  -0.122
  C  C216  1  0.208330  0.863570  0.356800  1.0  0.077
  C  C217  1  0.760200  0.786700  0.813420  1.0  0.6872
  C  C218  1  0.819600  0.768600  0.800070  1.0  -0.1936
  C  C219  1  0.807500  0.744500  0.773060  1.0  -0.1136
  C  C220  1  0.903600  0.700200  0.716680  1.0  -0.1189
  C  C221  1  0.875000  0.678100  0.690130  1.0  0.0735
  C  C222  1  0.426870  0.120030  0.146750  1.0  0.6872
  C  C223  1  0.486270  0.101930  0.133400  1.0  -0.1936
  C  C224  1  0.474170  0.077830  0.106390  1.0  -0.1136
  C  C225  1  0.570270  0.033530  0.050010  1.0  -0.1189
  C  C226  1  0.541670  0.011430  0.023460  1.0  0.0795
  C  C227  1  0.093530  0.453370  0.480090  1.0  0.6871
  C  C228  1  0.152930  0.435270  0.466740  1.0  -0.1936
  C  C229  1  0.140830  0.411170  0.439730  1.0  -0.1136
  C  C230  1  0.236930  0.366870  0.383350  1.0  -0.1189
  C  C231  1  0.208330  0.344770  0.356800  1.0  0.0706
  C  C232  1  0.213300  0.973500  0.813420  1.0  0.6884
  C  C233  1  0.231400  0.051000  0.800070  1.0  -0.1956
  C  C234  1  0.255500  0.063000  0.773060  1.0  -0.1121
  C  C235  1  0.299800  0.203400  0.716680  1.0  -0.1242
  C  C236  1  0.321900  0.196900  0.690130  1.0  0.0787
  C  C237  1  0.879970  0.306830  0.146750  1.0  0.6884
  C  C238  1  0.898070  0.384330  0.133400  1.0  -0.1956
  C  C239  1  0.922170  0.396330  0.106390  1.0  -0.1121
  C  C240  1  0.966470  0.536730  0.050010  1.0  -0.1242
  C  C241  1  0.988570  0.530230  0.023460  1.0  0.0721
  C  C242  1  0.546630  0.640170  0.480090  1.0  0.6884
  C  C243  1  0.564730  0.717670  0.466740  1.0  -0.1956
  C  C244  1  0.588830  0.729670  0.439730  1.0  -0.1121
  C  C245  1  0.633130  0.870070  0.383350  1.0  -0.1242
  C  C246  1  0.655230  0.863570  0.356800  1.0  0.0784
  C  C247  1  0.026500  0.239800  0.813420  1.0  0.6883
  C  C248  1  0.949000  0.180400  0.800070  1.0  -0.1943
  C  C249  1  0.937000  0.192500  0.773060  1.0  -0.1127
  C  C250  1  0.796600  0.096400  0.716680  1.0  -0.1223
  C  C251  1  0.803100  0.125000  0.690130  1.0  0.0708
  C  C252  1  0.693170  0.573130  0.146750  1.0  0.6883
  C  C253  1  0.615670  0.513730  0.133400  1.0  -0.1943
  C  C254  1  0.603670  0.525830  0.106390  1.0  -0.1127
  C  C255  1  0.463270  0.429730  0.050010  1.0  -0.1223
  C  C256  1  0.469770  0.458330  0.023460  1.0  0.071
  C  C257  1  0.359830  0.906470  0.480090  1.0  0.6882
  C  C258  1  0.282330  0.847070  0.466740  1.0  -0.1943
  C  C259  1  0.270330  0.859170  0.439730  1.0  -0.1127
  C  C260  1  0.129930  0.763070  0.383350  1.0  -0.1226
  C  C261  1  0.136430  0.791670  0.356800  1.0  0.0756
  C  C262  1  0.786700  0.760200  0.186580  1.0  0.688
  C  C263  1  0.768600  0.819600  0.199930  1.0  -0.1935
  C  C264  1  0.744500  0.807500  0.226940  1.0  -0.1118
  C  C265  1  0.700200  0.903600  0.283320  1.0  -0.1229
  C  C266  1  0.678100  0.875000  0.309870  1.0  0.0759
  C  C267  1  0.453370  0.093530  0.519910  1.0  0.6879
  C  C268  1  0.435270  0.152930  0.533260  1.0  -0.1935
  C  C269  1  0.411170  0.140830  0.560270  1.0  -0.1118
  C  C270  1  0.366870  0.236930  0.616650  1.0  -0.1229
  C  C271  1  0.344770  0.208330  0.643200  1.0  0.0737
  C  C272  1  0.120030  0.426870  0.853250  1.0  0.688
  C  C273  1  0.101930  0.486270  0.866600  1.0  -0.1935
  C  C274  1  0.077830  0.474170  0.893610  1.0  -0.1118
  C  C275  1  0.033530  0.570270  0.949990  1.0  -0.1229
  C  C276  1  0.011430  0.541670  0.976540  1.0  0.0815
  C  C277  1  0.973500  0.213300  0.186580  1.0  0.6875
  C  C278  1  0.051000  0.231400  0.199930  1.0  -0.1915
  C  C279  1  0.063000  0.255500  0.226940  1.0  -0.1153
  C  C280  1  0.203400  0.299800  0.283320  1.0  -0.1171
  C  C281  1  0.196900  0.321900  0.309870  1.0  0.0785
  C  C282  1  0.640170  0.546630  0.519910  1.0  0.6876
  C  C283  1  0.717670  0.564730  0.533260  1.0  -0.1915
  C  C284  1  0.729670  0.588830  0.560270  1.0  -0.1153
  C  C285  1  0.870070  0.633130  0.616650  1.0  -0.1171
  C  C286  1  0.863570  0.655230  0.643200  1.0  0.08
  C  C287  1  0.306830  0.879970  0.853250  1.0  0.6875
  C  C288  1  0.384330  0.898070  0.866600  1.0  -0.1915
  C  C289  1  0.396330  0.922170  0.893610  1.0  -0.1153
  C  C290  1  0.536730  0.966470  0.949990  1.0  -0.1171
  C  C291  1  0.530230  0.988570  0.976540  1.0  0.0709
  C  C292  1  0.239800  0.026500  0.186580  1.0  0.6884
  C  C293  1  0.180400  0.949000  0.199930  1.0  -0.1929
  C  C294  1  0.192500  0.937000  0.226940  1.0  -0.1133
  C  C295  1  0.096400  0.796600  0.283320  1.0  -0.1224
  C  C296  1  0.125000  0.803100  0.309870  1.0  0.0691
  C  C297  1  0.906470  0.359830  0.519910  1.0  0.6883
  C  C298  1  0.847070  0.282330  0.533260  1.0  -0.1929
  C  C299  1  0.859170  0.270330  0.560270  1.0  -0.1133
  C  C300  1  0.763070  0.129930  0.616650  1.0  -0.1227
  C  C301  1  0.791670  0.136430  0.643200  1.0  0.0743
  C  C302  1  0.573130  0.693170  0.853250  1.0  0.6884
  C  C303  1  0.513730  0.615670  0.866600  1.0  -0.1929
  C  C304  1  0.525830  0.603670  0.893610  1.0  -0.1133
  C  C305  1  0.429730  0.463270  0.949990  1.0  -0.1224
  C  C306  1  0.458330  0.469770  0.976540  1.0  0.0704
  C  C307  1  0.110950  0.221900  0.187300  1.0  -0.0239
  C  C308  1  0.134350  0.268700  0.239800  1.0  0.0221
  C  C309  1  0.147700  0.295400  0.270500  1.0  0.1344
  C  C310  1  0.777620  0.555230  0.520630  1.0  -0.0238
  C  C311  1  0.801020  0.602030  0.573130  1.0  0.0226
  C  C312  1  0.814370  0.628730  0.603830  1.0  0.1344
  C  C313  1  0.444280  0.888570  0.853970  1.0  -0.0239
  C  C314  1  0.467680  0.935370  0.906470  1.0  0.0221
  C  C315  1  0.481030  0.962070  0.937170  1.0  0.1344
  C  C316  1  0.778100  0.889050  0.187300  1.0  -0.024
  C  C317  1  0.731300  0.865650  0.239800  1.0  0.0196
  C  C318  1  0.704600  0.852300  0.270500  1.0  0.1335
  C  C319  1  0.444770  0.222380  0.520630  1.0  -0.024
  C  C320  1  0.397970  0.198980  0.573130  1.0  0.0199
  C  C321  1  0.371270  0.185630  0.603830  1.0  0.1335
  C  C322  1  0.111430  0.555720  0.853970  1.0  -0.024
  C  C323  1  0.064630  0.532320  0.906470  1.0  0.0196
  C  C324  1  0.037930  0.518970  0.937170  1.0  0.1335
  C  C325  1  0.110950  0.889050  0.187300  1.0  -0.0242
  C  C326  1  0.134350  0.865650  0.239800  1.0  0.0197
  C  C327  1  0.147700  0.852300  0.270500  1.0  0.1335
  C  C328  1  0.777620  0.222380  0.520630  1.0  -0.0242
  C  C329  1  0.801020  0.198980  0.573130  1.0  0.0212
  C  C330  1  0.814370  0.185630  0.603830  1.0  0.1335
  C  C331  1  0.444280  0.555720  0.853970  1.0  -0.0242
  C  C332  1  0.467680  0.532320  0.906470  1.0  0.0197
  C  C333  1  0.481030  0.518970  0.937170  1.0  0.1335
  C  C334  1  0.221900  0.110950  0.812700  1.0  -0.0242
  C  C335  1  0.268700  0.134350  0.760200  1.0  0.0192
  C  C336  1  0.295400  0.147700  0.729500  1.0  0.1343
  C  C337  1  0.888570  0.444280  0.146030  1.0  -0.0242
  C  C338  1  0.935370  0.467680  0.093530  1.0  0.0192
  C  C339  1  0.962070  0.481030  0.062830  1.0  0.1343
  C  C340  1  0.555230  0.777620  0.479370  1.0  -0.0242
  C  C341  1  0.602030  0.801020  0.426870  1.0  0.0196
  C  C342  1  0.628730  0.814370  0.396170  1.0  0.1343
  C  C343  1  0.889050  0.778100  0.812700  1.0  -0.024
  C  C344  1  0.865650  0.731300  0.760200  1.0  0.0216
  C  C345  1  0.852300  0.704600  0.729500  1.0  0.1345
  C  C346  1  0.555720  0.111430  0.146030  1.0  -0.024
  C  C347  1  0.532320  0.064630  0.093530  1.0  0.0216
  C  C348  1  0.518970  0.037930  0.062830  1.0  0.1345
  C  C349  1  0.222380  0.444770  0.479370  1.0  -0.024
  C  C350  1  0.198980  0.397970  0.426870  1.0  0.0224
  C  C351  1  0.185630  0.371270  0.396170  1.0  0.1345
  C  C352  1  0.889050  0.110950  0.812700  1.0  -0.0231
  C  C353  1  0.865650  0.134350  0.760200  1.0  0.0191
  C  C354  1  0.852300  0.147700  0.729500  1.0  0.134
  C  C355  1  0.555720  0.444280  0.146030  1.0  -0.0231
  C  C356  1  0.532320  0.467680  0.093530  1.0  0.0191
  C  C357  1  0.518970  0.481030  0.062830  1.0  0.134
  C  C358  1  0.222380  0.777620  0.479370  1.0  -0.0231
  C  C359  1  0.198980  0.801020  0.426870  1.0  0.0207
  C  C360  1  0.185630  0.814370  0.396170  1.0  0.134
  C  C361  1  0.093220  0.333333  0.333333  1.0  -0.0238
  C  C362  1  0.666667  0.759880  0.333333  1.0  -0.024
  C  C363  1  0.240120  0.906780  0.333333  1.0  -0.0136
  C  C364  1  0.333333  0.093220  0.666667  1.0  -0.0242
  C  C365  1  0.000000  0.426550  0.000000  1.0  -0.0248
  C  C366  1  0.759880  0.666667  0.666667  1.0  -0.0226
  C  C367  1  0.426550  0.000000  0.000000  1.0  -0.0244
  C  C368  1  0.906780  0.240120  0.666667  1.0  -0.0136
  C  C369  1  0.573450  0.573450  0.000000  1.0  -0.0276
  C  C370  1  0.906780  0.666667  0.666667  1.0  -0.0226
  C  C371  1  0.573450  0.000000  0.000000  1.0  -0.0233
  C  C372  1  0.240120  0.333333  0.333333  1.0  -0.0219
  C  C373  1  0.333333  0.240120  0.666667  1.0  -0.0233
  C  C374  1  0.000000  0.573450  0.000000  1.0  -0.0243
  C  C375  1  0.759880  0.093220  0.666667  1.0  -0.0134
  C  C376  1  0.426550  0.426550  0.000000  1.0  -0.0273
  C  C377  1  0.666667  0.906780  0.333333  1.0  -0.0237
  C  C378  1  0.093220  0.759880  0.333333  1.0  -0.0133
  O  O379  1  0.298600  0.222000  0.200510  1.0  -0.5813
  O  O380  1  0.223500  0.184500  0.162730  1.0  -0.5744
  O  O381  1  0.965270  0.555330  0.533840  1.0  -0.5813
  O  O382  1  0.890170  0.517830  0.496060  1.0  -0.5745
  O  O383  1  0.631930  0.888670  0.867180  1.0  -0.5813
  O  O384  1  0.556830  0.851170  0.829400  1.0  -0.5741
  O  O385  1  0.778000  0.076600  0.200510  1.0  -0.581
  O  O386  1  0.815500  0.039000  0.162730  1.0  -0.5741
  O  O387  1  0.444670  0.409930  0.533840  1.0  -0.581
  O  O388  1  0.482170  0.372330  0.496060  1.0  -0.5741
  O  O389  1  0.111330  0.743270  0.867180  1.0  -0.581
  O  O390  1  0.148830  0.705670  0.829400  1.0  -0.5738
  O  O391  1  0.923400  0.701400  0.200510  1.0  -0.5824
  O  O392  1  0.961000  0.776500  0.162730  1.0  -0.5745
  O  O393  1  0.590070  0.034730  0.533840  1.0  -0.5824
  O  O394  1  0.627670  0.109830  0.496060  1.0  -0.5745
  O  O395  1  0.256730  0.368070  0.867180  1.0  -0.5824
  O  O396  1  0.294330  0.443170  0.829400  1.0  -0.5744
  O  O397  1  0.222000  0.298600  0.799490  1.0  -0.5824
  O  O398  1  0.184500  0.223500  0.837270  1.0  -0.5742
  O  O399  1  0.888670  0.631930  0.132820  1.0  -0.5824
  O  O400  1  0.851170  0.556830  0.170600  1.0  -0.574
  O  O401  1  0.555330  0.965270  0.466160  1.0  -0.5824
  O  O402  1  0.517830  0.890170  0.503940  1.0  -0.5742
  O  O403  1  0.076600  0.778000  0.799490  1.0  -0.5819
  O  O404  1  0.039000  0.815500  0.837270  1.0  -0.5739
  O  O405  1  0.743270  0.111330  0.132820  1.0  -0.5819
  O  O406  1  0.705670  0.148830  0.170600  1.0  -0.5737
  O  O407  1  0.409930  0.444670  0.466160  1.0  -0.582
  O  O408  1  0.372330  0.482170  0.503940  1.0  -0.5739
  O  O409  1  0.701400  0.923400  0.799490  1.0  -0.5824
  O  O410  1  0.776500  0.961000  0.837270  1.0  -0.5727
  O  O411  1  0.368070  0.256730  0.132820  1.0  -0.5824
  O  O412  1  0.443170  0.294330  0.170600  1.0  -0.5727
  O  O413  1  0.034730  0.590070  0.466160  1.0  -0.5824
  O  O414  1  0.109830  0.627670  0.503940  1.0  -0.5727
  O  O415  1  0.701400  0.778000  0.799490  1.0  -0.5819
  O  O416  1  0.776500  0.815500  0.837270  1.0  -0.5726
  O  O417  1  0.368070  0.111330  0.132820  1.0  -0.5819
  O  O418  1  0.443170  0.148830  0.170600  1.0  -0.5724
  O  O419  1  0.034730  0.444670  0.466160  1.0  -0.5819
  O  O420  1  0.109830  0.482170  0.503940  1.0  -0.5726
  O  O421  1  0.222000  0.923400  0.799490  1.0  -0.582
  O  O422  1  0.184500  0.961000  0.837270  1.0  -0.5732
  O  O423  1  0.888670  0.256730  0.132820  1.0  -0.582
  O  O424  1  0.851170  0.294330  0.170600  1.0  -0.573
  O  O425  1  0.555330  0.590070  0.466160  1.0  -0.582
  O  O426  1  0.517830  0.627670  0.503940  1.0  -0.5732
  O  O427  1  0.076600  0.298600  0.799490  1.0  -0.5824
  O  O428  1  0.039000  0.223500  0.837270  1.0  -0.5744
  O  O429  1  0.743270  0.631930  0.132820  1.0  -0.5824
  O  O430  1  0.705670  0.556830  0.170600  1.0  -0.5745
  O  O431  1  0.409930  0.965270  0.466160  1.0  -0.5824
  O  O432  1  0.372330  0.890170  0.503940  1.0  -0.5745
  O  O433  1  0.778000  0.701400  0.200510  1.0  -0.5821
  O  O434  1  0.815500  0.776500  0.162730  1.0  -0.5751
  O  O435  1  0.444670  0.034730  0.533840  1.0  -0.5821
  O  O436  1  0.482170  0.109830  0.496060  1.0  -0.5751
  O  O437  1  0.111330  0.368070  0.867180  1.0  -0.5821
  O  O438  1  0.148830  0.443170  0.829400  1.0  -0.5748
  O  O439  1  0.923400  0.222000  0.200510  1.0  -0.5808
  O  O440  1  0.961000  0.184500  0.162730  1.0  -0.5748
  O  O441  1  0.590070  0.555330  0.533840  1.0  -0.5809
  O  O442  1  0.627670  0.517830  0.496060  1.0  -0.5748
  O  O443  1  0.256730  0.888670  0.867180  1.0  -0.5808
  O  O444  1  0.294330  0.851170  0.829400  1.0  -0.5744
  O  O445  1  0.298600  0.076600  0.200510  1.0  -0.5817
  O  O446  1  0.223500  0.039000  0.162730  1.0  -0.5738
  O  O447  1  0.965270  0.409930  0.533840  1.0  -0.5817
  O  O448  1  0.890170  0.372330  0.496060  1.0  -0.5739
  O  O449  1  0.631930  0.743270  0.867180  1.0  -0.5817
  O  O450  1  0.556830  0.705670  0.829400  1.0  -0.5738
