# generated using pymatgen
data_Cd3H26C40S6(N4O)4
_symmetry_space_group_name_H-M   'P 1'
_cell_length_a   11.34100000
_cell_length_b   12.23000000
_cell_length_c   15.25100000
_cell_angle_alpha   93.34000000
_cell_angle_beta   107.37100000
_cell_angle_gamma   117.03100000
_symmetry_Int_Tables_number   1
_chemical_formula_structural   Cd3H26C40S6(N4O)4
_chemical_formula_sum   'Cd3 H26 C40 S6 N16 O4'
_cell_volume   1750.88370361
_cell_formula_units_Z   1
loop_
 _symmetry_equiv_pos_site_id
 _symmetry_equiv_pos_as_xyz
  1  'x, y, z'
loop_
 _atom_site_type_symbol
 _atom_site_label
 _atom_site_symmetry_multiplicity
 _atom_site_fract_x
 _atom_site_fract_y
 _atom_site_fract_z
 _atom_site_occupancy
 _atom_site_charge
  Cd  Cd1  1  0.232320  0.297270  0.371930  1.0  0.8176
  Cd  Cd2  1  0.767680  0.702730  0.628070  1.0  0.818
  Cd  Cd3  1  0.000000  0.000000  0.000000  1.0  0.8105
  H  H4  1  0.671100  0.611400  0.124000  1.0  0.3108
  H  H5  1  0.522400  0.298100  0.379800  1.0  0.0872
  H  H6  1  0.743100  0.351400  0.452100  1.0  0.2733
  H  H7  1  0.323500  0.439100  0.213400  1.0  0.0706
  H  H8  1  0.173900  0.242300  0.565200  1.0  0.0922
  H  H9  1  0.969300  0.330400  0.351800  1.0  0.0841
  H  H10  1  0.815400  0.766900  0.071300  1.0  0.0931
  H  H11  1  0.698700  0.504500  0.213900  1.0  0.1091
  H  H12  1  0.038000  0.250700  0.646300  1.0  0.1171
  H  H13  1  0.404900  0.668800  0.986500  1.0  0.1255
  H  H14  1  0.866400  0.306400  0.581100  1.0  0.1194
  H  H15  1  0.669100  0.928500  0.892400  1.0  0.0826
  H  H16  1  0.447900  0.814700  0.896000  1.0  0.1194
  H  H17  1  0.328900  0.388600  0.876000  1.0  0.3106
  H  H18  1  0.477600  0.701900  0.620200  1.0  0.0882
  H  H19  1  0.256900  0.648600  0.547900  1.0  0.2737
  H  H20  1  0.676500  0.560900  0.786600  1.0  0.0712
  H  H21  1  0.826100  0.757700  0.434800  1.0  0.0926
  H  H22  1  0.030700  0.669600  0.648200  1.0  0.0835
  H  H23  1  0.184600  0.233100  0.928700  1.0  0.0925
  H  H24  1  0.301300  0.495500  0.786100  1.0  0.1069
  H  H25  1  0.962000  0.749300  0.353700  1.0  0.1173
  H  H26  1  0.595100  0.331200  0.013500  1.0  0.1261
  H  H27  1  0.133600  0.693600  0.418900  1.0  0.1189
  H  H28  1  0.330900  0.071500  0.107600  1.0  0.0831
  H  H29  1  0.552100  0.185300  0.104000  1.0  0.1209
  C  C30  1  0.518700  0.345500  0.334500  1.0  0.1642
  C  C31  1  0.469800  0.614700  0.447900  1.0  0.3246
  C  C32  1  0.630700  0.398000  0.302400  1.0  -0.18
  C  C33  1  0.020100  0.233300  0.148200  1.0  0.362
  C  C34  1  0.756600  0.378400  0.333100  1.0  0.5475
  C  C35  1  0.606300  0.702100  0.039800  1.0  0.1578
  C  C36  1  0.122000  0.025400  0.236100  1.0  0.3348
  C  C37  1  0.402600  0.428800  0.236500  1.0  0.2178
  C  C38  1  0.103100  0.261900  0.537600  1.0  0.1328
  C  C39  1  0.487400  0.555500  0.128100  1.0  0.5256
  C  C40  1  0.897800  0.322700  0.457600  1.0  0.1809
  C  C41  1  0.982500  0.314200  0.411800  1.0  0.1047
  C  C42  1  0.508600  0.484100  0.201300  1.0  -0.1818
  C  C43  1  0.739900  0.776600  0.035700  1.0  0.0726
  C  C44  1  0.624300  0.468000  0.235700  1.0  -0.0007
  C  C45  1  0.023300  0.268100  0.586700  1.0  -0.1436
  C  C46  1  0.495800  0.717100  0.985900  1.0  -0.1052
  C  C47  1  0.920200  0.300100  0.547600  1.0  -0.1188
  C  C48  1  0.654200  0.871500  0.931200  1.0  0.1445
  C  C49  1  0.521200  0.802800  0.932200  1.0  -0.1335
  C  C50  1  0.481300  0.654500  0.665500  1.0  0.1634
  C  C51  1  0.530200  0.385300  0.552100  1.0  0.3258
  C  C52  1  0.369300  0.602000  0.697600  1.0  -0.1793
  C  C53  1  0.979900  0.766700  0.851800  1.0  0.3626
  C  C54  1  0.243400  0.621600  0.666900  1.0  0.5478
  C  C55  1  0.393700  0.297900  0.960200  1.0  0.1621
  C  C56  1  0.878000  0.974600  0.763900  1.0  0.3356
  C  C57  1  0.597400  0.571200  0.763500  1.0  0.2182
  C  C58  1  0.896900  0.738100  0.462400  1.0  0.132
  C  C59  1  0.512600  0.444500  0.871900  1.0  0.5263
  C  C60  1  0.102200  0.677300  0.542400  1.0  0.1713
  C  C61  1  0.017500  0.685800  0.588200  1.0  0.1035
  C  C62  1  0.491400  0.515900  0.798700  1.0  -0.1808
  C  C63  1  0.260100  0.223400  0.964300  1.0  0.0713
  C  C64  1  0.375700  0.532000  0.764300  1.0  -0.0004
  C  C65  1  0.976700  0.731900  0.413300  1.0  -0.1438
  C  C66  1  0.504200  0.282900  0.014100  1.0  -0.1041
  C  C67  1  0.079800  0.699900  0.452400  1.0  -0.1202
  C  C68  1  0.345800  0.128500  0.068800  1.0  0.145
  C  C69  1  0.478800  0.197200  0.067800  1.0  -0.1333
  S  S70  1  0.298010  0.553650  0.394900  1.0  -0.3832
  S  S71  1  0.182100  0.060600  0.351970  1.0  -0.3777
  S  S72  1  0.954000  0.196900  0.032530  1.0  -0.3489
  S  S73  1  0.701990  0.446350  0.605100  1.0  -0.3838
  S  S74  1  0.817900  0.939400  0.648030  1.0  -0.3773
  S  S75  1  0.046000  0.803100  0.967470  1.0  -0.3502
  N  N76  1  0.082600  0.283600  0.450100  1.0  -0.3146
  N  N77  1  0.405800  0.361600  0.301700  1.0  -0.327
  N  N78  1  0.589600  0.656400  0.484200  1.0  -0.5101
  N  N79  1  0.598100  0.620800  0.101100  1.0  -0.3989
  N  N80  1  0.792000  0.351000  0.418600  1.0  -0.3865
  N  N81  1  0.763300  0.861000  0.982900  1.0  -0.3075
  N  N82  1  0.067000  0.262000  0.229200  1.0  -0.5113
  N  N83  1  0.076800  0.995900  0.154600  1.0  -0.4946
  N  N84  1  0.917400  0.716400  0.549900  1.0  -0.312
  N  N85  1  0.594200  0.638400  0.698300  1.0  -0.3273
  N  N86  1  0.410400  0.343600  0.515800  1.0  -0.5092
  N  N87  1  0.401900  0.379200  0.898900  1.0  -0.4001
  N  N88  1  0.208000  0.649000  0.581400  1.0  -0.3897
  N  N89  1  0.236700  0.139000  0.017100  1.0  -0.3084
  N  N90  1  0.933000  0.738000  0.770800  1.0  -0.5095
  N  N91  1  0.923200  0.004100  0.845400  1.0  -0.496
  O  O92  1  0.372800  0.550600  0.093000  1.0  -0.4784
  O  O93  1  0.820600  0.387200  0.282400  1.0  -0.4686
  O  O94  1  0.627200  0.449400  0.907000  1.0  -0.4851
  O  O95  1  0.179400  0.612800  0.717600  1.0  -0.4695
