# generated using pymatgen
data_Co3H38C60(NO)12
_symmetry_space_group_name_H-M   'P 1'
_cell_length_a   23.97920000
_cell_length_b   13.37210000
_cell_length_c   24.22270000
_cell_angle_alpha   90.00000000
_cell_angle_beta   112.70600000
_cell_angle_gamma   90.00000000
_symmetry_Int_Tables_number   1
_chemical_formula_structural   Co3H38C60(NO)12
_chemical_formula_sum   'Co12 H152 C240 N48 O48'
_cell_volume   7165.09800581
_cell_formula_units_Z   4
loop_
 _symmetry_equiv_pos_site_id
 _symmetry_equiv_pos_as_xyz
  1  'x, y, z'
loop_
 _atom_site_type_symbol
 _atom_site_label
 _atom_site_symmetry_multiplicity
 _atom_site_fract_x
 _atom_site_fract_y
 _atom_site_fract_z
 _atom_site_occupancy
 _atom_site_charge
  Co  Co1  1  0.383880  0.648670  0.451590  1.0  0.9336
  Co  Co2  1  0.883880  0.148670  0.451590  1.0  0.9336
  Co  Co3  1  0.616120  0.648670  0.048410  1.0  0.9382
  Co  Co4  1  0.116120  0.148670  0.048410  1.0  0.9382
  Co  Co5  1  0.616120  0.351330  0.548410  1.0  0.9382
  Co  Co6  1  0.116120  0.851330  0.548410  1.0  0.9382
  Co  Co7  1  0.383880  0.351330  0.951590  1.0  0.9367
  Co  Co8  1  0.883880  0.851330  0.951590  1.0  0.9367
  Co  Co9  1  0.500000  0.800230  0.250000  1.0  0.8487
  Co  Co10  1  0.000000  0.300230  0.250000  1.0  0.8487
  Co  Co11  1  0.500000  0.199770  0.750000  1.0  0.8482
  Co  Co12  1  0.000000  0.699770  0.750000  1.0  0.8482
  H  H13  1  0.317700  0.059100  0.251200  1.0  0.1271
  H  H14  1  0.459500  0.200600  0.374500  1.0  0.1277
  H  H15  1  0.299700  0.342200  0.298700  1.0  0.1277
  H  H16  1  0.401200  0.970000  0.237500  1.0  0.106
  H  H17  1  0.533100  0.881000  0.383600  1.0  0.0962
  H  H18  1  0.489200  0.029500  0.409500  1.0  0.1117
  H  H19  1  0.335800  0.440700  0.382800  1.0  0.0962
  H  H20  1  0.503300  0.530600  0.442200  1.0  0.1044
  H  H21  1  0.499900  0.370800  0.392800  1.0  0.1402
  H  H22  1  0.244400  0.128900  0.155600  1.0  0.1008
  H  H23  1  0.107300  0.276500  0.163900  1.0  0.0945
  H  H24  1  0.190400  0.294000  0.261100  1.0  0.1316
  H  H25  1  0.407200  0.577200  0.105900  1.0  0.1045
  H  H26  1  0.234900  0.517000  0.999900  1.0  0.1072
  H  H27  1  0.272700  0.750100  0.112300  1.0  0.1066
  H  H28  1  0.179600  0.803400  0.028500  1.0  0.0936
  H  H29  1  0.077200  0.830600  0.996600  1.0  0.0943
  H  H30  1  0.051000  0.538200  0.013000  1.0  0.1012
  H  H31  1  0.152200  0.509100  0.037200  1.0  0.1091
  H  H32  1  0.817700  0.559100  0.251200  1.0  0.1271
  H  H33  1  0.959500  0.700600  0.374500  1.0  0.1277
  H  H34  1  0.799700  0.842200  0.298700  1.0  0.1277
  H  H35  1  0.901200  0.470000  0.237500  1.0  0.106
  H  H36  1  0.033100  0.381000  0.383600  1.0  0.0962
  H  H37  1  0.989200  0.529500  0.409500  1.0  0.1117
  H  H38  1  0.835800  0.940700  0.382800  1.0  0.0962
  H  H39  1  0.003300  0.030600  0.442200  1.0  0.1044
  H  H40  1  0.999900  0.870800  0.392800  1.0  0.1402
  H  H41  1  0.744400  0.628900  0.155600  1.0  0.1008
  H  H42  1  0.607300  0.776500  0.163900  1.0  0.0945
  H  H43  1  0.690400  0.794000  0.261100  1.0  0.1316
  H  H44  1  0.907200  0.077200  0.105900  1.0  0.1045
  H  H45  1  0.734900  0.017000  0.999900  1.0  0.1072
  H  H46  1  0.772700  0.250100  0.112300  1.0  0.1066
  H  H47  1  0.679600  0.303400  0.028500  1.0  0.0936
  H  H48  1  0.577200  0.330600  0.996600  1.0  0.0943
  H  H49  1  0.551000  0.038200  0.013000  1.0  0.1012
  H  H50  1  0.652200  0.009100  0.037200  1.0  0.1091
  H  H51  1  0.682300  0.059100  0.248800  1.0  0.1268
  H  H52  1  0.540500  0.200600  0.125500  1.0  0.1274
  H  H53  1  0.700300  0.342200  0.201300  1.0  0.1273
  H  H54  1  0.598800  0.970000  0.262500  1.0  0.1066
  H  H55  1  0.466900  0.881000  0.116400  1.0  0.0971
  H  H56  1  0.510800  0.029500  0.090500  1.0  0.1125
  H  H57  1  0.664200  0.440700  0.117200  1.0  0.0968
  H  H58  1  0.496700  0.530600  0.057800  1.0  0.1046
  H  H59  1  0.500100  0.370800  0.107200  1.0  0.1413
  H  H60  1  0.755600  0.128900  0.344400  1.0  0.1012
  H  H61  1  0.892700  0.276500  0.336100  1.0  0.0946
  H  H62  1  0.809600  0.294000  0.238900  1.0  0.1308
  H  H63  1  0.592800  0.577200  0.394100  1.0  0.1032
  H  H64  1  0.765100  0.517000  0.500100  1.0  0.1074
  H  H65  1  0.727300  0.750100  0.387700  1.0  0.1066
  H  H66  1  0.820400  0.803400  0.471500  1.0  0.094
  H  H67  1  0.922800  0.830600  0.503400  1.0  0.0937
  H  H68  1  0.949000  0.538200  0.487000  1.0  0.1024
  H  H69  1  0.847800  0.509100  0.462800  1.0  0.1084
  H  H70  1  0.182300  0.559100  0.248800  1.0  0.1268
  H  H71  1  0.040500  0.700600  0.125500  1.0  0.1274
  H  H72  1  0.200300  0.842200  0.201300  1.0  0.1273
  H  H73  1  0.098800  0.470000  0.262500  1.0  0.1066
  H  H74  1  0.966900  0.381000  0.116400  1.0  0.0971
  H  H75  1  0.010800  0.529500  0.090500  1.0  0.1125
  H  H76  1  0.164200  0.940700  0.117200  1.0  0.0968
  H  H77  1  0.996700  0.030600  0.057800  1.0  0.1046
  H  H78  1  0.000100  0.870800  0.107200  1.0  0.1413
  H  H79  1  0.255600  0.628900  0.344400  1.0  0.1012
  H  H80  1  0.392700  0.776500  0.336100  1.0  0.0946
  H  H81  1  0.309600  0.794000  0.238900  1.0  0.1308
  H  H82  1  0.092800  0.077200  0.394100  1.0  0.1032
  H  H83  1  0.265100  0.017000  0.500100  1.0  0.1074
  H  H84  1  0.227300  0.250100  0.387700  1.0  0.1066
  H  H85  1  0.320400  0.303400  0.471500  1.0  0.094
  H  H86  1  0.422800  0.330600  0.503400  1.0  0.0937
  H  H87  1  0.449000  0.038200  0.487000  1.0  0.1024
  H  H88  1  0.347800  0.009100  0.462800  1.0  0.1084
  H  H89  1  0.682300  0.940900  0.748800  1.0  0.1265
  H  H90  1  0.540500  0.799400  0.625500  1.0  0.1272
  H  H91  1  0.700300  0.657800  0.701300  1.0  0.1272
  H  H92  1  0.598800  0.030000  0.762500  1.0  0.1067
  H  H93  1  0.466900  0.119000  0.616400  1.0  0.0968
  H  H94  1  0.510800  0.970500  0.590500  1.0  0.1126
  H  H95  1  0.664200  0.559300  0.617200  1.0  0.0966
  H  H96  1  0.496700  0.469400  0.557800  1.0  0.1045
  H  H97  1  0.500100  0.629200  0.607200  1.0  0.1408
  H  H98  1  0.755600  0.871100  0.844400  1.0  0.1006
  H  H99  1  0.892700  0.723500  0.836100  1.0  0.095
  H  H100  1  0.809600  0.706000  0.738900  1.0  0.1312
  H  H101  1  0.592800  0.422800  0.894100  1.0  0.1034
  H  H102  1  0.765100  0.483000  0.000100  1.0  0.1066
  H  H103  1  0.727300  0.249900  0.887700  1.0  0.1063
  H  H104  1  0.820400  0.196600  0.971500  1.0  0.0937
  H  H105  1  0.922800  0.169400  0.003400  1.0  0.0937
  H  H106  1  0.949000  0.461800  0.987000  1.0  0.1023
  H  H107  1  0.847800  0.490900  0.962800  1.0  0.1088
  H  H108  1  0.182300  0.440900  0.748800  1.0  0.1265
  H  H109  1  0.040500  0.299400  0.625500  1.0  0.1272
  H  H110  1  0.200300  0.157800  0.701300  1.0  0.1272
  H  H111  1  0.098800  0.530000  0.762500  1.0  0.1067
  H  H112  1  0.966900  0.619000  0.616400  1.0  0.0968
  H  H113  1  0.010800  0.470500  0.590500  1.0  0.1126
  H  H114  1  0.164200  0.059300  0.617200  1.0  0.0966
  H  H115  1  0.996700  0.969400  0.557800  1.0  0.1045
  H  H116  1  0.000100  0.129200  0.607200  1.0  0.1408
  H  H117  1  0.255600  0.371100  0.844400  1.0  0.1006
  H  H118  1  0.392700  0.223500  0.836100  1.0  0.095
  H  H119  1  0.309600  0.206000  0.738900  1.0  0.1312
  H  H120  1  0.092800  0.922800  0.894100  1.0  0.1034
  H  H121  1  0.265100  0.983000  0.000100  1.0  0.1066
  H  H122  1  0.227300  0.749900  0.887700  1.0  0.1063
  H  H123  1  0.320400  0.696600  0.971500  1.0  0.0937
  H  H124  1  0.422800  0.669400  0.003400  1.0  0.0937
  H  H125  1  0.449000  0.961800  0.987000  1.0  0.1023
  H  H126  1  0.347800  0.990900  0.962800  1.0  0.1088
  H  H127  1  0.317700  0.940900  0.751200  1.0  0.1269
  H  H128  1  0.459500  0.799400  0.874500  1.0  0.1275
  H  H129  1  0.299700  0.657800  0.798700  1.0  0.1265
  H  H130  1  0.401200  0.030000  0.737500  1.0  0.1058
  H  H131  1  0.533100  0.119000  0.883600  1.0  0.0958
  H  H132  1  0.489200  0.970500  0.909500  1.0  0.112
  H  H133  1  0.335800  0.559300  0.882800  1.0  0.0961
  H  H134  1  0.503300  0.469400  0.942200  1.0  0.1045
  H  H135  1  0.499900  0.629200  0.892800  1.0  0.1402
  H  H136  1  0.244400  0.871100  0.655600  1.0  0.1004
  H  H137  1  0.107300  0.723500  0.663900  1.0  0.095
  H  H138  1  0.190400  0.706000  0.761100  1.0  0.1319
  H  H139  1  0.407200  0.422800  0.605900  1.0  0.1049
  H  H140  1  0.234900  0.483000  0.499900  1.0  0.1078
  H  H141  1  0.272700  0.249900  0.612300  1.0  0.1069
  H  H142  1  0.179600  0.196600  0.528500  1.0  0.0936
  H  H143  1  0.077200  0.169400  0.496600  1.0  0.0936
  H  H144  1  0.051000  0.461800  0.513000  1.0  0.1014
  H  H145  1  0.152200  0.490900  0.537200  1.0  0.1091
  H  H146  1  0.817700  0.440900  0.751200  1.0  0.1269
  H  H147  1  0.959500  0.299400  0.874500  1.0  0.1275
  H  H148  1  0.799700  0.157800  0.798700  1.0  0.1265
  H  H149  1  0.901200  0.530000  0.737500  1.0  0.1058
  H  H150  1  0.033100  0.619000  0.883600  1.0  0.0958
  H  H151  1  0.989200  0.470500  0.909500  1.0  0.112
  H  H152  1  0.835800  0.059300  0.882800  1.0  0.0961
  H  H153  1  0.003300  0.969400  0.942200  1.0  0.1045
  H  H154  1  0.999900  0.129200  0.892800  1.0  0.1402
  H  H155  1  0.744400  0.371100  0.655600  1.0  0.1004
  H  H156  1  0.607300  0.223500  0.663900  1.0  0.095
  H  H157  1  0.690400  0.206000  0.761100  1.0  0.1319
  H  H158  1  0.907200  0.922800  0.605900  1.0  0.1049
  H  H159  1  0.734900  0.983000  0.499900  1.0  0.1078
  H  H160  1  0.772700  0.749900  0.612300  1.0  0.1069
  H  H161  1  0.679600  0.696600  0.528500  1.0  0.0936
  H  H162  1  0.577200  0.669400  0.496600  1.0  0.0936
  H  H163  1  0.551000  0.961800  0.513000  1.0  0.1014
  H  H164  1  0.652200  0.990900  0.537200  1.0  0.1091
  C  C165  1  0.334220  0.115900  0.273750  1.0  -0.2177
  C  C166  1  0.393720  0.117550  0.313650  1.0  0.1659
  C  C167  1  0.419200  0.200810  0.348050  1.0  -0.254
  C  C168  1  0.383300  0.284370  0.342170  1.0  0.1562
  C  C169  1  0.323450  0.285620  0.302320  1.0  -0.2073
  C  C170  1  0.299680  0.202090  0.268230  1.0  0.1563
  C  C171  1  0.428660  0.965950  0.277000  1.0  0.1462
  C  C172  1  0.500850  0.917800  0.357320  1.0  0.0142
  C  C173  1  0.476930  0.999700  0.371970  1.0  -0.1663
  C  C174  1  0.377080  0.443630  0.391440  1.0  0.1536
  C  C175  1  0.468830  0.491910  0.423830  1.0  0.0339
  C  C176  1  0.467420  0.403900  0.396520  1.0  -0.1321
  C  C177  1  0.220330  0.167750  0.169380  1.0  0.1391
  C  C178  1  0.145540  0.248700  0.174340  1.0  0.0261
  C  C179  1  0.191160  0.258800  0.228200  1.0  -0.1259
  C  C180  1  0.391530  0.743190  0.161380  1.0  0.661
  C  C181  1  0.347230  0.674760  0.116030  1.0  -0.1634
  C  C182  1  0.366360  0.593340  0.091940  1.0  -0.0306
  C  C183  1  0.324540  0.536170  0.047070  1.0  -0.0832
  C  C184  1  0.262900  0.556380  0.029230  1.0  -0.0625
  C  C185  1  0.242690  0.634370  0.054660  1.0  0.0496
  C  C186  1  0.285490  0.695080  0.096750  1.0  -0.0623
  C  C187  1  0.344610  0.459560  0.013560  1.0  0.6756
  C  C188  1  0.177000  0.652910  0.036240  1.0  0.0561
  C  C189  1  0.153670  0.749610  0.024390  1.0  -0.1269
  C  C190  1  0.092410  0.766180  0.006540  1.0  -0.0804
  C  C191  1  0.053250  0.687850  0.003310  1.0  -0.177
  C  C192  1  0.076620  0.591570  0.015300  1.0  -0.0927
  C  C193  1  0.137480  0.574260  0.030580  1.0  -0.1189
  C  C194  1  0.987600  0.707020  0.990160  1.0  0.6946
  C  C195  1  0.834220  0.615900  0.273750  1.0  -0.2177
  C  C196  1  0.893720  0.617550  0.313650  1.0  0.1659
  C  C197  1  0.919200  0.700810  0.348050  1.0  -0.254
  C  C198  1  0.883300  0.784370  0.342170  1.0  0.1562
  C  C199  1  0.823450  0.785620  0.302320  1.0  -0.2073
  C  C200  1  0.799680  0.702090  0.268230  1.0  0.1563
  C  C201  1  0.928660  0.465950  0.277000  1.0  0.1462
  C  C202  1  0.000850  0.417800  0.357320  1.0  0.0142
  C  C203  1  0.976930  0.499700  0.371970  1.0  -0.1663
  C  C204  1  0.877080  0.943630  0.391440  1.0  0.1536
  C  C205  1  0.968830  0.991910  0.423830  1.0  0.0339
  C  C206  1  0.967420  0.903900  0.396520  1.0  -0.1321
  C  C207  1  0.720330  0.667750  0.169380  1.0  0.1391
  C  C208  1  0.645540  0.748700  0.174340  1.0  0.0261
  C  C209  1  0.691160  0.758800  0.228200  1.0  -0.1259
  C  C210  1  0.891530  0.243190  0.161380  1.0  0.661
  C  C211  1  0.847230  0.174760  0.116030  1.0  -0.1634
  C  C212  1  0.866360  0.093340  0.091940  1.0  -0.0306
  C  C213  1  0.824540  0.036170  0.047070  1.0  -0.0832
  C  C214  1  0.762900  0.056380  0.029230  1.0  -0.0625
  C  C215  1  0.742690  0.134370  0.054660  1.0  0.0496
  C  C216  1  0.785490  0.195080  0.096750  1.0  -0.0623
  C  C217  1  0.844610  0.959560  0.013560  1.0  0.6756
  C  C218  1  0.677000  0.152910  0.036240  1.0  0.0561
  C  C219  1  0.653670  0.249610  0.024390  1.0  -0.1269
  C  C220  1  0.592410  0.266180  0.006540  1.0  -0.0804
  C  C221  1  0.553250  0.187850  0.003310  1.0  -0.177
  C  C222  1  0.576620  0.091570  0.015300  1.0  -0.0927
  C  C223  1  0.637480  0.074260  0.030580  1.0  -0.1189
  C  C224  1  0.487600  0.207020  0.990160  1.0  0.6946
  C  C225  1  0.665780  0.115900  0.226250  1.0  -0.2161
  C  C226  1  0.606280  0.117550  0.186350  1.0  0.1661
  C  C227  1  0.580800  0.200810  0.151950  1.0  -0.2573
  C  C228  1  0.616700  0.284370  0.157830  1.0  0.1572
  C  C229  1  0.676550  0.285620  0.197680  1.0  -0.2046
  C  C230  1  0.700320  0.202090  0.231770  1.0  0.1559
  C  C231  1  0.571340  0.965950  0.223000  1.0  0.1458
  C  C232  1  0.499150  0.917800  0.142680  1.0  0.0137
  C  C233  1  0.523070  0.999700  0.128030  1.0  -0.1676
  C  C234  1  0.622920  0.443630  0.108560  1.0  0.1532
  C  C235  1  0.531170  0.491910  0.076170  1.0  0.0325
  C  C236  1  0.532580  0.403900  0.103480  1.0  -0.1303
  C  C237  1  0.779670  0.167750  0.330620  1.0  0.1388
  C  C238  1  0.854460  0.248700  0.325660  1.0  0.0274
  C  C239  1  0.808840  0.258800  0.271800  1.0  -0.1251
  C  C240  1  0.608470  0.743190  0.338620  1.0  0.6607
  C  C241  1  0.652770  0.674760  0.383970  1.0  -0.1631
  C  C242  1  0.633640  0.593340  0.408060  1.0  -0.0288
  C  C243  1  0.675460  0.536170  0.452930  1.0  -0.0837
  C  C244  1  0.737100  0.556380  0.470770  1.0  -0.0626
  C  C245  1  0.757310  0.634370  0.445340  1.0  0.0489
  C  C246  1  0.714510  0.695080  0.403250  1.0  -0.0645
  C  C247  1  0.655390  0.459560  0.486440  1.0  0.6754
  C  C248  1  0.823000  0.652910  0.463760  1.0  0.0541
  C  C249  1  0.846330  0.749610  0.475610  1.0  -0.1253
  C  C250  1  0.907590  0.766180  0.493460  1.0  -0.0802
  C  C251  1  0.946750  0.687850  0.496690  1.0  -0.1768
  C  C252  1  0.923380  0.591570  0.484700  1.0  -0.0934
  C  C253  1  0.862520  0.574260  0.469420  1.0  -0.1174
  C  C254  1  0.012400  0.707020  0.509840  1.0  0.6938
  C  C255  1  0.165780  0.615900  0.226250  1.0  -0.2161
  C  C256  1  0.106280  0.617550  0.186350  1.0  0.1661
  C  C257  1  0.080800  0.700810  0.151950  1.0  -0.2573
  C  C258  1  0.116700  0.784370  0.157830  1.0  0.1572
  C  C259  1  0.176550  0.785620  0.197680  1.0  -0.2046
  C  C260  1  0.200320  0.702090  0.231770  1.0  0.1559
  C  C261  1  0.071340  0.465950  0.223000  1.0  0.1458
  C  C262  1  0.999150  0.417800  0.142680  1.0  0.0137
  C  C263  1  0.023070  0.499700  0.128030  1.0  -0.1676
  C  C264  1  0.122920  0.943630  0.108560  1.0  0.1532
  C  C265  1  0.031170  0.991910  0.076170  1.0  0.0325
  C  C266  1  0.032580  0.903900  0.103480  1.0  -0.1303
  C  C267  1  0.279670  0.667750  0.330620  1.0  0.1388
  C  C268  1  0.354460  0.748700  0.325660  1.0  0.0274
  C  C269  1  0.308840  0.758800  0.271800  1.0  -0.1251
  C  C270  1  0.108470  0.243190  0.338620  1.0  0.6607
  C  C271  1  0.152770  0.174760  0.383970  1.0  -0.1631
  C  C272  1  0.133640  0.093340  0.408060  1.0  -0.0288
  C  C273  1  0.175460  0.036170  0.452930  1.0  -0.0837
  C  C274  1  0.237100  0.056380  0.470770  1.0  -0.0626
  C  C275  1  0.257310  0.134370  0.445340  1.0  0.0489
  C  C276  1  0.214510  0.195080  0.403250  1.0  -0.0645
  C  C277  1  0.155390  0.959560  0.486440  1.0  0.6754
  C  C278  1  0.323000  0.152910  0.463760  1.0  0.0541
  C  C279  1  0.346330  0.249610  0.475610  1.0  -0.1253
  C  C280  1  0.407590  0.266180  0.493460  1.0  -0.0802
  C  C281  1  0.446750  0.187850  0.496690  1.0  -0.1768
  C  C282  1  0.423380  0.091570  0.484700  1.0  -0.0934
  C  C283  1  0.362520  0.074260  0.469420  1.0  -0.1174
  C  C284  1  0.512400  0.207020  0.509840  1.0  0.6938
  C  C285  1  0.665780  0.884100  0.726250  1.0  -0.2168
  C  C286  1  0.606280  0.882450  0.686350  1.0  0.1659
  C  C287  1  0.580800  0.799190  0.651950  1.0  -0.2568
  C  C288  1  0.616700  0.715630  0.657830  1.0  0.1582
  C  C289  1  0.676550  0.714380  0.697680  1.0  -0.2052
  C  C290  1  0.700320  0.797910  0.731770  1.0  0.1561
  C  C291  1  0.571340  0.034050  0.723000  1.0  0.1459
  C  C292  1  0.499150  0.082200  0.642680  1.0  0.0142
  C  C293  1  0.523070  0.000300  0.628030  1.0  -0.1681
  C  C294  1  0.622920  0.556370  0.608560  1.0  0.1528
  C  C295  1  0.531170  0.508090  0.576170  1.0  0.0343
  C  C296  1  0.532580  0.596100  0.603480  1.0  -0.1311
  C  C297  1  0.779670  0.832250  0.830620  1.0  0.1392
  C  C298  1  0.854460  0.751300  0.825660  1.0  0.0269
  C  C299  1  0.808840  0.741200  0.771800  1.0  -0.1254
  C  C300  1  0.608470  0.256810  0.838620  1.0  0.6608
  C  C301  1  0.652770  0.325240  0.883970  1.0  -0.1639
  C  C302  1  0.633640  0.406660  0.908060  1.0  -0.0289
  C  C303  1  0.675460  0.463830  0.952930  1.0  -0.0817
  C  C304  1  0.737100  0.443620  0.970770  1.0  -0.0616
  C  C305  1  0.757310  0.365630  0.945340  1.0  0.0484
  C  C306  1  0.714510  0.304920  0.903250  1.0  -0.0633
  C  C307  1  0.655390  0.540440  0.986440  1.0  0.6752
  C  C308  1  0.823000  0.347090  0.963760  1.0  0.0536
  C  C309  1  0.846330  0.250390  0.975610  1.0  -0.1249
  C  C310  1  0.907590  0.233820  0.993460  1.0  -0.0809
  C  C311  1  0.946750  0.312150  0.996690  1.0  -0.1775
  C  C312  1  0.923380  0.408430  0.984700  1.0  -0.0936
  C  C313  1  0.862520  0.425740  0.969420  1.0  -0.1168
  C  C314  1  0.012400  0.292980  0.009840  1.0  0.6934
  C  C315  1  0.165780  0.384100  0.726250  1.0  -0.2168
  C  C316  1  0.106280  0.382450  0.686350  1.0  0.1659
  C  C317  1  0.080800  0.299190  0.651950  1.0  -0.2568
  C  C318  1  0.116700  0.215630  0.657830  1.0  0.1582
  C  C319  1  0.176550  0.214380  0.697680  1.0  -0.2052
  C  C320  1  0.200320  0.297910  0.731770  1.0  0.1561
  C  C321  1  0.071340  0.534050  0.723000  1.0  0.1459
  C  C322  1  0.999150  0.582200  0.642680  1.0  0.0142
  C  C323  1  0.023070  0.500300  0.628030  1.0  -0.1681
  C  C324  1  0.122920  0.056370  0.608560  1.0  0.1528
  C  C325  1  0.031170  0.008090  0.576170  1.0  0.0343
  C  C326  1  0.032580  0.096100  0.603480  1.0  -0.1311
  C  C327  1  0.279670  0.332250  0.830620  1.0  0.1392
  C  C328  1  0.354460  0.251300  0.825660  1.0  0.0269
  C  C329  1  0.308840  0.241200  0.771800  1.0  -0.1254
  C  C330  1  0.108470  0.756810  0.838620  1.0  0.6608
  C  C331  1  0.152770  0.825240  0.883970  1.0  -0.1639
  C  C332  1  0.133640  0.906660  0.908060  1.0  -0.0289
  C  C333  1  0.175460  0.963830  0.952930  1.0  -0.0817
  C  C334  1  0.237100  0.943620  0.970770  1.0  -0.0616
  C  C335  1  0.257310  0.865630  0.945340  1.0  0.0484
  C  C336  1  0.214510  0.804920  0.903250  1.0  -0.0633
  C  C337  1  0.155390  0.040440  0.986440  1.0  0.6752
  C  C338  1  0.323000  0.847090  0.963760  1.0  0.0536
  C  C339  1  0.346330  0.750390  0.975610  1.0  -0.1249
  C  C340  1  0.407590  0.733820  0.993460  1.0  -0.0809
  C  C341  1  0.446750  0.812150  0.996690  1.0  -0.1775
  C  C342  1  0.423380  0.908430  0.984700  1.0  -0.0936
  C  C343  1  0.362520  0.925740  0.969420  1.0  -0.1168
  C  C344  1  0.512400  0.792980  0.009840  1.0  0.6934
  C  C345  1  0.334220  0.884100  0.773750  1.0  -0.2187
  C  C346  1  0.393720  0.882450  0.813650  1.0  0.166
  C  C347  1  0.419200  0.799190  0.848050  1.0  -0.2537
  C  C348  1  0.383300  0.715630  0.842170  1.0  0.1545
  C  C349  1  0.323450  0.714380  0.802320  1.0  -0.2085
  C  C350  1  0.299680  0.797910  0.768230  1.0  0.1565
  C  C351  1  0.428660  0.034050  0.777000  1.0  0.1467
  C  C352  1  0.500850  0.082200  0.857320  1.0  0.0146
  C  C353  1  0.476930  0.000300  0.871970  1.0  -0.1666
  C  C354  1  0.377080  0.556370  0.891440  1.0  0.1534
  C  C355  1  0.468830  0.508090  0.923830  1.0  0.0335
  C  C356  1  0.467420  0.596100  0.896520  1.0  -0.1331
  C  C357  1  0.220330  0.832250  0.669380  1.0  0.1389
  C  C358  1  0.145540  0.751300  0.674340  1.0  0.026
  C  C359  1  0.191160  0.741200  0.728200  1.0  -0.126
  C  C360  1  0.391530  0.256810  0.661380  1.0  0.6608
  C  C361  1  0.347230  0.325240  0.616030  1.0  -0.162
  C  C362  1  0.366360  0.406660  0.591940  1.0  -0.0316
  C  C363  1  0.324540  0.463830  0.547070  1.0  -0.0813
  C  C364  1  0.262900  0.443620  0.529230  1.0  -0.0626
  C  C365  1  0.242690  0.365630  0.554660  1.0  0.0491
  C  C366  1  0.285490  0.304920  0.596750  1.0  -0.0619
  C  C367  1  0.344610  0.540440  0.513560  1.0  0.6763
  C  C368  1  0.177000  0.347090  0.536240  1.0  0.0553
  C  C369  1  0.153670  0.250390  0.524390  1.0  -0.126
  C  C370  1  0.092410  0.233820  0.506540  1.0  -0.0805
  C  C371  1  0.053250  0.312150  0.503310  1.0  -0.1774
  C  C372  1  0.076620  0.408430  0.515300  1.0  -0.0931
  C  C373  1  0.137480  0.425740  0.530580  1.0  -0.1176
  C  C374  1  0.987600  0.292980  0.490160  1.0  0.6945
  C  C375  1  0.834220  0.384100  0.773750  1.0  -0.2187
  C  C376  1  0.893720  0.382450  0.813650  1.0  0.166
  C  C377  1  0.919200  0.299190  0.848050  1.0  -0.2537
  C  C378  1  0.883300  0.215630  0.842170  1.0  0.1545
  C  C379  1  0.823450  0.214380  0.802320  1.0  -0.2085
  C  C380  1  0.799680  0.297910  0.768230  1.0  0.1565
  C  C381  1  0.928660  0.534050  0.777000  1.0  0.1467
  C  C382  1  0.000850  0.582200  0.857320  1.0  0.0146
  C  C383  1  0.976930  0.500300  0.871970  1.0  -0.1666
  C  C384  1  0.877080  0.056370  0.891440  1.0  0.1534
  C  C385  1  0.968830  0.008090  0.923830  1.0  0.0335
  C  C386  1  0.967420  0.096100  0.896520  1.0  -0.1331
  C  C387  1  0.720330  0.332250  0.669380  1.0  0.1389
  C  C388  1  0.645540  0.251300  0.674340  1.0  0.026
  C  C389  1  0.691160  0.241200  0.728200  1.0  -0.126
  C  C390  1  0.891530  0.756810  0.661380  1.0  0.6608
  C  C391  1  0.847230  0.825240  0.616030  1.0  -0.162
  C  C392  1  0.866360  0.906660  0.591940  1.0  -0.0316
  C  C393  1  0.824540  0.963830  0.547070  1.0  -0.0813
  C  C394  1  0.762900  0.943620  0.529230  1.0  -0.0626
  C  C395  1  0.742690  0.865630  0.554660  1.0  0.0491
  C  C396  1  0.785490  0.804920  0.596750  1.0  -0.0619
  C  C397  1  0.844610  0.040440  0.513560  1.0  0.6763
  C  C398  1  0.677000  0.847090  0.536240  1.0  0.0553
  C  C399  1  0.653670  0.750390  0.524390  1.0  -0.126
  C  C400  1  0.592410  0.733820  0.506540  1.0  -0.0805
  C  C401  1  0.553250  0.812150  0.503310  1.0  -0.1774
  C  C402  1  0.576620  0.908430  0.515300  1.0  -0.0931
  C  C403  1  0.637480  0.925740  0.530580  1.0  -0.1176
  C  C404  1  0.487600  0.792980  0.490160  1.0  0.6945
  N  N405  1  0.470500  0.896620  0.297650  1.0  -0.3596
  N  N406  1  0.430730  0.030280  0.320510  1.0  0.0474
  N  N407  1  0.412120  0.516710  0.420870  1.0  -0.3755
  N  N408  1  0.407920  0.372800  0.375040  1.0  0.0223
  N  N409  1  0.163670  0.191370  0.136970  1.0  -0.3802
  N  N410  1  0.239040  0.206410  0.224570  1.0  0.0533
  N  N411  1  0.970500  0.396620  0.297650  1.0  -0.3596
  N  N412  1  0.930730  0.530280  0.320510  1.0  0.0474
  N  N413  1  0.912120  0.016710  0.420870  1.0  -0.3755
  N  N414  1  0.907920  0.872800  0.375040  1.0  0.0223
  N  N415  1  0.663670  0.691370  0.136970  1.0  -0.3802
  N  N416  1  0.739040  0.706410  0.224570  1.0  0.0533
  N  N417  1  0.529500  0.896620  0.202350  1.0  -0.3597
  N  N418  1  0.569270  0.030280  0.179490  1.0  0.0476
  N  N419  1  0.587880  0.516710  0.079130  1.0  -0.3742
  N  N420  1  0.592080  0.372800  0.124960  1.0  0.0239
  N  N421  1  0.836330  0.191370  0.363030  1.0  -0.3775
  N  N422  1  0.760960  0.206410  0.275430  1.0  0.0536
  N  N423  1  0.029500  0.396620  0.202350  1.0  -0.3597
  N  N424  1  0.069270  0.530280  0.179490  1.0  0.0476
  N  N425  1  0.087880  0.016710  0.079130  1.0  -0.3742
  N  N426  1  0.092080  0.872800  0.124960  1.0  0.0239
  N  N427  1  0.336330  0.691370  0.363030  1.0  -0.3775
  N  N428  1  0.260960  0.706410  0.275430  1.0  0.0536
  N  N429  1  0.529500  0.103380  0.702350  1.0  -0.3605
  N  N430  1  0.569270  0.969720  0.679490  1.0  0.0478
  N  N431  1  0.587880  0.483290  0.579130  1.0  -0.3739
  N  N432  1  0.592080  0.627200  0.624960  1.0  0.0231
  N  N433  1  0.836330  0.808630  0.863030  1.0  -0.3774
  N  N434  1  0.760960  0.793590  0.775430  1.0  0.0538
  N  N435  1  0.029500  0.603380  0.702350  1.0  -0.3605
  N  N436  1  0.069270  0.469720  0.679490  1.0  0.0478
  N  N437  1  0.087880  0.983290  0.579130  1.0  -0.3739
  N  N438  1  0.092080  0.127200  0.624960  1.0  0.0231
  N  N439  1  0.336330  0.308630  0.863030  1.0  -0.3774
  N  N440  1  0.260960  0.293590  0.775430  1.0  0.0538
  N  N441  1  0.470500  0.103380  0.797650  1.0  -0.3604
  N  N442  1  0.430730  0.969720  0.820510  1.0  0.0475
  N  N443  1  0.412120  0.483290  0.920870  1.0  -0.3747
  N  N444  1  0.407920  0.627200  0.875040  1.0  0.0227
  N  N445  1  0.163670  0.808630  0.636970  1.0  -0.38
  N  N446  1  0.239040  0.793590  0.724570  1.0  0.0537
  N  N447  1  0.970500  0.603380  0.797650  1.0  -0.3604
  N  N448  1  0.930730  0.469720  0.820510  1.0  0.0475
  N  N449  1  0.912120  0.983290  0.920870  1.0  -0.3747
  N  N450  1  0.907920  0.127200  0.875040  1.0  0.0227
  N  N451  1  0.663670  0.308630  0.636970  1.0  -0.38
  N  N452  1  0.739040  0.293590  0.724570  1.0  0.0537
  O  O453  1  0.444140  0.708870  0.190660  1.0  -0.5847
  O  O454  1  0.375830  0.828780  0.168500  1.0  -0.6114
  O  O455  1  0.396660  0.424180  0.035860  1.0  -0.5711
  O  O456  1  0.308490  0.435190  0.961200  1.0  -0.5542
  O  O457  1  0.965180  0.788010  0.964390  1.0  -0.5918
  O  O458  1  0.960220  0.642310  0.006990  1.0  -0.5663
  O  O459  1  0.944140  0.208870  0.190660  1.0  -0.5847
  O  O460  1  0.875830  0.328780  0.168500  1.0  -0.6114
  O  O461  1  0.896660  0.924180  0.035860  1.0  -0.5711
  O  O462  1  0.808490  0.935190  0.961200  1.0  -0.5542
  O  O463  1  0.465180  0.288010  0.964390  1.0  -0.5918
  O  O464  1  0.460220  0.142310  0.006990  1.0  -0.5663
  O  O465  1  0.555860  0.708870  0.309340  1.0  -0.586
  O  O466  1  0.624170  0.828780  0.331500  1.0  -0.6118
  O  O467  1  0.603340  0.424180  0.464140  1.0  -0.5708
  O  O468  1  0.691510  0.435190  0.538800  1.0  -0.5546
  O  O469  1  0.034820  0.788010  0.535610  1.0  -0.5917
  O  O470  1  0.039780  0.642310  0.493010  1.0  -0.567
  O  O471  1  0.055860  0.208870  0.309340  1.0  -0.586
  O  O472  1  0.124170  0.328780  0.331500  1.0  -0.6118
  O  O473  1  0.103340  0.924180  0.464140  1.0  -0.5708
  O  O474  1  0.191510  0.935190  0.538800  1.0  -0.5546
  O  O475  1  0.534820  0.288010  0.535610  1.0  -0.5917
  O  O476  1  0.539780  0.142310  0.493010  1.0  -0.567
  O  O477  1  0.555860  0.291130  0.809340  1.0  -0.5862
  O  O478  1  0.624170  0.171220  0.831500  1.0  -0.6104
  O  O479  1  0.603340  0.575820  0.964140  1.0  -0.5706
  O  O480  1  0.691510  0.564810  0.038800  1.0  -0.5543
  O  O481  1  0.034820  0.211990  0.035610  1.0  -0.5915
  O  O482  1  0.039780  0.357690  0.993010  1.0  -0.5668
  O  O483  1  0.055860  0.791130  0.809340  1.0  -0.5862
  O  O484  1  0.124170  0.671220  0.831500  1.0  -0.6104
  O  O485  1  0.103340  0.075820  0.964140  1.0  -0.5706
  O  O486  1  0.191510  0.064810  0.038800  1.0  -0.5543
  O  O487  1  0.534820  0.711990  0.035610  1.0  -0.5915
  O  O488  1  0.539780  0.857690  0.993010  1.0  -0.5668
  O  O489  1  0.444140  0.291130  0.690660  1.0  -0.5857
  O  O490  1  0.375830  0.171220  0.668500  1.0  -0.6105
  O  O491  1  0.396660  0.575820  0.535860  1.0  -0.5694
  O  O492  1  0.308490  0.564810  0.461200  1.0  -0.5521
  O  O493  1  0.965180  0.211990  0.464390  1.0  -0.5915
  O  O494  1  0.960220  0.357690  0.506990  1.0  -0.5669
  O  O495  1  0.944140  0.791130  0.690660  1.0  -0.5857
  O  O496  1  0.875830  0.671220  0.668500  1.0  -0.6105
  O  O497  1  0.896660  0.075820  0.535860  1.0  -0.5694
  O  O498  1  0.808490  0.064810  0.461200  1.0  -0.5521
  O  O499  1  0.465180  0.711990  0.464390  1.0  -0.5915
  O  O500  1  0.460220  0.857690  0.506990  1.0  -0.5669
