# generated using pymatgen
data_Co3H38C60(NO)12
_symmetry_space_group_name_H-M   'P 1'
_cell_length_a   24.02800000
_cell_length_b   13.41300000
_cell_length_c   24.04800000
_cell_angle_alpha   90.00000000
_cell_angle_beta   113.11100000
_cell_angle_gamma   90.00000000
_symmetry_Int_Tables_number   1
_chemical_formula_structural   Co3H38C60(NO)12
_chemical_formula_sum   'Co12 H152 C240 N48 O48'
_cell_volume   7128.37425483
_cell_formula_units_Z   4
loop_
 _symmetry_equiv_pos_site_id
 _symmetry_equiv_pos_as_xyz
  1  'x, y, z'
loop_
 _atom_site_type_symbol
 _atom_site_label
 _atom_site_symmetry_multiplicity
 _atom_site_fract_x
 _atom_site_fract_y
 _atom_site_fract_z
 _atom_site_occupancy
 _atom_site_charge
  Co  Co1  1  0.383910  0.852650  0.950300  1.0  0.8872
  Co  Co2  1  0.883910  0.352650  0.950300  1.0  0.8872
  Co  Co3  1  0.616090  0.852650  0.549700  1.0  0.8877
  Co  Co4  1  0.116090  0.352650  0.549700  1.0  0.8877
  Co  Co5  1  0.616090  0.147350  0.049700  1.0  0.8888
  Co  Co6  1  0.116090  0.647350  0.049700  1.0  0.8888
  Co  Co7  1  0.383910  0.147350  0.450300  1.0  0.8846
  Co  Co8  1  0.883910  0.647350  0.450300  1.0  0.8846
  Co  Co9  1  0.500000  0.296480  0.250000  1.0  0.8805
  Co  Co10  1  0.000000  0.796480  0.250000  1.0  0.8805
  Co  Co11  1  0.500000  0.703520  0.750000  1.0  0.881
  Co  Co12  1  0.000000  0.203520  0.750000  1.0  0.881
  H  H13  1  0.537300  0.702400  0.126100  1.0  0.1272
  H  H14  1  0.680000  0.556100  0.247000  1.0  0.1273
  H  H15  1  0.699600  0.836400  0.198200  1.0  0.1231
  H  H16  1  0.599600  0.464000  0.261200  1.0  0.1071
  H  H17  1  0.460200  0.387100  0.116400  1.0  0.097
  H  H18  1  0.501000  0.538300  0.091400  1.0  0.1148
  H  H19  1  0.755700  0.625800  0.343800  1.0  0.1065
  H  H20  1  0.892900  0.765500  0.331200  1.0  0.095
  H  H21  1  0.807600  0.783500  0.233800  1.0  0.1277
  H  H22  1  0.663100  0.938400  0.116900  1.0  0.1012
  H  H23  1  0.495600  0.030400  0.057700  1.0  0.1051
  H  H24  1  0.499100  0.871400  0.107800  1.0  0.1399
  H  H25  1  0.406500  0.076800  0.105400  1.0  0.1088
  H  H26  1  0.234000  0.014900  0.998600  1.0  0.1071
  H  H27  1  0.272400  0.247500  0.111700  1.0  0.1066
  H  H28  1  0.178500  0.299700  0.024300  1.0  0.0928
  H  H29  1  0.077000  0.328700  0.994500  1.0  0.1027
  H  H30  1  0.050600  0.038600  0.016700  1.0  0.0958
  H  H31  1  0.151300  0.008100  0.040400  1.0  0.1162
  H  H32  1  0.037300  0.202400  0.126100  1.0  0.1272
  H  H33  1  0.180000  0.056100  0.247000  1.0  0.1273
  H  H34  1  0.199600  0.336400  0.198200  1.0  0.1231
  H  H35  1  0.099600  0.964000  0.261200  1.0  0.1071
  H  H36  1  0.960200  0.887100  0.116400  1.0  0.097
  H  H37  1  0.001000  0.038300  0.091400  1.0  0.1148
  H  H38  1  0.255700  0.125800  0.343800  1.0  0.1065
  H  H39  1  0.392900  0.265500  0.331200  1.0  0.095
  H  H40  1  0.307600  0.283500  0.233800  1.0  0.1277
  H  H41  1  0.163100  0.438400  0.116900  1.0  0.1012
  H  H42  1  0.995600  0.530400  0.057700  1.0  0.1051
  H  H43  1  0.999100  0.371400  0.107800  1.0  0.1397
  H  H44  1  0.906500  0.576800  0.105400  1.0  0.1088
  H  H45  1  0.734000  0.514900  0.998600  1.0  0.1071
  H  H46  1  0.772400  0.747500  0.111700  1.0  0.1066
  H  H47  1  0.678500  0.799700  0.024300  1.0  0.0928
  H  H48  1  0.577000  0.828700  0.994500  1.0  0.1027
  H  H49  1  0.550600  0.538600  0.016700  1.0  0.0958
  H  H50  1  0.651300  0.508100  0.040400  1.0  0.1162
  H  H51  1  0.462700  0.702400  0.373900  1.0  0.1279
  H  H52  1  0.320000  0.556100  0.253000  1.0  0.1275
  H  H53  1  0.300400  0.836400  0.301800  1.0  0.1249
  H  H54  1  0.400400  0.464000  0.238800  1.0  0.1073
  H  H55  1  0.539800  0.387100  0.383600  1.0  0.0961
  H  H56  1  0.499000  0.538300  0.408600  1.0  0.1138
  H  H57  1  0.244300  0.625800  0.156200  1.0  0.1061
  H  H58  1  0.107100  0.765500  0.168800  1.0  0.0947
  H  H59  1  0.192400  0.783500  0.266200  1.0  0.1274
  H  H60  1  0.336900  0.938400  0.383100  1.0  0.1026
  H  H61  1  0.504400  0.030400  0.442300  1.0  0.1048
  H  H62  1  0.500900  0.871400  0.392200  1.0  0.1405
  H  H63  1  0.593500  0.076800  0.394600  1.0  0.1075
  H  H64  1  0.766000  0.014900  0.501400  1.0  0.1095
  H  H65  1  0.727600  0.247500  0.388300  1.0  0.1067
  H  H66  1  0.821500  0.299700  0.475700  1.0  0.0926
  H  H67  1  0.923000  0.328700  0.505500  1.0  0.1026
  H  H68  1  0.949400  0.038600  0.483300  1.0  0.0961
  H  H69  1  0.848700  0.008100  0.459600  1.0  0.1158
  H  H70  1  0.962700  0.202400  0.373900  1.0  0.1279
  H  H71  1  0.820000  0.056100  0.253000  1.0  0.1275
  H  H72  1  0.800400  0.336400  0.301800  1.0  0.1249
  H  H73  1  0.900400  0.964000  0.238800  1.0  0.1073
  H  H74  1  0.039800  0.887100  0.383600  1.0  0.0961
  H  H75  1  0.999000  0.038300  0.408600  1.0  0.1138
  H  H76  1  0.744300  0.125800  0.156200  1.0  0.1061
  H  H77  1  0.607100  0.265500  0.168800  1.0  0.0947
  H  H78  1  0.692400  0.283500  0.266200  1.0  0.1274
  H  H79  1  0.836900  0.438400  0.383100  1.0  0.1026
  H  H80  1  0.004400  0.530400  0.442300  1.0  0.1049
  H  H81  1  0.000900  0.371400  0.392200  1.0  0.1405
  H  H82  1  0.093500  0.576800  0.394600  1.0  0.1075
  H  H83  1  0.266000  0.514900  0.501400  1.0  0.1095
  H  H84  1  0.227600  0.747500  0.388300  1.0  0.1067
  H  H85  1  0.321500  0.799700  0.475700  1.0  0.0926
  H  H86  1  0.423000  0.828700  0.505500  1.0  0.1026
  H  H87  1  0.449400  0.538600  0.483300  1.0  0.0961
  H  H88  1  0.348700  0.508100  0.459600  1.0  0.1158
  H  H89  1  0.462700  0.297600  0.873900  1.0  0.1268
  H  H90  1  0.320000  0.443900  0.753000  1.0  0.1278
  H  H91  1  0.300400  0.163600  0.801800  1.0  0.1226
  H  H92  1  0.400400  0.536000  0.738800  1.0  0.1072
  H  H93  1  0.539800  0.612900  0.883600  1.0  0.0957
  H  H94  1  0.499000  0.461700  0.908600  1.0  0.1128
  H  H95  1  0.244300  0.374200  0.656200  1.0  0.1057
  H  H96  1  0.107100  0.234500  0.668800  1.0  0.0968
  H  H97  1  0.192400  0.216500  0.766200  1.0  0.1283
  H  H98  1  0.336900  0.061600  0.883100  1.0  0.1019
  H  H99  1  0.504400  0.969600  0.942300  1.0  0.1049
  H  H100  1  0.500900  0.128600  0.892200  1.0  0.1404
  H  H101  1  0.593500  0.923200  0.894600  1.0  0.1078
  H  H102  1  0.766000  0.985100  0.001400  1.0  0.1086
  H  H103  1  0.727600  0.752500  0.888300  1.0  0.1061
  H  H104  1  0.821500  0.700300  0.975700  1.0  0.0923
  H  H105  1  0.923000  0.671300  0.005500  1.0  0.1027
  H  H106  1  0.949400  0.961400  0.983300  1.0  0.0958
  H  H107  1  0.848700  0.991900  0.959600  1.0  0.1166
  H  H108  1  0.962700  0.797600  0.873900  1.0  0.1268
  H  H109  1  0.820000  0.943900  0.753000  1.0  0.1278
  H  H110  1  0.800400  0.663600  0.801800  1.0  0.1226
  H  H111  1  0.900400  0.036000  0.738800  1.0  0.1072
  H  H112  1  0.039800  0.112900  0.883600  1.0  0.0957
  H  H113  1  0.999000  0.961700  0.908600  1.0  0.1128
  H  H114  1  0.744300  0.874200  0.656200  1.0  0.1057
  H  H115  1  0.607100  0.734500  0.668800  1.0  0.0968
  H  H116  1  0.692400  0.716500  0.766200  1.0  0.1283
  H  H117  1  0.836900  0.561600  0.883100  1.0  0.1019
  H  H118  1  0.004400  0.469600  0.942300  1.0  0.1049
  H  H119  1  0.000900  0.628600  0.892200  1.0  0.1404
  H  H120  1  0.093500  0.423200  0.894600  1.0  0.1078
  H  H121  1  0.266000  0.485100  0.001400  1.0  0.1086
  H  H122  1  0.227600  0.252500  0.888300  1.0  0.1061
  H  H123  1  0.321500  0.200300  0.975700  1.0  0.0923
  H  H124  1  0.423000  0.171300  0.005500  1.0  0.1027
  H  H125  1  0.449400  0.461400  0.983300  1.0  0.0958
  H  H126  1  0.348700  0.491900  0.959600  1.0  0.1166
  H  H127  1  0.537300  0.297600  0.626100  1.0  0.1268
  H  H128  1  0.680000  0.443900  0.747000  1.0  0.1275
  H  H129  1  0.699600  0.163600  0.698200  1.0  0.1224
  H  H130  1  0.599600  0.536000  0.761200  1.0  0.1074
  H  H131  1  0.460200  0.612900  0.616400  1.0  0.0967
  H  H132  1  0.501000  0.461700  0.591400  1.0  0.115
  H  H133  1  0.755700  0.374200  0.843800  1.0  0.1063
  H  H134  1  0.892900  0.234500  0.831200  1.0  0.097
  H  H135  1  0.807600  0.216500  0.733800  1.0  0.1278
  H  H136  1  0.663100  0.061600  0.616900  1.0  0.1016
  H  H137  1  0.495600  0.969600  0.557700  1.0  0.1048
  H  H138  1  0.499100  0.128600  0.607800  1.0  0.1392
  H  H139  1  0.406500  0.923200  0.605400  1.0  0.1092
  H  H140  1  0.234000  0.985100  0.498600  1.0  0.1093
  H  H141  1  0.272400  0.752500  0.611700  1.0  0.1063
  H  H142  1  0.178500  0.700300  0.524300  1.0  0.0928
  H  H143  1  0.077000  0.671300  0.494500  1.0  0.1022
  H  H144  1  0.050600  0.961400  0.516700  1.0  0.0957
  H  H145  1  0.151300  0.991900  0.540400  1.0  0.1162
  H  H146  1  0.037300  0.797600  0.626100  1.0  0.1268
  H  H147  1  0.180000  0.943900  0.747000  1.0  0.1275
  H  H148  1  0.199600  0.663600  0.698200  1.0  0.1224
  H  H149  1  0.099600  0.036000  0.761200  1.0  0.1074
  H  H150  1  0.960200  0.112900  0.616400  1.0  0.0967
  H  H151  1  0.001000  0.961700  0.591400  1.0  0.115
  H  H152  1  0.255700  0.874200  0.843800  1.0  0.1063
  H  H153  1  0.392900  0.734500  0.831200  1.0  0.097
  H  H154  1  0.307600  0.716500  0.733800  1.0  0.1278
  H  H155  1  0.163100  0.561600  0.616900  1.0  0.1016
  H  H156  1  0.995600  0.469600  0.557700  1.0  0.1048
  H  H157  1  0.999100  0.628600  0.607800  1.0  0.1392
  H  H158  1  0.906500  0.423200  0.605400  1.0  0.1092
  H  H159  1  0.734000  0.485100  0.498600  1.0  0.1093
  H  H160  1  0.772400  0.252500  0.611700  1.0  0.1063
  H  H161  1  0.678500  0.200300  0.524300  1.0  0.0928
  H  H162  1  0.577000  0.171300  0.494500  1.0  0.1019
  H  H163  1  0.550600  0.461400  0.516700  1.0  0.0957
  H  H164  1  0.651300  0.491900  0.540400  1.0  0.1162
  C  C165  1  0.577980  0.700790  0.151800  1.0  -0.2742
  C  C166  1  0.603200  0.616580  0.186000  1.0  0.1595
  C  C167  1  0.663480  0.613200  0.224700  1.0  -0.2255
  C  C168  1  0.698650  0.696800  0.229360  1.0  0.1712
  C  C169  1  0.675140  0.781270  0.195260  1.0  -0.192
  C  C170  1  0.615300  0.782590  0.157110  1.0  0.1537
  C  C171  1  0.570020  0.463210  0.222090  1.0  0.1383
  C  C172  1  0.493620  0.422000  0.142600  1.0  0.0237
  C  C173  1  0.515930  0.505000  0.128280  1.0  -0.1661
  C  C174  1  0.779490  0.662600  0.328630  1.0  0.1382
  C  C175  1  0.854300  0.739600  0.321410  1.0  0.0058
  C  C176  1  0.807460  0.749400  0.267440  1.0  -0.1362
  C  C177  1  0.621850  0.941800  0.108390  1.0  0.1385
  C  C178  1  0.530030  0.991400  0.076170  1.0  0.019
  C  C179  1  0.531520  0.903800  0.103650  1.0  -0.1159
  C  C180  1  0.390900  0.239800  0.162040  1.0  0.6618
  C  C181  1  0.346380  0.172350  0.116140  1.0  -0.159
  C  C182  1  0.365520  0.092270  0.091450  1.0  -0.0215
  C  C183  1  0.323590  0.035320  0.045920  1.0  -0.0878
  C  C184  1  0.343600  0.960490  0.011620  1.0  0.6695
  C  C185  1  0.262020  0.054550  0.028130  1.0  -0.0758
  C  C186  1  0.241640  0.131800  0.053720  1.0  0.0169
  C  C187  1  0.285060  0.192400  0.096320  1.0  -0.0646
  C  C188  1  0.176480  0.150820  0.036100  1.0  0.0629
  C  C189  1  0.152720  0.246690  0.022110  1.0  -0.1199
  C  C190  1  0.091900  0.264460  0.005060  1.0  -0.0945
  C  C191  1  0.052290  0.187330  0.003340  1.0  -0.1754
  C  C192  1  0.987430  0.207340  0.990420  1.0  0.7051
  C  C193  1  0.076080  0.091230  0.017460  1.0  -0.0661
  C  C194  1  0.136720  0.073030  0.032530  1.0  -0.1248
  C  C195  1  0.077980  0.200790  0.151800  1.0  -0.2742
  C  C196  1  0.103200  0.116580  0.186000  1.0  0.1595
  C  C197  1  0.163480  0.113200  0.224700  1.0  -0.2255
  C  C198  1  0.198650  0.196800  0.229360  1.0  0.1712
  C  C199  1  0.175140  0.281270  0.195260  1.0  -0.192
  C  C200  1  0.115300  0.282590  0.157110  1.0  0.1537
  C  C201  1  0.070020  0.963210  0.222090  1.0  0.1383
  C  C202  1  0.993620  0.922000  0.142600  1.0  0.0237
  C  C203  1  0.015930  0.005000  0.128280  1.0  -0.1661
  C  C204  1  0.279490  0.162600  0.328630  1.0  0.1382
  C  C205  1  0.354300  0.239600  0.321410  1.0  0.0058
  C  C206  1  0.307460  0.249400  0.267440  1.0  -0.1362
  C  C207  1  0.121850  0.441800  0.108390  1.0  0.1385
  C  C208  1  0.030030  0.491400  0.076170  1.0  0.019
  C  C209  1  0.031520  0.403800  0.103650  1.0  -0.1159
  C  C210  1  0.890900  0.739800  0.162040  1.0  0.6618
  C  C211  1  0.846380  0.672350  0.116140  1.0  -0.159
  C  C212  1  0.865520  0.592270  0.091450  1.0  -0.0233
  C  C213  1  0.823590  0.535320  0.045920  1.0  -0.0878
  C  C214  1  0.843600  0.460490  0.011620  1.0  0.6695
  C  C215  1  0.762020  0.554550  0.028130  1.0  -0.0759
  C  C216  1  0.741640  0.631800  0.053720  1.0  0.0169
  C  C217  1  0.785060  0.692400  0.096320  1.0  -0.0646
  C  C218  1  0.676480  0.650820  0.036100  1.0  0.0629
  C  C219  1  0.652720  0.746690  0.022110  1.0  -0.1199
  C  C220  1  0.591900  0.764460  0.005060  1.0  -0.0945
  C  C221  1  0.552290  0.687330  0.003340  1.0  -0.1754
  C  C222  1  0.487430  0.707340  0.990420  1.0  0.7051
  C  C223  1  0.576080  0.591230  0.017460  1.0  -0.0661
  C  C224  1  0.636720  0.573030  0.032530  1.0  -0.1248
  C  C225  1  0.422020  0.700790  0.348200  1.0  -0.2721
  C  C226  1  0.396800  0.616580  0.314000  1.0  0.1588
  C  C227  1  0.336520  0.613200  0.275300  1.0  -0.2279
  C  C228  1  0.301350  0.696800  0.270640  1.0  0.1721
  C  C229  1  0.324860  0.781270  0.304740  1.0  -0.1945
  C  C230  1  0.384700  0.782590  0.342890  1.0  0.1511
  C  C231  1  0.429980  0.463210  0.277910  1.0  0.1385
  C  C232  1  0.506380  0.422000  0.357400  1.0  0.0236
  C  C233  1  0.484070  0.505000  0.371720  1.0  -0.166
  C  C234  1  0.220510  0.662600  0.171370  1.0  0.1381
  C  C235  1  0.145700  0.739600  0.178590  1.0  0.0048
  C  C236  1  0.192540  0.749400  0.232560  1.0  -0.1353
  C  C237  1  0.378150  0.941800  0.391610  1.0  0.1405
  C  C238  1  0.469970  0.991400  0.423830  1.0  0.0199
  C  C239  1  0.468480  0.903800  0.396350  1.0  -0.122
  C  C240  1  0.609100  0.239800  0.337960  1.0  0.6611
  C  C241  1  0.653620  0.172350  0.383860  1.0  -0.1594
  C  C242  1  0.634480  0.092270  0.408550  1.0  -0.0125
  C  C243  1  0.676410  0.035320  0.454080  1.0  -0.0863
  C  C244  1  0.656400  0.960490  0.488380  1.0  0.6709
  C  C245  1  0.737980  0.054550  0.471870  1.0  -0.0748
  C  C246  1  0.758360  0.131800  0.446280  1.0  0.018
  C  C247  1  0.714940  0.192400  0.403680  1.0  -0.0652
  C  C248  1  0.823520  0.150820  0.463900  1.0  0.061
  C  C249  1  0.847280  0.246690  0.477890  1.0  -0.1194
  C  C250  1  0.908100  0.264460  0.494940  1.0  -0.0946
  C  C251  1  0.947710  0.187330  0.496660  1.0  -0.1757
  C  C252  1  0.012570  0.207340  0.509580  1.0  0.7045
  C  C253  1  0.923920  0.091230  0.482540  1.0  -0.067
  C  C254  1  0.863280  0.073030  0.467470  1.0  -0.1222
  C  C255  1  0.922020  0.200790  0.348200  1.0  -0.2721
  C  C256  1  0.896800  0.116580  0.314000  1.0  0.1588
  C  C257  1  0.836520  0.113200  0.275300  1.0  -0.2279
  C  C258  1  0.801350  0.196800  0.270640  1.0  0.1721
  C  C259  1  0.824860  0.281270  0.304740  1.0  -0.1945
  C  C260  1  0.884700  0.282590  0.342890  1.0  0.1511
  C  C261  1  0.929980  0.963210  0.277910  1.0  0.1383
  C  C262  1  0.006380  0.922000  0.357400  1.0  0.0236
  C  C263  1  0.984070  0.005000  0.371720  1.0  -0.166
  C  C264  1  0.720510  0.162600  0.171370  1.0  0.1381
  C  C265  1  0.645700  0.239600  0.178590  1.0  0.0048
  C  C266  1  0.692540  0.249400  0.232560  1.0  -0.1353
  C  C267  1  0.878150  0.441800  0.391610  1.0  0.1405
  C  C268  1  0.969970  0.491400  0.423830  1.0  0.0199
  C  C269  1  0.968480  0.403800  0.396350  1.0  -0.122
  C  C270  1  0.109100  0.739800  0.337960  1.0  0.6611
  C  C271  1  0.153620  0.672350  0.383860  1.0  -0.1594
  C  C272  1  0.134480  0.592270  0.408550  1.0  -0.0199
  C  C273  1  0.176410  0.535320  0.454080  1.0  -0.0863
  C  C274  1  0.156400  0.460490  0.488380  1.0  0.6709
  C  C275  1  0.237980  0.554550  0.471870  1.0  -0.0755
  C  C276  1  0.258360  0.631800  0.446280  1.0  0.018
  C  C277  1  0.214940  0.692400  0.403680  1.0  -0.0652
  C  C278  1  0.323520  0.650820  0.463900  1.0  0.061
  C  C279  1  0.347280  0.746690  0.477890  1.0  -0.1194
  C  C280  1  0.408100  0.764460  0.494940  1.0  -0.0951
  C  C281  1  0.447710  0.687330  0.496660  1.0  -0.1757
  C  C282  1  0.512570  0.707340  0.509580  1.0  0.7045
  C  C283  1  0.423920  0.591230  0.482540  1.0  -0.067
  C  C284  1  0.363280  0.573030  0.467470  1.0  -0.1222
  C  C285  1  0.422020  0.299210  0.848200  1.0  -0.2717
  C  C286  1  0.396800  0.383420  0.814000  1.0  0.1588
  C  C287  1  0.336520  0.386800  0.775300  1.0  -0.2285
  C  C288  1  0.301350  0.303200  0.770640  1.0  0.1724
  C  C289  1  0.324860  0.218730  0.804740  1.0  -0.194
  C  C290  1  0.384700  0.217410  0.842890  1.0  0.1505
  C  C291  1  0.429980  0.536790  0.777910  1.0  0.1385
  C  C292  1  0.506380  0.578000  0.857400  1.0  0.024
  C  C293  1  0.484070  0.495000  0.871720  1.0  -0.1682
  C  C294  1  0.220510  0.337400  0.671370  1.0  0.1382
  C  C295  1  0.145700  0.260400  0.678590  1.0  0.0049
  C  C296  1  0.192540  0.250600  0.732560  1.0  -0.1367
  C  C297  1  0.378150  0.058200  0.891610  1.0  0.1404
  C  C298  1  0.469970  0.008600  0.923830  1.0  0.0199
  C  C299  1  0.468480  0.096200  0.896350  1.0  -0.1287
  C  C300  1  0.609100  0.760200  0.837960  1.0  0.6623
  C  C301  1  0.653620  0.827650  0.883860  1.0  -0.1586
  C  C302  1  0.634480  0.907730  0.908550  1.0  -0.0195
  C  C303  1  0.676410  0.964680  0.954080  1.0  -0.0857
  C  C304  1  0.656400  0.039510  0.988380  1.0  0.6707
  C  C305  1  0.737980  0.945450  0.971870  1.0  -0.0753
  C  C306  1  0.758360  0.868200  0.946280  1.0  0.0179
  C  C307  1  0.714940  0.807600  0.903680  1.0  -0.0646
  C  C308  1  0.823520  0.849180  0.963900  1.0  0.0608
  C  C309  1  0.847280  0.753310  0.977890  1.0  -0.1252
  C  C310  1  0.908100  0.735540  0.994940  1.0  -0.0959
  C  C311  1  0.947710  0.812670  0.996660  1.0  -0.1763
  C  C312  1  0.012570  0.792660  0.009580  1.0  0.7043
  C  C313  1  0.923920  0.908770  0.982540  1.0  -0.0676
  C  C314  1  0.863280  0.926970  0.967470  1.0  -0.123
  C  C315  1  0.922020  0.799210  0.848200  1.0  -0.2717
  C  C316  1  0.896800  0.883420  0.814000  1.0  0.1588
  C  C317  1  0.836520  0.886800  0.775300  1.0  -0.2285
  C  C318  1  0.801350  0.803200  0.770640  1.0  0.1724
  C  C319  1  0.824860  0.718730  0.804740  1.0  -0.194
  C  C320  1  0.884700  0.717410  0.842890  1.0  0.1505
  C  C321  1  0.929980  0.036790  0.777910  1.0  0.1385
  C  C322  1  0.006380  0.078000  0.857400  1.0  0.024
  C  C323  1  0.984070  0.995000  0.871720  1.0  -0.1682
  C  C324  1  0.720510  0.837400  0.671370  1.0  0.1382
  C  C325  1  0.645700  0.760400  0.678590  1.0  0.0049
  C  C326  1  0.692540  0.750600  0.732560  1.0  -0.1367
  C  C327  1  0.878150  0.558200  0.891610  1.0  0.1404
  C  C328  1  0.969970  0.508600  0.923830  1.0  0.0199
  C  C329  1  0.968480  0.596200  0.896350  1.0  -0.1225
  C  C330  1  0.109100  0.260200  0.837960  1.0  0.6623
  C  C331  1  0.153620  0.327650  0.883860  1.0  -0.1586
  C  C332  1  0.134480  0.407730  0.908550  1.0  -0.0195
  C  C333  1  0.176410  0.464680  0.954080  1.0  -0.0857
  C  C334  1  0.156400  0.539510  0.988380  1.0  0.6707
  C  C335  1  0.237980  0.445450  0.971870  1.0  -0.0753
  C  C336  1  0.258360  0.368200  0.946280  1.0  0.0179
  C  C337  1  0.214940  0.307600  0.903680  1.0  -0.0646
  C  C338  1  0.323520  0.349180  0.963900  1.0  0.0608
  C  C339  1  0.347280  0.253310  0.977890  1.0  -0.1252
  C  C340  1  0.408100  0.235540  0.994940  1.0  -0.0959
  C  C341  1  0.447710  0.312670  0.996660  1.0  -0.1763
  C  C342  1  0.512570  0.292660  0.009580  1.0  0.7043
  C  C343  1  0.423920  0.408770  0.982540  1.0  -0.0676
  C  C344  1  0.363280  0.426970  0.967470  1.0  -0.123
  C  C345  1  0.577980  0.299210  0.651800  1.0  -0.272
  C  C346  1  0.603200  0.383420  0.686000  1.0  0.1594
  C  C347  1  0.663480  0.386800  0.724700  1.0  -0.227
  C  C348  1  0.698650  0.303200  0.729360  1.0  0.1715
  C  C349  1  0.675140  0.218730  0.695260  1.0  -0.1925
  C  C350  1  0.615300  0.217410  0.657110  1.0  0.1545
  C  C351  1  0.570020  0.536790  0.722090  1.0  0.1388
  C  C352  1  0.493620  0.578000  0.642600  1.0  0.0243
  C  C353  1  0.515930  0.495000  0.628280  1.0  -0.1658
  C  C354  1  0.779490  0.337400  0.828630  1.0  0.139
  C  C355  1  0.854300  0.260400  0.821410  1.0  0.0056
  C  C356  1  0.807460  0.250600  0.767440  1.0  -0.1382
  C  C357  1  0.621850  0.058200  0.608390  1.0  0.1379
  C  C358  1  0.530030  0.008600  0.576170  1.0  0.0213
  C  C359  1  0.531520  0.096200  0.603650  1.0  -0.1169
  C  C360  1  0.390900  0.760200  0.662040  1.0  0.662
  C  C361  1  0.346380  0.827650  0.616140  1.0  -0.1582
  C  C362  1  0.365520  0.907730  0.591450  1.0  -0.0234
  C  C363  1  0.323590  0.964680  0.545920  1.0  -0.0875
  C  C364  1  0.343600  0.039510  0.511620  1.0  0.6732
  C  C365  1  0.262020  0.945450  0.528130  1.0  -0.0763
  C  C366  1  0.241640  0.868200  0.553720  1.0  0.017
  C  C367  1  0.285060  0.807600  0.596320  1.0  -0.0646
  C  C368  1  0.176480  0.849180  0.536100  1.0  0.0625
  C  C369  1  0.152720  0.753310  0.522110  1.0  -0.1219
  C  C370  1  0.091900  0.735540  0.505060  1.0  -0.0957
  C  C371  1  0.052290  0.812670  0.503340  1.0  -0.1755
  C  C372  1  0.987430  0.792660  0.490420  1.0  0.705
  C  C373  1  0.076080  0.908770  0.517460  1.0  -0.0671
  C  C374  1  0.136720  0.926970  0.532530  1.0  -0.1247
  C  C375  1  0.077980  0.799210  0.651800  1.0  -0.272
  C  C376  1  0.103200  0.883420  0.686000  1.0  0.1594
  C  C377  1  0.163480  0.886800  0.724700  1.0  -0.227
  C  C378  1  0.198650  0.803200  0.729360  1.0  0.1715
  C  C379  1  0.175140  0.718730  0.695260  1.0  -0.1925
  C  C380  1  0.115300  0.717410  0.657110  1.0  0.1545
  C  C381  1  0.070020  0.036790  0.722090  1.0  0.1388
  C  C382  1  0.993620  0.078000  0.642600  1.0  0.0243
  C  C383  1  0.015930  0.995000  0.628280  1.0  -0.1658
  C  C384  1  0.279490  0.837400  0.828630  1.0  0.139
  C  C385  1  0.354300  0.760400  0.821410  1.0  0.0056
  C  C386  1  0.307460  0.750600  0.767440  1.0  -0.1382
  C  C387  1  0.121850  0.558200  0.608390  1.0  0.1379
  C  C388  1  0.030030  0.508600  0.576170  1.0  0.0213
  C  C389  1  0.031520  0.596200  0.603650  1.0  -0.1159
  C  C390  1  0.890900  0.260200  0.662040  1.0  0.662
  C  C391  1  0.846380  0.327650  0.616140  1.0  -0.1582
  C  C392  1  0.865520  0.407730  0.591450  1.0  -0.024
  C  C393  1  0.823590  0.464680  0.545920  1.0  -0.0875
  C  C394  1  0.843600  0.539510  0.511620  1.0  0.6732
  C  C395  1  0.762020  0.445450  0.528130  1.0  -0.0763
  C  C396  1  0.741640  0.368200  0.553720  1.0  0.017
  C  C397  1  0.785060  0.307600  0.596320  1.0  -0.0646
  C  C398  1  0.676480  0.349180  0.536100  1.0  0.0625
  C  C399  1  0.652720  0.253310  0.522110  1.0  -0.1219
  C  C400  1  0.591900  0.235540  0.505060  1.0  -0.0956
  C  C401  1  0.552290  0.312670  0.503340  1.0  -0.1755
  C  C402  1  0.487430  0.292660  0.490420  1.0  0.705
  C  C403  1  0.576080  0.408770  0.517460  1.0  -0.0671
  C  C404  1  0.636720  0.426970  0.532530  1.0  -0.1247
  N  N405  1  0.527070  0.395890  0.201300  1.0  -0.3513
  N  N406  1  0.565480  0.531010  0.179100  1.0  0.0406
  N  N407  1  0.835950  0.685400  0.359340  1.0  -0.3271
  N  N408  1  0.759820  0.699610  0.271690  1.0  0.0474
  N  N409  1  0.586590  0.015050  0.079440  1.0  -0.3373
  N  N410  1  0.590420  0.871340  0.124360  1.0  0.0278
  N  N411  1  0.027070  0.895890  0.201300  1.0  -0.3513
  N  N412  1  0.065480  0.031010  0.179100  1.0  0.0406
  N  N413  1  0.335950  0.185400  0.359340  1.0  -0.3271
  N  N414  1  0.259820  0.199610  0.271690  1.0  0.0474
  N  N415  1  0.086590  0.515050  0.079440  1.0  -0.3373
  N  N416  1  0.090420  0.371340  0.124360  1.0  0.0278
  N  N417  1  0.472930  0.395890  0.298700  1.0  -0.3512
  N  N418  1  0.434520  0.531010  0.320900  1.0  0.0407
  N  N419  1  0.164050  0.685400  0.140660  1.0  -0.3284
  N  N420  1  0.240180  0.699610  0.228310  1.0  0.0466
  N  N421  1  0.413410  0.015050  0.420560  1.0  -0.338
  N  N422  1  0.409580  0.871340  0.375640  1.0  0.0288
  N  N423  1  0.972930  0.895890  0.298700  1.0  -0.3512
  N  N424  1  0.934520  0.031010  0.320900  1.0  0.0407
  N  N425  1  0.664050  0.185400  0.140660  1.0  -0.3284
  N  N426  1  0.740180  0.199610  0.228310  1.0  0.0466
  N  N427  1  0.913410  0.515050  0.420560  1.0  -0.338
  N  N428  1  0.909580  0.371340  0.375640  1.0  0.0288
  N  N429  1  0.472930  0.604110  0.798700  1.0  -0.3515
  N  N430  1  0.434520  0.468990  0.820900  1.0  0.0407
  N  N431  1  0.164050  0.314600  0.640660  1.0  -0.3284
  N  N432  1  0.240180  0.300390  0.728310  1.0  0.0465
  N  N433  1  0.413410  0.984950  0.920560  1.0  -0.3383
  N  N434  1  0.409580  0.128660  0.875640  1.0  0.0288
  N  N435  1  0.972930  0.104110  0.798700  1.0  -0.3515
  N  N436  1  0.934520  0.968990  0.820900  1.0  0.0407
  N  N437  1  0.664050  0.814600  0.640660  1.0  -0.3284
  N  N438  1  0.740180  0.800390  0.728310  1.0  0.0465
  N  N439  1  0.913410  0.484950  0.920560  1.0  -0.3383
  N  N440  1  0.909580  0.628660  0.875640  1.0  0.0288
  N  N441  1  0.527070  0.604110  0.701300  1.0  -0.352
  N  N442  1  0.565480  0.468990  0.679100  1.0  0.0408
  N  N443  1  0.835950  0.314600  0.859340  1.0  -0.3269
  N  N444  1  0.759820  0.300390  0.771690  1.0  0.0475
  N  N445  1  0.586590  0.984950  0.579440  1.0  -0.3375
  N  N446  1  0.590420  0.128660  0.624360  1.0  0.027
  N  N447  1  0.027070  0.104110  0.701300  1.0  -0.352
  N  N448  1  0.065480  0.968990  0.679100  1.0  0.0408
  N  N449  1  0.335950  0.814600  0.859340  1.0  -0.3269
  N  N450  1  0.259820  0.800390  0.771690  1.0  0.0475
  N  N451  1  0.086590  0.484950  0.579440  1.0  -0.3375
  N  N452  1  0.090420  0.628660  0.624360  1.0  0.027
  O  O453  1  0.443530  0.205000  0.191240  1.0  -0.5866
  O  O454  1  0.375350  0.324420  0.170410  1.0  -0.6106
  O  O455  1  0.395940  0.924040  0.035240  1.0  -0.5698
  O  O456  1  0.308410  0.939330  0.957910  1.0  -0.5636
  O  O457  1  0.959580  0.144680  0.007880  1.0  -0.5639
  O  O458  1  0.965030  0.288220  0.964070  1.0  -0.5962
  O  O459  1  0.943530  0.705000  0.191240  1.0  -0.5866
  O  O460  1  0.875350  0.824420  0.170410  1.0  -0.6106
  O  O461  1  0.895940  0.424040  0.035240  1.0  -0.5698
  O  O462  1  0.808410  0.439330  0.957910  1.0  -0.5636
  O  O463  1  0.459580  0.644680  0.007880  1.0  -0.5639
  O  O464  1  0.465030  0.788220  0.964070  1.0  -0.5962
  O  O465  1  0.556470  0.205000  0.308760  1.0  -0.5869
  O  O466  1  0.624650  0.324420  0.329590  1.0  -0.6086
  O  O467  1  0.604060  0.924040  0.464760  1.0  -0.5683
  O  O468  1  0.691590  0.939330  0.542090  1.0  -0.5647
  O  O469  1  0.040420  0.144680  0.492120  1.0  -0.5628
  O  O470  1  0.034970  0.288220  0.535930  1.0  -0.5972
  O  O471  1  0.056470  0.705000  0.308760  1.0  -0.5869
  O  O472  1  0.124650  0.824420  0.329590  1.0  -0.6086
  O  O473  1  0.104060  0.424040  0.464760  1.0  -0.5683
  O  O474  1  0.191590  0.439330  0.542090  1.0  -0.5641
  O  O475  1  0.540420  0.644680  0.492120  1.0  -0.5628
  O  O476  1  0.534970  0.788220  0.535930  1.0  -0.5972
  O  O477  1  0.556470  0.795000  0.808760  1.0  -0.5876
  O  O478  1  0.624650  0.675580  0.829590  1.0  -0.6069
  O  O479  1  0.604060  0.075960  0.964760  1.0  -0.5696
  O  O480  1  0.691590  0.060670  0.042090  1.0  -0.5632
  O  O481  1  0.040420  0.855320  0.992120  1.0  -0.563
  O  O482  1  0.034970  0.711780  0.035930  1.0  -0.5971
  O  O483  1  0.056470  0.295000  0.808760  1.0  -0.5876
  O  O484  1  0.124650  0.175580  0.829590  1.0  -0.6069
  O  O485  1  0.104060  0.575960  0.964760  1.0  -0.5696
  O  O486  1  0.191590  0.560670  0.042090  1.0  -0.5632
  O  O487  1  0.540420  0.355320  0.992120  1.0  -0.563
  O  O488  1  0.534970  0.211780  0.035930  1.0  -0.5971
  O  O489  1  0.443530  0.795000  0.691240  1.0  -0.5878
  O  O490  1  0.375350  0.675580  0.670410  1.0  -0.6093
  O  O491  1  0.395940  0.075960  0.535240  1.0  -0.5709
  O  O492  1  0.308410  0.060670  0.457910  1.0  -0.5621
  O  O493  1  0.959580  0.855320  0.507880  1.0  -0.5641
  O  O494  1  0.965030  0.711780  0.464070  1.0  -0.5957
  O  O495  1  0.943530  0.295000  0.691240  1.0  -0.5878
  O  O496  1  0.875350  0.175580  0.670410  1.0  -0.6093
  O  O497  1  0.895940  0.575960  0.535240  1.0  -0.5709
  O  O498  1  0.808410  0.560670  0.457910  1.0  -0.5621
  O  O499  1  0.459580  0.355320  0.507880  1.0  -0.5641
  O  O500  1  0.465030  0.211780  0.464070  1.0  -0.5957
