# generated using pymatgen
data_Ni3H38C60(NO)12
_symmetry_space_group_name_H-M   'P 1'
_cell_length_a   23.40920000
_cell_length_b   13.38650000
_cell_length_c   25.29540000
_cell_angle_alpha   90.00000000
_cell_angle_beta   114.82300000
_cell_angle_gamma   90.00000000
_symmetry_Int_Tables_number   1
_chemical_formula_structural   Ni3H38C60(NO)12
_chemical_formula_sum   'Ni12 H152 C240 N48 O48'
_cell_volume   7194.38992587
_cell_formula_units_Z   4
loop_
 _symmetry_equiv_pos_site_id
 _symmetry_equiv_pos_as_xyz
  1  'x, y, z'
loop_
 _atom_site_type_symbol
 _atom_site_label
 _atom_site_symmetry_multiplicity
 _atom_site_fract_x
 _atom_site_fract_y
 _atom_site_fract_z
 _atom_site_occupancy
 _atom_site_charge
  Ni  Ni1  1  0.879480  0.351820  0.450010  1.0  0.7434
  Ni  Ni2  1  0.379480  0.851820  0.450010  1.0  0.7434
  Ni  Ni3  1  0.120520  0.351820  0.049990  1.0  0.7429
  Ni  Ni4  1  0.620520  0.851820  0.049990  1.0  0.7429
  Ni  Ni5  1  0.120520  0.648180  0.549990  1.0  0.7433
  Ni  Ni6  1  0.620520  0.148180  0.549990  1.0  0.7433
  Ni  Ni7  1  0.879480  0.648180  0.950010  1.0  0.7428
  Ni  Ni8  1  0.379480  0.148180  0.950010  1.0  0.7428
  Ni  Ni9  1  0.000000  0.806500  0.750000  1.0  0.7819
  Ni  Ni10  1  0.500000  0.306500  0.750000  1.0  0.7819
  Ni  Ni11  1  0.000000  0.193500  0.250000  1.0  0.7818
  Ni  Ni12  1  0.500000  0.693500  0.250000  1.0  0.7818
  H  H13  1  0.964700  0.210800  0.879400  1.0  0.1251
  H  H14  1  0.823800  0.062100  0.752400  1.0  0.1313
  H  H15  1  0.794100  0.338100  0.798900  1.0  0.1258
  H  H16  1  0.912200  0.983500  0.743300  1.0  0.0967
  H  H17  1  0.050400  0.893800  0.886800  1.0  0.0965
  H  H18  1  0.004900  0.039400  0.911500  1.0  0.1217
  H  H19  1  0.749300  0.139000  0.655900  1.0  0.1036
  H  H20  1  0.596300  0.248800  0.657900  1.0  0.1226
  H  H21  1  0.680300  0.269400  0.756500  1.0  0.1276
  H  H22  1  0.829000  0.441100  0.881600  1.0  0.1089
  H  H23  1  0.002500  0.538300  0.945700  1.0  0.1101
  H  H24  1  0.001300  0.381100  0.897600  1.0  0.1329
  H  H25  1  0.789900  0.737000  0.624600  1.0  0.1116
  H  H26  1  0.919500  0.565700  0.603400  1.0  0.1098
  H  H27  1  0.736000  0.523200  0.502000  1.0  0.1094
  H  H28  1  0.686200  0.803200  0.533000  1.0  0.1058
  H  H29  1  0.658100  0.511900  0.548700  1.0  0.1132
  H  H30  1  0.553000  0.539800  0.520500  1.0  0.109
  H  H31  1  0.579400  0.829900  0.497700  1.0  0.0917
  H  H32  1  0.464700  0.710800  0.879400  1.0  0.1251
  H  H33  1  0.323800  0.562100  0.752400  1.0  0.1313
  H  H34  1  0.294100  0.838100  0.798900  1.0  0.1258
  H  H35  1  0.412200  0.483500  0.743300  1.0  0.0967
  H  H36  1  0.550400  0.393800  0.886800  1.0  0.0948
  H  H37  1  0.504900  0.539400  0.911500  1.0  0.1217
  H  H38  1  0.249300  0.639000  0.655900  1.0  0.1036
  H  H39  1  0.096300  0.748800  0.657900  1.0  0.1226
  H  H40  1  0.180300  0.769400  0.756500  1.0  0.1276
  H  H41  1  0.329000  0.941100  0.881600  1.0  0.1089
  H  H42  1  0.502500  0.038300  0.945700  1.0  0.1098
  H  H43  1  0.501300  0.881100  0.897600  1.0  0.1329
  H  H44  1  0.289900  0.237000  0.624600  1.0  0.1116
  H  H45  1  0.419500  0.065700  0.603400  1.0  0.1119
  H  H46  1  0.236000  0.023200  0.502000  1.0  0.1094
  H  H47  1  0.186200  0.303200  0.533000  1.0  0.1058
  H  H48  1  0.158100  0.011900  0.548700  1.0  0.1132
  H  H49  1  0.053000  0.039800  0.520500  1.0  0.109
  H  H50  1  0.079400  0.329900  0.497700  1.0  0.0917
  H  H51  1  0.035300  0.210800  0.620600  1.0  0.1255
  H  H52  1  0.176200  0.062100  0.747600  1.0  0.1308
  H  H53  1  0.205900  0.338100  0.701100  1.0  0.1246
  H  H54  1  0.087800  0.983500  0.756700  1.0  0.0978
  H  H55  1  0.949600  0.893800  0.613200  1.0  0.097
  H  H56  1  0.995100  0.039400  0.588500  1.0  0.1223
  H  H57  1  0.250700  0.139000  0.844100  1.0  0.1034
  H  H58  1  0.403700  0.248800  0.842100  1.0  0.1216
  H  H59  1  0.319700  0.269400  0.743500  1.0  0.1298
  H  H60  1  0.171000  0.441100  0.618400  1.0  0.112
  H  H61  1  0.997500  0.538300  0.554300  1.0  0.11
  H  H62  1  0.998700  0.381100  0.602400  1.0  0.1316
  H  H63  1  0.210100  0.737000  0.875400  1.0  0.1115
  H  H64  1  0.080500  0.565700  0.896600  1.0  0.1118
  H  H65  1  0.264000  0.523200  0.998000  1.0  0.11
  H  H66  1  0.313800  0.803200  0.967000  1.0  0.1058
  H  H67  1  0.341900  0.511900  0.951300  1.0  0.1138
  H  H68  1  0.447000  0.539800  0.979500  1.0  0.109
  H  H69  1  0.420600  0.829900  0.002300  1.0  0.0918
  H  H70  1  0.535300  0.710800  0.620600  1.0  0.1255
  H  H71  1  0.676200  0.562100  0.747600  1.0  0.1308
  H  H72  1  0.705900  0.838100  0.701100  1.0  0.1246
  H  H73  1  0.587800  0.483500  0.756700  1.0  0.0978
  H  H74  1  0.449600  0.393800  0.613200  1.0  0.0971
  H  H75  1  0.495100  0.539400  0.588500  1.0  0.1223
  H  H76  1  0.750700  0.639000  0.844100  1.0  0.1034
  H  H77  1  0.903700  0.748800  0.842100  1.0  0.1216
  H  H78  1  0.819700  0.769400  0.743500  1.0  0.1298
  H  H79  1  0.671000  0.941100  0.618400  1.0  0.112
  H  H80  1  0.497500  0.038300  0.554300  1.0  0.11
  H  H81  1  0.498700  0.881100  0.602400  1.0  0.1317
  H  H82  1  0.710100  0.237000  0.875400  1.0  0.1115
  H  H83  1  0.580500  0.065700  0.896600  1.0  0.1119
  H  H84  1  0.764000  0.023200  0.998000  1.0  0.11
  H  H85  1  0.813800  0.303200  0.967000  1.0  0.1058
  H  H86  1  0.841900  0.011900  0.951300  1.0  0.1138
  H  H87  1  0.947000  0.039800  0.979500  1.0  0.109
  H  H88  1  0.920600  0.329900  0.002300  1.0  0.0918
  H  H89  1  0.035300  0.789200  0.120600  1.0  0.1253
  H  H90  1  0.176200  0.937900  0.247600  1.0  0.1317
  H  H91  1  0.205900  0.661900  0.201100  1.0  0.1239
  H  H92  1  0.087800  0.016500  0.256700  1.0  0.0981
  H  H93  1  0.949600  0.106200  0.113200  1.0  0.099
  H  H94  1  0.995100  0.960600  0.088500  1.0  0.1223
  H  H95  1  0.250700  0.861000  0.344100  1.0  0.1031
  H  H96  1  0.403700  0.751200  0.342100  1.0  0.1223
  H  H97  1  0.319700  0.730600  0.243500  1.0  0.1307
  H  H98  1  0.171000  0.558900  0.118400  1.0  0.1122
  H  H99  1  0.997500  0.461700  0.054300  1.0  0.1096
  H  H100  1  0.998700  0.618900  0.102400  1.0  0.1308
  H  H101  1  0.210100  0.263000  0.375400  1.0  0.1112
  H  H102  1  0.080500  0.434300  0.396600  1.0  0.1121
  H  H103  1  0.264000  0.476800  0.498000  1.0  0.1107
  H  H104  1  0.313800  0.196800  0.467000  1.0  0.1057
  H  H105  1  0.341900  0.488100  0.451300  1.0  0.1136
  H  H106  1  0.447000  0.460200  0.479500  1.0  0.1091
  H  H107  1  0.420600  0.170100  0.502300  1.0  0.0918
  H  H108  1  0.535300  0.289200  0.120600  1.0  0.1253
  H  H109  1  0.676200  0.437900  0.247600  1.0  0.1317
  H  H110  1  0.705900  0.161900  0.201100  1.0  0.1239
  H  H111  1  0.587800  0.516500  0.256700  1.0  0.0981
  H  H112  1  0.449600  0.606200  0.113200  1.0  0.0969
  H  H113  1  0.495100  0.460600  0.088500  1.0  0.1223
  H  H114  1  0.750700  0.361000  0.344100  1.0  0.1031
  H  H115  1  0.903700  0.251200  0.342100  1.0  0.1223
  H  H116  1  0.819700  0.230600  0.243500  1.0  0.1307
  H  H117  1  0.671000  0.058900  0.118400  1.0  0.1122
  H  H118  1  0.497500  0.961700  0.054300  1.0  0.1096
  H  H119  1  0.498700  0.118900  0.102400  1.0  0.1308
  H  H120  1  0.710100  0.763000  0.375400  1.0  0.1112
  H  H121  1  0.580500  0.934300  0.396600  1.0  0.1121
  H  H122  1  0.764000  0.976800  0.498000  1.0  0.1107
  H  H123  1  0.813800  0.696800  0.467000  1.0  0.1057
  H  H124  1  0.841900  0.988100  0.451300  1.0  0.1136
  H  H125  1  0.947000  0.960200  0.479500  1.0  0.1091
  H  H126  1  0.920600  0.670100  0.502300  1.0  0.0918
  H  H127  1  0.964700  0.789200  0.379400  1.0  0.1248
  H  H128  1  0.823800  0.937900  0.252400  1.0  0.1321
  H  H129  1  0.794100  0.661900  0.298900  1.0  0.1242
  H  H130  1  0.912200  0.016500  0.243300  1.0  0.0969
  H  H131  1  0.050400  0.106200  0.386800  1.0  0.0986
  H  H132  1  0.004900  0.960600  0.411500  1.0  0.1203
  H  H133  1  0.749300  0.861000  0.155900  1.0  0.103
  H  H134  1  0.596300  0.751200  0.157900  1.0  0.1224
  H  H135  1  0.680300  0.730600  0.256500  1.0  0.1285
  H  H136  1  0.829000  0.558900  0.381600  1.0  0.1087
  H  H137  1  0.002500  0.461700  0.445700  1.0  0.11
  H  H138  1  0.001300  0.618900  0.397600  1.0  0.1326
  H  H139  1  0.789900  0.263000  0.124600  1.0  0.1118
  H  H140  1  0.919500  0.434300  0.103400  1.0  0.1112
  H  H141  1  0.736000  0.476800  0.002000  1.0  0.1101
  H  H142  1  0.686200  0.196800  0.033000  1.0  0.106
  H  H143  1  0.658100  0.488100  0.048700  1.0  0.1127
  H  H144  1  0.553000  0.460200  0.020500  1.0  0.1094
  H  H145  1  0.579400  0.170100  0.997700  1.0  0.0912
  H  H146  1  0.464700  0.289200  0.379400  1.0  0.1248
  H  H147  1  0.323800  0.437900  0.252400  1.0  0.1321
  H  H148  1  0.294100  0.161900  0.298900  1.0  0.1242
  H  H149  1  0.412200  0.516500  0.243300  1.0  0.0969
  H  H150  1  0.550400  0.606200  0.386800  1.0  0.0945
  H  H151  1  0.504900  0.460600  0.411500  1.0  0.1203
  H  H152  1  0.249300  0.361000  0.155900  1.0  0.103
  H  H153  1  0.096300  0.251200  0.157900  1.0  0.1224
  H  H154  1  0.180300  0.230600  0.256500  1.0  0.1285
  H  H155  1  0.329000  0.058900  0.381600  1.0  0.1087
  H  H156  1  0.502500  0.961700  0.445700  1.0  0.1098
  H  H157  1  0.501300  0.118900  0.397600  1.0  0.1326
  H  H158  1  0.289900  0.763000  0.124600  1.0  0.1118
  H  H159  1  0.419500  0.934300  0.103400  1.0  0.1112
  H  H160  1  0.236000  0.976800  0.002000  1.0  0.1101
  H  H161  1  0.186200  0.696800  0.033000  1.0  0.106
  H  H162  1  0.158100  0.988100  0.048700  1.0  0.1127
  H  H163  1  0.053000  0.960200  0.020500  1.0  0.1094
  H  H164  1  0.079400  0.670100  0.997700  1.0  0.0912
  C  C165  1  0.923190  0.208200  0.851800  1.0  -0.2568
  C  C166  1  0.900830  0.124200  0.817160  1.0  0.1511
  C  C167  1  0.838820  0.118800  0.775430  1.0  -0.198
  C  C168  1  0.800100  0.201000  0.769300  1.0  0.1616
  C  C169  1  0.820990  0.284500  0.803380  1.0  -0.1871
  C  C170  1  0.883330  0.287900  0.844970  1.0  0.1697
  C  C171  1  0.941020  0.979000  0.782070  1.0  0.1535
  C  C172  1  0.016690  0.930700  0.860760  1.0  0.023
  C  C173  1  0.991660  0.010500  0.874850  1.0  -0.1434
  C  C174  1  0.722300  0.171800  0.668570  1.0  0.1275
  C  C175  1  0.638540  0.232500  0.670000  1.0  -0.0284
  C  C176  1  0.684240  0.241500  0.724550  1.0  -0.1133
  C  C177  1  0.872130  0.444400  0.892270  1.0  0.1333
  C  C178  1  0.967620  0.497300  0.927350  1.0  -0.0438
  C  C179  1  0.967090  0.411700  0.900490  1.0  -0.1322
  C  C180  1  0.915660  0.716600  0.669160  1.0  0.6475
  C  C181  1  0.863390  0.661100  0.620910  1.0  -0.1383
  C  C182  1  0.799900  0.685300  0.605430  1.0  -0.0653
  C  C183  1  0.877750  0.584000  0.592200  1.0  -0.0131
  C  C184  1  0.751630  0.632200  0.561440  1.0  0.0126
  C  C185  1  0.830450  0.533400  0.546800  1.0  -0.1474
  C  C186  1  0.767640  0.557600  0.532060  1.0  -0.0798
  C  C187  1  0.683790  0.653800  0.544440  1.0  0.0322
  C  C188  1  0.659380  0.749900  0.529530  1.0  -0.1234
  C  C189  1  0.642520  0.576600  0.539730  1.0  -0.1311
  C  C190  1  0.579380  0.592800  0.522220  1.0  -0.1027
  C  C191  1  0.595360  0.766100  0.509570  1.0  -0.0524
  C  C192  1  0.554510  0.689500  0.506790  1.0  -0.1409
  C  C193  1  0.485810  0.707700  0.490070  1.0  0.712
  C  C194  1  0.845670  0.458200  0.511390  1.0  0.695
  C  C195  1  0.423190  0.708200  0.851800  1.0  -0.2568
  C  C196  1  0.400830  0.624200  0.817160  1.0  0.1511
  C  C197  1  0.338820  0.618800  0.775430  1.0  -0.198
  C  C198  1  0.300100  0.701000  0.769300  1.0  0.1616
  C  C199  1  0.320990  0.784500  0.803380  1.0  -0.1871
  C  C200  1  0.383330  0.787900  0.844970  1.0  0.1697
  C  C201  1  0.441020  0.479000  0.782070  1.0  0.1535
  C  C202  1  0.516690  0.430700  0.860760  1.0  0.023
  C  C203  1  0.491660  0.510500  0.874850  1.0  -0.1434
  C  C204  1  0.222300  0.671800  0.668570  1.0  0.1275
  C  C205  1  0.138540  0.732500  0.670000  1.0  -0.0284
  C  C206  1  0.184240  0.741500  0.724550  1.0  -0.1133
  C  C207  1  0.372130  0.944400  0.892270  1.0  0.1333
  C  C208  1  0.467620  0.997300  0.927350  1.0  -0.0438
  C  C209  1  0.467090  0.911700  0.900490  1.0  -0.1322
  C  C210  1  0.415660  0.216600  0.669160  1.0  0.6475
  C  C211  1  0.363390  0.161100  0.620910  1.0  -0.1383
  C  C212  1  0.299900  0.185300  0.605430  1.0  -0.0653
  C  C213  1  0.377750  0.084000  0.592200  1.0  -0.0131
  C  C214  1  0.251630  0.132200  0.561440  1.0  0.0126
  C  C215  1  0.330450  0.033400  0.546800  1.0  -0.1474
  C  C216  1  0.267640  0.057600  0.532060  1.0  -0.0798
  C  C217  1  0.183790  0.153800  0.544440  1.0  0.0322
  C  C218  1  0.159380  0.249900  0.529530  1.0  -0.1234
  C  C219  1  0.142520  0.076600  0.539730  1.0  -0.1311
  C  C220  1  0.079380  0.092800  0.522220  1.0  -0.1027
  C  C221  1  0.095360  0.266100  0.509570  1.0  -0.0527
  C  C222  1  0.054510  0.189500  0.506790  1.0  -0.1409
  C  C223  1  0.985810  0.207700  0.490070  1.0  0.712
  C  C224  1  0.345670  0.958200  0.511390  1.0  0.695
  C  C225  1  0.076810  0.208200  0.648200  1.0  -0.2574
  C  C226  1  0.099170  0.124200  0.682840  1.0  0.1517
  C  C227  1  0.161180  0.118800  0.724570  1.0  -0.1968
  C  C228  1  0.199900  0.201000  0.730700  1.0  0.161
  C  C229  1  0.179010  0.284500  0.696620  1.0  -0.1857
  C  C230  1  0.116670  0.287900  0.655030  1.0  0.1704
  C  C231  1  0.058980  0.979000  0.717930  1.0  0.1535
  C  C232  1  0.983310  0.930700  0.639240  1.0  0.0219
  C  C233  1  0.008340  0.010500  0.625150  1.0  -0.1413
  C  C234  1  0.277700  0.171800  0.831430  1.0  0.1272
  C  C235  1  0.361460  0.232500  0.830000  1.0  -0.0276
  C  C236  1  0.315760  0.241500  0.775450  1.0  -0.1182
  C  C237  1  0.127870  0.444400  0.607730  1.0  0.1341
  C  C238  1  0.032380  0.497300  0.572650  1.0  -0.0433
  C  C239  1  0.032910  0.411700  0.599510  1.0  -0.1309
  C  C240  1  0.084340  0.716600  0.830840  1.0  0.6453
  C  C241  1  0.136610  0.661100  0.879090  1.0  -0.1356
  C  C242  1  0.200100  0.685300  0.894570  1.0  -0.0659
  C  C243  1  0.122250  0.584000  0.907800  1.0  -0.0141
  C  C244  1  0.248370  0.632200  0.938560  1.0  0.0131
  C  C245  1  0.169550  0.533400  0.953200  1.0  -0.1487
  C  C246  1  0.232360  0.557600  0.967940  1.0  -0.0799
  C  C247  1  0.316210  0.653800  0.955560  1.0  0.0309
  C  C248  1  0.340620  0.749900  0.970470  1.0  -0.1236
  C  C249  1  0.357480  0.576600  0.960270  1.0  -0.131
  C  C250  1  0.420620  0.592800  0.977780  1.0  -0.1036
  C  C251  1  0.404640  0.766100  0.990430  1.0  -0.0513
  C  C252  1  0.445490  0.689500  0.993210  1.0  -0.1397
  C  C253  1  0.514190  0.707700  0.009930  1.0  0.7118
  C  C254  1  0.154330  0.458200  0.988610  1.0  0.697
  C  C255  1  0.576810  0.708200  0.648200  1.0  -0.2574
  C  C256  1  0.599170  0.624200  0.682840  1.0  0.1517
  C  C257  1  0.661180  0.618800  0.724570  1.0  -0.1968
  C  C258  1  0.699900  0.701000  0.730700  1.0  0.161
  C  C259  1  0.679010  0.784500  0.696620  1.0  -0.1857
  C  C260  1  0.616670  0.787900  0.655030  1.0  0.1704
  C  C261  1  0.558980  0.479000  0.717930  1.0  0.1535
  C  C262  1  0.483310  0.430700  0.639240  1.0  0.0219
  C  C263  1  0.508340  0.510500  0.625150  1.0  -0.1413
  C  C264  1  0.777700  0.671800  0.831430  1.0  0.1272
  C  C265  1  0.861460  0.732500  0.830000  1.0  -0.0276
  C  C266  1  0.815760  0.741500  0.775450  1.0  -0.1182
  C  C267  1  0.627870  0.944400  0.607730  1.0  0.1341
  C  C268  1  0.532380  0.997300  0.572650  1.0  -0.0433
  C  C269  1  0.532910  0.911700  0.599510  1.0  -0.1314
  C  C270  1  0.584340  0.216600  0.830840  1.0  0.6453
  C  C271  1  0.636610  0.161100  0.879090  1.0  -0.1356
  C  C272  1  0.700100  0.185300  0.894570  1.0  -0.0659
  C  C273  1  0.622250  0.084000  0.907800  1.0  -0.0141
  C  C274  1  0.748370  0.132200  0.938560  1.0  0.0131
  C  C275  1  0.669550  0.033400  0.953200  1.0  -0.1487
  C  C276  1  0.732360  0.057600  0.967940  1.0  -0.0797
  C  C277  1  0.816210  0.153800  0.955560  1.0  0.0309
  C  C278  1  0.840620  0.249900  0.970470  1.0  -0.1236
  C  C279  1  0.857480  0.076600  0.960270  1.0  -0.131
  C  C280  1  0.920620  0.092800  0.977780  1.0  -0.1036
  C  C281  1  0.904640  0.266100  0.990430  1.0  -0.0513
  C  C282  1  0.945490  0.189500  0.993210  1.0  -0.1397
  C  C283  1  0.014190  0.207700  0.009930  1.0  0.7118
  C  C284  1  0.654330  0.958200  0.988610  1.0  0.697
  C  C285  1  0.076810  0.791800  0.148200  1.0  -0.2552
  C  C286  1  0.099170  0.875800  0.182840  1.0  0.1515
  C  C287  1  0.161180  0.881200  0.224570  1.0  -0.1971
  C  C288  1  0.199900  0.799000  0.230700  1.0  0.161
  C  C289  1  0.179010  0.715500  0.196620  1.0  -0.1857
  C  C290  1  0.116670  0.712100  0.155030  1.0  0.1716
  C  C291  1  0.058980  0.021000  0.217930  1.0  0.1539
  C  C292  1  0.983310  0.069300  0.139240  1.0  0.0223
  C  C293  1  0.008340  0.989500  0.125150  1.0  -0.1422
  C  C294  1  0.277700  0.828200  0.331430  1.0  0.1274
  C  C295  1  0.361460  0.767500  0.330000  1.0  -0.0281
  C  C296  1  0.315760  0.758500  0.275450  1.0  -0.1192
  C  C297  1  0.127870  0.555600  0.107730  1.0  0.1337
  C  C298  1  0.032380  0.502700  0.072650  1.0  -0.042
  C  C299  1  0.032910  0.588300  0.099510  1.0  -0.1316
  C  C300  1  0.084340  0.283400  0.330840  1.0  0.6445
  C  C301  1  0.136610  0.338900  0.379090  1.0  -0.1372
  C  C302  1  0.200100  0.314700  0.394570  1.0  -0.0641
  C  C303  1  0.122250  0.416000  0.407800  1.0  -0.0146
  C  C304  1  0.248370  0.367800  0.438560  1.0  0.0137
  C  C305  1  0.169550  0.466600  0.453200  1.0  -0.148
  C  C306  1  0.232360  0.442400  0.467940  1.0  -0.0808
  C  C307  1  0.316210  0.346200  0.455560  1.0  0.0313
  C  C308  1  0.340620  0.250100  0.470470  1.0  -0.1194
  C  C309  1  0.357480  0.423400  0.460270  1.0  -0.129
  C  C310  1  0.420620  0.407200  0.477780  1.0  -0.1037
  C  C311  1  0.404640  0.233900  0.490430  1.0  -0.054
  C  C312  1  0.445490  0.310500  0.493210  1.0  -0.14
  C  C313  1  0.514190  0.292300  0.509930  1.0  0.7114
  C  C314  1  0.154330  0.541800  0.488610  1.0  0.6975
  C  C315  1  0.576810  0.291800  0.148200  1.0  -0.2552
  C  C316  1  0.599170  0.375800  0.182840  1.0  0.1515
  C  C317  1  0.661180  0.381200  0.224570  1.0  -0.1971
  C  C318  1  0.699900  0.299000  0.230700  1.0  0.161
  C  C319  1  0.679010  0.215500  0.196620  1.0  -0.1857
  C  C320  1  0.616670  0.212100  0.155030  1.0  0.1716
  C  C321  1  0.558980  0.521000  0.217930  1.0  0.1539
  C  C322  1  0.483310  0.569300  0.139240  1.0  0.0223
  C  C323  1  0.508340  0.489500  0.125150  1.0  -0.1422
  C  C324  1  0.777700  0.328200  0.331430  1.0  0.1274
  C  C325  1  0.861460  0.267500  0.330000  1.0  -0.0281
  C  C326  1  0.815760  0.258500  0.275450  1.0  -0.1192
  C  C327  1  0.627870  0.055600  0.107730  1.0  0.1337
  C  C328  1  0.532380  0.002700  0.072650  1.0  -0.042
  C  C329  1  0.532910  0.088300  0.099510  1.0  -0.1311
  C  C330  1  0.584340  0.783400  0.330840  1.0  0.6445
  C  C331  1  0.636610  0.838900  0.379090  1.0  -0.1372
  C  C332  1  0.700100  0.814700  0.394570  1.0  -0.0641
  C  C333  1  0.622250  0.916000  0.407800  1.0  -0.0146
  C  C334  1  0.748370  0.867800  0.438560  1.0  0.0137
  C  C335  1  0.669550  0.966600  0.453200  1.0  -0.148
  C  C336  1  0.732360  0.942400  0.467940  1.0  -0.0808
  C  C337  1  0.816210  0.846200  0.455560  1.0  0.0313
  C  C338  1  0.840620  0.750100  0.470470  1.0  -0.1194
  C  C339  1  0.857480  0.923400  0.460270  1.0  -0.129
  C  C340  1  0.920620  0.907200  0.477780  1.0  -0.1037
  C  C341  1  0.904640  0.733900  0.490430  1.0  -0.054
  C  C342  1  0.945490  0.810500  0.493210  1.0  -0.14
  C  C343  1  0.014190  0.792300  0.509930  1.0  0.7114
  C  C344  1  0.654330  0.041800  0.488610  1.0  0.6975
  C  C345  1  0.923190  0.791800  0.351800  1.0  -0.2564
  C  C346  1  0.900830  0.875800  0.317160  1.0  0.151
  C  C347  1  0.838820  0.881200  0.275430  1.0  -0.1987
  C  C348  1  0.800100  0.799000  0.269300  1.0  0.1615
  C  C349  1  0.820990  0.715500  0.303380  1.0  -0.1863
  C  C350  1  0.883330  0.712100  0.344970  1.0  0.169
  C  C351  1  0.941020  0.021000  0.282070  1.0  0.154
  C  C352  1  0.016690  0.069300  0.360760  1.0  0.0231
  C  C353  1  0.991660  0.989500  0.374850  1.0  -0.1461
  C  C354  1  0.722300  0.828200  0.168570  1.0  0.1276
  C  C355  1  0.638540  0.767500  0.170000  1.0  -0.0284
  C  C356  1  0.684240  0.758500  0.224550  1.0  -0.1175
  C  C357  1  0.872130  0.555600  0.392270  1.0  0.1332
  C  C358  1  0.967620  0.502700  0.427350  1.0  -0.0437
  C  C359  1  0.967090  0.588300  0.400490  1.0  -0.1328
  C  C360  1  0.915660  0.283400  0.169160  1.0  0.6474
  C  C361  1  0.863390  0.338900  0.120910  1.0  -0.138
  C  C362  1  0.799900  0.314700  0.105430  1.0  -0.0644
  C  C363  1  0.877750  0.416000  0.092200  1.0  -0.0156
  C  C364  1  0.751630  0.367800  0.061440  1.0  0.0129
  C  C365  1  0.830450  0.466600  0.046800  1.0  -0.1467
  C  C366  1  0.767640  0.442400  0.032060  1.0  -0.0814
  C  C367  1  0.683790  0.346200  0.044440  1.0  0.0322
  C  C368  1  0.659380  0.250100  0.029530  1.0  -0.1243
  C  C369  1  0.642520  0.423400  0.039730  1.0  -0.1289
  C  C370  1  0.579380  0.407200  0.022220  1.0  -0.1031
  C  C371  1  0.595360  0.233900  0.009570  1.0  -0.0532
  C  C372  1  0.554510  0.310500  0.006790  1.0  -0.1404
  C  C373  1  0.485810  0.292300  0.990070  1.0  0.7112
  C  C374  1  0.845670  0.541800  0.011390  1.0  0.6979
  C  C375  1  0.423190  0.291800  0.351800  1.0  -0.2564
  C  C376  1  0.400830  0.375800  0.317160  1.0  0.151
  C  C377  1  0.338820  0.381200  0.275430  1.0  -0.1987
  C  C378  1  0.300100  0.299000  0.269300  1.0  0.1615
  C  C379  1  0.320990  0.215500  0.303380  1.0  -0.1863
  C  C380  1  0.383330  0.212100  0.344970  1.0  0.169
  C  C381  1  0.441020  0.521000  0.282070  1.0  0.154
  C  C382  1  0.516690  0.569300  0.360760  1.0  0.0231
  C  C383  1  0.491660  0.489500  0.374850  1.0  -0.1461
  C  C384  1  0.222300  0.328200  0.168570  1.0  0.1276
  C  C385  1  0.138540  0.267500  0.170000  1.0  -0.0284
  C  C386  1  0.184240  0.258500  0.224550  1.0  -0.1175
  C  C387  1  0.372130  0.055600  0.392270  1.0  0.1332
  C  C388  1  0.467620  0.002700  0.427350  1.0  -0.0437
  C  C389  1  0.467090  0.088300  0.400490  1.0  -0.1299
  C  C390  1  0.415660  0.783400  0.169160  1.0  0.6474
  C  C391  1  0.363390  0.838900  0.120910  1.0  -0.138
  C  C392  1  0.299900  0.814700  0.105430  1.0  -0.0644
  C  C393  1  0.377750  0.916000  0.092200  1.0  -0.0156
  C  C394  1  0.251630  0.867800  0.061440  1.0  0.0129
  C  C395  1  0.330450  0.966600  0.046800  1.0  -0.1467
  C  C396  1  0.267640  0.942400  0.032060  1.0  -0.0814
  C  C397  1  0.183790  0.846200  0.044440  1.0  0.0322
  C  C398  1  0.159380  0.750100  0.029530  1.0  -0.1243
  C  C399  1  0.142520  0.923400  0.039730  1.0  -0.1289
  C  C400  1  0.079380  0.907200  0.022220  1.0  -0.1031
  C  C401  1  0.095360  0.733900  0.009570  1.0  -0.0532
  C  C402  1  0.054510  0.810500  0.006790  1.0  -0.1404
  C  C403  1  0.985810  0.792300  0.990070  1.0  0.7112
  C  C404  1  0.345670  0.041800  0.011390  1.0  0.6979
  N  N405  1  0.985180  0.911000  0.801930  1.0  -0.3698
  N  N406  1  0.942080  0.041600  0.824050  1.0  0.0305
  N  N407  1  0.665130  0.195510  0.636080  1.0  -0.2849
  N  N408  1  0.737340  0.201400  0.723370  1.0  0.0519
  N  N409  1  0.909270  0.515070  0.923630  1.0  -0.2807
  N  N410  1  0.905800  0.377000  0.877630  1.0  0.042
  N  N411  1  0.485180  0.411000  0.801930  1.0  -0.3698
  N  N412  1  0.442080  0.541600  0.824050  1.0  0.0305
  N  N413  1  0.165130  0.695510  0.636080  1.0  -0.2849
  N  N414  1  0.237340  0.701400  0.723370  1.0  0.0519
  N  N415  1  0.409270  0.015070  0.923630  1.0  -0.2807
  N  N416  1  0.405800  0.877000  0.877630  1.0  0.042
  N  N417  1  0.014820  0.911000  0.698070  1.0  -0.3679
  N  N418  1  0.057920  0.041600  0.675950  1.0  0.0306
  N  N419  1  0.334870  0.195510  0.863920  1.0  -0.2867
  N  N420  1  0.262660  0.201400  0.776630  1.0  0.0517
  N  N421  1  0.090730  0.515070  0.576370  1.0  -0.2804
  N  N422  1  0.094200  0.377000  0.622370  1.0  0.0439
  N  N423  1  0.514820  0.411000  0.698070  1.0  -0.3679
  N  N424  1  0.557920  0.541600  0.675950  1.0  0.0306
  N  N425  1  0.834870  0.695510  0.863920  1.0  -0.2867
  N  N426  1  0.762660  0.701400  0.776630  1.0  0.0517
  N  N427  1  0.590730  0.015070  0.576370  1.0  -0.2804
  N  N428  1  0.594200  0.877000  0.622370  1.0  0.0439
  N  N429  1  0.014820  0.089000  0.198070  1.0  -0.3681
  N  N430  1  0.057920  0.958400  0.175950  1.0  0.0307
  N  N431  1  0.334870  0.804490  0.363920  1.0  -0.2862
  N  N432  1  0.262660  0.798600  0.276630  1.0  0.0516
  N  N433  1  0.090730  0.484930  0.076370  1.0  -0.2798
  N  N434  1  0.094200  0.623000  0.122370  1.0  0.0437
  N  N435  1  0.514820  0.589000  0.198070  1.0  -0.3681
  N  N436  1  0.557920  0.458400  0.175950  1.0  0.0307
  N  N437  1  0.834870  0.304490  0.363920  1.0  -0.2862
  N  N438  1  0.762660  0.298600  0.276630  1.0  0.0516
  N  N439  1  0.590730  0.984930  0.076370  1.0  -0.2798
  N  N440  1  0.594200  0.123000  0.122370  1.0  0.0437
  N  N441  1  0.985180  0.089000  0.301930  1.0  -0.3689
  N  N442  1  0.942080  0.958400  0.324050  1.0  0.0302
  N  N443  1  0.665130  0.804490  0.136080  1.0  -0.2858
  N  N444  1  0.737340  0.798600  0.223370  1.0  0.0519
  N  N445  1  0.909270  0.484930  0.423630  1.0  -0.2797
  N  N446  1  0.905800  0.623000  0.377630  1.0  0.0425
  N  N447  1  0.485180  0.589000  0.301930  1.0  -0.3689
  N  N448  1  0.442080  0.458400  0.324050  1.0  0.0302
  N  N449  1  0.165130  0.304490  0.136080  1.0  -0.2858
  N  N450  1  0.237340  0.298600  0.223370  1.0  0.0519
  N  N451  1  0.409270  0.984930  0.423630  1.0  -0.2797
  N  N452  1  0.405800  0.123000  0.377630  1.0  0.0425
  O  O453  1  0.902150  0.787620  0.695440  1.0  -0.5756
  O  O454  1  0.971760  0.693530  0.683220  1.0  -0.5467
  O  O455  1  0.463660  0.789680  0.465870  1.0  -0.5833
  O  O456  1  0.455640  0.642610  0.503090  1.0  -0.565
  O  O457  1  0.805900  0.438730  0.459600  1.0  -0.5604
  O  O458  1  0.898460  0.416310  0.531820  1.0  -0.5754
  O  O459  1  0.402150  0.287620  0.695440  1.0  -0.575
  O  O460  1  0.471760  0.193530  0.683220  1.0  -0.5467
  O  O461  1  0.963660  0.289680  0.465870  1.0  -0.5833
  O  O462  1  0.955640  0.142610  0.503090  1.0  -0.565
  O  O463  1  0.305900  0.938730  0.459600  1.0  -0.5608
  O  O464  1  0.398460  0.916310  0.531820  1.0  -0.5754
  O  O465  1  0.097850  0.787620  0.804560  1.0  -0.57
  O  O466  1  0.028240  0.693530  0.816780  1.0  -0.5456
  O  O467  1  0.536340  0.789680  0.034130  1.0  -0.5831
  O  O468  1  0.544360  0.642610  0.996910  1.0  -0.5651
  O  O469  1  0.194100  0.438730  0.040400  1.0  -0.5591
  O  O470  1  0.101540  0.416310  0.968180  1.0  -0.577
  O  O471  1  0.597850  0.287620  0.804560  1.0  -0.57
  O  O472  1  0.528240  0.193530  0.816780  1.0  -0.5456
  O  O473  1  0.036340  0.289680  0.034130  1.0  -0.5831
  O  O474  1  0.044360  0.142610  0.996910  1.0  -0.5651
  O  O475  1  0.694100  0.938730  0.040400  1.0  -0.5591
  O  O476  1  0.601540  0.916310  0.968180  1.0  -0.577
  O  O477  1  0.097850  0.212380  0.304560  1.0  -0.5724
  O  O478  1  0.028240  0.306470  0.316780  1.0  -0.546
  O  O479  1  0.536340  0.210320  0.534130  1.0  -0.5837
  O  O480  1  0.544360  0.357390  0.496910  1.0  -0.5646
  O  O481  1  0.194100  0.561270  0.540400  1.0  -0.5586
  O  O482  1  0.101540  0.583690  0.468180  1.0  -0.5769
  O  O483  1  0.597850  0.712380  0.304560  1.0  -0.5724
  O  O484  1  0.528240  0.806470  0.316780  1.0  -0.546
  O  O485  1  0.036340  0.710320  0.534130  1.0  -0.5837
  O  O486  1  0.044360  0.857390  0.496910  1.0  -0.5646
  O  O487  1  0.694100  0.061270  0.540400  1.0  -0.5586
  O  O488  1  0.601540  0.083690  0.468180  1.0  -0.5769
  O  O489  1  0.902150  0.212380  0.195440  1.0  -0.5773
  O  O490  1  0.971760  0.306470  0.183220  1.0  -0.5461
  O  O491  1  0.463660  0.210320  0.965870  1.0  -0.5832
  O  O492  1  0.455640  0.357390  0.003090  1.0  -0.5651
  O  O493  1  0.805900  0.561270  0.959600  1.0  -0.5588
  O  O494  1  0.898460  0.583690  0.031820  1.0  -0.5769
  O  O495  1  0.402150  0.712380  0.195440  1.0  -0.5771
  O  O496  1  0.471760  0.806470  0.183220  1.0  -0.5461
  O  O497  1  0.963660  0.710320  0.965870  1.0  -0.5832
  O  O498  1  0.955640  0.857390  0.003090  1.0  -0.5651
  O  O499  1  0.305900  0.061270  0.959600  1.0  -0.5588
  O  O500  1  0.398460  0.083690  0.031820  1.0  -0.5769
