# generated using pymatgen
data_Cu2H8C26S(NO4)2
_symmetry_space_group_name_H-M   'P 1'
_cell_length_a   18.82760000
_cell_length_b   18.82760000
_cell_length_c   54.14900000
_cell_angle_alpha   90.00000000
_cell_angle_beta   90.00000000
_cell_angle_gamma   120.00000000
_symmetry_Int_Tables_number   1
_chemical_formula_structural   Cu2H8C26S(NO4)2
_chemical_formula_sum   'Cu18 H72 C234 S9 N18 O72'
_cell_volume   16623.06099010
_cell_formula_units_Z   9
loop_
 _symmetry_equiv_pos_site_id
 _symmetry_equiv_pos_as_xyz
  1  'x, y, z'
loop_
 _atom_site_type_symbol
 _atom_site_label
 _atom_site_symmetry_multiplicity
 _atom_site_fract_x
 _atom_site_fract_y
 _atom_site_fract_z
 _atom_site_occupancy
 _atom_site_charge
  Cu  Cu1  1  0.906760  0.427290  0.936440  1.0  0.7999
  Cu  Cu2  1  0.009040  0.478320  0.984860  1.0  0.7987
  Cu  Cu3  1  0.575680  0.762160  0.269900  1.0  0.8051
  Cu  Cu4  1  0.677170  0.812880  0.318440  1.0  0.8007
  Cu  Cu5  1  0.241550  0.095730  0.602920  1.0  0.8091
  Cu  Cu6  1  0.343780  0.146720  0.651340  1.0  0.8044
  Cu  Cu7  1  0.432230  0.478570  0.984840  1.0  0.8082
  Cu  Cu8  1  0.483250  0.427080  0.936490  1.0  0.8072
  Cu  Cu9  1  0.149770  0.760370  0.270070  1.0  0.8301
  Cu  Cu10  1  0.099050  0.809930  0.318140  1.0  0.8041
  Cu  Cu11  1  0.767240  0.147080  0.651230  1.0  0.8121
  Cu  Cu12  1  0.818240  0.095600  0.602880  1.0  0.8143
  Cu  Cu13  1  0.432450  0.901760  0.985020  1.0  0.8067
  Cu  Cu14  1  0.483350  0.004200  0.936650  1.0  0.8088
  Cu  Cu15  1  0.099160  0.237950  0.318240  1.0  0.8106
  Cu  Cu16  1  0.149850  0.338220  0.270160  1.0  0.8165
  Cu  Cu17  1  0.767320  0.570120  0.651280  1.0  0.7997
  Cu  Cu18  1  0.818160  0.672520  0.602900  1.0  0.7977
  H  H19  1  0.222530  0.972160  0.230630  1.0  0.129
  H  H20  1  0.153180  0.050960  0.296720  1.0  0.1438
  H  H21  1  0.222650  0.199400  0.230680  1.0  0.132
  H  H22  1  0.887480  0.532410  0.562700  1.0  0.133
  H  H23  1  0.822290  0.386070  0.629090  1.0  0.1453
  H  H24  1  0.887530  0.305160  0.562660  1.0  0.1339
  H  H25  1  0.553020  0.637080  0.896400  1.0  0.133
  H  H26  1  0.487320  0.717590  0.962830  1.0  0.1446
  H  H27  1  0.553170  0.864420  0.896540  1.0  0.1344
  H  H28  1  0.713980  0.973510  0.230630  1.0  0.1315
  H  H29  1  0.861710  0.053020  0.296760  1.0  0.1459
  H  H30  1  0.940010  0.201790  0.230790  1.0  0.1354
  H  H31  1  0.381180  0.305580  0.563110  1.0  0.133
  H  H32  1  0.527830  0.386160  0.629450  1.0  0.147
  H  H33  1  0.608270  0.532880  0.563120  1.0  0.1352
  H  H34  1  0.046970  0.637100  0.896600  1.0  0.1341
  H  H35  1  0.192810  0.717870  0.963100  1.0  0.1461
  H  H36  1  0.273960  0.864490  0.896770  1.0  0.133
  H  H37  1  0.939270  0.685690  0.230780  1.0  0.1328
  H  H38  1  0.861890  0.757760  0.296630  1.0  0.1449
  H  H39  1  0.713150  0.687800  0.230690  1.0  0.1309
  H  H40  1  0.380820  0.024810  0.563090  1.0  0.1324
  H  H41  1  0.527970  0.091790  0.629340  1.0  0.1432
  H  H42  1  0.607940  0.024610  0.563090  1.0  0.1328
  H  H43  1  0.046280  0.356880  0.896510  1.0  0.1333
  H  H44  1  0.192890  0.422980  0.962860  1.0  0.1454
  H  H45  1  0.273380  0.356620  0.896560  1.0  0.1319
  H  H46  1  0.204640  0.218110  0.691130  1.0  0.1338
  H  H47  1  0.057370  0.150590  0.624900  1.0  0.1423
  H  H48  1  0.977610  0.218520  0.691040  1.0  0.1318
  H  H49  1  0.868780  0.547590  0.024810  1.0  0.1337
  H  H50  1  0.722830  0.482850  0.958350  1.0  0.1441
  H  H51  1  0.641760  0.547960  0.024770  1.0  0.1326
  H  H52  1  0.309990  0.883170  0.357910  1.0  0.1321
  H  H53  1  0.389850  0.815190  0.291790  1.0  0.1458
  H  H54  1  0.537850  0.884530  0.357900  1.0  0.1381
  H  H55  1  0.205790  0.935310  0.690820  1.0  0.1317
  H  H56  1  0.057200  0.856790  0.624840  1.0  0.1431
  H  H57  1  0.978650  0.708010  0.690780  1.0  0.1332
  H  H58  1  0.869850  0.268470  0.024690  1.0  0.1314
  H  H59  1  0.722760  0.187940  0.958440  1.0  0.1431
  H  H60  1  0.642690  0.041220  0.024780  1.0  0.1377
  H  H61  1  0.538410  0.601750  0.357840  1.0  0.1323
  H  H62  1  0.389860  0.523360  0.291840  1.0  0.1457
  H  H63  1  0.310480  0.375320  0.357930  1.0  0.1317
  H  H64  1  0.695380  0.709090  0.691180  1.0  0.1333
  H  H65  1  0.763860  0.856860  0.625050  1.0  0.1437
  H  H66  1  0.695250  0.936310  0.691110  1.0  0.1324
  H  H67  1  0.363420  0.042250  0.025230  1.0  0.1312
  H  H68  1  0.428070  0.187990  0.958720  1.0  0.1425
  H  H69  1  0.363200  0.269410  0.025110  1.0  0.1291
  H  H70  1  0.028670  0.602180  0.357370  1.0  0.1287
  H  H71  1  0.098100  0.523390  0.291130  1.0  0.145
  H  H72  1  0.028790  0.375590  0.357460  1.0  0.1264
  H  H73  1  0.239840  0.420160  0.809800  1.0  0.1542
  H  H74  1  0.226420  0.393360  0.764860  1.0  0.1448
  H  H75  1  0.559000  0.060270  0.431390  1.0  0.1425
  H  H76  1  0.572850  0.087590  0.476300  1.0  0.1548
  H  H77  1  0.808720  0.724890  0.098890  1.0  0.1535
  H  H78  1  0.822380  0.751540  0.143690  1.0  0.1513
  H  H79  1  0.021170  0.813510  0.777810  1.0  0.1489
  H  H80  1  0.034290  0.800030  0.822500  1.0  0.1425
  H  H81  1  0.354930  0.485380  0.444760  1.0  0.152
  H  H82  1  0.368750  0.472160  0.489680  1.0  0.1429
  H  H83  1  0.785750  0.220850  0.156450  1.0  0.148
  H  H84  1  0.772190  0.233640  0.111620  1.0  0.1545
  H  H85  1  0.760600  0.892400  0.778290  1.0  0.1549
  H  H86  1  0.732810  0.878140  0.823170  1.0  0.1499
  H  H87  1  0.095190  0.557670  0.444370  1.0  0.1606
  H  H88  1  0.067580  0.543910  0.489260  1.0  0.1492
  H  H89  1  0.156790  0.016480  0.143580  1.0  0.1522
  H  H90  1  0.184250  0.030230  0.098680  1.0  0.1446
  C  C91  1  0.226420  0.087700  0.228270  1.0  0.0263
  C  C92  1  0.214020  0.017110  0.240690  1.0  -0.0856
  C  C93  1  0.187900  0.002600  0.265530  1.0  -0.1081
  C  C94  1  0.175190  0.062000  0.277850  1.0  -0.0257
  C  C95  1  0.187960  0.134180  0.265560  1.0  -0.1097
  C  C96  1  0.214090  0.145880  0.240730  1.0  -0.0881
  C  C97  1  0.891210  0.420650  0.560250  1.0  0.0274
  C  C98  1  0.879570  0.479180  0.572770  1.0  -0.0888
  C  C99  1  0.854990  0.468140  0.597750  1.0  -0.1168
  C  C100  1  0.843080  0.396490  0.610100  1.0  -0.0258
  C  C101  1  0.855050  0.336820  0.597730  1.0  -0.1174
  C  C102  1  0.879610  0.350440  0.572750  1.0  -0.0868
  C  C103  1  0.556810  0.752640  0.894050  1.0  0.0244
  C  C104  1  0.545060  0.682310  0.906510  1.0  -0.0834
  C  C105  1  0.520280  0.668510  0.931460  1.0  -0.1193
  C  C106  1  0.508270  0.728140  0.943860  1.0  -0.0246
  C  C107  1  0.520340  0.799900  0.931540  1.0  -0.1186
  C  C108  1  0.545140  0.811110  0.906590  1.0  -0.087
  C  C109  1  0.824980  0.089610  0.228360  1.0  0.0269
  C  C110  1  0.767160  0.018780  0.240730  1.0  -0.0906
  C  C111  1  0.778930  0.004410  0.265550  1.0  -0.1199
  C  C112  1  0.850630  0.064100  0.277910  1.0  -0.0406
  C  C113  1  0.909710  0.136480  0.265650  1.0  -0.119
  C  C114  1  0.895200  0.148160  0.240830  1.0  -0.0764
  C  C115  1  0.492860  0.421100  0.560720  1.0  0.0245
  C  C116  1  0.434400  0.350850  0.573190  1.0  -0.0872
  C  C117  1  0.445580  0.337090  0.598130  1.0  -0.1221
  C  C118  1  0.517260  0.396720  0.610490  1.0  -0.024
  C  C119  1  0.576820  0.468460  0.598130  1.0  -0.1197
  C  C120  1  0.563050  0.479620  0.573200  1.0  -0.0918
  C  C121  1  0.158620  0.752680  0.894300  1.0  0.0327
  C  C122  1  0.100030  0.682420  0.906740  1.0  -0.0855
  C  C123  1  0.110910  0.668720  0.931700  1.0  -0.1148
  C  C124  1  0.182440  0.728390  0.944120  1.0  -0.0287
  C  C125  1  0.242110  0.800140  0.931800  1.0  -0.116
  C  C126  1  0.228620  0.811250  0.906840  1.0  -0.0889
  C  C127  1  0.824170  0.682730  0.228390  1.0  0.0275
  C  C128  1  0.894620  0.694790  0.240810  1.0  -0.0834
  C  C129  1  0.909490  0.721610  0.265580  1.0  -0.1189
  C  C130  1  0.850560  0.735170  0.277820  1.0  -0.0397
  C  C131  1  0.778680  0.722840  0.265500  1.0  -0.1034
  C  C132  1  0.766530  0.696060  0.240750  1.0  -0.0892
  C  C133  1  0.492470  0.020910  0.560700  1.0  0.0213
  C  C134  1  0.434120  0.032920  0.573160  1.0  -0.0853
  C  C135  1  0.445500  0.058210  0.598060  1.0  -0.1177
  C  C136  1  0.517270  0.070420  0.610400  1.0  -0.0266
  C  C137  1  0.576750  0.058080  0.598060  1.0  -0.1198
  C  C138  1  0.562790  0.032790  0.573160  1.0  -0.0875
  C  C139  1  0.157940  0.352970  0.894130  1.0  0.0286
  C  C140  1  0.099500  0.364830  0.906600  1.0  -0.0857
  C  C141  1  0.110670  0.389800  0.931530  1.0  -0.1151
  C  C142  1  0.182340  0.401840  0.943900  1.0  -0.0236
  C  C143  1  0.241900  0.389640  0.931560  1.0  -0.1152
  C  C144  1  0.228140  0.364660  0.906630  1.0  -0.0836
  C  C145  1  0.093040  0.222150  0.693480  1.0  0.0247
  C  C146  1  0.151320  0.209940  0.681050  1.0  -0.0844
  C  C147  1  0.139890  0.184390  0.656170  1.0  -0.1177
  C  C148  1  0.068110  0.172120  0.643820  1.0  -0.0266
  C  C149  1  0.008680  0.184640  0.656120  1.0  -0.116
  C  C150  1  0.022710  0.210180  0.681000  1.0  -0.0848
  C  C151  1  0.757130  0.551500  0.027190  1.0  0.0315
  C  C152  1  0.815700  0.539890  0.014700  1.0  -0.0868
  C  C153  1  0.804780  0.515430  0.989730  1.0  -0.1153
  C  C154  1  0.733220  0.503630  0.977340  1.0  -0.0238
  C  C155  1  0.673550  0.515630  0.989710  1.0  -0.1149
  C  C156  1  0.687080  0.540110  0.014680  1.0  -0.0825
  C  C157  1  0.425820  0.887680  0.360280  1.0  0.0243
  C  C158  1  0.355190  0.875040  0.347850  1.0  -0.0887
  C  C159  1  0.341040  0.849170  0.323010  1.0  -0.1198
  C  C160  1  0.400670  0.836990  0.310680  1.0  -0.0238
  C  C161  1  0.472770  0.849940  0.323000  1.0  -0.1159
  C  C162  1  0.484290  0.875810  0.347850  1.0  -0.0489
  C  C163  1  0.094190  0.819690  0.693170  1.0  0.0289
  C  C164  1  0.152260  0.890370  0.680780  1.0  -0.0847
  C  C165  1  0.140330  0.904910  0.655990  1.0  -0.1159
  C  C166  1  0.068300  0.845660  0.643690  1.0  -0.0285
  C  C167  1  0.009080  0.773560  0.655960  1.0  -0.1155
  C  C168  1  0.023580  0.761590  0.680750  1.0  -0.0867
  C  C169  1  0.758170  0.152980  0.027120  1.0  0.0238
  C  C170  1  0.816550  0.223210  0.014630  1.0  -0.0872
  C  C171  1  0.805210  0.236980  0.989710  1.0  -0.1142
  C  C172  1  0.733440  0.177370  0.977390  1.0  -0.0253
  C  C173  1  0.673940  0.105650  0.989760  1.0  -0.1139
  C  C174  1  0.687870  0.094470  0.014680  1.0  -0.0854
  C  C175  1  0.426390  0.486580  0.360250  1.0  0.0317
  C  C176  1  0.484770  0.556940  0.347810  1.0  -0.0856
  C  C177  1  0.473040  0.571390  0.322990  1.0  -0.119
  C  C178  1  0.400830  0.512300  0.310710  1.0  -0.0286
  C  C179  1  0.341280  0.440480  0.323040  1.0  -0.1174
  C  C180  1  0.355630  0.428660  0.347860  1.0  -0.0869
  C  C181  1  0.691430  0.820770  0.693550  1.0  0.0237
  C  C182  1  0.703770  0.762530  0.681130  1.0  -0.0807
  C  C183  1  0.729630  0.774110  0.656270  1.0  -0.1191
  C  C184  1  0.742120  0.846020  0.643940  1.0  -0.0236
  C  C185  1  0.729560  0.905440  0.656230  1.0  -0.1207
  C  C186  1  0.703690  0.891250  0.681090  1.0  -0.0892
  C  C187  1  0.359630  0.154000  0.027610  1.0  0.0252
  C  C188  1  0.371210  0.095370  0.015120  1.0  -0.087
  C  C189  1  0.395610  0.106190  0.990130  1.0  -0.1163
  C  C190  1  0.407410  0.177720  0.977720  1.0  -0.0243
  C  C191  1  0.395490  0.237470  0.990060  1.0  -0.1192
  C  C192  1  0.371080  0.224060  0.015050  1.0  -0.0881
  C  C193  1  0.025250  0.487160  0.359640  1.0  0.0296
  C  C194  1  0.037580  0.557630  0.347200  1.0  -0.083
  C  C195  1  0.063990  0.572460  0.322340  1.0  0.0121
  C  C196  1  0.076460  0.512620  0.310040  1.0  -0.01
  C  C197  1  0.064040  0.440390  0.322390  1.0  0.0092
  C  C198  1  0.037650  0.428960  0.347250  1.0  -0.0889
  C  C199  1  0.050810  0.409730  0.943510  1.0  0.7183
  C  C200  1  0.864760  0.495690  0.977740  1.0  0.7164
  C  C201  1  0.050960  0.588920  0.943650  1.0  0.7182
  C  C202  1  0.865020  0.316760  0.977730  1.0  0.7185
  C  C203  1  0.532870  0.830160  0.311100  1.0  0.7158
  C  C204  1  0.719360  0.743940  0.277310  1.0  0.7186
  C  C205  1  0.533020  0.651300  0.311100  1.0  0.7191
  C  C206  1  0.719500  0.924050  0.277350  1.0  0.7196
  C  C207  1  0.385680  0.078230  0.610030  1.0  0.7154
  C  C208  1  0.199670  0.164280  0.644230  1.0  0.7182
  C  C209  1  0.385690  0.257300  0.610090  1.0  0.7206
  C  C210  1  0.199890  0.984990  0.644110  1.0  0.7161
  C  C211  1  0.321660  0.409510  0.943550  1.0  0.7102
  C  C212  1  0.593860  0.495960  0.977710  1.0  0.7188
  C  C213  1  0.500590  0.588780  0.943470  1.0  0.7209
  C  C214  1  0.414960  0.317020  0.977970  1.0  0.7219
  C  C215  1  0.167760  0.922330  0.277360  1.0  0.7214
  C  C216  1  0.082500  0.648250  0.311000  1.0  0.7134
  C  C217  1  0.989960  0.742570  0.277380  1.0  0.7133
  C  C218  1  0.260960  0.828710  0.311110  1.0  0.7158
  C  C219  1  0.656580  0.078060  0.610020  1.0  0.7084
  C  C220  1  0.928850  0.164630  0.644150  1.0  0.717
  C  C221  1  0.835500  0.257180  0.609780  1.0  0.7201
  C  C222  1  0.749650  0.985310  0.644250  1.0  0.721
  C  C223  1  0.500680  0.859880  0.943600  1.0  0.718
  C  C224  1  0.415170  0.046100  0.978090  1.0  0.7197
  C  C225  1  0.321790  0.860070  0.943800  1.0  0.7177
  C  C226  1  0.594100  0.045800  0.977830  1.0  0.7188
  C  C227  1  0.167840  0.194290  0.277420  1.0  0.7218
  C  C228  1  0.082580  0.383090  0.311090  1.0  0.7111
  C  C229  1  0.990080  0.196090  0.277490  1.0  0.7136
  C  C230  1  0.261100  0.380970  0.311180  1.0  0.7176
  C  C231  1  0.749750  0.714320  0.644300  1.0  0.7148
  C  C232  1  0.835410  0.528180  0.609810  1.0  0.7162
  C  C233  1  0.929020  0.713980  0.644070  1.0  0.7121
  C  C234  1  0.656580  0.528380  0.610090  1.0  0.7193
  C  C235  1  0.148450  0.333900  0.867950  1.0  0.0934
  C  C236  1  0.141400  0.319640  0.845970  1.0  0.0559
  C  C237  1  0.133690  0.303860  0.819590  1.0  -0.0432
  C  C238  1  0.190040  0.362630  0.802970  1.0  -0.1057
  C  C239  1  0.182360  0.347360  0.777300  1.0  -0.1044
  C  C240  1  0.118180  0.273130  0.767900  1.0  -0.0363
  C  C241  1  0.062900  0.215700  0.784820  1.0  0.1819
  C  C242  1  0.070360  0.230520  0.809750  1.0  0.1789
  C  C243  1  0.110180  0.256780  0.741550  1.0  0.0538
  C  C244  1  0.102860  0.241940  0.719610  1.0  0.094
  C  C245  1  0.435800  0.907800  0.386370  1.0  0.0948
  C  C246  1  0.443290  0.922910  0.408290  1.0  0.0547
  C  C247  1  0.451520  0.939570  0.434610  1.0  -0.0394
  C  C248  1  0.515380  0.014200  0.443900  1.0  -0.1064
  C  C249  1  0.523310  0.029760  0.469550  1.0  -0.1058
  C  C250  1  0.467530  0.970890  0.486250  1.0  -0.0407
  C  C251  1  0.404510  0.897150  0.476520  1.0  0.18
  C  C252  1  0.396800  0.882050  0.451620  1.0  0.1866
  C  C253  1  0.475500  0.986970  0.512600  1.0  0.0562
  C  C254  1  0.482750  0.001500  0.534550  1.0  0.0957
  C  C255  1  0.766340  0.569950  0.053390  1.0  0.1068
  C  C256  1  0.773260  0.583730  0.075390  1.0  0.0575
  C  C257  1  0.781050  0.599000  0.101780  1.0  0.0072
  C  C258  1  0.799890  0.676110  0.111350  1.0  -0.1049
  C  C259  1  0.807700  0.691390  0.137090  1.0  -0.1069
  C  C260  1  0.796900  0.630070  0.154110  1.0  0.0048
  C  C261  1  0.778070  0.553570  0.144650  1.0  0.1696
  C  C262  1  0.770170  0.538130  0.118630  1.0  0.1681
  C  C263  1  0.805730  0.646760  0.180420  1.0  0.056
  C  C264  1  0.813700  0.662100  0.202330  1.0  0.1009
  C  C265  1  0.104450  0.809370  0.719230  1.0  0.0961
  C  C266  1  0.112040  0.801600  0.741120  1.0  0.0641
  C  C267  1  0.120230  0.793010  0.767420  1.0  -0.098
  C  C268  1  0.068180  0.801080  0.784420  1.0  -0.0895
  C  C269  1  0.075750  0.793400  0.810090  1.0  -0.1284
  C  C270  1  0.135720  0.777440  0.819750  1.0  -0.0378
  C  C271  1  0.190680  0.768860  0.802100  1.0  0.1465
  C  C272  1  0.183360  0.776230  0.777330  1.0  0.1497
  C  C273  1  0.142930  0.769350  0.846120  1.0  0.0623
  C  C274  1  0.149560  0.762140  0.868100  1.0  0.0945
  C  C275  1  0.483310  0.430640  0.534560  1.0  0.0987
  C  C276  1  0.476080  0.437830  0.512610  1.0  0.0553
  C  C277  1  0.467900  0.445870  0.486270  1.0  -0.0361
  C  C278  1  0.518040  0.435720  0.469150  1.0  0.187
  C  C279  1  0.510350  0.443000  0.444230  1.0  0.1712
  C  C280  1  0.451930  0.460920  0.434620  1.0  -0.0378
  C  C281  1  0.400820  0.471400  0.451430  1.0  -0.0802
  C  C282  1  0.408720  0.463900  0.477080  1.0  -0.1133
  C  C283  1  0.443940  0.469050  0.408270  1.0  0.0592
  C  C284  1  0.436470  0.476510  0.386340  1.0  0.098
  C  C285  1  0.767880  0.143490  0.053280  1.0  0.0929
  C  C286  1  0.775240  0.136400  0.075230  1.0  0.057
  C  C287  1  0.783500  0.128480  0.101570  1.0  0.0239
  C  C288  1  0.794250  0.065720  0.111240  1.0  0.1947
  C  C289  1  0.802040  0.058270  0.137270  1.0  0.1861
  C  C290  1  0.799160  0.113460  0.153920  1.0  0.026
  C  C291  1  0.788270  0.176790  0.144150  1.0  -0.1004
  C  C292  1  0.780540  0.184150  0.118390  1.0  -0.1013
  C  C293  1  0.807520  0.106300  0.180290  1.0  0.056
  C  C294  1  0.815040  0.099370  0.202240  1.0  0.0918
  C  C295  1  0.576150  0.762510  0.867890  1.0  0.1045
  C  C296  1  0.590860  0.770150  0.845930  1.0  0.0537
  C  C297  1  0.607470  0.778840  0.819580  1.0  -0.063
  C  C298  1  0.547510  0.728860  0.802360  1.0  0.1887
  C  C299  1  0.562900  0.736780  0.777460  1.0  0.1859
  C  C300  1  0.639390  0.795300  0.767940  1.0  -0.0653
  C  C301  1  0.700640  0.846380  0.784860  1.0  -0.1052
  C  C302  1  0.684790  0.838220  0.810500  1.0  -0.1066
  C  C303  1  0.655990  0.803320  0.741590  1.0  0.0563
  C  C304  1  0.671170  0.810740  0.719660  1.0  0.1032
  C  C305  1  0.004870  0.477140  0.385750  1.0  0.1042
  C  C306  1  0.989710  0.469850  0.407690  1.0  0.0596
  C  C307  1  0.973210  0.462060  0.434060  1.0  -0.0528
  C  C308  1  0.034930  0.512420  0.450960  1.0  -0.1094
  C  C309  1  0.019180  0.504550  0.476610  1.0  -0.1059
  C  C310  1  0.941480  0.446170  0.485730  1.0  -0.0578
  C  C311  1  0.881060  0.396890  0.468520  1.0  0.1886
  C  C312  1  0.896360  0.404540  0.443600  1.0  0.1842
  C  C313  1  0.924980  0.437760  0.512090  1.0  0.0544
  C  C314  1  0.910380  0.430330  0.534060  1.0  0.1055
  C  C315  1  0.246690  0.097890  0.202150  1.0  0.1002
  C  C316  1  0.261780  0.105400  0.180210  1.0  0.0598
  C  C317  1  0.278160  0.113420  0.153830  1.0  -0.0342
  C  C318  1  0.216740  0.062330  0.136960  1.0  -0.1002
  C  C319  1  0.232400  0.070210  0.111310  1.0  -0.1137
  C  C320  1  0.309710  0.129320  0.102150  1.0  -0.0333
  C  C321  1  0.369820  0.179430  0.119330  1.0  0.1856
  C  C322  1  0.354600  0.171770  0.144250  1.0  0.1742
  C  C323  1  0.326170  0.137480  0.075780  1.0  0.0552
  C  C324  1  0.340650  0.144620  0.053810  1.0  0.1033
  S  S325  1  0.416830  0.622490  0.782110  1.0  0.0818
  S  S326  1  0.946260  0.090380  0.804460  1.0  0.08
  S  S327  1  0.300000  0.748410  0.782340  1.0  0.0752
  S  S328  1  0.281180  0.756370  0.471430  1.0  0.0816
  S  S329  1  0.624370  0.410950  0.449100  1.0  0.0713
  S  S330  1  0.749470  0.292130  0.448310  1.0  0.098
  S  S331  1  0.811970  0.942540  0.117210  1.0  0.0738
  S  S332  1  0.744470  0.406910  0.139080  1.0  0.0926
  S  S333  1  0.500770  0.285710  0.139470  1.0  0.073
  N  N334  1  0.998720  0.142390  0.778950  1.0  -0.2927
  N  N335  1  0.011880  0.168560  0.822930  1.0  -0.2885
  N  N336  1  0.346570  0.835050  0.489800  1.0  -0.2806
  N  N337  1  0.332990  0.808370  0.445850  1.0  -0.2901
  N  N338  1  0.765700  0.487910  0.157690  1.0  -0.2845
  N  N339  1  0.752160  0.461480  0.113210  1.0  -0.3312
  N  N340  1  0.251010  0.753700  0.807940  1.0  -0.3094
  N  N341  1  0.238020  0.766820  0.763970  1.0  -0.3016
  N  N342  1  0.577110  0.418440  0.474800  1.0  -0.3002
  N  N343  1  0.563560  0.431320  0.430840  1.0  -0.2857
  N  N344  1  0.798540  0.007180  0.098400  1.0  -0.2887
  N  N345  1  0.811920  0.994450  0.142890  1.0  -0.298
  N  N346  1  0.471100  0.669630  0.807890  1.0  -0.2999
  N  N347  1  0.498270  0.683580  0.763970  1.0  -0.2847
  N  N348  1  0.804250  0.338650  0.474070  1.0  -0.3297
  N  N349  1  0.831250  0.352120  0.430140  1.0  -0.2849
  N  N350  1  0.446250  0.238460  0.113730  1.0  -0.3028
  N  N351  1  0.419400  0.224970  0.157680  1.0  -0.2888
  O  O352  1  0.989540  0.401250  0.931050  1.0  -0.5775
  O  O353  1  0.852170  0.467660  0.955800  1.0  -0.5969
  O  O354  1  0.989710  0.536160  0.931160  1.0  -0.5775
  O  O355  1  0.852320  0.332300  0.955820  1.0  -0.5955
  O  O356  1  0.926300  0.369520  0.990190  1.0  -0.5789
  O  O357  1  0.063560  0.573370  0.965560  1.0  -0.5988
  O  O358  1  0.926040  0.504150  0.990200  1.0  -0.5785
  O  O359  1  0.063480  0.437900  0.965430  1.0  -0.5955
  O  O360  1  0.520590  0.802220  0.289160  1.0  -0.5921
  O  O361  1  0.658430  0.735870  0.264740  1.0  -0.5808
  O  O362  1  0.520660  0.667010  0.289170  1.0  -0.5944
  O  O363  1  0.658560  0.871200  0.264780  1.0  -0.58
  O  O364  1  0.732010  0.908250  0.299250  1.0  -0.5942
  O  O365  1  0.594160  0.703990  0.323640  1.0  -0.5793
  O  O366  1  0.731950  0.772340  0.299200  1.0  -0.5937
  O  O367  1  0.594020  0.838620  0.323640  1.0  -0.5835
  O  O368  1  0.324430  0.069790  0.597560  1.0  -0.5811
  O  O369  1  0.187040  0.136130  0.622310  1.0  -0.5933
  O  O370  1  0.324430  0.204550  0.597610  1.0  -0.5822
  O  O371  1  0.187150  0.000660  0.622230  1.0  -0.5968
  O  O372  1  0.261060  0.037790  0.656610  1.0  -0.5775
  O  O373  1  0.398310  0.241750  0.632010  1.0  -0.5936
  O  O374  1  0.260890  0.172670  0.656710  1.0  -0.5824
  O  O375  1  0.398340  0.106380  0.631950  1.0  -0.5946
  O  O376  1  0.337220  0.437830  0.965460  1.0  -0.595
  O  O377  1  0.541110  0.504550  0.990150  1.0  -0.5787
  O  O378  1  0.472570  0.573390  0.965410  1.0  -0.5958
  O  O379  1  0.406350  0.369850  0.990370  1.0  -0.5797
  O  O380  1  0.442970  0.332350  0.956030  1.0  -0.5969
  O  O381  1  0.509100  0.535930  0.931040  1.0  -0.5804
  O  O382  1  0.578340  0.467750  0.955800  1.0  -0.5982
  O  O383  1  0.374410  0.400910  0.931110  1.0  -0.5807
  O  O384  1  0.176240  0.869660  0.264800  1.0  -0.5847
  O  O385  1  0.110220  0.664270  0.289020  1.0  -0.5888
  O  O386  1  0.040800  0.735240  0.265260  1.0  -0.5741
  O  O387  1  0.245290  0.800630  0.289190  1.0  -0.5954
  O  O388  1  0.208030  0.836750  0.323620  1.0  -0.581
  O  O389  1  0.004900  0.769700  0.298390  1.0  -0.5672
  O  O390  1  0.073750  0.701040  0.323440  1.0  -0.6035
  O  O391  1  0.139390  0.906160  0.299260  1.0  -0.5932
  O  O392  1  0.672170  0.106400  0.631910  1.0  -0.599
  O  O393  1  0.876090  0.173190  0.656600  1.0  -0.5838
  O  O394  1  0.807510  0.241820  0.631720  1.0  -0.5934
  O  O395  1  0.741230  0.038210  0.656680  1.0  -0.5801
  O  O396  1  0.777830  0.000750  0.622330  1.0  -0.5957
  O  O397  1  0.844080  0.204360  0.597360  1.0  -0.5804
  O  O398  1  0.913280  0.136310  0.622250  1.0  -0.5954
  O  O399  1  0.709340  0.069500  0.597560  1.0  -0.5795
  O  O400  1  0.472690  0.847220  0.965540  1.0  -0.5961
  O  O401  1  0.406640  0.984730  0.990520  1.0  -0.5813
  O  O402  1  0.337350  0.847360  0.965710  1.0  -0.5958
  O  O403  1  0.541370  0.984510  0.990300  1.0  -0.5824
  O  O404  1  0.578460  0.058530  0.955940  1.0  -0.597
  O  O405  1  0.374520  0.921410  0.931350  1.0  -0.5811
  O  O406  1  0.443120  0.058700  0.956150  1.0  -0.5975
  O  O407  1  0.509180  0.921260  0.931180  1.0  -0.5776
  O  O408  1  0.139480  0.182070  0.299320  1.0  -0.5942
  O  O409  1  0.073870  0.321590  0.323540  1.0  -0.6051
  O  O410  1  0.004990  0.183950  0.298500  1.0  -0.572
  O  O411  1  0.208170  0.320030  0.323700  1.0  -0.5819
  O  O412  1  0.245370  0.393410  0.289270  1.0  -0.5983
  O  O413  1  0.040910  0.254280  0.265380  1.0  -0.575
  O  O414  1  0.110280  0.394740  0.289100  1.0  -0.5911
  O  O415  1  0.176340  0.255460  0.264870  1.0  -0.5828
  O  O416  1  0.741380  0.653040  0.656750  1.0  -0.5821
  O  O417  1  0.807470  0.515560  0.631760  1.0  -0.5967
  O  O418  1  0.876260  0.652760  0.656560  1.0  -0.5845
  O  O419  1  0.672200  0.515690  0.631990  1.0  -0.6008
  O  O420  1  0.709290  0.589690  0.597630  1.0  -0.5821
  O  O421  1  0.913310  0.726800  0.622200  1.0  -0.5969
  O  O422  1  0.843950  0.589570  0.597390  1.0  -0.581
  O  O423  1  0.777850  0.727000  0.622370  1.0  -0.5959
