# generated using pymatgen
data_NiH18C28(NO)4
_symmetry_space_group_name_H-M   'P 1'
_cell_length_a   8.36610000
_cell_length_b   29.13900000
_cell_length_c   18.85830000
_cell_angle_alpha   90.00000000
_cell_angle_beta   94.30700000
_cell_angle_gamma   90.00000000
_symmetry_Int_Tables_number   1
_chemical_formula_structural   NiH18C28(NO)4
_chemical_formula_sum   'Ni6 H108 C168 N24 O24'
_cell_volume   4584.28951930
_cell_formula_units_Z   6
loop_
 _symmetry_equiv_pos_site_id
 _symmetry_equiv_pos_as_xyz
  1  'x, y, z'
loop_
 _atom_site_type_symbol
 _atom_site_label
 _atom_site_symmetry_multiplicity
 _atom_site_fract_x
 _atom_site_fract_y
 _atom_site_fract_z
 _atom_site_occupancy
 _atom_site_charge
  Ni  Ni1  1  0.020970  0.743540  0.723880  1.0  0.8421
  Ni  Ni2  1  0.979030  0.243540  0.776120  1.0  0.8431
  Ni  Ni3  1  0.979030  0.256460  0.276120  1.0  0.843
  Ni  Ni4  1  0.020970  0.756460  0.223880  1.0  0.8421
  Ni  Ni5  1  0.000000  0.500000  0.500000  1.0  0.6603
  Ni  Ni6  1  0.000000  0.000000  0.000000  1.0  0.6603
  H  H7  1  0.582000  0.584900  0.547800  1.0  0.1196
  H  H8  1  0.505900  0.616700  0.340400  1.0  0.125
  H  H9  1  0.785100  0.697600  0.470300  1.0  0.1258
  H  H10  1  0.308000  0.559000  0.525400  1.0  0.1031
  H  H11  1  0.206000  0.485200  0.355600  1.0  0.1022
  H  H12  1  0.439000  0.531800  0.332600  1.0  0.1334
  H  H13  1  0.925100  0.698600  0.352900  1.0  0.1071
  H  H14  1  0.469600  0.699100  0.278900  1.0  0.1388
  H  H15  1  0.627600  0.742800  0.198500  1.0  0.0942
  H  H16  1  0.875300  0.713400  0.576400  1.0  0.0935
  H  H17  1  0.852800  0.643100  0.749100  1.0  0.1001
  H  H18  1  0.710000  0.600400  0.654700  1.0  0.1175
  H  H19  1  0.793100  0.476600  0.288800  1.0  0.1069
  H  H20  1  0.727300  0.470700  0.168200  1.0  0.1059
  H  H21  1  0.773300  0.606400  0.148400  1.0  0.1093
  H  H22  1  0.838800  0.612200  0.268400  1.0  0.0854
  H  H23  1  0.816600  0.470200  0.058400  1.0  0.1022
  H  H24  1  0.651600  0.521300  0.870000  1.0  0.107
  H  H25  1  0.614400  0.594900  0.047200  1.0  0.1142
  H  H26  1  0.632400  0.592600  0.817200  1.0  0.1142
  H  H27  1  0.472200  0.643800  0.751300  1.0  0.0988
  H  H28  1  0.226500  0.669300  0.920600  1.0  0.1095
  H  H29  1  0.387600  0.619200  0.986700  1.0  0.1005
  H  H30  1  0.617600  0.447600  0.841000  1.0  0.1065
  H  H31  1  0.675800  0.378200  0.790700  1.0  0.0958
  H  H32  1  0.016200  0.355700  0.947100  1.0  0.1092
  H  H33  1  0.964800  0.426300  0.995300  1.0  0.1094
  H  H34  1  0.418000  0.084900  0.952200  1.0  0.1191
  H  H35  1  0.494100  0.116700  0.159600  1.0  0.1234
  H  H36  1  0.214900  0.197600  0.029700  1.0  0.126
  H  H37  1  0.692000  0.059000  0.974600  1.0  0.1032
  H  H38  1  0.794000  0.985200  0.144400  1.0  0.1022
  H  H39  1  0.561000  0.031800  0.167400  1.0  0.1338
  H  H40  1  0.074900  0.198600  0.147100  1.0  0.1073
  H  H41  1  0.530400  0.199100  0.221100  1.0  0.1374
  H  H42  1  0.372400  0.242800  0.301500  1.0  0.0934
  H  H43  1  0.124700  0.213400  0.923600  1.0  0.0941
  H  H44  1  0.147200  0.143100  0.750900  1.0  0.1001
  H  H45  1  0.290000  0.100400  0.845300  1.0  0.1166
  H  H46  1  0.206900  0.976600  0.211200  1.0  0.1067
  H  H47  1  0.272700  0.970700  0.331800  1.0  0.1053
  H  H48  1  0.226700  0.106400  0.351600  1.0  0.1096
  H  H49  1  0.161200  0.112200  0.231600  1.0  0.0855
  H  H50  1  0.183400  0.970200  0.441600  1.0  0.101
  H  H51  1  0.348400  0.021300  0.630000  1.0  0.1071
  H  H52  1  0.385600  0.094900  0.452800  1.0  0.1141
  H  H53  1  0.367600  0.092600  0.682800  1.0  0.1142
  H  H54  1  0.527800  0.143800  0.748700  1.0  0.0991
  H  H55  1  0.773500  0.169300  0.579400  1.0  0.109
  H  H56  1  0.612400  0.119200  0.513300  1.0  0.101
  H  H57  1  0.382400  0.947600  0.659000  1.0  0.1069
  H  H58  1  0.324200  0.878200  0.709300  1.0  0.0964
  H  H59  1  0.983800  0.855700  0.552900  1.0  0.1082
  H  H60  1  0.035200  0.926300  0.504700  1.0  0.1087
  H  H61  1  0.418000  0.415100  0.452200  1.0  0.1189
  H  H62  1  0.494100  0.383300  0.659600  1.0  0.1238
  H  H63  1  0.214900  0.302400  0.529700  1.0  0.1257
  H  H64  1  0.692000  0.441000  0.474600  1.0  0.1026
  H  H65  1  0.794000  0.514800  0.644400  1.0  0.1018
  H  H66  1  0.561000  0.468200  0.667400  1.0  0.1338
  H  H67  1  0.074900  0.301400  0.647100  1.0  0.1072
  H  H68  1  0.530400  0.300900  0.721100  1.0  0.1375
  H  H69  1  0.372400  0.257200  0.801500  1.0  0.0936
  H  H70  1  0.124700  0.286600  0.423600  1.0  0.0934
  H  H71  1  0.147200  0.356900  0.250900  1.0  0.1001
  H  H72  1  0.290000  0.399600  0.345300  1.0  0.1166
  H  H73  1  0.206900  0.523400  0.711200  1.0  0.107
  H  H74  1  0.272700  0.529300  0.831800  1.0  0.1052
  H  H75  1  0.226700  0.393600  0.851600  1.0  0.1096
  H  H76  1  0.161200  0.387800  0.731600  1.0  0.0856
  H  H77  1  0.183400  0.529800  0.941600  1.0  0.1009
  H  H78  1  0.348400  0.478700  0.130000  1.0  0.1074
  H  H79  1  0.385600  0.405100  0.952800  1.0  0.1134
  H  H80  1  0.367600  0.407400  0.182800  1.0  0.1137
  H  H81  1  0.527800  0.356200  0.248700  1.0  0.0993
  H  H82  1  0.773500  0.330700  0.079400  1.0  0.109
  H  H83  1  0.612400  0.380800  0.013300  1.0  0.1017
  H  H84  1  0.382400  0.552400  0.159000  1.0  0.1069
  H  H85  1  0.324200  0.621800  0.209300  1.0  0.096
  H  H86  1  0.983800  0.644300  0.052900  1.0  0.1087
  H  H87  1  0.035200  0.573700  0.004700  1.0  0.1098
  H  H88  1  0.582000  0.915100  0.047800  1.0  0.1192
  H  H89  1  0.505900  0.883300  0.840400  1.0  0.1248
  H  H90  1  0.785100  0.802400  0.970300  1.0  0.1261
  H  H91  1  0.308000  0.941000  0.025400  1.0  0.1033
  H  H92  1  0.206000  0.014800  0.855600  1.0  0.1023
  H  H93  1  0.439000  0.968200  0.832600  1.0  0.1334
  H  H94  1  0.925100  0.801400  0.852900  1.0  0.1075
  H  H95  1  0.469600  0.800900  0.778900  1.0  0.1389
  H  H96  1  0.627600  0.757200  0.698500  1.0  0.0946
  H  H97  1  0.875300  0.786600  0.076400  1.0  0.0927
  H  H98  1  0.852800  0.856900  0.249100  1.0  0.1001
  H  H99  1  0.710000  0.899600  0.154700  1.0  0.1171
  H  H100  1  0.793100  0.023400  0.788800  1.0  0.1071
  H  H101  1  0.727300  0.029300  0.668200  1.0  0.1055
  H  H102  1  0.773300  0.893600  0.648400  1.0  0.109
  H  H103  1  0.838800  0.887800  0.768400  1.0  0.0853
  H  H104  1  0.816600  0.029800  0.558400  1.0  0.1016
  H  H105  1  0.651600  0.978700  0.370000  1.0  0.107
  H  H106  1  0.614400  0.905100  0.547200  1.0  0.1136
  H  H107  1  0.632400  0.907400  0.317200  1.0  0.1139
  H  H108  1  0.472200  0.856200  0.251300  1.0  0.099
  H  H109  1  0.226500  0.830700  0.420600  1.0  0.1096
  H  H110  1  0.387600  0.880800  0.486700  1.0  0.1008
  H  H111  1  0.617600  0.052400  0.341000  1.0  0.1061
  H  H112  1  0.675800  0.121800  0.290700  1.0  0.0958
  H  H113  1  0.016200  0.144300  0.447100  1.0  0.109
  H  H114  1  0.964800  0.073700  0.495300  1.0  0.1101
  C  C115  1  0.598300  0.604440  0.510000  1.0  -0.2426
  C  C116  1  0.528000  0.595380  0.443130  1.0  0.1505
  C  C117  1  0.553500  0.623130  0.385440  1.0  -0.2561
  C  C118  1  0.652200  0.660660  0.397370  1.0  0.1484
  C  C119  1  0.721300  0.671630  0.463640  1.0  -0.2429
  C  C120  1  0.693900  0.643080  0.520230  1.0  0.1354
  C  C121  1  0.311200  0.546270  0.480350  1.0  0.1369
  C  C122  1  0.256400  0.506060  0.387200  1.0  0.0157
  C  C123  1  0.385100  0.531660  0.374000  1.0  -0.1145
  C  C124  1  0.831900  0.704130  0.324100  1.0  0.147
  C  C125  1  0.579600  0.704240  0.284000  1.0  -0.1218
  C  C126  1  0.668100  0.728120  0.239800  1.0  0.0324
  C  C127  1  0.850100  0.690560  0.608170  1.0  0.1451
  C  C128  1  0.838800  0.652280  0.701800  1.0  -0.0127
  C  C129  1  0.759400  0.628760  0.650100  1.0  -0.1395
  C  C130  1  0.826800  0.545070  0.291400  1.0  -0.1192
  C  C131  1  0.791100  0.502820  0.260630  1.0  -0.0411
  C  C132  1  0.752300  0.499260  0.187990  1.0  -0.1391
  C  C133  1  0.750200  0.537690  0.144310  1.0  0.0327
  C  C134  1  0.779600  0.579930  0.176130  1.0  -0.1004
  C  C135  1  0.818200  0.583470  0.248380  1.0  -0.0061
  C  C136  1  0.719500  0.533320  0.065930  1.0  0.0325
  C  C137  1  0.766900  0.493710  0.031610  1.0  -0.1073
  C  C138  1  0.741600  0.488420  0.958260  1.0  0.0104
  C  C139  1  0.667900  0.524170  0.919150  1.0  -0.1179
  C  C140  1  0.618300  0.563820  0.951550  1.0  -0.0347
  C  C141  1  0.645800  0.568190  0.025060  1.0  -0.0996
  C  C142  1  0.525500  0.599330  0.909280  1.0  0.0362
  C  C143  1  0.550400  0.607820  0.838300  1.0  -0.1472
  C  C144  1  0.454300  0.638650  0.798720  1.0  -0.0453
  C  C145  1  0.331900  0.661890  0.828810  1.0  -0.1398
  C  C146  1  0.308100  0.653980  0.899500  1.0  -0.0373
  C  C147  1  0.404200  0.623610  0.938940  1.0  -0.1043
  C  C148  1  0.222300  0.693170  0.785510  1.0  0.6653
  C  C149  1  0.783900  0.444780  0.924330  1.0  0.0257
  C  C150  1  0.698900  0.429450  0.862400  1.0  -0.1117
  C  C151  1  0.733600  0.387660  0.832200  1.0  -0.0413
  C  C152  1  0.853000  0.359810  0.862910  1.0  -0.1319
  C  C153  1  0.937300  0.374380  0.925070  1.0  -0.0498
  C  C154  1  0.904700  0.416650  0.954530  1.0  -0.1218
  C  C155  1  0.893200  0.315410  0.829760  1.0  0.6726
  C  C156  1  0.881400  0.548360  0.369320  1.0  0.7067
  C  C157  1  0.401700  0.104440  0.990000  1.0  -0.2423
  C  C158  1  0.472000  0.095380  0.056870  1.0  0.151
  C  C159  1  0.446500  0.123130  0.114560  1.0  -0.2543
  C  C160  1  0.347800  0.160660  0.102630  1.0  0.1492
  C  C161  1  0.278700  0.171630  0.036360  1.0  -0.2448
  C  C162  1  0.306100  0.143080  0.979770  1.0  0.1361
  C  C163  1  0.688800  0.046270  0.019650  1.0  0.1387
  C  C164  1  0.743600  0.006060  0.112800  1.0  0.0169
  C  C165  1  0.614900  0.031660  0.126000  1.0  -0.116
  C  C166  1  0.168100  0.204130  0.175900  1.0  0.1473
  C  C167  1  0.420400  0.204240  0.216000  1.0  -0.1222
  C  C168  1  0.331900  0.228120  0.260200  1.0  0.0324
  C  C169  1  0.149900  0.190560  0.891830  1.0  0.1444
  C  C170  1  0.161200  0.152280  0.798200  1.0  -0.0137
  C  C171  1  0.240600  0.128760  0.849900  1.0  -0.1383
  C  C172  1  0.173200  0.045070  0.208600  1.0  -0.1219
  C  C173  1  0.208900  0.002820  0.239370  1.0  -0.041
  C  C174  1  0.247700  0.999260  0.312010  1.0  -0.1389
  C  C175  1  0.249800  0.037690  0.355690  1.0  0.0323
  C  C176  1  0.220400  0.079930  0.323870  1.0  -0.1003
  C  C177  1  0.181800  0.083470  0.251620  1.0  -0.0069
  C  C178  1  0.280500  0.033320  0.434070  1.0  0.0326
  C  C179  1  0.233100  0.993710  0.468390  1.0  -0.1089
  C  C180  1  0.258400  0.988420  0.541740  1.0  0.0104
  C  C181  1  0.332100  0.024170  0.580850  1.0  -0.1187
  C  C182  1  0.381700  0.063820  0.548450  1.0  -0.0358
  C  C183  1  0.354200  0.068190  0.474940  1.0  -0.0988
  C  C184  1  0.474500  0.099330  0.590720  1.0  0.0363
  C  C185  1  0.449600  0.107820  0.661700  1.0  -0.1477
  C  C186  1  0.545700  0.138650  0.701280  1.0  -0.0448
  C  C187  1  0.668100  0.161890  0.671190  1.0  -0.1403
  C  C188  1  0.691900  0.153980  0.600500  1.0  -0.0369
  C  C189  1  0.595800  0.123610  0.561060  1.0  -0.1054
  C  C190  1  0.777700  0.193170  0.714490  1.0  0.6643
  C  C191  1  0.216100  0.944780  0.575670  1.0  0.026
  C  C192  1  0.301100  0.929450  0.637600  1.0  -0.1113
  C  C193  1  0.266400  0.887660  0.667800  1.0  -0.0419
  C  C194  1  0.147000  0.859810  0.637090  1.0  -0.1333
  C  C195  1  0.062700  0.874380  0.574930  1.0  -0.0494
  C  C196  1  0.095300  0.916650  0.545470  1.0  -0.1203
  C  C197  1  0.106800  0.815410  0.670240  1.0  0.6734
  C  C198  1  0.118600  0.048360  0.130680  1.0  0.7074
  C  C199  1  0.401700  0.395560  0.490000  1.0  -0.2421
  C  C200  1  0.472000  0.404620  0.556870  1.0  0.1507
  C  C201  1  0.446500  0.376870  0.614560  1.0  -0.2542
  C  C202  1  0.347800  0.339340  0.602630  1.0  0.1492
  C  C203  1  0.278700  0.328370  0.536360  1.0  -0.2443
  C  C204  1  0.306100  0.356920  0.479770  1.0  0.1365
  C  C205  1  0.688800  0.453730  0.519650  1.0  0.1389
  C  C206  1  0.743600  0.493940  0.612800  1.0  0.016
  C  C207  1  0.614900  0.468340  0.626000  1.0  -0.1161
  C  C208  1  0.168100  0.295870  0.675900  1.0  0.1469
  C  C209  1  0.420400  0.295760  0.716000  1.0  -0.1233
  C  C210  1  0.331900  0.271880  0.760200  1.0  0.033
  C  C211  1  0.149900  0.309440  0.391830  1.0  0.1455
  C  C212  1  0.161200  0.347720  0.298200  1.0  -0.0137
  C  C213  1  0.240600  0.371240  0.349900  1.0  -0.1392
  C  C214  1  0.173200  0.454930  0.708600  1.0  -0.1219
  C  C215  1  0.208900  0.497180  0.739370  1.0  -0.0403
  C  C216  1  0.247700  0.500740  0.812010  1.0  -0.1376
  C  C217  1  0.249800  0.462310  0.855690  1.0  0.0324
  C  C218  1  0.220400  0.420070  0.823870  1.0  -0.1002
  C  C219  1  0.181800  0.416530  0.751620  1.0  -0.0069
  C  C220  1  0.280500  0.466680  0.934070  1.0  0.033
  C  C221  1  0.233100  0.506290  0.968390  1.0  -0.108
  C  C222  1  0.258400  0.511580  0.041740  1.0  0.0099
  C  C223  1  0.332100  0.475830  0.080850  1.0  -0.1186
  C  C224  1  0.381700  0.436180  0.048450  1.0  -0.0349
  C  C225  1  0.354200  0.431810  0.974940  1.0  -0.0994
  C  C226  1  0.474500  0.400670  0.090720  1.0  0.036
  C  C227  1  0.449600  0.392180  0.161700  1.0  -0.147
  C  C228  1  0.545700  0.361350  0.201280  1.0  -0.0448
  C  C229  1  0.668100  0.338110  0.171190  1.0  -0.1412
  C  C230  1  0.691900  0.346020  0.100500  1.0  -0.0376
  C  C231  1  0.595800  0.376390  0.061060  1.0  -0.1048
  C  C232  1  0.777700  0.306830  0.214490  1.0  0.6645
  C  C233  1  0.216100  0.555220  0.075670  1.0  0.0259
  C  C234  1  0.301100  0.570550  0.137600  1.0  -0.1117
  C  C235  1  0.266400  0.612340  0.167800  1.0  -0.0415
  C  C236  1  0.147000  0.640190  0.137090  1.0  -0.1324
  C  C237  1  0.062700  0.625620  0.074930  1.0  -0.0497
  C  C238  1  0.095300  0.583350  0.045470  1.0  -0.1202
  C  C239  1  0.106800  0.684590  0.170240  1.0  0.6721
  C  C240  1  0.118600  0.451640  0.630680  1.0  0.7071
  C  C241  1  0.598300  0.895560  0.010000  1.0  -0.2427
  C  C242  1  0.528000  0.904620  0.943130  1.0  0.1503
  C  C243  1  0.553500  0.876870  0.885440  1.0  -0.2554
  C  C244  1  0.652200  0.839340  0.897370  1.0  0.1483
  C  C245  1  0.721300  0.828370  0.963640  1.0  -0.2433
  C  C246  1  0.693900  0.856920  0.020230  1.0  0.1357
  C  C247  1  0.311200  0.953730  0.980350  1.0  0.138
  C  C248  1  0.256400  0.993940  0.887200  1.0  0.0158
  C  C249  1  0.385100  0.968340  0.874000  1.0  -0.1145
  C  C250  1  0.831900  0.795870  0.824100  1.0  0.1473
  C  C251  1  0.579600  0.795760  0.784000  1.0  -0.1222
  C  C252  1  0.668100  0.771880  0.739800  1.0  0.032
  C  C253  1  0.850100  0.809440  0.108170  1.0  0.1455
  C  C254  1  0.838800  0.847720  0.201800  1.0  -0.0131
  C  C255  1  0.759400  0.871240  0.150100  1.0  -0.1408
  C  C256  1  0.826800  0.954930  0.791400  1.0  -0.1194
  C  C257  1  0.791100  0.997180  0.760630  1.0  -0.0406
  C  C258  1  0.752300  0.000740  0.687990  1.0  -0.138
  C  C259  1  0.750200  0.962310  0.644310  1.0  0.0326
  C  C260  1  0.779600  0.920070  0.676130  1.0  -0.0999
  C  C261  1  0.818200  0.916530  0.748380  1.0  -0.0058
  C  C262  1  0.719500  0.966680  0.565930  1.0  0.0328
  C  C263  1  0.766900  0.006290  0.531610  1.0  -0.1066
  C  C264  1  0.741600  0.011580  0.458260  1.0  0.0103
  C  C265  1  0.667900  0.975830  0.419150  1.0  -0.1167
  C  C266  1  0.618300  0.936180  0.451550  1.0  -0.0346
  C  C267  1  0.645800  0.931810  0.525060  1.0  -0.1002
  C  C268  1  0.525500  0.900670  0.409280  1.0  0.0362
  C  C269  1  0.550400  0.892180  0.338300  1.0  -0.1471
  C  C270  1  0.454300  0.861350  0.298720  1.0  -0.0445
  C  C271  1  0.331900  0.838110  0.328810  1.0  -0.1409
  C  C272  1  0.308100  0.846020  0.399500  1.0  -0.0362
  C  C273  1  0.404200  0.876390  0.438940  1.0  -0.1079
  C  C274  1  0.222300  0.806830  0.285510  1.0  0.6654
  C  C275  1  0.783900  0.055220  0.424330  1.0  0.026
  C  C276  1  0.698900  0.070550  0.362400  1.0  -0.1118
  C  C277  1  0.733600  0.112340  0.332200  1.0  -0.0414
  C  C278  1  0.853000  0.140190  0.362910  1.0  -0.1319
  C  C279  1  0.937300  0.125620  0.425070  1.0  -0.0498
  C  C280  1  0.904700  0.083350  0.454530  1.0  -0.1216
  C  C281  1  0.893200  0.184590  0.329760  1.0  0.6719
  C  C282  1  0.881400  0.951640  0.869320  1.0  0.7065
  N  N283  1  0.210400  0.515250  0.454090  1.0  -0.357
  N  N284  1  0.420400  0.557530  0.433980  1.0  0.0381
  N  N285  1  0.826600  0.727670  0.264750  1.0  -0.3616
  N  N286  1  0.685800  0.689030  0.338220  1.0  0.0481
  N  N287  1  0.895800  0.691500  0.675500  1.0  -0.3701
  N  N288  1  0.763600  0.653610  0.589250  1.0  0.0294
  N  N289  1  0.789600  0.015250  0.045910  1.0  -0.3563
  N  N290  1  0.579600  0.057530  0.066020  1.0  0.038
  N  N291  1  0.173400  0.227670  0.235250  1.0  -0.3625
  N  N292  1  0.314200  0.189030  0.161780  1.0  0.0477
  N  N293  1  0.104200  0.191500  0.824500  1.0  -0.3714
  N  N294  1  0.236400  0.153610  0.910750  1.0  0.0294
  N  N295  1  0.789600  0.484750  0.545910  1.0  -0.356
  N  N296  1  0.579600  0.442470  0.566020  1.0  0.0384
  N  N297  1  0.173400  0.272330  0.735250  1.0  -0.3624
  N  N298  1  0.314200  0.310970  0.661780  1.0  0.0475
  N  N299  1  0.104200  0.308500  0.324500  1.0  -0.3718
  N  N300  1  0.236400  0.346390  0.410750  1.0  0.0288
  N  N301  1  0.210400  0.984750  0.954090  1.0  -0.3576
  N  N302  1  0.420400  0.942470  0.933980  1.0  0.0383
  N  N303  1  0.826600  0.772330  0.764750  1.0  -0.3611
  N  N304  1  0.685800  0.810970  0.838220  1.0  0.0476
  N  N305  1  0.895800  0.808500  0.175500  1.0  -0.3701
  N  N306  1  0.763600  0.846390  0.089250  1.0  0.0286
  O  O307  1  0.872400  0.512140  0.405320  1.0  -0.5999
  O  O308  1  0.932800  0.586190  0.392580  1.0  -0.5772
  O  O309  1  0.104000  0.710400  0.814090  1.0  -0.5572
  O  O310  1  0.245200  0.702060  0.721740  1.0  -0.548
  O  O311  1  0.982200  0.286600  0.864420  1.0  -0.5582
  O  O312  1  0.842200  0.306130  0.766580  1.0  -0.5552
  O  O313  1  0.127600  0.012140  0.094680  1.0  -0.6007
  O  O314  1  0.067200  0.086190  0.107420  1.0  -0.5768
  O  O315  1  0.896000  0.210400  0.685910  1.0  -0.5566
  O  O316  1  0.754800  0.202060  0.778260  1.0  -0.5493
  O  O317  1  0.017800  0.786600  0.635580  1.0  -0.559
  O  O318  1  0.157800  0.806130  0.733420  1.0  -0.5548
  O  O319  1  0.127600  0.487860  0.594680  1.0  -0.6007
  O  O320  1  0.067200  0.413810  0.607420  1.0  -0.5772
  O  O321  1  0.896000  0.289600  0.185910  1.0  -0.5568
  O  O322  1  0.754800  0.297940  0.278260  1.0  -0.5491
  O  O323  1  0.017800  0.713400  0.135580  1.0  -0.5583
  O  O324  1  0.157800  0.693870  0.233420  1.0  -0.5554
  O  O325  1  0.872400  0.987860  0.905320  1.0  -0.6003
  O  O326  1  0.932800  0.913810  0.892580  1.0  -0.5767
  O  O327  1  0.104000  0.789600  0.314090  1.0  -0.5572
  O  O328  1  0.245200  0.797940  0.221740  1.0  -0.5488
  O  O329  1  0.982200  0.213400  0.364420  1.0  -0.5583
  O  O330  1  0.842200  0.193870  0.266580  1.0  -0.5546
