# generated using pymatgen
data_CoMo5H10C12(N5O6)2
_symmetry_space_group_name_H-M   'P 1'
_cell_length_a   30.90700000
_cell_length_b   11.14470000
_cell_length_c   7.43490000
_cell_angle_alpha   90.00000000
_cell_angle_beta   92.63000000
_cell_angle_gamma   90.00000000
_symmetry_Int_Tables_number   1
_chemical_formula_structural   CoMo5H10C12(N5O6)2
_chemical_formula_sum   'Co4 Mo20 H40 C48 N40 O48'
_cell_volume   2558.24818291
_cell_formula_units_Z   4
loop_
 _symmetry_equiv_pos_site_id
 _symmetry_equiv_pos_as_xyz
  1  'x, y, z'
loop_
 _atom_site_type_symbol
 _atom_site_label
 _atom_site_symmetry_multiplicity
 _atom_site_fract_x
 _atom_site_fract_y
 _atom_site_fract_z
 _atom_site_occupancy
 _atom_site_charge
  Co  Co1  1  0.750000  0.250000  0.000000  1.0  1.1537
  Co  Co2  1  0.250000  0.250000  0.500000  1.0  1.1537
  Co  Co3  1  0.250000  0.750000  0.000000  1.0  1.1537
  Co  Co4  1  0.750000  0.750000  0.500000  1.0  1.1537
  Mo  Mo5  1  0.791310  0.985010  0.826550  1.0  1.8008
  Mo  Mo6  1  0.909370  0.976860  0.768780  1.0  1.3848
  Mo  Mo7  1  0.291310  0.485010  0.826550  1.0  1.8008
  Mo  Mo8  1  0.409370  0.476860  0.768780  1.0  1.3848
  Mo  Mo9  1  0.208690  0.985010  0.673450  1.0  1.805
  Mo  Mo10  1  0.090630  0.976860  0.731220  1.0  1.3882
  Mo  Mo11  1  0.708690  0.485010  0.673450  1.0  1.805
  Mo  Mo12  1  0.590630  0.476860  0.731220  1.0  1.3882
  Mo  Mo13  1  0.208690  0.014990  0.173450  1.0  1.8052
  Mo  Mo14  1  0.090630  0.023140  0.231220  1.0  1.3863
  Mo  Mo15  1  0.708690  0.514990  0.173450  1.0  1.8052
  Mo  Mo16  1  0.590630  0.523140  0.231220  1.0  1.3863
  Mo  Mo17  1  0.791310  0.014990  0.326550  1.0  1.8011
  Mo  Mo18  1  0.909370  0.023140  0.268780  1.0  1.3835
  Mo  Mo19  1  0.291310  0.514990  0.326550  1.0  1.8011
  Mo  Mo20  1  0.409370  0.523140  0.268780  1.0  1.3835
  Mo  Mo21  1  0.000000  0.169310  0.750000  1.0  0.5878
  Mo  Mo22  1  0.500000  0.669310  0.750000  1.0  0.5878
  Mo  Mo23  1  0.000000  0.830690  0.250000  1.0  0.5859
  Mo  Mo24  1  0.500000  0.330690  0.250000  1.0  0.5859
  H  H25  1  0.915500  0.292700  0.887400  1.0  0.3509
  H  H26  1  0.920300  0.466400  0.011400  1.0  0.1522
  H  H27  1  0.864100  0.785100  0.003000  1.0  0.1232
  H  H28  1  0.797200  0.699500  0.951500  1.0  0.1455
  H  H29  1  0.792200  0.490600  0.925100  1.0  0.1201
  H  H30  1  0.415500  0.792700  0.887400  1.0  0.3509
  H  H31  1  0.420300  0.966400  0.011400  1.0  0.1522
  H  H32  1  0.364100  0.285100  0.003000  1.0  0.1232
  H  H33  1  0.297200  0.199500  0.951500  1.0  0.1455
  H  H34  1  0.292200  0.990600  0.925100  1.0  0.1201
  H  H35  1  0.084500  0.292700  0.612600  1.0  0.3542
  H  H36  1  0.079700  0.466400  0.488600  1.0  0.1521
  H  H37  1  0.135900  0.785100  0.497000  1.0  0.1225
  H  H38  1  0.202800  0.699500  0.548500  1.0  0.146
  H  H39  1  0.207800  0.490600  0.574900  1.0  0.1202
  H  H40  1  0.584500  0.792700  0.612600  1.0  0.3542
  H  H41  1  0.579700  0.966400  0.488600  1.0  0.1521
  H  H42  1  0.635900  0.285100  0.497000  1.0  0.1225
  H  H43  1  0.702800  0.199500  0.548500  1.0  0.146
  H  H44  1  0.707800  0.990600  0.574900  1.0  0.1202
  H  H45  1  0.084500  0.707300  0.112600  1.0  0.3542
  H  H46  1  0.079700  0.533600  0.988600  1.0  0.1522
  H  H47  1  0.135900  0.214900  0.997000  1.0  0.1232
  H  H48  1  0.202800  0.300500  0.048500  1.0  0.1462
  H  H49  1  0.207800  0.509400  0.074900  1.0  0.1201
  H  H50  1  0.584500  0.207300  0.112600  1.0  0.3542
  H  H51  1  0.579700  0.033600  0.988600  1.0  0.1522
  H  H52  1  0.635900  0.714900  0.997000  1.0  0.1232
  H  H53  1  0.702800  0.800500  0.048500  1.0  0.1462
  H  H54  1  0.707800  0.009400  0.074900  1.0  0.1201
  H  H55  1  0.915500  0.707300  0.387400  1.0  0.3513
  H  H56  1  0.920300  0.533600  0.511400  1.0  0.1522
  H  H57  1  0.864100  0.214900  0.503000  1.0  0.1243
  H  H58  1  0.797200  0.300500  0.451500  1.0  0.1457
  H  H59  1  0.792200  0.509400  0.425100  1.0  0.1201
  H  H60  1  0.415500  0.207300  0.387400  1.0  0.3513
  H  H61  1  0.420300  0.033600  0.511400  1.0  0.1522
  H  H62  1  0.364100  0.714900  0.503000  1.0  0.1243
  H  H63  1  0.297200  0.800500  0.451500  1.0  0.1457
  H  H64  1  0.292200  0.009400  0.425100  1.0  0.1201
  C  C65  1  0.855600  0.458000  0.965300  1.0  -0.0275
  C  C66  1  0.895270  0.512300  0.997400  1.0  0.1581
  C  C67  1  0.861580  0.702200  0.992800  1.0  0.1516
  C  C68  1  0.821890  0.652000  0.962300  1.0  -0.1429
  C  C69  1  0.819050  0.526900  0.947300  1.0  -0.0096
  C  C70  1  0.854340  0.328100  0.937700  1.0  0.4084
  C  C71  1  0.355600  0.958000  0.965300  1.0  -0.0275
  C  C72  1  0.395270  0.012300  0.997400  1.0  0.1581
  C  C73  1  0.361580  0.202200  0.992800  1.0  0.1516
  C  C74  1  0.321890  0.152000  0.962300  1.0  -0.1429
  C  C75  1  0.319050  0.026900  0.947300  1.0  -0.0096
  C  C76  1  0.354340  0.828100  0.937700  1.0  0.4084
  C  C77  1  0.144400  0.458000  0.534700  1.0  -0.0283
  C  C78  1  0.104730  0.512300  0.502600  1.0  0.159
  C  C79  1  0.138420  0.702200  0.507200  1.0  0.1525
  C  C80  1  0.178110  0.652000  0.537700  1.0  -0.1409
  C  C81  1  0.180950  0.526900  0.552700  1.0  -0.0088
  C  C82  1  0.145660  0.328100  0.562300  1.0  0.4094
  C  C83  1  0.644400  0.958000  0.534700  1.0  -0.0283
  C  C84  1  0.604730  0.012300  0.502600  1.0  0.159
  C  C85  1  0.638420  0.202200  0.507200  1.0  0.1525
  C  C86  1  0.678110  0.152000  0.537700  1.0  -0.1409
  C  C87  1  0.680950  0.026900  0.552700  1.0  -0.0088
  C  C88  1  0.645660  0.828100  0.562300  1.0  0.4094
  C  C89  1  0.144400  0.542000  0.034700  1.0  -0.0284
  C  C90  1  0.104730  0.487700  0.002600  1.0  0.1591
  C  C91  1  0.138420  0.297800  0.007200  1.0  0.1521
  C  C92  1  0.178110  0.348000  0.037700  1.0  -0.1407
  C  C93  1  0.180950  0.473100  0.052700  1.0  -0.0087
  C  C94  1  0.145660  0.671900  0.062300  1.0  0.4081
  C  C95  1  0.644400  0.042000  0.034700  1.0  -0.0284
  C  C96  1  0.604730  0.987700  0.002600  1.0  0.1591
  C  C97  1  0.638420  0.797800  0.007200  1.0  0.1521
  C  C98  1  0.678110  0.848000  0.037700  1.0  -0.1407
  C  C99  1  0.680950  0.973100  0.052700  1.0  -0.0087
  C  C100  1  0.645660  0.171900  0.062300  1.0  0.4081
  C  C101  1  0.855600  0.542000  0.465300  1.0  -0.0279
  C  C102  1  0.895270  0.487700  0.497400  1.0  0.1579
  C  C103  1  0.861580  0.297800  0.492800  1.0  0.1518
  C  C104  1  0.821890  0.348000  0.462300  1.0  -0.1425
  C  C105  1  0.819050  0.473100  0.447300  1.0  -0.0096
  C  C106  1  0.854340  0.671900  0.437700  1.0  0.4079
  C  C107  1  0.355600  0.042000  0.465300  1.0  -0.0279
  C  C108  1  0.395270  0.987700  0.497400  1.0  0.1579
  C  C109  1  0.361580  0.797800  0.492800  1.0  0.1518
  C  C110  1  0.321890  0.848000  0.462300  1.0  -0.1425
  C  C111  1  0.319050  0.973100  0.447300  1.0  -0.0096
  C  C112  1  0.354340  0.171900  0.437700  1.0  0.4079
  N  N113  1  0.897210  0.633700  0.008200  1.0  -0.4197
  N  N114  1  0.818980  0.259700  0.937900  1.0  -0.3169
  N  N115  1  0.833520  0.151800  0.889400  1.0  -0.2055
  N  N116  1  0.875350  0.157100  0.864600  1.0  -0.2129
  N  N117  1  0.889450  0.266400  0.894300  1.0  -0.1376
  N  N118  1  0.397210  0.133700  0.008200  1.0  -0.4197
  N  N119  1  0.318980  0.759700  0.937900  1.0  -0.3169
  N  N120  1  0.333520  0.651800  0.889400  1.0  -0.2055
  N  N121  1  0.375350  0.657100  0.864600  1.0  -0.2129
  N  N122  1  0.389450  0.766400  0.894300  1.0  -0.1376
  N  N123  1  0.102790  0.633700  0.491800  1.0  -0.4206
  N  N124  1  0.181020  0.259700  0.562100  1.0  -0.319
  N  N125  1  0.166480  0.151800  0.610600  1.0  -0.2062
  N  N126  1  0.124650  0.157100  0.635400  1.0  -0.214
  N  N127  1  0.110550  0.266400  0.605700  1.0  -0.1398
  N  N128  1  0.602790  0.133700  0.491800  1.0  -0.4206
  N  N129  1  0.681020  0.759700  0.562100  1.0  -0.319
  N  N130  1  0.666480  0.651800  0.610600  1.0  -0.2062
  N  N131  1  0.624650  0.657100  0.635400  1.0  -0.214
  N  N132  1  0.610550  0.766400  0.605700  1.0  -0.1398
  N  N133  1  0.102790  0.366300  0.991800  1.0  -0.4209
  N  N134  1  0.181020  0.740300  0.062100  1.0  -0.3193
  N  N135  1  0.166480  0.848200  0.110600  1.0  -0.2067
  N  N136  1  0.124650  0.842900  0.135400  1.0  -0.2162
  N  N137  1  0.110550  0.733600  0.105700  1.0  -0.1401
  N  N138  1  0.602790  0.866300  0.991800  1.0  -0.4209
  N  N139  1  0.681020  0.240300  0.062100  1.0  -0.3193
  N  N140  1  0.666480  0.348200  0.110600  1.0  -0.2067
  N  N141  1  0.624650  0.342900  0.135400  1.0  -0.2162
  N  N142  1  0.610550  0.233600  0.105700  1.0  -0.1401
  N  N143  1  0.897210  0.366300  0.508200  1.0  -0.4194
  N  N144  1  0.818980  0.740300  0.437900  1.0  -0.3168
  N  N145  1  0.833520  0.848200  0.389400  1.0  -0.2054
  N  N146  1  0.875350  0.842900  0.364600  1.0  -0.2143
  N  N147  1  0.889450  0.733600  0.394300  1.0  -0.1376
  N  N148  1  0.397210  0.866300  0.508200  1.0  -0.4194
  N  N149  1  0.318980  0.240300  0.437900  1.0  -0.3168
  N  N150  1  0.333520  0.348200  0.389400  1.0  -0.2054
  N  N151  1  0.375350  0.342900  0.364600  1.0  -0.2143
  N  N152  1  0.389450  0.233600  0.394300  1.0  -0.1376
  O  O153  1  0.765080  0.864500  0.718900  1.0  -0.6901
  O  O154  1  0.751410  0.096000  0.845800  1.0  -0.7019
  O  O155  1  0.798120  0.939500  0.051600  1.0  -0.7645
  O  O156  1  0.852260  0.933700  0.773600  1.0  -0.6649
  O  O157  1  0.909170  0.043200  0.552400  1.0  -0.6762
  O  O158  1  0.960930  0.074900  0.852100  1.0  -0.6964
  O  O159  1  0.265080  0.364500  0.718900  1.0  -0.6901
  O  O160  1  0.251410  0.596000  0.845800  1.0  -0.7019
  O  O161  1  0.298120  0.439500  0.051600  1.0  -0.7645
  O  O162  1  0.352260  0.433700  0.773600  1.0  -0.6649
  O  O163  1  0.409170  0.543200  0.552400  1.0  -0.6762
  O  O164  1  0.460930  0.574900  0.852100  1.0  -0.6964
  O  O165  1  0.234920  0.864500  0.781100  1.0  -0.6907
  O  O166  1  0.248590  0.096000  0.654200  1.0  -0.702
  O  O167  1  0.201880  0.939500  0.448400  1.0  -0.7638
  O  O168  1  0.147740  0.933700  0.726400  1.0  -0.6656
  O  O169  1  0.090830  0.043200  0.947600  1.0  -0.6771
  O  O170  1  0.039070  0.074900  0.647900  1.0  -0.6991
  O  O171  1  0.734920  0.364500  0.781100  1.0  -0.6907
  O  O172  1  0.748590  0.596000  0.654200  1.0  -0.702
  O  O173  1  0.701880  0.439500  0.448400  1.0  -0.7638
  O  O174  1  0.647740  0.433700  0.726400  1.0  -0.6656
  O  O175  1  0.590830  0.543200  0.947600  1.0  -0.6771
  O  O176  1  0.539070  0.574900  0.647900  1.0  -0.6991
  O  O177  1  0.234920  0.135500  0.281100  1.0  -0.6906
  O  O178  1  0.248590  0.904000  0.154200  1.0  -0.7022
  O  O179  1  0.201880  0.060500  0.948400  1.0  -0.7638
  O  O180  1  0.147740  0.066300  0.226400  1.0  -0.6651
  O  O181  1  0.090830  0.956800  0.447600  1.0  -0.6771
  O  O182  1  0.039070  0.925100  0.147900  1.0  -0.6991
  O  O183  1  0.734920  0.635500  0.281100  1.0  -0.6906
  O  O184  1  0.748590  0.404000  0.154200  1.0  -0.7022
  O  O185  1  0.701880  0.560500  0.948400  1.0  -0.7638
  O  O186  1  0.647740  0.566300  0.226400  1.0  -0.6651
  O  O187  1  0.590830  0.456800  0.447600  1.0  -0.6771
  O  O188  1  0.539070  0.425100  0.147900  1.0  -0.6991
  O  O189  1  0.765080  0.135500  0.218900  1.0  -0.6898
  O  O190  1  0.751410  0.904000  0.345800  1.0  -0.702
  O  O191  1  0.798120  0.060500  0.551600  1.0  -0.7644
  O  O192  1  0.852260  0.066300  0.273600  1.0  -0.6647
  O  O193  1  0.909170  0.956800  0.052400  1.0  -0.6759
  O  O194  1  0.960930  0.925100  0.352100  1.0  -0.6968
  O  O195  1  0.265080  0.635500  0.218900  1.0  -0.6898
  O  O196  1  0.251410  0.404000  0.345800  1.0  -0.702
  O  O197  1  0.298120  0.560500  0.551600  1.0  -0.7644
  O  O198  1  0.352260  0.566300  0.273600  1.0  -0.6647
  O  O199  1  0.409170  0.456800  0.052400  1.0  -0.6759
  O  O200  1  0.460930  0.425100  0.352100  1.0  -0.6968
