# generated using pymatgen
data_MnMo5H10C12(N5O6)2
_symmetry_space_group_name_H-M   'P 1'
_cell_length_a   31.11900000
_cell_length_b   11.29840000
_cell_length_c   7.49160000
_cell_angle_alpha   90.00000000
_cell_angle_beta   92.83900000
_cell_angle_gamma   90.00000000
_symmetry_Int_Tables_number   1
_chemical_formula_structural   MnMo5H10C12(N5O6)2
_chemical_formula_sum   'Mn4 Mo20 H40 C48 N40 O48'
_cell_volume   2630.77558762
_cell_formula_units_Z   4
loop_
 _symmetry_equiv_pos_site_id
 _symmetry_equiv_pos_as_xyz
  1  'x, y, z'
loop_
 _atom_site_type_symbol
 _atom_site_label
 _atom_site_symmetry_multiplicity
 _atom_site_fract_x
 _atom_site_fract_y
 _atom_site_fract_z
 _atom_site_occupancy
 _atom_site_charge
  Mn  Mn1  1  0.750000  0.750000  0.500000  1.0  1.1155
  Mn  Mn2  1  0.250000  0.750000  0.000000  1.0  1.1155
  Mn  Mn3  1  0.250000  0.250000  0.500000  1.0  1.1155
  Mn  Mn4  1  0.750000  0.250000  0.000000  1.0  1.1155
  Mo  Mo5  1  0.793170  0.485000  0.328290  1.0  1.8581
  Mo  Mo6  1  0.910510  0.477660  0.269890  1.0  1.3779
  Mo  Mo7  1  0.293170  0.985000  0.328290  1.0  1.8581
  Mo  Mo8  1  0.410510  0.977660  0.269890  1.0  1.3779
  Mo  Mo9  1  0.206830  0.485000  0.171710  1.0  1.8579
  Mo  Mo10  1  0.089490  0.477660  0.230110  1.0  1.3801
  Mo  Mo11  1  0.706830  0.985000  0.171710  1.0  1.8579
  Mo  Mo12  1  0.589490  0.977660  0.230110  1.0  1.3801
  Mo  Mo13  1  0.206830  0.515000  0.671710  1.0  1.8572
  Mo  Mo14  1  0.089490  0.522340  0.730110  1.0  1.3778
  Mo  Mo15  1  0.706830  0.015000  0.671710  1.0  1.8572
  Mo  Mo16  1  0.589490  0.022340  0.730110  1.0  1.3778
  Mo  Mo17  1  0.793170  0.515000  0.828290  1.0  1.8574
  Mo  Mo18  1  0.910510  0.522340  0.769890  1.0  1.3758
  Mo  Mo19  1  0.293170  0.015000  0.828290  1.0  1.8574
  Mo  Mo20  1  0.410510  0.022340  0.769890  1.0  1.3758
  Mo  Mo21  1  0.000000  0.669330  0.250000  1.0  0.5387
  Mo  Mo22  1  0.500000  0.169330  0.250000  1.0  0.5387
  Mo  Mo23  1  0.000000  0.330670  0.750000  1.0  0.5383
  Mo  Mo24  1  0.500000  0.830670  0.750000  1.0  0.5383
  H  H25  1  0.917100  0.792700  0.376500  1.0  0.346
  H  H26  1  0.921800  0.969200  0.497600  1.0  0.1337
  H  H27  1  0.863900  0.283200  0.503300  1.0  0.1208
  H  H28  1  0.797800  0.192900  0.448400  1.0  0.116
  H  H29  1  0.794100  0.988100  0.419900  1.0  0.1122
  H  H30  1  0.417100  0.292700  0.376500  1.0  0.346
  H  H31  1  0.421800  0.469200  0.497600  1.0  0.1337
  H  H32  1  0.363900  0.783200  0.503300  1.0  0.1208
  H  H33  1  0.297800  0.692900  0.448400  1.0  0.116
  H  H34  1  0.294100  0.488100  0.419900  1.0  0.1122
  H  H35  1  0.082900  0.792700  0.123500  1.0  0.3474
  H  H36  1  0.078200  0.969200  0.002400  1.0  0.134
  H  H37  1  0.136100  0.283200  0.996700  1.0  0.121
  H  H38  1  0.202200  0.192900  0.051600  1.0  0.1156
  H  H39  1  0.205900  0.988100  0.080100  1.0  0.113
  H  H40  1  0.582900  0.292700  0.123500  1.0  0.3474
  H  H41  1  0.578200  0.469200  0.002400  1.0  0.134
  H  H42  1  0.636100  0.783200  0.996700  1.0  0.121
  H  H43  1  0.702200  0.692900  0.051600  1.0  0.1156
  H  H44  1  0.705900  0.488100  0.080100  1.0  0.113
  H  H45  1  0.082900  0.207300  0.623500  1.0  0.3475
  H  H46  1  0.078200  0.030800  0.502400  1.0  0.134
  H  H47  1  0.136100  0.716800  0.496700  1.0  0.1208
  H  H48  1  0.202200  0.807100  0.551600  1.0  0.1156
  H  H49  1  0.205900  0.011900  0.580100  1.0  0.1128
  H  H50  1  0.582900  0.707300  0.623500  1.0  0.3475
  H  H51  1  0.578200  0.530800  0.502400  1.0  0.134
  H  H52  1  0.636100  0.216800  0.496700  1.0  0.1208
  H  H53  1  0.702200  0.307100  0.551600  1.0  0.1156
  H  H54  1  0.705900  0.511900  0.580100  1.0  0.1128
  H  H55  1  0.917100  0.207300  0.876500  1.0  0.3466
  H  H56  1  0.921800  0.030800  0.997600  1.0  0.1339
  H  H57  1  0.863900  0.716800  0.003300  1.0  0.1205
  H  H58  1  0.797800  0.807100  0.948400  1.0  0.1159
  H  H59  1  0.794100  0.011900  0.919900  1.0  0.1123
  H  H60  1  0.417100  0.707300  0.876500  1.0  0.3466
  H  H61  1  0.421800  0.530800  0.997600  1.0  0.1339
  H  H62  1  0.363900  0.216800  0.003300  1.0  0.1205
  H  H63  1  0.297800  0.307100  0.948400  1.0  0.1159
  H  H64  1  0.294100  0.511900  0.919900  1.0  0.1123
  C  C65  1  0.857500  0.958500  0.456400  1.0  0.0032
  C  C66  1  0.896600  0.013600  0.487300  1.0  0.1656
  C  C67  1  0.862200  0.201400  0.490400  1.0  0.1608
  C  C68  1  0.822800  0.147600  0.458500  1.0  -0.0939
  C  C69  1  0.820500  0.025000  0.441400  1.0  -0.0163
  C  C70  1  0.856600  0.829400  0.432600  1.0  0.3714
  C  C71  1  0.357500  0.458500  0.456400  1.0  0.0032
  C  C72  1  0.396600  0.513600  0.487300  1.0  0.1656
  C  C73  1  0.362200  0.701400  0.490400  1.0  0.1608
  C  C74  1  0.322800  0.647600  0.458500  1.0  -0.0939
  C  C75  1  0.320500  0.525000  0.441400  1.0  -0.0163
  C  C76  1  0.356600  0.329400  0.432600  1.0  0.3714
  C  C77  1  0.142500  0.958500  0.043600  1.0  0.0046
  C  C78  1  0.103400  0.013600  0.012700  1.0  0.1671
  C  C79  1  0.137800  0.201400  0.009600  1.0  0.1625
  C  C80  1  0.177200  0.147600  0.041500  1.0  -0.0922
  C  C81  1  0.179500  0.025000  0.058600  1.0  -0.0172
  C  C82  1  0.143400  0.829400  0.067400  1.0  0.373
  C  C83  1  0.642500  0.458500  0.043600  1.0  0.0046
  C  C84  1  0.603400  0.513600  0.012700  1.0  0.1671
  C  C85  1  0.637800  0.701400  0.009600  1.0  0.1625
  C  C86  1  0.677200  0.647600  0.041500  1.0  -0.0922
  C  C87  1  0.679500  0.525000  0.058600  1.0  -0.0172
  C  C88  1  0.643400  0.329400  0.067400  1.0  0.373
  C  C89  1  0.142500  0.041500  0.543600  1.0  0.0035
  C  C90  1  0.103400  0.986400  0.512700  1.0  0.1677
  C  C91  1  0.137800  0.798600  0.509600  1.0  0.162
  C  C92  1  0.177200  0.852400  0.541500  1.0  -0.0915
  C  C93  1  0.179500  0.975000  0.558600  1.0  -0.0166
  C  C94  1  0.143400  0.170600  0.567400  1.0  0.3721
  C  C95  1  0.642500  0.541500  0.543600  1.0  0.0035
  C  C96  1  0.603400  0.486400  0.512700  1.0  0.1677
  C  C97  1  0.637800  0.298600  0.509600  1.0  0.162
  C  C98  1  0.677200  0.352400  0.541500  1.0  -0.0915
  C  C99  1  0.679500  0.475000  0.558600  1.0  -0.0166
  C  C100  1  0.643400  0.670600  0.567400  1.0  0.3721
  C  C101  1  0.857500  0.041500  0.956400  1.0  0.0019
  C  C102  1  0.896600  0.986400  0.987300  1.0  0.1653
  C  C103  1  0.862200  0.798600  0.990400  1.0  0.1607
  C  C104  1  0.822800  0.852400  0.958500  1.0  -0.0929
  C  C105  1  0.820500  0.975000  0.941400  1.0  -0.0159
  C  C106  1  0.856600  0.170600  0.932600  1.0  0.3707
  C  C107  1  0.357500  0.541500  0.956400  1.0  0.0019
  C  C108  1  0.396600  0.486400  0.987300  1.0  0.1653
  C  C109  1  0.362200  0.298600  0.990400  1.0  0.1607
  C  C110  1  0.322800  0.352400  0.958500  1.0  -0.0929
  C  C111  1  0.320500  0.475000  0.941400  1.0  -0.0159
  C  C112  1  0.356600  0.670600  0.932600  1.0  0.3707
  N  N113  1  0.898200  0.135100  0.502800  1.0  -0.4317
  N  N114  1  0.821600  0.761600  0.433000  1.0  -0.3202
  N  N115  1  0.835800  0.653500  0.387700  1.0  -0.1928
  N  N116  1  0.877200  0.657800  0.363600  1.0  -0.2282
  N  N117  1  0.891400  0.766900  0.387400  1.0  -0.1426
  N  N118  1  0.398200  0.635100  0.502800  1.0  -0.4317
  N  N119  1  0.321600  0.261600  0.433000  1.0  -0.3202
  N  N120  1  0.335800  0.153500  0.387700  1.0  -0.1928
  N  N121  1  0.377200  0.157800  0.363600  1.0  -0.2282
  N  N122  1  0.391400  0.266900  0.387400  1.0  -0.1426
  N  N123  1  0.101800  0.135100  0.997200  1.0  -0.4316
  N  N124  1  0.178400  0.761600  0.067000  1.0  -0.3229
  N  N125  1  0.164200  0.653500  0.112300  1.0  -0.1949
  N  N126  1  0.122800  0.657800  0.136400  1.0  -0.226
  N  N127  1  0.108600  0.766900  0.112600  1.0  -0.1451
  N  N128  1  0.601800  0.635100  0.997200  1.0  -0.4316
  N  N129  1  0.678400  0.261600  0.067000  1.0  -0.3229
  N  N130  1  0.664200  0.153500  0.112300  1.0  -0.1949
  N  N131  1  0.622800  0.157800  0.136400  1.0  -0.226
  N  N132  1  0.608600  0.266900  0.112600  1.0  -0.1451
  N  N133  1  0.101800  0.864900  0.497200  1.0  -0.4317
  N  N134  1  0.178400  0.238400  0.567000  1.0  -0.3233
  N  N135  1  0.164200  0.346500  0.612300  1.0  -0.1954
  N  N136  1  0.122800  0.342200  0.636400  1.0  -0.2281
  N  N137  1  0.108600  0.233100  0.612600  1.0  -0.1448
  N  N138  1  0.601800  0.364900  0.497200  1.0  -0.4317
  N  N139  1  0.678400  0.738400  0.567000  1.0  -0.3233
  N  N140  1  0.664200  0.846500  0.612300  1.0  -0.1954
  N  N141  1  0.622800  0.842200  0.636400  1.0  -0.2281
  N  N142  1  0.608600  0.733100  0.612600  1.0  -0.1448
  N  N143  1  0.898200  0.864900  0.002800  1.0  -0.4311
  N  N144  1  0.821600  0.238400  0.933000  1.0  -0.3203
  N  N145  1  0.835800  0.346500  0.887700  1.0  -0.1929
  N  N146  1  0.877200  0.342200  0.863600  1.0  -0.2292
  N  N147  1  0.891400  0.233100  0.887400  1.0  -0.1421
  N  N148  1  0.398200  0.364900  0.002800  1.0  -0.4311
  N  N149  1  0.321600  0.738400  0.933000  1.0  -0.3203
  N  N150  1  0.335800  0.846500  0.887700  1.0  -0.1929
  N  N151  1  0.377200  0.842200  0.863600  1.0  -0.2292
  N  N152  1  0.391400  0.733100  0.887400  1.0  -0.1421
  O  O153  1  0.752900  0.593200  0.341000  1.0  -0.6914
  O  O154  1  0.767000  0.364600  0.226500  1.0  -0.6289
  O  O155  1  0.800300  0.555400  0.053700  1.0  -0.7692
  O  O156  1  0.853900  0.436000  0.276100  1.0  -0.6732
  O  O157  1  0.910500  0.541200  0.052600  1.0  -0.6935
  O  O158  1  0.961400  0.575900  0.354900  1.0  -0.708
  O  O159  1  0.252900  0.093200  0.341000  1.0  -0.6914
  O  O160  1  0.267000  0.864600  0.226500  1.0  -0.6289
  O  O161  1  0.300300  0.055400  0.053700  1.0  -0.7692
  O  O162  1  0.353900  0.936000  0.276100  1.0  -0.6732
  O  O163  1  0.410500  0.041200  0.052600  1.0  -0.6935
  O  O164  1  0.461400  0.075900  0.354900  1.0  -0.708
  O  O165  1  0.247100  0.593200  0.159000  1.0  -0.6919
  O  O166  1  0.233000  0.364600  0.273500  1.0  -0.6291
  O  O167  1  0.199700  0.555400  0.446300  1.0  -0.7689
  O  O168  1  0.146100  0.436000  0.223900  1.0  -0.6744
  O  O169  1  0.089500  0.541200  0.447400  1.0  -0.6958
  O  O170  1  0.038600  0.575900  0.145100  1.0  -0.7104
  O  O171  1  0.747100  0.093200  0.159000  1.0  -0.6919
  O  O172  1  0.733000  0.864600  0.273500  1.0  -0.6291
  O  O173  1  0.699700  0.055400  0.446300  1.0  -0.7689
  O  O174  1  0.646100  0.936000  0.223900  1.0  -0.6744
  O  O175  1  0.589500  0.041200  0.447400  1.0  -0.6958
  O  O176  1  0.538600  0.075900  0.145100  1.0  -0.7104
  O  O177  1  0.247100  0.406800  0.659000  1.0  -0.6919
  O  O178  1  0.233000  0.635400  0.773500  1.0  -0.6289
  O  O179  1  0.199700  0.444600  0.946300  1.0  -0.7689
  O  O180  1  0.146100  0.564000  0.723900  1.0  -0.6744
  O  O181  1  0.089500  0.458800  0.947400  1.0  -0.6957
  O  O182  1  0.038600  0.424100  0.645100  1.0  -0.7104
  O  O183  1  0.747100  0.906800  0.659000  1.0  -0.6919
  O  O184  1  0.733000  0.135400  0.773500  1.0  -0.6289
  O  O185  1  0.699700  0.944600  0.946300  1.0  -0.7689
  O  O186  1  0.646100  0.064000  0.723900  1.0  -0.6744
  O  O187  1  0.589500  0.958800  0.947400  1.0  -0.6957
  O  O188  1  0.538600  0.924100  0.645100  1.0  -0.7104
  O  O189  1  0.752900  0.406800  0.841000  1.0  -0.6915
  O  O190  1  0.767000  0.635400  0.726500  1.0  -0.6288
  O  O191  1  0.800300  0.444600  0.553700  1.0  -0.7695
  O  O192  1  0.853900  0.564000  0.776100  1.0  -0.6735
  O  O193  1  0.910500  0.458800  0.552600  1.0  -0.6935
  O  O194  1  0.961400  0.424100  0.854900  1.0  -0.7087
  O  O195  1  0.252900  0.906800  0.841000  1.0  -0.6915
  O  O196  1  0.267000  0.135400  0.726500  1.0  -0.6288
  O  O197  1  0.300300  0.944600  0.553700  1.0  -0.7695
  O  O198  1  0.353900  0.064000  0.776100  1.0  -0.6735
  O  O199  1  0.410500  0.958800  0.552600  1.0  -0.6935
  O  O200  1  0.461400  0.924100  0.854900  1.0  -0.7087
