# generated using pymatgen
data_ZnNiH8C15N7O
_symmetry_space_group_name_H-M   'P 1'
_cell_length_a   7.36200000
_cell_length_b   12.94600000
_cell_length_c   13.62800000
_cell_angle_alpha   90.00000000
_cell_angle_beta   91.31200000
_cell_angle_gamma   90.00000000
_symmetry_Int_Tables_number   1
_chemical_formula_structural   ZnNiH8C15N7O
_chemical_formula_sum   'Zn2 Ni2 H16 C30 N14 O2'
_cell_volume   1298.52306829
_cell_formula_units_Z   2
loop_
 _symmetry_equiv_pos_site_id
 _symmetry_equiv_pos_as_xyz
  1  'x, y, z'
loop_
 _atom_site_type_symbol
 _atom_site_label
 _atom_site_symmetry_multiplicity
 _atom_site_fract_x
 _atom_site_fract_y
 _atom_site_fract_z
 _atom_site_occupancy
 _atom_site_charge
  Zn  Zn1  1  0.500240  0.250000  0.086240  1.0  0.8023
  Zn  Zn2  1  0.499760  0.750000  0.913760  1.0  0.8027
  Ni  Ni3  1  0.000000  0.000000  0.000000  1.0  0.1854
  Ni  Ni4  1  0.000000  0.500000  0.000000  1.0  0.1854
  H  H5  1  0.521100  0.404400  0.909700  1.0  0.0883
  H  H6  1  0.563600  0.403500  0.741200  1.0  0.1106
  H  H7  1  0.458700  0.404800  0.433700  1.0  0.1285
  H  H8  1  0.504700  0.402700  0.265100  1.0  0.0928
  H  H9  1  0.478900  0.904400  0.090300  1.0  0.0883
  H  H10  1  0.436400  0.903500  0.258800  1.0  0.1104
  H  H11  1  0.541300  0.904800  0.566300  1.0  0.1292
  H  H12  1  0.495300  0.902700  0.734900  1.0  0.0925
  H  H13  1  0.478900  0.595600  0.090300  1.0  0.0882
  H  H14  1  0.436400  0.596500  0.258800  1.0  0.11
  H  H15  1  0.541300  0.595200  0.566300  1.0  0.1291
  H  H16  1  0.495300  0.597300  0.734900  1.0  0.0923
  H  H17  1  0.521100  0.095600  0.909700  1.0  0.0884
  H  H18  1  0.563600  0.096500  0.741200  1.0  0.1101
  H  H19  1  0.458700  0.095200  0.433700  1.0  0.1288
  H  H20  1  0.504700  0.097300  0.265100  1.0  0.0924
  C  C21  1  0.827700  0.078200  0.046400  1.0  0.0417
  C  C22  1  0.199500  0.091700  0.037800  1.0  0.0933
  C  C23  1  0.530600  0.341800  0.876700  1.0  0.1481
  C  C24  1  0.551700  0.341400  0.774700  1.0  -0.1415
  C  C25  1  0.469000  0.342500  0.400200  1.0  -0.227
  C  C26  1  0.494800  0.340700  0.299000  1.0  0.1736
  C  C27  1  0.172300  0.578200  0.953600  1.0  0.0456
  C  C28  1  0.800500  0.591700  0.962200  1.0  0.0919
  C  C29  1  0.469400  0.841800  0.123300  1.0  0.1485
  C  C30  1  0.448300  0.841400  0.225300  1.0  -0.1417
  C  C31  1  0.531000  0.842500  0.599800  1.0  -0.2247
  C  C32  1  0.505200  0.840700  0.701000  1.0  0.1727
  C  C33  1  0.172300  0.921800  0.953600  1.0  0.0493
  C  C34  1  0.800500  0.908300  0.962200  1.0  0.0942
  C  C35  1  0.469400  0.658200  0.123300  1.0  0.1483
  C  C36  1  0.448300  0.658600  0.225300  1.0  -0.138
  C  C37  1  0.531000  0.657500  0.599800  1.0  -0.2242
  C  C38  1  0.505200  0.659300  0.701000  1.0  0.1737
  C  C39  1  0.827700  0.421800  0.046400  1.0  0.0438
  C  C40  1  0.199500  0.408300  0.037800  1.0  0.0959
  C  C41  1  0.530600  0.158200  0.876700  1.0  0.1482
  C  C42  1  0.551700  0.158600  0.774700  1.0  -0.1385
  C  C43  1  0.469000  0.157500  0.400200  1.0  -0.2248
  C  C44  1  0.494800  0.159300  0.299000  1.0  0.1733
  C  C45  1  0.554700  0.250000  0.723900  1.0  0.0105
  C  C46  1  0.575800  0.250000  0.615000  1.0  0.5115
  C  C47  1  0.459300  0.250000  0.448700  1.0  0.2949
  C  C48  1  0.445300  0.750000  0.276100  1.0  0.0038
  C  C49  1  0.424200  0.750000  0.385000  1.0  0.5113
  C  C50  1  0.540700  0.750000  0.551300  1.0  0.2959
  N  N51  1  0.305500  0.139800  0.076500  1.0  -0.3446
  N  N52  1  0.710300  0.133600  0.077700  1.0  -0.3725
  N  N53  1  0.694500  0.639800  0.923500  1.0  -0.3458
  N  N54  1  0.289700  0.633600  0.922300  1.0  -0.3722
  N  N55  1  0.694500  0.860200  0.923500  1.0  -0.3457
  N  N56  1  0.289700  0.866400  0.922300  1.0  -0.3724
  N  N57  1  0.305500  0.360200  0.076500  1.0  -0.3443
  N  N58  1  0.710300  0.366400  0.077700  1.0  -0.3725
  N  N59  1  0.523800  0.250000  0.929000  1.0  -0.2964
  N  N60  1  0.439700  0.250000  0.559000  1.0  -0.3806
  N  N61  1  0.505700  0.250000  0.248900  1.0  -0.3139
  N  N62  1  0.476200  0.750000  0.071000  1.0  -0.2962
  N  N63  1  0.560300  0.750000  0.441000  1.0  -0.359
  N  N64  1  0.494300  0.750000  0.751100  1.0  -0.3137
  O  O65  1  0.731200  0.250000  0.577400  1.0  -0.4239
  O  O66  1  0.268800  0.750000  0.422600  1.0  -0.4116
