# generated using pymatgen
data_CdH10C16(N3O2)2
_symmetry_space_group_name_H-M   'P 1'
_cell_length_a   11.44000000
_cell_length_b   13.75570000
_cell_length_c   13.78000000
_cell_angle_alpha   103.23400000
_cell_angle_beta   90.00000000
_cell_angle_gamma   114.57200000
_symmetry_Int_Tables_number   1
_chemical_formula_structural   CdH10C16(N3O2)2
_chemical_formula_sum   'Cd4 H40 C64 N24 O16'
_cell_volume   1908.60830873
_cell_formula_units_Z   4
loop_
 _symmetry_equiv_pos_site_id
 _symmetry_equiv_pos_as_xyz
  1  'x, y, z'
loop_
 _atom_site_type_symbol
 _atom_site_label
 _atom_site_symmetry_multiplicity
 _atom_site_fract_x
 _atom_site_fract_y
 _atom_site_fract_z
 _atom_site_occupancy
 _atom_site_charge
  Cd  Cd1  1  0.402490  0.445420  0.368600  1.0  0.9497
  Cd  Cd2  1  0.957070  0.554580  0.131400  1.0  0.9498
  Cd  Cd3  1  0.597510  0.554580  0.631400  1.0  0.9484
  Cd  Cd4  1  0.042930  0.445420  0.868600  1.0  0.9496
  H  H5  1  0.271800  0.347600  0.783900  1.0  0.0936
  H  H6  1  0.431700  0.313400  0.843900  1.0  0.0808
  H  H7  1  0.209200  0.198800  0.370600  1.0  0.0786
  H  H8  1  0.193800  0.026800  0.375500  1.0  0.144
  H  H9  1  0.581600  0.145400  0.372500  1.0  0.1408
  H  H10  1  0.584800  0.312800  0.366900  1.0  0.0786
  H  H11  1  0.248000  0.763800  0.377300  1.0  0.13
  H  H12  1  0.233100  0.591400  0.381100  1.0  0.0748
  H  H13  1  0.607200  0.691000  0.371200  1.0  0.0845
  H  H14  1  0.634000  0.864800  0.365600  1.0  0.1467
  H  H15  1  0.924200  0.652400  0.716100  1.0  0.0928
  H  H16  1  0.118300  0.686600  0.656100  1.0  0.0805
  H  H17  1  0.010400  0.801200  0.129400  1.0  0.0781
  H  H18  1  0.167000  0.973200  0.124500  1.0  0.1443
  H  H19  1  0.436200  0.854600  0.127500  1.0  0.1406
  H  H20  1  0.272000  0.687200  0.133100  1.0  0.0786
  H  H21  1  0.484200  0.236200  0.122700  1.0  0.1299
  H  H22  1  0.641700  0.408600  0.118900  1.0  0.0749
  H  H23  1  0.916200  0.309000  0.128800  1.0  0.0848
  H  H24  1  0.769200  0.135200  0.134400  1.0  0.1463
  H  H25  1  0.728200  0.652400  0.216100  1.0  0.0928
  H  H26  1  0.568300  0.686600  0.156100  1.0  0.0806
  H  H27  1  0.790800  0.801200  0.629400  1.0  0.0782
  H  H28  1  0.806200  0.973200  0.624500  1.0  0.1436
  H  H29  1  0.418400  0.854600  0.627500  1.0  0.1402
  H  H30  1  0.415200  0.687200  0.633100  1.0  0.0784
  H  H31  1  0.752000  0.236200  0.622700  1.0  0.1297
  H  H32  1  0.766900  0.408600  0.618900  1.0  0.0747
  H  H33  1  0.392800  0.309000  0.628800  1.0  0.0849
  H  H34  1  0.366000  0.135200  0.634400  1.0  0.1468
  H  H35  1  0.075800  0.347600  0.283900  1.0  0.0934
  H  H36  1  0.881700  0.313400  0.343900  1.0  0.0806
  H  H37  1  0.989600  0.198800  0.870600  1.0  0.0787
  H  H38  1  0.833000  0.026800  0.875500  1.0  0.1438
  H  H39  1  0.563800  0.145400  0.872500  1.0  0.1403
  H  H40  1  0.728000  0.312800  0.866900  1.0  0.0786
  H  H41  1  0.515800  0.763800  0.877300  1.0  0.1296
  H  H42  1  0.358300  0.591400  0.881100  1.0  0.0749
  H  H43  1  0.083800  0.691000  0.871200  1.0  0.0845
  H  H44  1  0.230800  0.864800  0.865600  1.0  0.1478
  C  C45  1  0.328100  0.375800  0.048100  1.0  0.1341
  C  C46  1  0.239200  0.406000  0.013200  1.0  0.04
  C  C47  1  0.286600  0.358200  0.854200  1.0  0.1079
  C  C48  1  0.379400  0.334600  0.889700  1.0  0.1134
  C  C49  1  0.348900  0.379600  0.158300  1.0  0.6204
  C  C50  1  0.169500  0.459800  0.084300  1.0  0.6033
  C  C51  1  0.285800  0.187600  0.370700  1.0  0.1773
  C  C52  1  0.275700  0.085200  0.374000  1.0  -0.2306
  C  C53  1  0.386500  0.068400  0.375100  1.0  0.2294
  C  C54  1  0.503800  0.154600  0.372100  1.0  -0.223
  C  C55  1  0.504100  0.253600  0.368700  1.0  0.1854
  C  C56  1  0.443200  0.833800  0.372000  1.0  0.2269
  C  C57  1  0.323400  0.750800  0.376100  1.0  -0.2095
  C  C58  1  0.315500  0.648200  0.378300  1.0  0.1993
  C  C59  1  0.533600  0.706600  0.372300  1.0  0.1698
  C  C60  1  0.550600  0.810000  0.369400  1.0  -0.2371
  C  C61  1  0.952300  0.624200  0.451900  1.0  0.1333
  C  C62  1  0.833200  0.594000  0.486800  1.0  0.0396
  C  C63  1  0.928400  0.641800  0.645800  1.0  0.1047
  C  C64  1  0.044800  0.665400  0.610300  1.0  0.1141
  C  C65  1  0.969300  0.620400  0.341700  1.0  0.6208
  C  C66  1  0.709700  0.540200  0.415700  1.0  0.6026
  C  C67  1  0.098200  0.812400  0.129300  1.0  0.177
  C  C68  1  0.190500  0.914800  0.126000  1.0  -0.232
  C  C69  1  0.318100  0.931600  0.124900  1.0  0.2306
  C  C70  1  0.349200  0.845400  0.127900  1.0  -0.2231
  C  C71  1  0.250500  0.746400  0.131300  1.0  0.1853
  C  C72  1  0.609400  0.166200  0.128000  1.0  0.2266
  C  C73  1  0.572600  0.249200  0.123900  1.0  -0.2097
  C  C74  1  0.667300  0.351800  0.121700  1.0  0.1985
  C  C75  1  0.827000  0.293400  0.127700  1.0  0.1694
  C  C76  1  0.740600  0.190000  0.130600  1.0  -0.2367
  C  C77  1  0.671900  0.624200  0.951900  1.0  0.1333
  C  C78  1  0.760800  0.594000  0.986800  1.0  0.0397
  C  C79  1  0.713400  0.641800  0.145800  1.0  0.1057
  C  C80  1  0.620600  0.665400  0.110300  1.0  0.112
  C  C81  1  0.651100  0.620400  0.841700  1.0  0.6216
  C  C82  1  0.830500  0.540200  0.915700  1.0  0.603
  C  C83  1  0.714200  0.812400  0.629300  1.0  0.1768
  C  C84  1  0.724300  0.914800  0.626000  1.0  -0.2287
  C  C85  1  0.613500  0.931600  0.624900  1.0  0.2302
  C  C86  1  0.496200  0.845400  0.627900  1.0  -0.2233
  C  C87  1  0.495900  0.746400  0.631300  1.0  0.1853
  C  C88  1  0.556800  0.166200  0.628000  1.0  0.2266
  C  C89  1  0.676600  0.249200  0.623900  1.0  -0.2108
  C  C90  1  0.684500  0.351800  0.621700  1.0  0.1977
  C  C91  1  0.466400  0.293400  0.627700  1.0  0.1711
  C  C92  1  0.449400  0.190000  0.630600  1.0  -0.2396
  C  C93  1  0.047700  0.375800  0.548100  1.0  0.134
  C  C94  1  0.166800  0.406000  0.513200  1.0  0.0406
  C  C95  1  0.071600  0.358200  0.354200  1.0  0.1086
  C  C96  1  0.955200  0.334600  0.389700  1.0  0.1121
  C  C97  1  0.030700  0.379600  0.658300  1.0  0.621
  C  C98  1  0.290300  0.459800  0.584300  1.0  0.604
  C  C99  1  0.901800  0.187600  0.870700  1.0  0.1767
  C  C100  1  0.809500  0.085200  0.874000  1.0  -0.2281
  C  C101  1  0.681900  0.068400  0.875100  1.0  0.2295
  C  C102  1  0.650800  0.154600  0.872100  1.0  -0.2234
  C  C103  1  0.749500  0.253600  0.868700  1.0  0.1851
  C  C104  1  0.390600  0.833800  0.872000  1.0  0.2269
  C  C105  1  0.427400  0.750800  0.876100  1.0  -0.2107
  C  C106  1  0.332700  0.648200  0.878300  1.0  0.1984
  C  C107  1  0.173000  0.706600  0.872300  1.0  0.1718
  C  C108  1  0.259400  0.810000  0.869400  1.0  -0.2398
  N  N109  1  0.400600  0.340000  0.986600  1.0  -0.3301
  N  N110  1  0.215100  0.396000  0.914600  1.0  -0.2784
  N  N111  1  0.398300  0.272200  0.367700  1.0  -0.3296
  N  N112  1  0.417400  0.625200  0.376800  1.0  -0.3337
  N  N113  1  0.367900  0.960000  0.380500  1.0  -0.1346
  N  N114  1  0.465400  0.943800  0.370800  1.0  -0.1404
  N  N115  1  0.060600  0.660000  0.513400  1.0  -0.3318
  N  N116  1  0.819100  0.604000  0.585400  1.0  -0.2795
  N  N117  1  0.126100  0.727800  0.132300  1.0  -0.3292
  N  N118  1  0.792200  0.374800  0.123200  1.0  -0.3352
  N  N119  1  0.407900  0.040000  0.119500  1.0  -0.1341
  N  N120  1  0.521600  0.056200  0.129200  1.0  -0.1401
  N  N121  1  0.599400  0.660000  0.013400  1.0  -0.3294
  N  N122  1  0.784900  0.604000  0.085400  1.0  -0.2791
  N  N123  1  0.601700  0.727800  0.632300  1.0  -0.3283
  N  N124  1  0.582600  0.374800  0.623200  1.0  -0.3355
  N  N125  1  0.632100  0.040000  0.619500  1.0  -0.1338
  N  N126  1  0.534600  0.056200  0.629200  1.0  -0.1409
  N  N127  1  0.939400  0.340000  0.486600  1.0  -0.3292
  N  N128  1  0.180900  0.396000  0.414600  1.0  -0.2778
  N  N129  1  0.873900  0.272200  0.867700  1.0  -0.3291
  N  N130  1  0.207800  0.625200  0.876800  1.0  -0.3345
  N  N131  1  0.592100  0.960000  0.880500  1.0  -0.1333
  N  N132  1  0.478400  0.943800  0.870800  1.0  -0.1405
  O  O133  1  0.449300  0.452000  0.207700  1.0  -0.5781
  O  O134  1  0.261600  0.308200  0.190500  1.0  -0.6201
  O  O135  1  0.210000  0.494400  0.171600  1.0  -0.5223
  O  O136  1  0.075200  0.469200  0.045300  1.0  -0.6347
  O  O137  1  0.997300  0.548000  0.292300  1.0  -0.5785
  O  O138  1  0.953400  0.691800  0.309500  1.0  -0.6246
  O  O139  1  0.715600  0.505600  0.328400  1.0  -0.5224
  O  O140  1  0.606000  0.530800  0.454700  1.0  -0.6346
  O  O141  1  0.550700  0.548000  0.792300  1.0  -0.5778
  O  O142  1  0.738400  0.691800  0.809500  1.0  -0.6223
  O  O143  1  0.790000  0.505600  0.828400  1.0  -0.5224
  O  O144  1  0.924800  0.530800  0.954700  1.0  -0.635
  O  O145  1  0.002700  0.452000  0.707700  1.0  -0.5773
  O  O146  1  0.046600  0.308200  0.690500  1.0  -0.6227
  O  O147  1  0.284400  0.494400  0.671600  1.0  -0.5224
  O  O148  1  0.394000  0.469200  0.545300  1.0  -0.6348
