# generated using pymatgen
data_CdH12C18(NO)4
_symmetry_space_group_name_H-M   'P 1'
_cell_length_a   11.21500000
_cell_length_b   13.98300000
_cell_length_c   13.99730000
_cell_angle_alpha   104.26400000
_cell_angle_beta   113.61700000
_cell_angle_gamma   90.00000000
_symmetry_Int_Tables_number   1
_chemical_formula_structural   CdH12C18(NO)4
_chemical_formula_sum   'Cd4 H48 C72 N16 O16'
_cell_volume   1937.11510914
_cell_formula_units_Z   4
loop_
 _symmetry_equiv_pos_site_id
 _symmetry_equiv_pos_as_xyz
  1  'x, y, z'
loop_
 _atom_site_type_symbol
 _atom_site_label
 _atom_site_symmetry_multiplicity
 _atom_site_fract_x
 _atom_site_fract_y
 _atom_site_fract_z
 _atom_site_occupancy
 _atom_site_charge
  Cd  Cd1  1  0.903160  0.367230  0.448520  1.0  0.97
  Cd  Cd2  1  0.454640  0.132770  0.551480  1.0  0.9704
  Cd  Cd3  1  0.096840  0.632770  0.551480  1.0  0.9688
  Cd  Cd4  1  0.545360  0.867230  0.448520  1.0  0.968
  H  H5  1  0.788000  0.783300  0.359000  1.0  0.0982
  H  H6  1  0.951000  0.843500  0.321600  1.0  0.0782
  H  H7  1  0.088300  0.370300  0.318800  1.0  0.0743
  H  H8  1  0.084800  0.381300  0.156400  1.0  0.1312
  H  H9  1  0.690500  0.369100  0.040200  1.0  0.1297
  H  H10  1  0.707500  0.361100  0.209200  1.0  0.0697
  H  H11  1  0.149600  0.375900  0.859000  1.0  0.1423
  H  H12  1  0.114500  0.373600  0.683400  1.0  0.0802
  H  H13  1  0.734300  0.371800  0.592200  1.0  0.0889
  H  H14  1  0.756200  0.372000  0.763400  1.0  0.1271
  H  H15  1  0.788000  0.376600  0.924600  1.0  0.1071
  H  H16  1  0.058000  0.380400  0.994200  1.0  0.1026
  H  H17  1  0.429000  0.716700  0.641000  1.0  0.0966
  H  H18  1  0.629400  0.656500  0.678400  1.0  0.0792
  H  H19  1  0.769500  0.129700  0.681200  1.0  0.0764
  H  H20  1  0.928400  0.118700  0.843600  1.0  0.1314
  H  H21  1  0.650300  0.130900  0.959800  1.0  0.1298
  H  H22  1  0.498300  0.138900  0.790800  1.0  0.0703
  H  H23  1  0.290600  0.124100  0.141000  1.0  0.1435
  H  H24  1  0.431100  0.126400  0.316600  1.0  0.0816
  H  H25  1  0.142100  0.128200  0.407800  1.0  0.0907
  H  H26  1  0.992800  0.128000  0.236600  1.0  0.1287
  H  H27  1  0.863400  0.123400  0.075400  1.0  0.1076
  H  H28  1  0.063800  0.119600  0.005800  1.0  0.1042
  H  H29  1  0.212000  0.216700  0.641000  1.0  0.0977
  H  H30  1  0.049000  0.156500  0.678400  1.0  0.0783
  H  H31  1  0.911700  0.629700  0.681200  1.0  0.0745
  H  H32  1  0.915200  0.618700  0.843600  1.0  0.1307
  H  H33  1  0.309500  0.630900  0.959800  1.0  0.1272
  H  H34  1  0.292500  0.638900  0.790800  1.0  0.0685
  H  H35  1  0.850400  0.624100  0.141000  1.0  0.1423
  H  H36  1  0.885500  0.626400  0.316600  1.0  0.0812
  H  H37  1  0.265700  0.628200  0.407800  1.0  0.0891
  H  H38  1  0.243800  0.628000  0.236600  1.0  0.1273
  H  H39  1  0.212000  0.623400  0.075400  1.0  0.1075
  H  H40  1  0.942000  0.619600  0.005800  1.0  0.1035
  H  H41  1  0.571000  0.283300  0.359000  1.0  0.0975
  H  H42  1  0.370600  0.343500  0.321600  1.0  0.0796
  H  H43  1  0.230500  0.870300  0.318800  1.0  0.0756
  H  H44  1  0.071600  0.881300  0.156400  1.0  0.1309
  H  H45  1  0.349700  0.869100  0.040200  1.0  0.1281
  H  H46  1  0.501700  0.861100  0.209200  1.0  0.0691
  H  H47  1  0.709400  0.875900  0.859000  1.0  0.1428
  H  H48  1  0.568900  0.873600  0.683400  1.0  0.0813
  H  H49  1  0.857900  0.871800  0.592200  1.0  0.0904
  H  H50  1  0.007200  0.872000  0.763400  1.0  0.1285
  H  H51  1  0.136600  0.876600  0.924600  1.0  0.1077
  H  H52  1  0.936200  0.880400  0.994200  1.0  0.1041
  C  C53  1  0.828100  0.041200  0.368200  1.0  0.1315
  C  C54  1  0.739700  0.010400  0.403400  1.0  0.0296
  C  C55  1  0.800100  0.852000  0.366200  1.0  0.101
  C  C56  1  0.895300  0.888000  0.340600  1.0  0.1064
  C  C57  1  0.839500  0.146000  0.361000  1.0  0.6549
  C  C58  1  0.666400  0.083000  0.452800  1.0  0.6332
  C  C59  1  0.005700  0.370500  0.261400  1.0  0.1736
  C  C60  1  0.005300  0.377000  0.164600  1.0  -0.2274
  C  C61  1  0.888300  0.378000  0.080600  1.0  0.1388
  C  C62  1  0.774400  0.370000  0.096800  1.0  -0.2298
  C  C63  1  0.785100  0.365000  0.198200  1.0  0.1787
  C  C64  1  0.952200  0.375400  0.828400  1.0  0.1099
  C  C65  1  0.063700  0.375000  0.805400  1.0  -0.2107
  C  C66  1  0.041800  0.373700  0.701600  1.0  0.18
  C  C67  1  0.818500  0.372000  0.647000  1.0  0.1833
  C  C68  1  0.831300  0.373000  0.748600  1.0  -0.187
  C  C69  1  0.874300  0.377000  0.976600  1.0  -0.1172
  C  C70  1  0.971200  0.378000  0.942400  1.0  -0.1193
  C  C71  1  0.459900  0.458800  0.631800  1.0  0.1294
  C  C72  1  0.336300  0.489600  0.596600  1.0  0.0304
  C  C73  1  0.433900  0.648000  0.633800  1.0  0.0972
  C  C74  1  0.554700  0.612000  0.659400  1.0  0.107
  C  C75  1  0.478500  0.354000  0.639000  1.0  0.6529
  C  C76  1  0.213600  0.417000  0.547200  1.0  0.6328
  C  C77  1  0.744300  0.129500  0.738600  1.0  0.1726
  C  C78  1  0.840700  0.123000  0.835400  1.0  -0.2252
  C  C79  1  0.807700  0.122000  0.919400  1.0  0.1393
  C  C80  1  0.677600  0.130000  0.903200  1.0  -0.2312
  C  C81  1  0.586900  0.135000  0.801800  1.0  0.175
  C  C82  1  0.123800  0.124600  0.171600  1.0  0.1116
  C  C83  1  0.258300  0.125000  0.194600  1.0  -0.2138
  C  C84  1  0.340200  0.126300  0.298400  1.0  0.1767
  C  C85  1  0.171500  0.128000  0.353000  1.0  0.1805
  C  C86  1  0.082700  0.127000  0.251400  1.0  -0.1887
  C  C87  1  0.897700  0.123000  0.023400  1.0  -0.119
  C  C88  1  0.028800  0.122000  0.057600  1.0  -0.1194
  C  C89  1  0.171900  0.958800  0.631800  1.0  0.1308
  C  C90  1  0.260300  0.989600  0.596600  1.0  0.0292
  C  C91  1  0.199900  0.148000  0.633800  1.0  0.1004
  C  C92  1  0.104700  0.112000  0.659400  1.0  0.1078
  C  C93  1  0.160500  0.854000  0.639000  1.0  0.6532
  C  C94  1  0.333600  0.917000  0.547200  1.0  0.6317
  C  C95  1  0.994300  0.629500  0.738600  1.0  0.1743
  C  C96  1  0.994700  0.623000  0.835400  1.0  -0.2279
  C  C97  1  0.111700  0.622000  0.919400  1.0  0.1389
  C  C98  1  0.225600  0.630000  0.903200  1.0  -0.229
  C  C99  1  0.214900  0.635000  0.801800  1.0  0.1776
  C  C100  1  0.047800  0.624600  0.171600  1.0  0.1113
  C  C101  1  0.936300  0.625000  0.194600  1.0  -0.2179
  C  C102  1  0.958200  0.626300  0.298400  1.0  0.1813
  C  C103  1  0.181500  0.628000  0.353000  1.0  0.1838
  C  C104  1  0.168700  0.627000  0.251400  1.0  -0.1889
  C  C105  1  0.125700  0.623000  0.023400  1.0  -0.1178
  C  C106  1  0.028800  0.622000  0.057600  1.0  -0.12
  C  C107  1  0.540100  0.541200  0.368200  1.0  0.1312
  C  C108  1  0.663700  0.510400  0.403400  1.0  0.0307
  C  C109  1  0.566100  0.352000  0.366200  1.0  0.1007
  C  C110  1  0.445300  0.388000  0.340600  1.0  0.1061
  C  C111  1  0.521500  0.646000  0.361000  1.0  0.6547
  C  C112  1  0.786400  0.583000  0.452800  1.0  0.6307
  C  C113  1  0.255700  0.870500  0.261400  1.0  0.1724
  C  C114  1  0.159300  0.877000  0.164600  1.0  -0.2266
  C  C115  1  0.192300  0.878000  0.080600  1.0  0.1392
  C  C116  1  0.322400  0.870000  0.096800  1.0  -0.2286
  C  C117  1  0.413100  0.865000  0.198200  1.0  0.1752
  C  C118  1  0.876200  0.875400  0.828400  1.0  0.1118
  C  C119  1  0.741700  0.875000  0.805400  1.0  -0.2092
  C  C120  1  0.659800  0.873700  0.701600  1.0  0.1781
  C  C121  1  0.828500  0.872000  0.647000  1.0  0.1819
  C  C122  1  0.917300  0.873000  0.748600  1.0  -0.1903
  C  C123  1  0.102300  0.877000  0.976600  1.0  -0.1173
  C  C124  1  0.971200  0.878000  0.942400  1.0  -0.1202
  N  N125  1  0.910600  0.982900  0.341200  1.0  -0.3432
  N  N126  1  0.723200  0.914300  0.402000  1.0  -0.2962
  N  N127  1  0.898200  0.364300  0.280400  1.0  -0.3371
  N  N128  1  0.921600  0.372400  0.624000  1.0  -0.3418
  N  N129  1  0.569400  0.517100  0.658800  1.0  -0.3433
  N  N130  1  0.321200  0.585700  0.598000  1.0  -0.2953
  N  N131  1  0.617800  0.135700  0.719600  1.0  -0.3356
  N  N132  1  0.297600  0.127600  0.376000  1.0  -0.3421
  N  N133  1  0.089400  0.017100  0.658800  1.0  -0.3456
  N  N134  1  0.276800  0.085700  0.598000  1.0  -0.3006
  N  N135  1  0.101800  0.635700  0.719600  1.0  -0.3357
  N  N136  1  0.078400  0.627600  0.376000  1.0  -0.3434
  N  N137  1  0.430600  0.482900  0.341200  1.0  -0.344
  N  N138  1  0.678800  0.414300  0.402000  1.0  -0.2945
  N  N139  1  0.382200  0.864300  0.280400  1.0  -0.3353
  N  N140  1  0.702400  0.872400  0.624000  1.0  -0.3424
  O  O141  1  0.929600  0.205100  0.435200  1.0  -0.6103
  O  O142  1  0.760700  0.167000  0.283400  1.0  -0.6297
  O  O143  1  0.683400  0.166300  0.460800  1.0  -0.5128
  O  O144  1  0.583500  0.043600  0.474800  1.0  -0.6535
  O  O145  1  0.494400  0.294900  0.564800  1.0  -0.6099
  O  O146  1  0.477300  0.333000  0.716600  1.0  -0.6257
  O  O147  1  0.222600  0.333700  0.539200  1.0  -0.5122
  O  O148  1  0.108700  0.456400  0.525200  1.0  -0.6529
  O  O149  1  0.070400  0.794900  0.564800  1.0  -0.6095
  O  O150  1  0.239300  0.833000  0.716600  1.0  -0.6307
  O  O151  1  0.316600  0.833700  0.539200  1.0  -0.5122
  O  O152  1  0.416500  0.956400  0.525200  1.0  -0.6542
  O  O153  1  0.505600  0.705100  0.435200  1.0  -0.61
  O  O154  1  0.522700  0.667000  0.283400  1.0  -0.6224
  O  O155  1  0.777400  0.666300  0.460800  1.0  -0.5128
  O  O156  1  0.891300  0.543600  0.474800  1.0  -0.6523
