# generated using pymatgen
data_GdH3(C3O2)3
_symmetry_space_group_name_H-M   'P 1'
_cell_length_a   10.36040000
_cell_length_b   10.36040000
_cell_length_c   14.50590000
_cell_angle_alpha   90.00000000
_cell_angle_beta   90.00000000
_cell_angle_gamma   90.00000000
_symmetry_Int_Tables_number   1
_chemical_formula_structural   GdH3(C3O2)3
_chemical_formula_sum   'Gd4 H12 C36 O24'
_cell_volume   1557.03267186
_cell_formula_units_Z   4
loop_
 _symmetry_equiv_pos_site_id
 _symmetry_equiv_pos_as_xyz
  1  'x, y, z'
loop_
 _atom_site_type_symbol
 _atom_site_label
 _atom_site_symmetry_multiplicity
 _atom_site_fract_x
 _atom_site_fract_y
 _atom_site_fract_z
 _atom_site_occupancy
 _atom_site_charge
  Gd  Gd1  1  0.145670  0.145670  0.375000  1.0  2.282
  Gd  Gd2  1  0.854330  0.854330  0.875000  1.0  2.281
  Gd  Gd3  1  0.854330  0.145670  0.625000  1.0  2.2819
  Gd  Gd4  1  0.145670  0.854330  0.125000  1.0  2.2812
  H  H5  1  0.069800  0.556600  0.371700  1.0  0.1127
  H  H6  1  0.930200  0.443400  0.871700  1.0  0.1128
  H  H7  1  0.443400  0.069800  0.621700  1.0  0.1129
  H  H8  1  0.556600  0.930200  0.121700  1.0  0.1128
  H  H9  1  0.930200  0.556600  0.628300  1.0  0.1132
  H  H10  1  0.069800  0.443400  0.128300  1.0  0.1132
  H  H11  1  0.556600  0.069800  0.378300  1.0  0.1132
  H  H12  1  0.443400  0.930200  0.878300  1.0  0.1132
  H  H13  1  0.000000  0.890400  0.500000  1.0  0.0715
  H  H14  1  0.000000  0.109600  0.000000  1.0  0.0715
  H  H15  1  0.109600  0.000000  0.750000  1.0  0.0716
  H  H16  1  0.890400  0.000000  0.250000  1.0  0.0722
  C  C17  1  0.082800  0.811000  0.339400  1.0  0.8134
  C  C18  1  0.041200  0.602200  0.423000  1.0  0.0454
  C  C19  1  0.039900  0.737500  0.422000  1.0  -0.1983
  C  C20  1  0.917200  0.189000  0.839400  1.0  0.8135
  C  C21  1  0.958800  0.397800  0.923000  1.0  0.0458
  C  C22  1  0.960100  0.262500  0.922000  1.0  -0.1979
  C  C23  1  0.189000  0.082800  0.589400  1.0  0.8169
  C  C24  1  0.397800  0.041200  0.673000  1.0  0.0448
  C  C25  1  0.262500  0.039900  0.672000  1.0  -0.1972
  C  C26  1  0.811000  0.917200  0.089400  1.0  0.815
  C  C27  1  0.602200  0.958800  0.173000  1.0  0.0452
  C  C28  1  0.737500  0.960100  0.172000  1.0  -0.1971
  C  C29  1  0.917200  0.811000  0.660600  1.0  0.8143
  C  C30  1  0.958800  0.602200  0.577000  1.0  0.0459
  C  C31  1  0.960100  0.737500  0.578000  1.0  -0.2
  C  C32  1  0.082800  0.189000  0.160600  1.0  0.8141
  C  C33  1  0.041200  0.397800  0.077000  1.0  0.0459
  C  C34  1  0.039900  0.262500  0.078000  1.0  -0.2
  C  C35  1  0.811000  0.082800  0.410600  1.0  0.8164
  C  C36  1  0.602200  0.041200  0.327000  1.0  0.045
  C  C37  1  0.737500  0.039900  0.328000  1.0  -0.1984
  C  C38  1  0.189000  0.917200  0.910600  1.0  0.8172
  C  C39  1  0.397800  0.958800  0.827000  1.0  0.0458
  C  C40  1  0.262500  0.960100  0.828000  1.0  -0.1994
  C  C41  1  0.000000  0.389300  0.500000  1.0  0.8541
  C  C42  1  0.000000  0.537100  0.500000  1.0  -0.2008
  C  C43  1  0.000000  0.800600  0.500000  1.0  0.0497
  C  C44  1  0.000000  0.610700  0.000000  1.0  0.855
  C  C45  1  0.000000  0.462900  0.000000  1.0  -0.2009
  C  C46  1  0.000000  0.199400  0.000000  1.0  0.0518
  C  C47  1  0.610700  0.000000  0.750000  1.0  0.8571
  C  C48  1  0.462900  0.000000  0.750000  1.0  -0.2019
  C  C49  1  0.199400  0.000000  0.750000  1.0  0.0498
  C  C50  1  0.389300  0.000000  0.250000  1.0  0.8583
  C  C51  1  0.537100  0.000000  0.250000  1.0  -0.2025
  C  C52  1  0.800600  0.000000  0.250000  1.0  0.0531
  O  O53  1  0.069200  0.335500  0.441400  1.0  -0.7715
  O  O54  1  0.089500  0.752500  0.263800  1.0  -0.747
  O  O55  1  0.106900  0.927600  0.345500  1.0  -0.7839
  O  O56  1  0.930800  0.664500  0.941400  1.0  -0.7709
  O  O57  1  0.910500  0.247500  0.763800  1.0  -0.748
  O  O58  1  0.893100  0.072400  0.845500  1.0  -0.7848
  O  O59  1  0.664500  0.069200  0.691400  1.0  -0.7726
  O  O60  1  0.247500  0.089500  0.513800  1.0  -0.7476
  O  O61  1  0.072400  0.106900  0.595500  1.0  -0.7829
  O  O62  1  0.335500  0.930800  0.191400  1.0  -0.7728
  O  O63  1  0.752500  0.910500  0.013800  1.0  -0.7474
  O  O64  1  0.927600  0.893100  0.095500  1.0  -0.7833
  O  O65  1  0.930800  0.335500  0.558600  1.0  -0.7707
  O  O66  1  0.910500  0.752500  0.736200  1.0  -0.751
  O  O67  1  0.893100  0.927600  0.654500  1.0  -0.7855
  O  O68  1  0.069200  0.664500  0.058600  1.0  -0.7711
  O  O69  1  0.089500  0.247500  0.236200  1.0  -0.7491
  O  O70  1  0.106900  0.072400  0.154500  1.0  -0.7834
  O  O71  1  0.335500  0.069200  0.308600  1.0  -0.7728
  O  O72  1  0.752500  0.089500  0.486200  1.0  -0.7495
  O  O73  1  0.927600  0.106900  0.404500  1.0  -0.7837
  O  O74  1  0.664500  0.930800  0.808600  1.0  -0.7721
  O  O75  1  0.247500  0.910500  0.986200  1.0  -0.7511
  O  O76  1  0.072400  0.893100  0.904500  1.0  -0.7833
