# generated using pymatgen
data_GdH3(C3O2)3
_symmetry_space_group_name_H-M   'P 1'
_cell_length_a   10.47100000
_cell_length_b   10.47100000
_cell_length_c   14.64500000
_cell_angle_alpha   90.00000000
_cell_angle_beta   90.00000000
_cell_angle_gamma   90.00000000
_symmetry_Int_Tables_number   1
_chemical_formula_structural   GdH3(C3O2)3
_chemical_formula_sum   'Gd4 H12 C36 O24'
_cell_volume   1605.70476145
_cell_formula_units_Z   4
loop_
 _symmetry_equiv_pos_site_id
 _symmetry_equiv_pos_as_xyz
  1  'x, y, z'
loop_
 _atom_site_type_symbol
 _atom_site_label
 _atom_site_symmetry_multiplicity
 _atom_site_fract_x
 _atom_site_fract_y
 _atom_site_fract_z
 _atom_site_occupancy
 _atom_site_charge
  Gd  Gd1  1  0.142730  0.857270  0.875000  1.0  2.2792
  Gd  Gd2  1  0.857270  0.142730  0.375000  1.0  2.2804
  Gd  Gd3  1  0.142730  0.142730  0.625000  1.0  2.2799
  Gd  Gd4  1  0.857270  0.857270  0.125000  1.0  2.2795
  H  H5  1  0.064300  0.444000  0.869200  1.0  0.1153
  H  H6  1  0.935700  0.556000  0.369200  1.0  0.1148
  H  H7  1  0.556000  0.064300  0.619200  1.0  0.1151
  H  H8  1  0.444000  0.935700  0.119200  1.0  0.115
  H  H9  1  0.935700  0.444000  0.130800  1.0  0.1153
  H  H10  1  0.064300  0.556000  0.630800  1.0  0.1154
  H  H11  1  0.444000  0.064300  0.380800  1.0  0.1156
  H  H12  1  0.556000  0.935700  0.880800  1.0  0.1152
  H  H13  1  0.000000  0.109500  0.000000  1.0  0.0815
  H  H14  1  0.000000  0.890500  0.500000  1.0  0.0818
  H  H15  1  0.890500  0.000000  0.750000  1.0  0.0829
  H  H16  1  0.109500  0.000000  0.250000  1.0  0.0823
  C  C17  1  0.075500  0.189700  0.836700  1.0  0.7995
  C  C18  1  0.038400  0.399500  0.920900  1.0  0.0432
  C  C19  1  0.037600  0.264900  0.920600  1.0  -0.184
  C  C20  1  0.924500  0.810300  0.336700  1.0  0.8003
  C  C21  1  0.961600  0.600500  0.420900  1.0  0.0434
  C  C22  1  0.962400  0.735100  0.420600  1.0  -0.1843
  C  C23  1  0.810300  0.075500  0.586700  1.0  0.7999
  C  C24  1  0.600500  0.038400  0.670900  1.0  0.0425
  C  C25  1  0.735100  0.037600  0.670600  1.0  -0.1843
  C  C26  1  0.189700  0.924500  0.086700  1.0  0.8009
  C  C27  1  0.399500  0.961600  0.170900  1.0  0.0431
  C  C28  1  0.264900  0.962400  0.170600  1.0  -0.1848
  C  C29  1  0.924500  0.189700  0.163300  1.0  0.7992
  C  C30  1  0.961600  0.399500  0.079100  1.0  0.0431
  C  C31  1  0.962400  0.264900  0.079400  1.0  -0.1858
  C  C32  1  0.075500  0.810300  0.663300  1.0  0.8
  C  C33  1  0.038400  0.600500  0.579100  1.0  0.0435
  C  C34  1  0.037600  0.735100  0.579400  1.0  -0.1866
  C  C35  1  0.189700  0.075500  0.413300  1.0  0.8005
  C  C36  1  0.399500  0.038400  0.329100  1.0  0.0426
  C  C37  1  0.264900  0.037600  0.329400  1.0  -0.1871
  C  C38  1  0.810300  0.924500  0.913300  1.0  0.7992
  C  C39  1  0.600500  0.961600  0.829100  1.0  0.0429
  C  C40  1  0.735100  0.962400  0.829400  1.0  -0.1864
  C  C41  1  0.000000  0.612700  0.000000  1.0  0.8261
  C  C42  1  0.000000  0.466900  0.000000  1.0  -0.2009
  C  C43  1  0.000000  0.198300  0.000000  1.0  0.0432
  C  C44  1  0.000000  0.387300  0.500000  1.0  0.8252
  C  C45  1  0.000000  0.533100  0.500000  1.0  -0.2008
  C  C46  1  0.000000  0.801700  0.500000  1.0  0.042
  C  C47  1  0.387300  0.000000  0.750000  1.0  0.8289
  C  C48  1  0.533100  0.000000  0.750000  1.0  -0.2006
  C  C49  1  0.801700  0.000000  0.750000  1.0  0.0424
  C  C50  1  0.612700  0.000000  0.250000  1.0  0.8271
  C  C51  1  0.466900  0.000000  0.250000  1.0  -0.2011
  C  C52  1  0.198300  0.000000  0.250000  1.0  0.0402
  O  O53  1  0.068600  0.668200  0.940800  1.0  -0.765
  O  O54  1  0.075700  0.247500  0.760700  1.0  -0.7455
  O  O55  1  0.102800  0.076200  0.843000  1.0  -0.7753
  O  O56  1  0.931400  0.331800  0.440800  1.0  -0.7652
  O  O57  1  0.924300  0.752500  0.260700  1.0  -0.7454
  O  O58  1  0.897200  0.923800  0.343000  1.0  -0.7769
  O  O59  1  0.331800  0.068600  0.690800  1.0  -0.7664
  O  O60  1  0.752500  0.075700  0.510700  1.0  -0.7458
  O  O61  1  0.923800  0.102800  0.593000  1.0  -0.775
  O  O62  1  0.668200  0.931400  0.190800  1.0  -0.7669
  O  O63  1  0.247500  0.924300  0.010700  1.0  -0.7454
  O  O64  1  0.076200  0.897200  0.093000  1.0  -0.7762
  O  O65  1  0.931400  0.668200  0.059200  1.0  -0.7654
  O  O66  1  0.924300  0.247500  0.239300  1.0  -0.7466
  O  O67  1  0.897200  0.076200  0.157000  1.0  -0.7758
  O  O68  1  0.068600  0.331800  0.559200  1.0  -0.7653
  O  O69  1  0.075700  0.752500  0.739300  1.0  -0.7457
  O  O70  1  0.102800  0.923800  0.657000  1.0  -0.7773
  O  O71  1  0.668200  0.068600  0.309200  1.0  -0.7674
  O  O72  1  0.247500  0.075700  0.489300  1.0  -0.7464
  O  O73  1  0.076200  0.102800  0.407000  1.0  -0.7752
  O  O74  1  0.331800  0.931400  0.809200  1.0  -0.7663
  O  O75  1  0.752500  0.924300  0.989300  1.0  -0.7456
  O  O76  1  0.923800  0.897200  0.907000  1.0  -0.7755
