# generated using pymatgen
data_GdH3(C3O2)3
_symmetry_space_group_name_H-M   'P 1'
_cell_length_a   10.33900000
_cell_length_b   10.33900000
_cell_length_c   14.05700000
_cell_angle_alpha   90.00000000
_cell_angle_beta   90.00000000
_cell_angle_gamma   90.00000000
_symmetry_Int_Tables_number   1
_chemical_formula_structural   GdH3(C3O2)3
_chemical_formula_sum   'Gd4 H12 C36 O24'
_cell_volume   1502.62190450
_cell_formula_units_Z   4
loop_
 _symmetry_equiv_pos_site_id
 _symmetry_equiv_pos_as_xyz
  1  'x, y, z'
loop_
 _atom_site_type_symbol
 _atom_site_label
 _atom_site_symmetry_multiplicity
 _atom_site_fract_x
 _atom_site_fract_y
 _atom_site_fract_z
 _atom_site_occupancy
 _atom_site_charge
  Gd  Gd1  1  0.871970  0.863500  0.833910  1.0  2.2573
  Gd  Gd2  1  0.128030  0.136500  0.333910  1.0  2.2582
  Gd  Gd3  1  0.136500  0.871970  0.083910  1.0  2.258
  Gd  Gd4  1  0.863500  0.128030  0.583910  1.0  2.2584
  H  H5  1  0.115500  0.991600  0.697400  1.0  0.0925
  H  H6  1  0.453300  0.903100  0.828200  1.0  0.1128
  H  H7  1  0.452500  0.005800  0.548700  1.0  0.1191
  H  H8  1  0.884500  0.008400  0.197400  1.0  0.0925
  H  H9  1  0.546700  0.096900  0.328200  1.0  0.1126
  H  H10  1  0.547500  0.994200  0.048700  1.0  0.1186
  H  H11  1  0.008400  0.115500  0.947400  1.0  0.0919
  H  H12  1  0.096900  0.453300  0.078200  1.0  0.1125
  H  H13  1  0.994200  0.452500  0.798700  1.0  0.1182
  H  H14  1  0.991600  0.884500  0.447400  1.0  0.0921
  H  H15  1  0.903100  0.546700  0.578200  1.0  0.1127
  H  H16  1  0.005800  0.547500  0.298700  1.0  0.1186
  C  C17  1  0.201800  0.038200  0.521900  1.0  0.712
  C  C18  1  0.273300  0.001900  0.609500  1.0  -0.1445
  C  C19  1  0.206800  0.981200  0.694900  1.0  0.0235
  C  C20  1  0.275000  0.945400  0.776000  1.0  -0.1618
  C  C21  1  0.407600  0.929800  0.772900  1.0  0.0372
  C  C22  1  0.474500  0.953400  0.688300  1.0  -0.1699
  C  C23  1  0.407100  0.989600  0.606300  1.0  0.0118
  C  C24  1  0.200900  0.923300  0.866700  1.0  0.7555
  C  C25  1  0.620900  0.953700  0.690100  1.0  0.8063
  C  C26  1  0.798200  0.961800  0.021900  1.0  0.711
  C  C27  1  0.726700  0.998100  0.109500  1.0  -0.144
  C  C28  1  0.793200  0.018800  0.194900  1.0  0.0259
  C  C29  1  0.725000  0.054600  0.276000  1.0  -0.1603
  C  C30  1  0.592400  0.070200  0.272900  1.0  0.036
  C  C31  1  0.525500  0.046600  0.188300  1.0  -0.1701
  C  C32  1  0.592900  0.010400  0.106300  1.0  0.0123
  C  C33  1  0.799100  0.076700  0.366700  1.0  0.755
  C  C34  1  0.379100  0.046300  0.190100  1.0  0.8053
  C  C35  1  0.961800  0.201800  0.771900  1.0  0.7116
  C  C36  1  0.998100  0.273300  0.859500  1.0  -0.1431
  C  C37  1  0.018800  0.206800  0.944900  1.0  0.024
  C  C38  1  0.054600  0.275000  0.026000  1.0  -0.161
  C  C39  1  0.070200  0.407600  0.022900  1.0  0.0371
  C  C40  1  0.046600  0.474500  0.938300  1.0  -0.1696
  C  C41  1  0.010400  0.407100  0.856300  1.0  0.0126
  C  C42  1  0.076700  0.200900  0.116700  1.0  0.7722
  C  C43  1  0.046300  0.620900  0.940100  1.0  0.8038
  C  C44  1  0.038200  0.798200  0.271900  1.0  0.7115
  C  C45  1  0.001900  0.726700  0.359500  1.0  -0.1447
  C  C46  1  0.981200  0.793200  0.444900  1.0  0.0233
  C  C47  1  0.945400  0.725000  0.526000  1.0  -0.1623
  C  C48  1  0.929800  0.592400  0.522900  1.0  0.0366
  C  C49  1  0.953400  0.525500  0.438300  1.0  -0.17
  C  C50  1  0.989600  0.592900  0.356300  1.0  0.0125
  C  C51  1  0.923300  0.799100  0.616700  1.0  0.7724
  C  C52  1  0.953700  0.379100  0.440100  1.0  0.8024
  O  O53  1  0.252200  0.006800  0.441300  1.0  -0.6698
  O  O54  1  0.095800  0.101800  0.523140  1.0  -0.7961
  O  O55  1  0.079800  0.927800  0.864730  1.0  -0.7942
  O  O56  1  0.262200  0.905700  0.942310  1.0  -0.6852
  O  O57  1  0.676700  0.890900  0.755140  1.0  -0.7577
  O  O58  1  0.675300  0.018400  0.625680  1.0  -0.7583
  O  O59  1  0.747800  0.993200  0.941300  1.0  -0.6681
  O  O60  1  0.904200  0.898200  0.023140  1.0  -0.7973
  O  O61  1  0.920200  0.072200  0.364730  1.0  -0.7943
  O  O62  1  0.737800  0.094300  0.442310  1.0  -0.6839
  O  O63  1  0.323300  0.109100  0.255140  1.0  -0.7586
  O  O64  1  0.324700  0.981600  0.125680  1.0  -0.7576
  O  O65  1  0.993200  0.252200  0.691300  1.0  -0.666
  O  O66  1  0.898200  0.095800  0.773140  1.0  -0.7972
  O  O67  1  0.072200  0.079800  0.114730  1.0  -0.795
  O  O68  1  0.094300  0.262200  0.192310  1.0  -0.6857
  O  O69  1  0.109100  0.676700  0.005140  1.0  -0.7578
  O  O70  1  0.981600  0.675300  0.875680  1.0  -0.7549
  O  O71  1  0.006800  0.747800  0.191300  1.0  -0.6673
  O  O72  1  0.101800  0.904200  0.273140  1.0  -0.7971
  O  O73  1  0.927800  0.920200  0.614730  1.0  -0.7952
  O  O74  1  0.905700  0.737800  0.692310  1.0  -0.6854
  O  O75  1  0.890900  0.323300  0.505140  1.0  -0.7582
  O  O76  1  0.018400  0.324700  0.375680  1.0  -0.7553
