# generated using pymatgen
data_GdH3(C3O2)3
_symmetry_space_group_name_H-M   'P 1'
_cell_length_a   10.31970000
_cell_length_b   10.31970000
_cell_length_c   14.04440000
_cell_angle_alpha   90.00000000
_cell_angle_beta   90.00000000
_cell_angle_gamma   90.00000000
_symmetry_Int_Tables_number   1
_chemical_formula_structural   GdH3(C3O2)3
_chemical_formula_sum   'Gd4 H12 C36 O24'
_cell_volume   1495.67534490
_cell_formula_units_Z   4
loop_
 _symmetry_equiv_pos_site_id
 _symmetry_equiv_pos_as_xyz
  1  'x, y, z'
loop_
 _atom_site_type_symbol
 _atom_site_label
 _atom_site_symmetry_multiplicity
 _atom_site_fract_x
 _atom_site_fract_y
 _atom_site_fract_z
 _atom_site_occupancy
 _atom_site_charge
  Gd  Gd1  1  0.136790  0.871040  0.916260  1.0  2.2475
  Gd  Gd2  1  0.863210  0.128960  0.416260  1.0  2.2474
  Gd  Gd3  1  0.128960  0.136790  0.666260  1.0  2.2473
  Gd  Gd4  1  0.871040  0.863210  0.166260  1.0  2.2472
  H  H5  1  0.994000  0.454400  0.199900  1.0  0.115
  H  H6  1  0.008400  0.116200  0.049400  1.0  0.0815
  H  H7  1  0.095200  0.452400  0.921700  1.0  0.1069
  H  H8  1  0.006000  0.545600  0.699900  1.0  0.1153
  H  H9  1  0.991600  0.883800  0.549400  1.0  0.0821
  H  H10  1  0.904800  0.547600  0.421700  1.0  0.107
  H  H11  1  0.545600  0.994000  0.949900  1.0  0.1152
  H  H12  1  0.883800  0.008400  0.799400  1.0  0.0819
  H  H13  1  0.547600  0.095200  0.671700  1.0  0.1068
  H  H14  1  0.454400  0.006000  0.449900  1.0  0.1151
  H  H15  1  0.116200  0.991600  0.299400  1.0  0.0816
  H  H16  1  0.452400  0.904800  0.171700  1.0  0.1069
  C  C17  1  0.044800  0.622600  0.058500  1.0  0.8121
  C  C18  1  0.958300  0.200200  0.227700  1.0  0.6991
  C  C19  1  0.077200  0.201300  0.883300  1.0  0.7543
  C  C20  1  0.044000  0.475000  0.059100  1.0  -0.1673
  C  C21  1  0.008900  0.408100  0.142500  1.0  0.025
  C  C22  1  0.995800  0.272300  0.140600  1.0  -0.1509
  C  C23  1  0.018400  0.207600  0.052700  1.0  0.031
  C  C24  1  0.053700  0.273400  0.974100  1.0  -0.1742
  C  C25  1  0.068200  0.407300  0.977200  1.0  0.0441
  C  C26  1  0.955200  0.377400  0.558500  1.0  0.8109
  C  C27  1  0.041700  0.799800  0.727700  1.0  0.7006
  C  C28  1  0.922800  0.798700  0.383300  1.0  0.7544
  C  C29  1  0.956000  0.525000  0.559100  1.0  -0.1675
  C  C30  1  0.991100  0.591900  0.642500  1.0  0.0255
  C  C31  1  0.004200  0.727700  0.640600  1.0  -0.1514
  C  C32  1  0.981600  0.792400  0.552700  1.0  0.0301
  C  C33  1  0.946300  0.726600  0.474100  1.0  -0.1746
  C  C34  1  0.931800  0.592700  0.477200  1.0  0.0432
  C  C35  1  0.377400  0.044800  0.808500  1.0  0.812
  C  C36  1  0.799800  0.958300  0.977700  1.0  0.6993
  C  C37  1  0.798700  0.077200  0.633300  1.0  0.7534
  C  C38  1  0.525000  0.044000  0.809100  1.0  -0.1678
  C  C39  1  0.591900  0.008900  0.892500  1.0  0.0249
  C  C40  1  0.727700  0.995800  0.890600  1.0  -0.15
  C  C41  1  0.792400  0.018400  0.802700  1.0  0.0351
  C  C42  1  0.726600  0.053700  0.724100  1.0  -0.1732
  C  C43  1  0.592700  0.068200  0.727200  1.0  0.0437
  C  C44  1  0.622600  0.955200  0.308500  1.0  0.8137
  C  C45  1  0.200200  0.041700  0.477700  1.0  0.7
  C  C46  1  0.201300  0.922800  0.133300  1.0  0.7536
  C  C47  1  0.475000  0.956000  0.309100  1.0  -0.168
  C  C48  1  0.408100  0.991100  0.392500  1.0  0.0252
  C  C49  1  0.272300  0.004200  0.390600  1.0  -0.1519
  C  C50  1  0.207600  0.981600  0.302700  1.0  0.0327
  C  C51  1  0.273400  0.946300  0.224100  1.0  -0.173
  C  C52  1  0.407300  0.931800  0.227200  1.0  0.0436
  O  O53  1  0.107100  0.675000  0.994100  1.0  -0.75
  O  O54  1  0.979100  0.674000  0.123800  1.0  -0.757
  O  O55  1  0.991800  0.252000  0.309000  1.0  -0.6619
  O  O56  1  0.895200  0.094300  0.224500  1.0  -0.7759
  O  O57  1  0.072000  0.078900  0.885100  1.0  -0.7931
  O  O58  1  0.092900  0.261800  0.807600  1.0  -0.6845
  O  O59  1  0.892900  0.325000  0.494100  1.0  -0.7509
  O  O60  1  0.020900  0.326000  0.623800  1.0  -0.7581
  O  O61  1  0.008200  0.748000  0.809000  1.0  -0.6618
  O  O62  1  0.104800  0.905700  0.724500  1.0  -0.7752
  O  O63  1  0.928000  0.921100  0.385100  1.0  -0.7936
  O  O64  1  0.907100  0.738200  0.307600  1.0  -0.685
  O  O65  1  0.325000  0.107100  0.744100  1.0  -0.7517
  O  O66  1  0.326000  0.979100  0.873800  1.0  -0.7589
  O  O67  1  0.748000  0.991800  0.059000  1.0  -0.6639
  O  O68  1  0.905700  0.895200  0.974500  1.0  -0.774
  O  O69  1  0.921100  0.072000  0.635100  1.0  -0.791
  O  O70  1  0.738200  0.092900  0.557600  1.0  -0.6845
  O  O71  1  0.675000  0.892900  0.244100  1.0  -0.755
  O  O72  1  0.674000  0.020900  0.373800  1.0  -0.7598
  O  O73  1  0.252000  0.008200  0.559000  1.0  -0.6649
  O  O74  1  0.094300  0.104800  0.474500  1.0  -0.7753
  O  O75  1  0.078900  0.928000  0.135100  1.0  -0.7914
  O  O76  1  0.261800  0.907100  0.057600  1.0  -0.6854
