# generated using pymatgen
data_Ag2H18C21(N2O)4
_symmetry_space_group_name_H-M   'P 1'
_cell_length_a   16.75670000
_cell_length_b   16.75670000
_cell_length_c   13.19240000
_cell_angle_alpha   103.60080000
_cell_angle_beta   103.60080000
_cell_angle_gamma   109.54560000
_symmetry_Int_Tables_number   1
_chemical_formula_structural   Ag2H18C21(N2O)4
_chemical_formula_sum   'Ag8 H72 C84 N32 O16'
_cell_volume   3187.54142375
_cell_formula_units_Z   4
loop_
 _symmetry_equiv_pos_site_id
 _symmetry_equiv_pos_as_xyz
  1  'x, y, z'
loop_
 _atom_site_type_symbol
 _atom_site_label
 _atom_site_symmetry_multiplicity
 _atom_site_fract_x
 _atom_site_fract_y
 _atom_site_fract_z
 _atom_site_occupancy
 _atom_site_charge
  Ag  Ag1  1  0.767280  0.102840  0.796480  1.0  0.2357
  Ag  Ag2  1  0.493440  0.546740  0.885290  1.0  0.2277
  Ag  Ag3  1  0.897160  0.232720  0.703520  1.0  0.2343
  Ag  Ag4  1  0.453260  0.506560  0.614710  1.0  0.2281
  Ag  Ag5  1  0.232720  0.897160  0.203520  1.0  0.2367
  Ag  Ag6  1  0.506560  0.453260  0.114710  1.0  0.2258
  Ag  Ag7  1  0.102840  0.767280  0.296480  1.0  0.239
  Ag  Ag8  1  0.546740  0.493440  0.385290  1.0  0.2276
  H  H9  1  0.395000  0.981800  0.642500  1.0  0.0794
  H  H10  1  0.373200  0.021800  0.548800  1.0  0.0829
  H  H11  1  0.556000  0.021000  0.745900  1.0  0.1072
  H  H12  1  0.519500  0.140100  0.525800  1.0  0.1299
  H  H13  1  0.675100  0.160700  0.586200  1.0  0.1044
  H  H14  1  0.222700  0.881700  0.546500  1.0  0.1018
  H  H15  1  0.094000  0.971200  0.352200  1.0  0.0979
  H  H16  1  0.182900  0.094900  0.528300  1.0  0.1212
  H  H17  1  0.285300  0.010300  0.729700  1.0  0.0997
  H  H18  1  0.267500  0.095900  0.728100  1.0  0.0964
  H  H19  1  0.461300  0.205700  0.664300  1.0  0.1156
  H  H20  1  0.360500  0.162300  0.588600  1.0  0.1169
  H  H21  1  0.257600  0.223200  0.719600  1.0  0.1229
  H  H22  1  0.296000  0.382400  0.813000  1.0  0.1094
  H  H23  1  0.511900  0.361700  0.767600  1.0  0.106
  H  H24  1  0.335400  0.248600  0.064000  1.0  0.0948
  H  H25  1  0.313300  0.111700  0.926800  1.0  0.1307
  H  H26  1  0.537900  0.307300  0.952100  1.0  0.1219
  H  H27  1  0.018200  0.605000  0.857500  1.0  0.0818
  H  H28  1  0.978200  0.626800  0.951200  1.0  0.0823
  H  H29  1  0.979000  0.444000  0.754100  1.0  0.1063
  H  H30  1  0.859900  0.480500  0.974200  1.0  0.1296
  H  H31  1  0.839300  0.324900  0.913800  1.0  0.1033
  H  H32  1  0.118300  0.777300  0.953500  1.0  0.1016
  H  H33  1  0.028800  0.906000  0.147800  1.0  0.1003
  H  H34  1  0.905100  0.817100  0.971700  1.0  0.1241
  H  H35  1  0.989700  0.714700  0.770300  1.0  0.0975
  H  H36  1  0.904100  0.732500  0.771900  1.0  0.0949
  H  H37  1  0.794300  0.538700  0.835700  1.0  0.1137
  H  H38  1  0.837700  0.639500  0.911400  1.0  0.1174
  H  H39  1  0.776800  0.742400  0.780400  1.0  0.1251
  H  H40  1  0.617600  0.704000  0.687000  1.0  0.1105
  H  H41  1  0.638300  0.488100  0.732400  1.0  0.1059
  H  H42  1  0.751400  0.664600  0.436000  1.0  0.0952
  H  H43  1  0.888300  0.686700  0.573200  1.0  0.1292
  H  H44  1  0.692700  0.462100  0.547900  1.0  0.1217
  H  H45  1  0.605000  0.018200  0.357500  1.0  0.0794
  H  H46  1  0.626800  0.978200  0.451200  1.0  0.0826
  H  H47  1  0.444000  0.979000  0.254100  1.0  0.1065
  H  H48  1  0.480500  0.859900  0.474200  1.0  0.1299
  H  H49  1  0.324900  0.839300  0.413800  1.0  0.1047
  H  H50  1  0.777300  0.118300  0.453500  1.0  0.1013
  H  H51  1  0.906000  0.028800  0.647800  1.0  0.099
  H  H52  1  0.817100  0.905100  0.471700  1.0  0.1213
  H  H53  1  0.714700  0.989700  0.270300  1.0  0.0983
  H  H54  1  0.732500  0.904100  0.271900  1.0  0.0956
  H  H55  1  0.538700  0.794300  0.335700  1.0  0.1144
  H  H56  1  0.639500  0.837700  0.411400  1.0  0.1153
  H  H57  1  0.742400  0.776800  0.280400  1.0  0.1243
  H  H58  1  0.704000  0.617600  0.187000  1.0  0.111
  H  H59  1  0.488100  0.638300  0.232400  1.0  0.1062
  H  H60  1  0.664600  0.751400  0.936000  1.0  0.0947
  H  H61  1  0.686700  0.888300  0.073200  1.0  0.1301
  H  H62  1  0.462100  0.692700  0.047900  1.0  0.1213
  H  H63  1  0.981800  0.395000  0.142500  1.0  0.0816
  H  H64  1  0.021800  0.373200  0.048800  1.0  0.0822
  H  H65  1  0.021000  0.556000  0.245900  1.0  0.1073
  H  H66  1  0.140100  0.519500  0.025800  1.0  0.1294
  H  H67  1  0.160700  0.675100  0.086200  1.0  0.1037
  H  H68  1  0.881700  0.222700  0.046500  1.0  0.1016
  H  H69  1  0.971200  0.094000  0.852200  1.0  0.0998
  H  H70  1  0.094900  0.182900  0.028300  1.0  0.1222
  H  H71  1  0.010300  0.285300  0.229700  1.0  0.0978
  H  H72  1  0.095900  0.267500  0.228100  1.0  0.0967
  H  H73  1  0.205700  0.461300  0.164300  1.0  0.1117
  H  H74  1  0.162300  0.360500  0.088600  1.0  0.1178
  H  H75  1  0.223200  0.257600  0.219600  1.0  0.1245
  H  H76  1  0.382400  0.296000  0.313000  1.0  0.11
  H  H77  1  0.361700  0.511900  0.267600  1.0  0.1055
  H  H78  1  0.248600  0.335400  0.564000  1.0  0.0958
  H  H79  1  0.111700  0.313300  0.426800  1.0  0.1292
  H  H80  1  0.307300  0.537900  0.452100  1.0  0.1221
  C  C81  1  0.409900  0.036900  0.625100  1.0  -0.0797
  C  C82  1  0.567100  0.054100  0.699300  1.0  0.1343
  C  C83  1  0.545500  0.119100  0.578000  1.0  -0.1598
  C  C84  1  0.631300  0.129700  0.611800  1.0  0.0531
  C  C85  1  0.201900  0.919900  0.518400  1.0  0.1471
  C  C86  1  0.132400  0.968000  0.413300  1.0  0.0009
  C  C87  1  0.180800  0.037000  0.511200  1.0  -0.1643
  C  C88  1  0.287600  0.053200  0.691100  1.0  -0.038
  C  C89  1  0.384700  0.103700  0.702700  1.0  0.045
  C  C90  1  0.400000  0.184200  0.665100  1.0  -0.1037
  C  C91  1  0.313500  0.270700  0.740500  1.0  -0.1531
  C  C92  1  0.334900  0.358700  0.791900  1.0  -0.0034
  C  C93  1  0.453100  0.347700  0.767000  1.0  0.1406
  C  C94  1  0.373400  0.242800  0.024000  1.0  -0.005
  C  C95  1  0.360700  0.167900  0.948700  1.0  -0.1282
  C  C96  1  0.485000  0.276200  0.963200  1.0  0.127
  C  C97  1  0.449000  0.129400  0.824200  1.0  -0.1876
  C  C98  1  0.525200  0.230800  0.339000  1.0  0.5377
  C  C99  1  0.554400  0.250800  0.263000  1.0  0.3274
  C  C100  1  0.592300  0.210700  0.209000  1.0  0.0256
  C  C101  1  0.628300  0.138900  0.254300  1.0  0.5876
  C  C102  1  0.963100  0.590100  0.874900  1.0  -0.0806
  C  C103  1  0.945900  0.432900  0.800700  1.0  0.1307
  C  C104  1  0.880900  0.454500  0.922000  1.0  -0.1592
  C  C105  1  0.870300  0.368700  0.888200  1.0  0.055
  C  C106  1  0.080100  0.798100  0.981600  1.0  0.1444
  C  C107  1  0.032000  0.867600  0.086700  1.0  0.0011
  C  C108  1  0.963000  0.819200  0.988800  1.0  -0.1658
  C  C109  1  0.946800  0.712400  0.808900  1.0  -0.0351
  C  C110  1  0.896300  0.615300  0.797300  1.0  0.0429
  C  C111  1  0.815800  0.600000  0.834900  1.0  -0.1041
  C  C112  1  0.729300  0.686500  0.759500  1.0  -0.1527
  C  C113  1  0.641300  0.665100  0.708100  1.0  -0.0026
  C  C114  1  0.652300  0.546900  0.733000  1.0  0.1378
  C  C115  1  0.757200  0.626600  0.476000  1.0  -0.0062
  C  C116  1  0.832100  0.639300  0.551300  1.0  -0.1281
  C  C117  1  0.723800  0.515000  0.536800  1.0  0.1275
  C  C118  1  0.870600  0.551000  0.675800  1.0  -0.1814
  C  C119  1  0.769200  0.474800  0.161000  1.0  0.5383
  C  C120  1  0.749200  0.445600  0.237000  1.0  0.3275
  C  C121  1  0.789300  0.407700  0.291000  1.0  0.0217
  C  C122  1  0.861100  0.371700  0.245700  1.0  0.5839
  C  C123  1  0.590100  0.963100  0.374900  1.0  -0.0805
  C  C124  1  0.432900  0.945900  0.300700  1.0  0.1311
  C  C125  1  0.454500  0.880900  0.422000  1.0  -0.158
  C  C126  1  0.368700  0.870300  0.388200  1.0  0.0551
  C  C127  1  0.798100  0.080100  0.481600  1.0  0.1473
  C  C128  1  0.867600  0.032000  0.586700  1.0  0.0021
  C  C129  1  0.819200  0.963000  0.488800  1.0  -0.1647
  C  C130  1  0.712400  0.946800  0.308900  1.0  -0.0362
  C  C131  1  0.615300  0.896300  0.297300  1.0  0.043
  C  C132  1  0.600000  0.815800  0.334900  1.0  -0.1024
  C  C133  1  0.686500  0.729300  0.259500  1.0  -0.1511
  C  C134  1  0.665100  0.641300  0.208100  1.0  -0.0027
  C  C135  1  0.546900  0.652300  0.233000  1.0  0.1399
  C  C136  1  0.626600  0.757200  0.976000  1.0  -0.0052
  C  C137  1  0.639300  0.832100  0.051300  1.0  -0.1299
  C  C138  1  0.515000  0.723800  0.036800  1.0  0.1254
  C  C139  1  0.551000  0.870600  0.175800  1.0  -0.1833
  C  C140  1  0.474800  0.769200  0.661000  1.0  0.5378
  C  C141  1  0.445600  0.749200  0.737000  1.0  0.3238
  C  C142  1  0.407700  0.789300  0.791000  1.0  0.0201
  C  C143  1  0.371700  0.861100  0.745700  1.0  0.5882
  C  C144  1  0.036900  0.409900  0.125100  1.0  -0.0794
  C  C145  1  0.054100  0.567100  0.199300  1.0  0.1317
  C  C146  1  0.119100  0.545500  0.078000  1.0  -0.16
  C  C147  1  0.129700  0.631300  0.111800  1.0  0.0547
  C  C148  1  0.919900  0.201900  0.018400  1.0  0.1448
  C  C149  1  0.968000  0.132400  0.913300  1.0  0.0021
  C  C150  1  0.037000  0.180800  0.011200  1.0  -0.165
  C  C151  1  0.053200  0.287600  0.191100  1.0  -0.0391
  C  C152  1  0.103700  0.384700  0.202700  1.0  0.046
  C  C153  1  0.184200  0.400000  0.165100  1.0  -0.1062
  C  C154  1  0.270700  0.313500  0.240500  1.0  -0.1523
  C  C155  1  0.358700  0.334900  0.291900  1.0  -0.001
  C  C156  1  0.347700  0.453100  0.267000  1.0  0.1388
  C  C157  1  0.242800  0.373400  0.524000  1.0  -0.0039
  C  C158  1  0.167900  0.360700  0.448700  1.0  -0.1268
  C  C159  1  0.276200  0.485000  0.463200  1.0  0.1271
  C  C160  1  0.129400  0.449000  0.324200  1.0  -0.1919
  C  C161  1  0.230800  0.525200  0.839000  1.0  0.5366
  C  C162  1  0.250800  0.554400  0.763000  1.0  0.3285
  C  C163  1  0.210700  0.592300  0.709000  1.0  0.0251
  C  C164  1  0.138900  0.628300  0.754300  1.0  0.5878
  N  N165  1  0.504200  0.071800  0.634300  1.0  0.0384
  N  N166  1  0.646200  0.089800  0.687800  1.0  -0.3903
  N  N167  1  0.147500  0.893900  0.416600  1.0  -0.3962
  N  N168  1  0.225300  0.005300  0.578700  1.0  0.0388
  N  N169  1  0.388100  0.264500  0.725000  1.0  0.0415
  N  N170  1  0.424000  0.407400  0.807600  1.0  -0.3488
  N  N171  1  0.450600  0.310000  0.033600  1.0  -0.2681
  N  N172  1  0.429200  0.188400  0.910100  1.0  0.0331
  N  N173  1  0.928200  0.495800  0.865700  1.0  0.0383
  N  N174  1  0.910200  0.353800  0.812200  1.0  -0.3931
  N  N175  1  0.106100  0.852500  0.083400  1.0  -0.4021
  N  N176  1  0.994700  0.774700  0.921300  1.0  0.0398
  N  N177  1  0.735500  0.611900  0.775000  1.0  0.0412
  N  N178  1  0.592600  0.576000  0.692400  1.0  -0.3509
  N  N179  1  0.690000  0.549400  0.466400  1.0  -0.2689
  N  N180  1  0.811600  0.570800  0.589900  1.0  0.0315
  N  N181  1  0.495800  0.928200  0.365700  1.0  0.0383
  N  N182  1  0.353800  0.910200  0.312200  1.0  -0.3937
  N  N183  1  0.852500  0.106100  0.583400  1.0  -0.4011
  N  N184  1  0.774700  0.994700  0.421300  1.0  0.0414
  N  N185  1  0.611900  0.735500  0.275000  1.0  0.0415
  N  N186  1  0.576000  0.592600  0.192400  1.0  -0.347
  N  N187  1  0.549400  0.690000  0.966400  1.0  -0.2677
  N  N188  1  0.570800  0.811600  0.089900  1.0  0.0338
  N  N189  1  0.071800  0.504200  0.134300  1.0  0.0384
  N  N190  1  0.089800  0.646200  0.187800  1.0  -0.3983
  N  N191  1  0.893900  0.147500  0.916600  1.0  -0.3998
  N  N192  1  0.005300  0.225300  0.078700  1.0  0.0407
  N  N193  1  0.264500  0.388100  0.225000  1.0  0.0413
  N  N194  1  0.407400  0.424000  0.307600  1.0  -0.3481
  N  N195  1  0.310000  0.450600  0.533600  1.0  -0.271
  N  N196  1  0.188400  0.429200  0.410100  1.0  0.0341
  O  O197  1  0.562600  0.309800  0.437900  1.0  -0.6209
  O  O198  1  0.456300  0.171700  0.349900  1.0  -0.5289
  O  O199  1  0.656400  0.163200  0.357200  1.0  -0.5358
  O  O200  1  0.578800  0.063200  0.176000  1.0  -0.5596
  O  O201  1  0.690200  0.437400  0.062100  1.0  -0.6182
  O  O202  1  0.828300  0.543700  0.150100  1.0  -0.5282
  O  O203  1  0.836800  0.343600  0.142800  1.0  -0.5383
  O  O204  1  0.936800  0.421200  0.324000  1.0  -0.5551
  O  O205  1  0.437400  0.690200  0.562100  1.0  -0.6188
  O  O206  1  0.543700  0.828300  0.650100  1.0  -0.5277
  O  O207  1  0.343600  0.836800  0.642800  1.0  -0.538
  O  O208  1  0.421200  0.936800  0.824000  1.0  -0.5538
  O  O209  1  0.309800  0.562600  0.937900  1.0  -0.6198
  O  O210  1  0.171700  0.456300  0.849900  1.0  -0.5301
  O  O211  1  0.163200  0.656400  0.857200  1.0  -0.5389
  O  O212  1  0.063200  0.578800  0.676000  1.0  -0.5598
