# generated using pymatgen
data_Fe2Ag4H54C78N17O21
_symmetry_space_group_name_H-M   'P 1'
_cell_length_a   13.43340000
_cell_length_b   13.43340000
_cell_length_c   26.67700000
_cell_angle_alpha   87.05730000
_cell_angle_beta   87.05730000
_cell_angle_gamma   81.58100000
_symmetry_Int_Tables_number   1
_chemical_formula_structural   Fe2Ag4H54C78N17O21
_chemical_formula_sum   'Fe4 Ag8 H108 C156 N34 O42'
_cell_volume   4751.19376724
_cell_formula_units_Z   2
loop_
 _symmetry_equiv_pos_site_id
 _symmetry_equiv_pos_as_xyz
  1  'x, y, z'
loop_
 _atom_site_type_symbol
 _atom_site_label
 _atom_site_symmetry_multiplicity
 _atom_site_fract_x
 _atom_site_fract_y
 _atom_site_fract_z
 _atom_site_occupancy
 _atom_site_charge
  Fe  Fe1  1  0.292320  0.297040  0.551960  1.0  1.0369
  Fe  Fe2  1  0.702960  0.707680  0.948040  1.0  1.0374
  Fe  Fe3  1  0.707680  0.702960  0.448040  1.0  1.0382
  Fe  Fe4  1  0.297040  0.292320  0.051960  1.0  1.0366
  Ag  Ag5  1  0.852510  0.857790  0.619260  1.0  0.381
  Ag  Ag6  1  0.431670  0.474250  0.230090  1.0  0.5533
  Ag  Ag7  1  0.142210  0.147490  0.880740  1.0  0.3801
  Ag  Ag8  1  0.525750  0.568330  0.269910  1.0  0.5504
  Ag  Ag9  1  0.147490  0.142210  0.380740  1.0  0.38
  Ag  Ag10  1  0.568330  0.525750  0.769910  1.0  0.5522
  Ag  Ag11  1  0.857790  0.852510  0.119260  1.0  0.3809
  Ag  Ag12  1  0.474250  0.431670  0.730090  1.0  0.553
  H  H13  1  0.940400  0.619800  0.647700  1.0  0.0933
  H  H14  1  0.287000  0.477000  0.676300  1.0  0.1348
  H  H15  1  0.315100  0.794500  0.639100  1.0  0.0971
  H  H16  1  0.588900  0.167500  0.575000  1.0  0.1277
  H  H17  1  0.921100  0.757300  0.516800  1.0  0.0942
  H  H18  1  0.746700  0.086500  0.583400  1.0  0.09
  H  H19  1  0.658100  0.828700  0.565100  1.0  0.0952
  H  H20  1  0.495500  0.905700  0.555500  1.0  0.1383
  H  H21  1  0.282600  0.630400  0.658500  1.0  0.1423
  H  H22  1  0.291100  0.149900  0.699000  1.0  0.1416
  H  H23  1  0.193900  0.429100  0.744600  1.0  0.1381
  H  H24  1  0.906700  0.747500  0.721700  1.0  0.0854
  H  H25  1  0.642600  0.854600  0.679900  1.0  0.0896
  H  H26  1  0.052500  0.158300  0.584400  1.0  0.1236
  H  H27  1  0.221500  0.898300  0.551100  1.0  0.1391
  H  H28  1  0.924600  0.070600  0.611600  1.0  0.0919
  H  H29  1  0.085500  0.817300  0.575900  1.0  0.0938
  H  H30  1  0.430100  0.550900  0.528600  1.0  0.1387
  H  H31  1  0.348300  0.983700  0.577200  1.0  0.1091
  H  H32  1  0.045100  0.643300  0.483400  1.0  0.1386
  H  H33  1  0.183400  0.556800  0.466600  1.0  0.1308
  H  H34  1  0.455200  0.716400  0.513600  1.0  0.0951
  H  H35  1  0.057900  0.494100  0.616700  1.0  0.1387
  H  H36  1  0.471800  0.341600  0.326000  1.0  0.1084
  H  H37  1  0.173100  0.536100  0.371600  1.0  0.1266
  H  H38  1  0.228600  0.535200  0.289000  1.0  0.1241
  H  H39  1  0.415900  0.346500  0.408300  1.0  0.107
  H  H40  1  0.380200  0.059600  0.852300  1.0  0.0933
  H  H41  1  0.523000  0.713000  0.823700  1.0  0.1345
  H  H42  1  0.205500  0.684900  0.860900  1.0  0.0965
  H  H43  1  0.832500  0.411100  0.925000  1.0  0.1299
  H  H44  1  0.242700  0.078900  0.983200  1.0  0.0944
  H  H45  1  0.913500  0.253300  0.916600  1.0  0.0899
  H  H46  1  0.171300  0.341900  0.934900  1.0  0.0964
  H  H47  1  0.094300  0.504500  0.944500  1.0  0.1384
  H  H48  1  0.369600  0.717400  0.841500  1.0  0.1425
  H  H49  1  0.850100  0.708900  0.801000  1.0  0.1423
  H  H50  1  0.570900  0.806100  0.755400  1.0  0.1388
  H  H51  1  0.252500  0.093300  0.778300  1.0  0.0857
  H  H52  1  0.145400  0.357400  0.820100  1.0  0.0896
  H  H53  1  0.841700  0.947500  0.915600  1.0  0.1257
  H  H54  1  0.101700  0.778500  0.948900  1.0  0.1399
  H  H55  1  0.929400  0.075400  0.888400  1.0  0.0922
  H  H56  1  0.182700  0.914500  0.924100  1.0  0.0928
  H  H57  1  0.449100  0.569900  0.971400  1.0  0.1392
  H  H58  1  0.016300  0.651700  0.922800  1.0  0.1079
  H  H59  1  0.356700  0.954900  0.016600  1.0  0.139
  H  H60  1  0.443200  0.816600  0.033400  1.0  0.1293
  H  H61  1  0.283600  0.544800  0.986400  1.0  0.0951
  H  H62  1  0.505900  0.942100  0.883300  1.0  0.1381
  H  H63  1  0.658400  0.528200  0.174000  1.0  0.1092
  H  H64  1  0.463900  0.826900  0.128400  1.0  0.1259
  H  H65  1  0.464800  0.771400  0.211000  1.0  0.1236
  H  H66  1  0.653500  0.584100  0.091700  1.0  0.1065
  H  H67  1  0.059600  0.380200  0.352300  1.0  0.093
  H  H68  1  0.713000  0.523000  0.323700  1.0  0.1343
  H  H69  1  0.684900  0.205500  0.360900  1.0  0.0972
  H  H70  1  0.411100  0.832500  0.425000  1.0  0.1272
  H  H71  1  0.078900  0.242700  0.483200  1.0  0.0944
  H  H72  1  0.253300  0.913500  0.416600  1.0  0.0899
  H  H73  1  0.341900  0.171300  0.434900  1.0  0.095
  H  H74  1  0.504500  0.094300  0.444500  1.0  0.138
  H  H75  1  0.717400  0.369600  0.341500  1.0  0.1427
  H  H76  1  0.708900  0.850100  0.301000  1.0  0.1422
  H  H77  1  0.806100  0.570900  0.255400  1.0  0.1392
  H  H78  1  0.093300  0.252500  0.278300  1.0  0.0854
  H  H79  1  0.357400  0.145400  0.320100  1.0  0.0902
  H  H80  1  0.947500  0.841700  0.415600  1.0  0.1242
  H  H81  1  0.778500  0.101700  0.448900  1.0  0.139
  H  H82  1  0.075400  0.929400  0.388400  1.0  0.0916
  H  H83  1  0.914500  0.182700  0.424100  1.0  0.0936
  H  H84  1  0.569900  0.449100  0.471400  1.0  0.1389
  H  H85  1  0.651700  0.016300  0.422800  1.0  0.1097
  H  H86  1  0.954900  0.356700  0.516600  1.0  0.1389
  H  H87  1  0.816600  0.443200  0.533400  1.0  0.1308
  H  H88  1  0.544800  0.283600  0.486400  1.0  0.0944
  H  H89  1  0.942100  0.505900  0.383300  1.0  0.1381
  H  H90  1  0.528200  0.658400  0.674000  1.0  0.1092
  H  H91  1  0.826900  0.463900  0.628400  1.0  0.1254
  H  H92  1  0.771400  0.464800  0.711000  1.0  0.123
  H  H93  1  0.584100  0.653500  0.591700  1.0  0.1066
  H  H94  1  0.619800  0.940400  0.147700  1.0  0.0932
  H  H95  1  0.477000  0.287000  0.176300  1.0  0.1351
  H  H96  1  0.794500  0.315100  0.139100  1.0  0.0972
  H  H97  1  0.167500  0.588900  0.075000  1.0  0.1298
  H  H98  1  0.757300  0.921100  0.016800  1.0  0.0943
  H  H99  1  0.086500  0.746700  0.083400  1.0  0.0903
  H  H100  1  0.828700  0.658100  0.065100  1.0  0.0964
  H  H101  1  0.905700  0.495500  0.055500  1.0  0.1386
  H  H102  1  0.630400  0.282600  0.158500  1.0  0.1422
  H  H103  1  0.149900  0.291100  0.199000  1.0  0.1422
  H  H104  1  0.429100  0.193900  0.244600  1.0  0.1383
  H  H105  1  0.747500  0.906700  0.221700  1.0  0.0841
  H  H106  1  0.854600  0.642600  0.179900  1.0  0.0904
  H  H107  1  0.158300  0.052500  0.084400  1.0  0.1258
  H  H108  1  0.898300  0.221500  0.051100  1.0  0.1401
  H  H109  1  0.070600  0.924600  0.111600  1.0  0.0919
  H  H110  1  0.817300  0.085500  0.075900  1.0  0.0923
  H  H111  1  0.550900  0.430100  0.028600  1.0  0.1388
  H  H112  1  0.983700  0.348300  0.077200  1.0  0.1082
  H  H113  1  0.643300  0.045100  0.983400  1.0  0.1377
  H  H114  1  0.556800  0.183400  0.966600  1.0  0.1288
  H  H115  1  0.716400  0.455200  0.013600  1.0  0.095
  H  H116  1  0.494100  0.057900  0.116700  1.0  0.1386
  H  H117  1  0.341600  0.471800  0.826000  1.0  0.1092
  H  H118  1  0.536100  0.173100  0.871600  1.0  0.126
  H  H119  1  0.535200  0.228600  0.789000  1.0  0.123
  H  H120  1  0.346500  0.415900  0.908300  1.0  0.1067
  C  C121  1  0.523600  0.046800  0.564300  1.0  0.045
  C  C122  1  0.149700  0.476100  0.527900  1.0  0.4034
  C  C123  1  0.067600  0.556200  0.546700  1.0  -0.056
  C  C124  1  0.153200  0.037400  0.571500  1.0  0.0531
  C  C125  1  0.420000  0.100600  0.558300  1.0  0.2744
  C  C126  1  0.237100  0.094300  0.559700  1.0  0.3017
  C  C127  1  0.960900  0.623700  0.613900  1.0  0.1848
  C  C128  1  0.299000  0.432000  0.650600  1.0  -0.097
  C  C129  1  0.339500  0.463500  0.605100  1.0  0.3584
  C  C130  1  0.337200  0.745000  0.616300  1.0  0.1806
  C  C131  1  0.601100  0.097900  0.572800  1.0  -0.1534
  C  C132  1  0.245300  0.297100  0.710600  1.0  -0.0033
  C  C133  1  0.275400  0.334600  0.659400  1.0  0.3723
  C  C134  1  0.950800  0.704800  0.537600  1.0  0.1926
  C  C135  1  0.695700  0.048700  0.578200  1.0  0.2042
  C  C136  1  0.643900  0.898100  0.567400  1.0  0.1949
  C  C137  1  0.545700  0.943900  0.561400  1.0  -0.1866
  C  C138  1  0.318300  0.645700  0.629000  1.0  -0.1927
  C  C139  1  0.262000  0.195200  0.722700  1.0  -0.1582
  C  C140  1  0.202900  0.359300  0.749600  1.0  -0.2013
  C  C141  1  0.838300  0.764700  0.729800  1.0  0.2021
  C  C142  1  0.684500  0.825100  0.704900  1.0  0.1961
  C  C143  1  0.062700  0.088300  0.584900  1.0  -0.1865
  C  C144  1  0.162500  0.933900  0.564700  1.0  -0.1893
  C  C145  1  0.984900  0.034700  0.599600  1.0  0.1985
  C  C146  1  0.079600  0.886600  0.579100  1.0  0.18
  C  C147  1  0.405700  0.599100  0.551800  1.0  -0.0968
  C  C148  1  0.336800  0.051200  0.566400  1.0  -0.1075
  C  C149  1  0.024400  0.636200  0.517000  1.0  -0.1988
  C  C150  1  0.199300  0.494300  0.483100  1.0  -0.0757
  C  C151  1  0.419600  0.699400  0.542800  1.0  0.1924
  C  C152  1  0.355200  0.572800  0.595800  1.0  -0.089
  C  C153  1  0.033000  0.548800  0.595800  1.0  -0.1263
  C  C154  1  0.273800  0.422400  0.460400  1.0  0.2712
  C  C155  1  0.411600  0.382000  0.334700  1.0  0.0573
  C  C156  1  0.289400  0.440400  0.398100  1.0  -0.0651
  C  C157  1  0.233600  0.497200  0.362300  1.0  -0.1058
  C  C158  1  0.267200  0.496400  0.312800  1.0  0.153
  C  C159  1  0.377600  0.384200  0.384000  1.0  -0.1148
  C  C160  1  0.953200  0.476400  0.935700  1.0  0.0412
  C  C161  1  0.523900  0.850300  0.972100  1.0  0.4011
  C  C162  1  0.443800  0.932400  0.953300  1.0  -0.0552
  C  C163  1  0.962600  0.846800  0.928500  1.0  0.0542
  C  C164  1  0.899400  0.580000  0.941700  1.0  0.2733
  C  C165  1  0.905700  0.762900  0.940300  1.0  0.3006
  C  C166  1  0.376300  0.039100  0.886100  1.0  0.1865
  C  C167  1  0.568000  0.701000  0.849400  1.0  -0.1019
  C  C168  1  0.536500  0.660500  0.894900  1.0  0.3569
  C  C169  1  0.255000  0.662800  0.883700  1.0  0.1808
  C  C170  1  0.902100  0.398900  0.927200  1.0  -0.1484
  C  C171  1  0.702900  0.754700  0.789400  1.0  -0.0032
  C  C172  1  0.665400  0.724600  0.840600  1.0  0.3713
  C  C173  1  0.295200  0.049200  0.962400  1.0  0.1935
  C  C174  1  0.951300  0.304300  0.921800  1.0  0.2055
  C  C175  1  0.101900  0.356100  0.932600  1.0  0.1912
  C  C176  1  0.056100  0.454300  0.938600  1.0  -0.1873
  C  C177  1  0.354300  0.681700  0.871000  1.0  -0.1927
  C  C178  1  0.804800  0.738000  0.777300  1.0  -0.1556
  C  C179  1  0.640700  0.797100  0.750400  1.0  -0.2043
  C  C180  1  0.235300  0.161700  0.770200  1.0  0.1977
  C  C181  1  0.174900  0.315500  0.795100  1.0  0.1969
  C  C182  1  0.911700  0.937300  0.915100  1.0  -0.1832
  C  C183  1  0.066100  0.837500  0.935300  1.0  -0.1894
  C  C184  1  0.965300  0.015100  0.900400  1.0  0.199
  C  C185  1  0.113400  0.920400  0.920900  1.0  0.1794
  C  C186  1  0.400900  0.594300  0.948200  1.0  -0.0975
  C  C187  1  0.948800  0.663200  0.933600  1.0  -0.1071
  C  C188  1  0.363800  0.975600  0.983000  1.0  -0.196
  C  C189  1  0.505700  0.800700  0.016900  1.0  -0.0774
  C  C190  1  0.300600  0.580400  0.957200  1.0  0.1912
  C  C191  1  0.427200  0.644800  0.904200  1.0  -0.0877
  C  C192  1  0.451200  0.967000  0.904200  1.0  -0.126
  C  C193  1  0.577600  0.726200  0.039600  1.0  0.2694
  C  C194  1  0.618000  0.588400  0.165300  1.0  0.0587
  C  C195  1  0.559600  0.710600  0.101900  1.0  -0.0643
  C  C196  1  0.502800  0.766400  0.137700  1.0  -0.1071
  C  C197  1  0.503600  0.732800  0.187200  1.0  0.1534
  C  C198  1  0.615800  0.622400  0.116000  1.0  -0.1177
  C  C199  1  0.476400  0.953200  0.435700  1.0  0.0414
  C  C200  1  0.850300  0.523900  0.472100  1.0  0.405
  C  C201  1  0.932400  0.443800  0.453300  1.0  -0.0559
  C  C202  1  0.846800  0.962600  0.428500  1.0  0.0524
  C  C203  1  0.580000  0.899400  0.441700  1.0  0.2757
  C  C204  1  0.762900  0.905700  0.440300  1.0  0.301
  C  C205  1  0.039100  0.376300  0.386100  1.0  0.1849
  C  C206  1  0.701000  0.568000  0.349400  1.0  -0.0979
  C  C207  1  0.660500  0.536500  0.394900  1.0  0.359
  C  C208  1  0.662800  0.255000  0.383700  1.0  0.1795
  C  C209  1  0.398900  0.902100  0.427200  1.0  -0.1516
  C  C210  1  0.754700  0.702900  0.289400  1.0  -0.0044
  C  C211  1  0.724600  0.665400  0.340600  1.0  0.3728
  C  C212  1  0.049200  0.295200  0.462400  1.0  0.1924
  C  C213  1  0.304300  0.951300  0.421800  1.0  0.2043
  C  C214  1  0.356100  0.101900  0.432600  1.0  0.1939
  C  C215  1  0.454300  0.056100  0.438600  1.0  -0.1871
  C  C216  1  0.681700  0.354300  0.371000  1.0  -0.1929
  C  C217  1  0.738000  0.804800  0.277300  1.0  -0.1578
  C  C218  1  0.797100  0.640700  0.250400  1.0  -0.1997
  C  C219  1  0.161700  0.235300  0.270200  1.0  0.1996
  C  C220  1  0.315500  0.174900  0.295100  1.0  0.1965
  C  C221  1  0.937300  0.911700  0.415100  1.0  -0.1861
  C  C222  1  0.837500  0.066100  0.435300  1.0  -0.1892
  C  C223  1  0.015100  0.965300  0.400400  1.0  0.1991
  C  C224  1  0.920400  0.113400  0.420900  1.0  0.1785
  C  C225  1  0.594300  0.400900  0.448200  1.0  -0.0969
  C  C226  1  0.663200  0.948800  0.433600  1.0  -0.107
  C  C227  1  0.975600  0.363800  0.483000  1.0  -0.198
  C  C228  1  0.800700  0.505700  0.516900  1.0  -0.0772
  C  C229  1  0.580400  0.300600  0.457200  1.0  0.1915
  C  C230  1  0.644800  0.427200  0.404200  1.0  -0.0889
  C  C231  1  0.967000  0.451200  0.404200  1.0  -0.1256
  C  C232  1  0.726200  0.577600  0.539600  1.0  0.2711
  C  C233  1  0.588400  0.618000  0.665300  1.0  0.0579
  C  C234  1  0.710600  0.559600  0.601900  1.0  -0.064
  C  C235  1  0.766400  0.502800  0.637700  1.0  -0.1075
  C  C236  1  0.732800  0.503600  0.687200  1.0  0.1504
  C  C237  1  0.622400  0.615800  0.616000  1.0  -0.1151
  C  C238  1  0.046800  0.523600  0.064300  1.0  0.0443
  C  C239  1  0.476100  0.149700  0.027900  1.0  0.4018
  C  C240  1  0.556200  0.067600  0.046700  1.0  -0.0545
  C  C241  1  0.037400  0.153200  0.071500  1.0  0.0549
  C  C242  1  0.100600  0.420000  0.058300  1.0  0.2731
  C  C243  1  0.094300  0.237100  0.059700  1.0  0.2989
  C  C244  1  0.623700  0.960900  0.113900  1.0  0.1869
  C  C245  1  0.432000  0.299000  0.150600  1.0  -0.0998
  C  C246  1  0.463500  0.339500  0.105100  1.0  0.3578
  C  C247  1  0.745000  0.337200  0.116300  1.0  0.1818
  C  C248  1  0.097900  0.601100  0.072800  1.0  -0.1473
  C  C249  1  0.297100  0.245300  0.210600  1.0  -0.0036
  C  C250  1  0.334600  0.275400  0.159400  1.0  0.3727
  C  C251  1  0.704800  0.950800  0.037600  1.0  0.1917
  C  C252  1  0.048700  0.695700  0.078200  1.0  0.2047
  C  C253  1  0.898100  0.643900  0.067400  1.0  0.1924
  C  C254  1  0.943900  0.545700  0.061400  1.0  -0.1871
  C  C255  1  0.645700  0.318300  0.129000  1.0  -0.1933
  C  C256  1  0.195200  0.262000  0.222700  1.0  -0.1551
  C  C257  1  0.359300  0.202900  0.249600  1.0  -0.2036
  C  C258  1  0.764700  0.838300  0.229800  1.0  0.1988
  C  C259  1  0.825100  0.684500  0.204900  1.0  0.1972
  C  C260  1  0.088300  0.062700  0.084900  1.0  -0.1822
  C  C261  1  0.933900  0.162500  0.064700  1.0  -0.1888
  C  C262  1  0.034700  0.984900  0.099600  1.0  0.1992
  C  C263  1  0.886600  0.079600  0.079100  1.0  0.1786
  C  C264  1  0.599100  0.405700  0.051800  1.0  -0.0971
  C  C265  1  0.051200  0.336800  0.066400  1.0  -0.1082
  C  C266  1  0.636200  0.024400  0.017000  1.0  -0.1979
  C  C267  1  0.494300  0.199300  0.983100  1.0  -0.0758
  C  C268  1  0.699400  0.419600  0.042800  1.0  0.193
  C  C269  1  0.572800  0.355200  0.095800  1.0  -0.0892
  C  C270  1  0.548800  0.033000  0.095800  1.0  -0.1262
  C  C271  1  0.422400  0.273800  0.960400  1.0  0.2676
  C  C272  1  0.382000  0.411600  0.834700  1.0  0.0578
  C  C273  1  0.440400  0.289400  0.898100  1.0  -0.0655
  C  C274  1  0.497200  0.233600  0.862300  1.0  -0.107
  C  C275  1  0.496400  0.267200  0.812800  1.0  0.1567
  C  C276  1  0.384200  0.377600  0.884000  1.0  -0.1175
  N  N277  1  0.782600  0.812200  0.694900  1.0  -0.3014
  N  N278  1  0.990200  0.935400  0.597700  1.0  -0.3155
  N  N279  1  0.384400  0.771800  0.573900  1.0  -0.407
  N  N280  1  0.918900  0.701100  0.585400  1.0  -0.3545
  N  N281  1  0.719900  0.948900  0.576500  1.0  -0.3244
  N  N282  1  0.357700  0.438900  0.297400  1.0  -0.3402
  N  N283  1  0.484500  0.552300  0.165600  1.0  -0.473
  N  N284  1  0.187800  0.217400  0.805100  1.0  -0.2976
  N  N285  1  0.064600  0.009800  0.902300  1.0  -0.3134
  N  N286  1  0.228200  0.615600  0.926100  1.0  -0.4058
  N  N287  1  0.298900  0.081100  0.914600  1.0  -0.355
  N  N288  1  0.051100  0.280100  0.923500  1.0  -0.3289
  N  N289  1  0.561100  0.642300  0.202600  1.0  -0.3392
  N  N290  1  0.447700  0.515500  0.334400  1.0  -0.4732
  N  N291  1  0.658600  0.341400  0.250000  1.0  0.7577
  N  N292  1  0.217400  0.187800  0.305100  1.0  -0.3002
  N  N293  1  0.009800  0.064600  0.402300  1.0  -0.3136
  N  N294  1  0.615600  0.228200  0.426100  1.0  -0.4078
  N  N295  1  0.081100  0.298900  0.414600  1.0  -0.3556
  N  N296  1  0.280100  0.051100  0.423500  1.0  -0.3273
  N  N297  1  0.642300  0.561100  0.702600  1.0  -0.338
  N  N298  1  0.515500  0.447700  0.834400  1.0  -0.4712
  N  N299  1  0.812200  0.782600  0.194900  1.0  -0.3009
  N  N300  1  0.935400  0.990200  0.097700  1.0  -0.3139
  N  N301  1  0.771800  0.384400  0.073900  1.0  -0.4047
  N  N302  1  0.701100  0.918900  0.085400  1.0  -0.3542
  N  N303  1  0.948900  0.719900  0.076500  1.0  -0.3285
  N  N304  1  0.438900  0.357700  0.797400  1.0  -0.3388
  N  N305  1  0.552300  0.484500  0.665600  1.0  -0.4711
  N  N306  1  0.341400  0.658600  0.750000  1.0  0.7596
  N  N307  1  0.143700  0.728300  0.389500  1.0  0.7711
  N  N308  1  0.271700  0.856300  0.110500  1.0  0.7715
  N  N309  1  0.856300  0.271700  0.610500  1.0  0.7704
  N  N310  1  0.728300  0.143700  0.889500  1.0  0.7699
  O  O311  1  0.365900  0.408900  0.567700  1.0  -0.5537
  O  O312  1  0.415800  0.195800  0.546400  1.0  -0.5698
  O  O313  1  0.213500  0.186700  0.545100  1.0  -0.5712
  O  O314  1  0.164200  0.395800  0.554800  1.0  -0.5495
  O  O315  1  0.280700  0.270100  0.626200  1.0  -0.577
  O  O316  1  0.304100  0.336700  0.480300  1.0  -0.5604
  O  O317  1  0.679000  0.427400  0.251200  1.0  -0.6179
  O  O318  1  0.591100  0.634100  0.932300  1.0  -0.5556
  O  O319  1  0.804200  0.584200  0.953600  1.0  -0.5677
  O  O320  1  0.813300  0.786500  0.954900  1.0  -0.569
  O  O321  1  0.604200  0.835800  0.945200  1.0  -0.5482
  O  O322  1  0.729900  0.719300  0.873800  1.0  -0.5756
  O  O323  1  0.663300  0.695900  0.019700  1.0  -0.5596
  O  O324  1  0.572600  0.321000  0.248800  1.0  -0.6219
  O  O325  1  0.729100  0.270900  0.250000  1.0  -0.4756
  O  O326  1  0.634100  0.591100  0.432300  1.0  -0.5539
  O  O327  1  0.584200  0.804200  0.453600  1.0  -0.5688
  O  O328  1  0.786500  0.813300  0.454900  1.0  -0.57
  O  O329  1  0.835800  0.604200  0.445200  1.0  -0.5479
  O  O330  1  0.719300  0.729900  0.373800  1.0  -0.5785
  O  O331  1  0.695900  0.663300  0.519700  1.0  -0.5599
  O  O332  1  0.321000  0.572600  0.748800  1.0  -0.6184
  O  O333  1  0.408900  0.365900  0.067700  1.0  -0.5567
  O  O334  1  0.195800  0.415800  0.046400  1.0  -0.568
  O  O335  1  0.186700  0.213500  0.045100  1.0  -0.5701
  O  O336  1  0.395800  0.164200  0.054800  1.0  -0.5493
  O  O337  1  0.270100  0.280700  0.126200  1.0  -0.5748
  O  O338  1  0.336700  0.304100  0.980300  1.0  -0.559
  O  O339  1  0.427400  0.679000  0.751200  1.0  -0.6224
  O  O340  1  0.270900  0.729100  0.750000  1.0  -0.4755
  O  O341  1  0.186300  0.749500  0.426000  1.0  -0.3937
  O  O342  1  0.087000  0.665000  0.392600  1.0  -0.4646
  O  O343  1  0.161000  0.769600  0.347600  1.0  -0.4541
  O  O344  1  0.250500  0.813700  0.074000  1.0  -0.3945
  O  O345  1  0.335000  0.913000  0.107400  1.0  -0.4635
  O  O346  1  0.230400  0.839000  0.152400  1.0  -0.4513
  O  O347  1  0.813700  0.250500  0.574000  1.0  -0.3929
  O  O348  1  0.913000  0.335000  0.607400  1.0  -0.4628
  O  O349  1  0.839000  0.230400  0.652400  1.0  -0.4518
  O  O350  1  0.749500  0.186300  0.926000  1.0  -0.3948
  O  O351  1  0.665000  0.087000  0.892600  1.0  -0.4629
  O  O352  1  0.769600  0.161000  0.847600  1.0  -0.4544
