# generated using pymatgen
data_Fe3Ag5H95C131S2(N3O4)6
_symmetry_space_group_name_H-M   'P 1'
_cell_length_a   27.68410000
_cell_length_b   27.68410000
_cell_length_c   17.48010000
_cell_angle_alpha   90.00000000
_cell_angle_beta   90.00000000
_cell_angle_gamma   120.00000000
_symmetry_Int_Tables_number   1
_chemical_formula_structural   Fe3Ag5H95C131S2(N3O4)6
_chemical_formula_sum   'Fe6 Ag10 H190 C262 S4 N36 O48'
_cell_volume   11602.06684069
_cell_formula_units_Z   2
loop_
 _symmetry_equiv_pos_site_id
 _symmetry_equiv_pos_as_xyz
  1  'x, y, z'
loop_
 _atom_site_type_symbol
 _atom_site_label
 _atom_site_symmetry_multiplicity
 _atom_site_fract_x
 _atom_site_fract_y
 _atom_site_fract_z
 _atom_site_occupancy
 _atom_site_charge
  Fe  Fe1  1  0.651950  0.999870  0.235400  1.0  0.1348
  Fe  Fe2  1  0.005160  0.652390  0.244040  1.0  0.1803
  Fe  Fe3  1  0.355320  0.351190  0.254550  1.0  0.1703
  Fe  Fe4  1  0.356990  0.999860  0.752980  1.0  0.1599
  Fe  Fe5  1  0.004130  0.349020  0.757070  1.0  0.1408
  Fe  Fe6  1  0.653910  0.651150  0.753980  1.0  0.1665
  Ag  Ag7  1  0.671830  0.334740  0.214300  1.0  0.3351
  Ag  Ag8  1  0.337450  0.666850  0.269480  1.0  0.3022
  Ag  Ag9  1  0.336680  0.665560  0.784790  1.0  0.2808
  Ag  Ag10  1  0.671890  0.335000  0.722430  1.0  0.2789
  Ag  Ag11  1  0.722450  0.001430  0.735580  1.0  0.4225
  Ag  Ag12  1  0.004460  0.721990  0.744820  1.0  0.4179
  Ag  Ag13  1  0.285910  0.280540  0.752710  1.0  0.4346
  Ag  Ag14  1  0.287860  0.002380  0.254630  1.0  0.4393
  Ag  Ag15  1  0.003560  0.278590  0.256350  1.0  0.4373
  Ag  Ag16  1  0.723470  0.720430  0.254240  1.0  0.4379
  H  H17  1  0.682990  0.116690  0.061060  1.0  0.1101
  H  H18  1  0.576020  0.118320  0.244500  1.0  0.1071
  H  H19  1  0.584720  0.211530  0.260310  1.0  0.1159
  H  H20  1  0.742020  0.288680  0.151190  1.0  0.1141
  H  H21  1  0.737120  0.198180  0.134860  1.0  0.1173
  H  H22  1  0.761950  0.090280  0.005300  1.0  0.1235
  H  H23  1  0.783130  0.076350  0.873680  1.0  0.1133
  H  H24  1  0.615360  0.950620  0.837300  1.0  0.1249
  H  H25  1  0.591730  0.960180  0.971450  1.0  0.1269
  H  H26  1  0.877870  0.068400  0.220680  1.0  0.1166
  H  H27  1  0.965600  0.157050  0.228760  1.0  0.1101
  H  H28  1  0.879960  0.244090  0.276740  1.0  0.1161
  H  H29  1  0.789590  0.156580  0.273280  1.0  0.1193
  H  H30  1  0.889550  0.563970  0.068920  1.0  0.1175
  H  H31  1  0.845650  0.517000  0.310680  1.0  0.1201
  H  H32  1  0.752380  0.432350  0.321530  1.0  0.1459
  H  H33  1  0.763630  0.385470  0.095060  1.0  0.1178
  H  H34  1  0.856730  0.468140  0.079720  1.0  0.1266
  H  H35  1  0.916030  0.672750  0.015010  1.0  0.1129
  H  H36  1  0.930220  0.708590  0.883450  1.0  0.1094
  H  H37  1  0.053920  0.664010  0.845300  1.0  0.1304
  H  H38  1  0.044140  0.630120  0.978990  1.0  0.1301
  H  H39  1  0.928510  0.794390  0.321010  1.0  0.1189
  H  H40  1  0.838440  0.791690  0.321220  1.0  0.1218
  H  H41  1  0.764600  0.644480  0.188480  1.0  0.121
  H  H42  1  0.853640  0.644670  0.182640  1.0  0.1179
  H  H43  1  0.442500  0.325060  0.075690  1.0  0.1126
  H  H44  1  0.551290  0.429300  0.258660  1.0  0.1327
  H  H45  1  0.636600  0.421230  0.267640  1.0  0.1354
  H  H46  1  0.553240  0.262500  0.163120  1.0  0.1056
  H  H47  1  0.467520  0.267640  0.150120  1.0  0.1053
  H  H48  1  0.268820  0.283180  0.046600  1.0  0.115
  H  H49  1  0.236050  0.260090  0.913160  1.0  0.1215
  H  H50  1  0.401650  0.349030  0.830840  1.0  0.1172
  H  H51  1  0.438100  0.372810  0.962900  1.0  0.1253
  H  H52  1  0.207500  0.130070  0.306830  1.0  0.1205
  H  H53  1  0.210190  0.042730  0.306900  1.0  0.1217
  H  H54  1  0.366420  0.120940  0.194990  1.0  0.1181
  H  H55  1  0.366560  0.210050  0.190130  1.0  0.1074
  H  H56  1  0.118880  0.671470  0.418970  1.0  0.116
  H  H57  1  0.122390  0.574900  0.225940  1.0  0.1265
  H  H58  1  0.215630  0.582960  0.213080  1.0  0.133
  H  H59  1  0.290880  0.736110  0.332710  1.0  0.1063
  H  H60  1  0.200830  0.731410  0.347980  1.0  0.1186
  H  H61  1  0.118870  0.725450  0.509920  1.0  0.1186
  H  H62  1  0.103300  0.743750  0.641280  1.0  0.1115
  H  H63  1  0.928560  0.648130  0.611220  1.0  0.1084
  H  H64  1  0.940410  0.625260  0.479340  1.0  0.1206
  H  H65  1  0.078620  0.878130  0.209280  1.0  0.1166
  H  H66  1  0.168770  0.964690  0.212310  1.0  0.1212
  H  H67  1  0.249390  0.878510  0.290000  1.0  0.1068
  H  H68  1  0.160570  0.790200  0.293060  1.0  0.1104
  H  H69  1  0.555380  0.887960  0.411200  1.0  0.1064
  H  H70  1  0.522630  0.836910  0.174440  1.0  0.1289
  H  H71  1  0.439490  0.742350  0.165750  1.0  0.1184
  H  H72  1  0.380410  0.764610  0.378140  1.0  0.118
  H  H73  1  0.460580  0.859410  0.390160  1.0  0.1132
  H  H74  1  0.606950  0.887390  0.503940  1.0  0.1193
  H  H75  1  0.641220  0.903210  0.635020  1.0  0.1128
  H  H76  1  0.727100  0.077790  0.601100  1.0  0.099
  H  H77  1  0.691760  0.065900  0.469400  1.0  0.1159
  H  H78  1  0.803150  0.928460  0.206560  1.0  0.1241
  H  H79  1  0.802080  0.839140  0.209240  1.0  0.1195
  H  H80  1  0.637990  0.756160  0.297230  1.0  0.1124
  H  H81  1  0.635480  0.844150  0.298060  1.0  0.1151
  H  H82  1  0.345500  0.451030  0.430890  1.0  0.1088
  H  H83  1  0.426270  0.541560  0.220240  1.0  0.1212
  H  H84  1  0.416050  0.625160  0.203280  1.0  0.1223
  H  H85  1  0.278530  0.558710  0.354320  1.0  0.1184
  H  H86  1  0.284910  0.474340  0.373310  1.0  0.1164
  H  H87  1  0.297900  0.404660  0.527520  1.0  0.1202
  H  H88  1  0.278160  0.368960  0.657350  1.0  0.1172
  H  H89  1  0.351820  0.269530  0.616720  1.0  0.1162
  H  H90  1  0.376740  0.305930  0.485080  1.0  0.1209
  H  H91  1  0.141420  0.216790  0.170780  1.0  0.1212
  H  H92  1  0.053010  0.217550  0.172980  1.0  0.1135
  H  H93  1  0.117270  0.347710  0.336030  1.0  0.1185
  H  H94  1  0.207540  0.349910  0.337520  1.0  0.114
  H  H95  1  0.327620  0.884110  0.928890  1.0  0.1043
  H  H96  1  0.436480  0.882100  0.754040  1.0  0.1369
  H  H97  1  0.427080  0.788260  0.742050  1.0  0.139
  H  H98  1  0.263680  0.712300  0.832260  1.0  0.1211
  H  H99  1  0.269990  0.803530  0.847410  1.0  0.1135
  H  H100  1  0.358880  0.920350  0.045340  1.0  0.1083
  H  H101  1  0.334790  0.934490  0.176060  1.0  0.105
  H  H102  1  0.287500  0.048530  0.095340  1.0  0.1201
  H  H103  1  0.309870  0.036810  0.963060  1.0  0.1181
  H  H104  1  0.141140  0.926980  0.681870  1.0  0.1212
  H  H105  1  0.052490  0.837810  0.678890  1.0  0.1103
  H  H106  1  0.119200  0.762580  0.822160  1.0  0.123
  H  H107  1  0.209610  0.850140  0.827780  1.0  0.1105
  H  H108  1  0.115450  0.446800  0.932940  1.0  0.1058
  H  H109  1  0.164970  0.480130  0.693680  1.0  0.1188
  H  H110  1  0.258960  0.563330  0.682700  1.0  0.1175
  H  H111  1  0.240940  0.622030  0.897960  1.0  0.1239
  H  H112  1  0.146630  0.541040  0.912860  1.0  0.1166
  H  H113  1  0.116250  0.398110  0.027640  1.0  0.1216
  H  H114  1  0.100620  0.363440  0.158060  1.0  0.1151
  H  H115  1  0.926620  0.269280  0.121210  1.0  0.1088
  H  H116  1  0.938000  0.305030  0.989250  1.0  0.1213
  H  H117  1  0.088810  0.221760  0.656870  1.0  0.1235
  H  H118  1  0.178320  0.223300  0.660830  1.0  0.1134
  H  H119  1  0.237610  0.344720  0.836050  1.0  0.122
  H  H120  1  0.148940  0.345410  0.836880  1.0  0.1243
  H  H121  1  0.563790  0.673630  0.931500  1.0  0.1168
  H  H122  1  0.516890  0.670290  0.688010  1.0  0.1221
  H  H123  1  0.432630  0.679320  0.676540  1.0  0.1146
  H  H124  1  0.386820  0.624940  0.904570  1.0  0.1385
  H  H125  1  0.469030  0.613850  0.920630  1.0  0.126
  H  H126  1  0.569080  0.634300  0.046460  1.0  0.1262
  H  H127  1  0.606590  0.659130  0.177700  1.0  0.1167
  H  H128  1  0.771690  0.731260  0.094720  1.0  0.1199
  H  H129  1  0.737970  0.707960  0.961970  1.0  0.1153
  H  H130  1  0.781700  0.861720  0.650580  1.0  0.1222
  H  H131  1  0.780780  0.950150  0.651110  1.0  0.119
  H  H132  1  0.659250  0.891030  0.826200  1.0  0.1169
  H  H133  1  0.658040  0.801530  0.830570  1.0  0.12
  H  H134  1  0.891910  0.327870  0.578220  1.0  0.1151
  H  H135  1  0.844190  0.324210  0.819250  1.0  0.1258
  H  H136  1  0.751030  0.315770  0.829250  1.0  0.1205
  H  H137  1  0.766190  0.380700  0.606190  1.0  0.14
  H  H138  1  0.859400  0.390990  0.591690  1.0  0.1248
  H  H139  1  0.024350  0.284610  0.549980  1.0  0.1165
  H  H140  1  0.034340  0.260860  0.417140  1.0  0.1194
  H  H141  1  0.953780  0.345460  0.332780  1.0  0.1197
  H  H142  1  0.941220  0.370370  0.464150  1.0  0.124
  H  H143  1  0.934280  0.121030  0.749270  1.0  0.1222
  H  H144  1  0.844110  0.035050  0.743550  1.0  0.1174
  H  H145  1  0.759580  0.125780  0.719950  1.0  0.1263
  H  H146  1  0.848120  0.214430  0.719960  1.0  0.1242
  H  H147  1  0.451780  0.114700  0.579340  1.0  0.1045
  H  H148  1  0.485320  0.165090  0.815000  1.0  0.1235
  H  H149  1  0.568200  0.259550  0.823630  1.0  0.1118
  H  H150  1  0.630970  0.235570  0.615470  1.0  0.1234
  H  H151  1  0.549400  0.140930  0.602550  1.0  0.1165
  H  H152  1  0.370190  0.107240  0.509810  1.0  0.1225
  H  H153  1  0.334510  0.094470  0.379120  1.0  0.1166
  H  H154  1  0.321720  0.935760  0.366040  1.0  0.1094
  H  H155  1  0.355200  0.944780  0.499210  1.0  0.1253
  H  H156  1  0.205480  0.072370  0.702880  1.0  0.1185
  H  H157  1  0.206500  0.161200  0.707700  1.0  0.1046
  H  H158  1  0.371840  0.244300  0.791260  1.0  0.1104
  H  H159  1  0.373970  0.156430  0.791890  1.0  0.1131
  H  H160  1  0.675870  0.560350  0.576510  1.0  0.1101
  H  H161  1  0.678150  0.516250  0.818540  1.0  0.1255
  H  H162  1  0.687940  0.432340  0.829400  1.0  0.1269
  H  H163  1  0.626510  0.382920  0.604780  1.0  0.1431
  H  H164  1  0.614700  0.464840  0.589490  1.0  0.1249
  H  H165  1  0.638200  0.565600  0.461410  1.0  0.1198
  H  H166  1  0.663590  0.603330  0.330440  1.0  0.1301
  H  H167  1  0.729730  0.767940  0.412880  1.0  0.1215
  H  H168  1  0.706410  0.734070  0.545570  1.0  0.1168
  H  H169  1  0.881290  0.810360  0.752860  1.0  0.1186
  H  H170  1  0.967910  0.807790  0.752590  1.0  0.1248
  H  H171  1  0.880330  0.632610  0.727720  1.0  0.129
  H  H172  1  0.790910  0.630910  0.722090  1.0  0.1189
  H  H173  1  0.803650  0.998880  0.275490  1.0  0.1129
  H  H174  1  0.004800  0.806940  0.260110  1.0  0.1121
  H  H175  1  0.200310  0.196840  0.241040  1.0  0.1142
  H  H176  1  0.202650  0.000830  0.763570  1.0  0.1169
  H  H177  1  0.007370  0.198500  0.717980  1.0  0.11
  H  H178  1  0.804880  0.805310  0.716760  1.0  0.1038
  H  H179  1  0.438300  0.126400  0.306390  1.0  0.1123
  H  H180  1  0.565620  0.209740  0.477030  1.0  0.1179
  H  H181  1  0.456030  0.047800  0.306430  1.0  0.1089
  H  H182  1  0.585020  0.132090  0.475450  1.0  0.1191
  H  H183  1  0.564930  0.042000  0.432840  1.0  0.1329
  H  H184  1  0.546600  0.031900  0.333090  1.0  0.1229
  H  H185  1  0.493350  0.996720  0.405160  1.0  0.1229
  H  H186  1  0.298900  0.764750  0.174090  1.0  0.11
  H  H187  1  0.436540  0.844760  0.017160  1.0  0.1093
  H  H188  1  0.340750  0.848290  0.256510  1.0  0.1186
  H  H189  1  0.480080  0.929620  0.096120  1.0  0.1228
  H  H190  1  0.444850  0.983750  0.197330  1.0  0.1228
  H  H191  1  0.484410  0.957850  0.247210  1.0  0.1129
  H  H192  1  0.417160  0.942550  0.282930  1.0  0.1244
  H  H193  1  0.354700  0.572860  0.573120  1.0  0.1125
  H  H194  1  0.447500  0.700350  0.405890  1.0  0.1136
  H  H195  1  0.405010  0.524120  0.536320  1.0  0.1209
  H  H196  1  0.498110  0.651800  0.368700  1.0  0.1159
  H  H197  1  0.480080  0.545040  0.365350  1.0  0.1185
  H  H198  1  0.472570  0.516530  0.460090  1.0  0.1468
  H  H199  1  0.531970  0.583600  0.437730  1.0  0.1226
  H  H200  1  0.653320  0.231390  0.989690  1.0  0.1211
  H  H201  1  0.500490  0.234830  0.016110  1.0  0.1101
  H  H202  1  0.604370  0.131920  0.025020  1.0  0.1217
  H  H203  1  0.451640  0.135820  0.053400  1.0  0.1168
  H  H204  1  0.517450  0.061640  0.116170  1.0  0.1056
  H  H205  1  0.496940  0.040780  0.018060  1.0  0.1329
  H  H206  1  0.451640  0.051280  0.081510  1.0  0.124
  C  C207  1  0.651720  0.094630  0.175110  1.0  0.2306
  C  C208  1  0.669050  0.084320  0.104200  1.0  -0.0295
  C  C209  1  0.663190  0.033380  0.080350  1.0  0.2904
  C  C210  1  0.770610  0.051300  0.245670  1.0  0.2828
  C  C211  1  0.655510  0.150140  0.187570  1.0  0.009
  C  C212  1  0.613090  0.155120  0.224460  1.0  -0.1041
  C  C213  1  0.617930  0.208060  0.233080  1.0  0.1471
  C  C214  1  0.705850  0.251230  0.171810  1.0  0.1376
  C  C215  1  0.702630  0.199470  0.162010  1.0  -0.1317
  C  C216  1  0.675010  0.026440  0.999030  1.0  -0.016
  C  C217  1  0.728910  0.059510  0.969530  1.0  -0.1386
  C  C218  1  0.740860  0.051780  0.894130  1.0  0.1485
  C  C219  1  0.647230  0.981190  0.874470  1.0  0.1692
  C  C220  1  0.633830  0.986570  0.950680  1.0  -0.1259
  C  C221  1  0.825670  0.104290  0.248400  1.0  -0.0726
  C  C222  1  0.876480  0.105670  0.235010  1.0  -0.1176
  C  C223  1  0.926750  0.156380  0.238400  1.0  0.1562
  C  C224  1  0.878770  0.205100  0.265420  1.0  0.1442
  C  C225  1  0.827510  0.155250  0.263130  1.0  -0.1006
  C  C226  1  0.500390  0.173160  0.392280  1.0  -0.0577
  C  C227  1  0.470130  0.127640  0.343620  1.0  -0.0593
  C  C228  1  0.541830  0.174510  0.439550  1.0  -0.0751
  C  C229  1  0.480290  0.083000  0.343630  1.0  -0.1098
  C  C230  1  0.552590  0.130250  0.438840  1.0  -0.1387
  C  C231  1  0.521490  0.083920  0.391400  1.0  0.0607
  C  C232  1  0.532280  0.035920  0.390760  1.0  -0.3341
  C  C233  1  0.912440  0.554890  0.182720  1.0  0.2322
  C  C234  1  0.922030  0.582540  0.111870  1.0  -0.0554
  C  C235  1  0.972040  0.629150  0.088690  1.0  0.2846
  C  C236  1  0.952960  0.719260  0.248060  1.0  0.3039
  C  C237  1  0.859110  0.500370  0.193820  1.0  -0.0186
  C  C238  1  0.829080  0.488410  0.262850  1.0  -0.094
  C  C239  1  0.775850  0.440470  0.268970  1.0  0.1709
  C  C240  1  0.782040  0.414330  0.142210  1.0  0.1379
  C  C241  1  0.835060  0.461650  0.133610  1.0  -0.1334
  C  C242  1  0.978840  0.648320  0.007580  1.0  -0.0161
  C  C243  1  0.946420  0.670130  0.978830  1.0  -0.1343
  C  C244  1  0.954340  0.690280  0.903580  1.0  0.1597
  C  C245  1  0.023850  0.665870  0.882850  1.0  0.1746
  C  C246  1  0.018250  0.646570  0.958760  1.0  -0.118
  C  C247  1  0.899520  0.720500  0.249620  1.0  -0.048
  C  C248  1  0.894000  0.761620  0.289690  1.0  -0.1198
  C  C249  1  0.842500  0.759760  0.291110  1.0  0.1508
  C  C250  1  0.801010  0.677170  0.216930  1.0  0.123
  C  C251  1  0.851740  0.677580  0.213610  1.0  -0.1098
  C  C252  1  0.450730  0.353680  0.190750  1.0  0.2586
  C  C253  1  0.423420  0.337740  0.119490  1.0  -0.066
  C  C254  1  0.376360  0.340910  0.097650  1.0  0.2443
  C  C255  1  0.288310  0.232290  0.248290  1.0  0.285
  C  C256  1  0.502450  0.349710  0.201880  1.0  0.0077
  C  C257  1  0.550600  0.392240  0.237350  1.0  -0.1119
  C  C258  1  0.599050  0.387650  0.242580  1.0  0.2304
  C  C259  1  0.552510  0.298950  0.183610  1.0  0.1605
  C  C260  1  0.503890  0.302240  0.176040  1.0  -0.1435
  C  C261  1  0.356370  0.329730  0.016280  1.0  -0.0166
  C  C262  1  0.298970  0.298590  0.000440  1.0  -0.096
  C  C263  1  0.280230  0.285390  0.924560  1.0  0.1508
  C  C264  1  0.372900  0.334900  0.878550  1.0  0.1746
  C  C265  1  0.393520  0.348150  0.953790  1.0  -0.1366
  C  C266  1  0.286340  0.177450  0.246520  1.0  -0.0536
  C  C267  1  0.242190  0.129270  0.279670  1.0  -0.1247
  C  C268  1  0.243780  0.079560  0.280490  1.0  0.1703
  C  C269  1  0.331510  0.123450  0.218200  1.0  0.1434
  C  C270  1  0.331450  0.173930  0.215670  1.0  -0.1151
  C  C271  1  0.098080  0.648090  0.303260  1.0  0.3006
  C  C272  1  0.087610  0.662850  0.375900  1.0  -0.0544
  C  C273  1  0.038290  0.660880  0.400110  1.0  0.295
  C  C274  1  0.057420  0.771520  0.252160  1.0  0.3045
  C  C275  1  0.153410  0.651780  0.289950  1.0  -0.009
  C  C276  1  0.158800  0.610750  0.249630  1.0  -0.1287
  C  C277  1  0.211740  0.615300  0.242290  1.0  0.2232
  C  C278  1  0.253950  0.700800  0.309650  1.0  0.1376
  C  C279  1  0.202350  0.697770  0.318570  1.0  -0.1491
  C  C280  1  0.030740  0.671940  0.482630  1.0  -0.0444
  C  C281  1  0.076420  0.705860  0.530560  1.0  -0.0925
  C  C282  1  0.067690  0.717220  0.606000  1.0  0.1905
  C  C283  1  0.970170  0.663880  0.589310  1.0  0.1887
  C  C284  1  0.977030  0.651040  0.513620  1.0  -0.0883
  C  C285  1  0.110970  0.826290  0.253790  1.0  -0.0795
  C  C286  1  0.114610  0.876640  0.230050  1.0  -0.1099
  C  C287  1  0.166200  0.926190  0.230750  1.0  0.144
  C  C288  1  0.211490  0.878160  0.274480  1.0  0.1327
  C  C289  1  0.160740  0.827800  0.275530  1.0  -0.1005
  C  C290  1  0.552760  0.909340  0.295780  1.0  0.3476
  C  C291  1  0.577890  0.919410  0.368370  1.0  -0.0596
  C  C292  1  0.626280  0.967910  0.392010  1.0  0.2241
  C  C293  1  0.717590  0.947110  0.251000  1.0  0.2861
  C  C294  1  0.498900  0.856050  0.283500  1.0  -0.01
  C  C295  1  0.491390  0.822480  0.219150  1.0  -0.0907
  C  C296  1  0.444480  0.768570  0.214430  1.0  0.1709
  C  C297  1  0.411250  0.781010  0.333190  1.0  0.1177
  C  C298  1  0.457140  0.834930  0.340010  1.0  -0.1412
  C  C299  1  0.644890  0.975600  0.474550  1.0  -0.0367
  C  C300  1  0.631310  0.929970  0.523560  1.0  -0.1085
  C  C301  1  0.651610  0.938780  0.598870  1.0  0.1402
  C  C302  1  0.699560  0.036250  0.580030  1.0  0.1864
  C  C303  1  0.679570  0.029330  0.504470  1.0  -0.108
  C  C304  1  0.719720  0.894280  0.254080  1.0  -0.0583
  C  C305  1  0.766660  0.891850  0.228480  1.0  -0.1138
  C  C306  1  0.765990  0.841000  0.228910  1.0  0.176
  C  C307  1  0.673920  0.794400  0.277950  1.0  0.1469
  C  C308  1  0.672760  0.844420  0.278510  1.0  -0.1037
  C  C309  1  0.365300  0.799450  0.091060  1.0  -0.0423
  C  C310  1  0.338210  0.800640  0.158000  1.0  -0.1237
  C  C311  1  0.415990  0.845980  0.069180  1.0  -0.0538
  C  C312  1  0.361800  0.847790  0.204560  1.0  -0.1075
  C  C313  1  0.440850  0.894260  0.114100  1.0  -0.1016
  C  C314  1  0.415430  0.896720  0.182010  1.0  0.0556
  C  C315  1  0.441940  0.948190  0.230340  1.0  -0.279
  C  C316  1  0.361940  0.449890  0.313400  1.0  0.2511
  C  C317  1  0.350760  0.426550  0.387260  1.0  -0.049
  C  C318  1  0.351410  0.378420  0.411100  1.0  0.224
  C  C319  1  0.236380  0.284420  0.254930  1.0  0.3503
  C  C320  1  0.357440  0.501240  0.299950  1.0  0.0005
  C  C321  1  0.393410  0.544180  0.250130  1.0  -0.118
  C  C322  1  0.387610  0.591690  0.240410  1.0  0.2388
  C  C323  1  0.310770  0.554620  0.325160  1.0  0.1389
  C  C324  1  0.315100  0.506900  0.336510  1.0  -0.1374
  C  C325  1  0.341070  0.359950  0.493870  1.0  -0.0672
  C  C326  1  0.312850  0.377030  0.544910  1.0  -0.1326
  C  C327  1  0.300490  0.355930  0.619660  1.0  0.1495
  C  C328  1  0.341680  0.300400  0.596860  1.0  0.1674
  C  C329  1  0.355620  0.321100  0.521660  1.0  -0.0972
  C  C330  1  0.181490  0.282240  0.255980  1.0  -0.0226
  C  C331  1  0.137080  0.245090  0.209100  1.0  -0.1362
  C  C332  1  0.086800  0.245600  0.209890  1.0  0.1448
  C  C333  1  0.122950  0.318820  0.300790  1.0  0.1474
  C  C334  1  0.174110  0.319990  0.301420  1.0  -0.1067
  C  C335  1  0.358580  0.906400  0.815470  1.0  0.2817
  C  C336  1  0.341850  0.917010  0.886670  1.0  -0.0645
  C  C337  1  0.346240  0.967650  0.909820  1.0  0.2492
  C  C338  1  0.237950  0.948580  0.756290  1.0  0.3546
  C  C339  1  0.354370  0.850800  0.803240  1.0  -0.0047
  C  C340  1  0.398100  0.845440  0.771350  1.0  -0.1247
  C  C341  1  0.392760  0.792180  0.764430  1.0  0.1682
  C  C342  1  0.301410  0.749620  0.815260  1.0  0.1471
  C  C343  1  0.305300  0.801700  0.824180  1.0  -0.1327
  C  C344  1  0.335820  0.976970  0.991780  1.0  -0.043
  C  C345  1  0.343120  0.948640  0.053960  1.0  -0.1199
  C  C346  1  0.330220  0.957100  0.128910  1.0  0.1536
  C  C347  1  0.303980  0.021150  0.084040  1.0  0.1445
  C  C348  1  0.316600  0.014210  0.008470  1.0  -0.11
  C  C349  1  0.182590  0.896340  0.756600  1.0  -0.0322
  C  C350  1  0.137290  0.892020  0.714580  1.0  -0.1255
  C  C351  1  0.086900  0.841300  0.712450  1.0  0.1317
  C  C352  1  0.124260  0.798970  0.792300  1.0  0.1571
  C  C353  1  0.175620  0.848760  0.795310  1.0  -0.1086
  C  C354  1  0.094580  0.448850  0.817280  1.0  0.2482
  C  C355  1  0.084220  0.423950  0.890110  1.0  -0.0544
  C  C356  1  0.035820  0.375210  0.913660  1.0  0.2813
  C  C357  1  0.057300  0.283720  0.748010  1.0  0.2948
  C  C358  1  0.147770  0.503080  0.804620  1.0  -0.0238
  C  C359  1  0.180050  0.511230  0.738620  1.0  -0.1119
  C  C360  1  0.233720  0.558370  0.732480  1.0  0.1656
  C  C361  1  0.223670  0.591100  0.853020  1.0  0.1394
  C  C362  1  0.170020  0.544740  0.861440  1.0  -0.1503
  C  C363  1  0.028080  0.356240  0.996150  1.0  -0.0571
  C  C364  1  0.073680  0.371860  0.046100  1.0  -0.1041
  C  C365  1  0.065060  0.351280  0.121130  1.0  0.1498
  C  C366  1  0.967850  0.298730  0.100440  1.0  0.1816
  C  C367  1  0.974530  0.319010  0.025020  1.0  -0.0932
  C  C368  1  0.110470  0.282240  0.748570  1.0  -0.0427
  C  C369  1  0.119920  0.248140  0.698300  1.0  -0.1323
  C  C370  1  0.171020  0.249190  0.699970  1.0  0.1469
  C  C371  1  0.204390  0.317460  0.797770  1.0  0.1486
  C  C372  1  0.154000  0.317810  0.797950  1.0  -0.1064
  C  C373  1  0.555600  0.643600  0.817100  1.0  0.2255
  C  C374  1  0.582660  0.660150  0.888580  1.0  -0.0722
  C  C375  1  0.630470  0.658350  0.910760  1.0  0.2528
  C  C376  1  0.719280  0.769740  0.743810  1.0  0.3006
  C  C377  1  0.500990  0.642240  0.805900  1.0  -0.0202
  C  C378  1  0.488660  0.659180  0.736130  1.0  -0.0957
  C  C379  1  0.440880  0.664640  0.729580  1.0  0.1292
  C  C380  1  0.415370  0.634380  0.857260  1.0  0.1731
  C  C381  1  0.462510  0.628440  0.866270  1.0  -0.139
  C  C382  1  0.650500  0.669590  0.992300  1.0  -0.0269
  C  C383  1  0.613780  0.655710  0.054980  1.0  -0.1379
  C  C384  1  0.634940  0.669360  0.129950  1.0  0.1662
  C  C385  1  0.727310  0.709450  0.083600  1.0  0.1382
  C  C386  1  0.707980  0.696160  0.008040  1.0  -0.0969
  C  C387  1  0.720900  0.824460  0.742290  1.0  -0.0367
  C  C388  1  0.755270  0.867200  0.691080  1.0  -0.1414
  C  C389  1  0.754440  0.917360  0.690590  1.0  0.1543
  C  C390  1  0.686190  0.884310  0.788430  1.0  0.1469
  C  C391  1  0.685600  0.833460  0.790740  1.0  -0.1003
  C  C392  1  0.397930  0.640080  0.492320  1.0  -0.0833
  C  C393  1  0.385970  0.590190  0.528540  1.0  -0.099
  C  C394  1  0.438250  0.661960  0.434470  1.0  -0.0875
  C  C395  1  0.414590  0.562550  0.507550  1.0  -0.125
  C  C396  1  0.466940  0.634400  0.413430  1.0  -0.1144
  C  C397  1  0.455390  0.584580  0.449930  1.0  0.0322
  C  C398  1  0.486720  0.555620  0.427130  1.0  -0.3584
  C  C399  1  0.912990  0.356260  0.693360  1.0  0.2213
  C  C400  1  0.923820  0.340320  0.621690  1.0  -0.0674
  C  C401  1  0.973030  0.341140  0.600030  1.0  0.2525
  C  C402  1  0.953130  0.230950  0.739720  1.0  0.2605
  C  C403  1  0.859750  0.357730  0.704130  1.0  -0.007
  C  C404  1  0.828590  0.337870  0.772060  1.0  -0.0973
  C  C405  1  0.775430  0.332770  0.777740  1.0  0.1723
  C  C406  1  0.783840  0.368900  0.652860  1.0  0.1746
  C  C407  1  0.836870  0.374440  0.644700  1.0  -0.1336
  C  C408  1  0.981480  0.329220  0.518750  1.0  -0.0242
  C  C409  1  0.008750  0.298940  0.503540  1.0  -0.1156
  C  C410  1  0.014470  0.285330  0.427970  1.0  0.156
  C  C411  1  0.969120  0.332400  0.380820  1.0  0.1921
  C  C412  1  0.961780  0.346250  0.455770  1.0  -0.1337
  C  C413  1  0.899840  0.176160  0.733270  1.0  -0.0269
  C  C414  1  0.897460  0.124240  0.739740  1.0  -0.1218
  C  C415  1  0.845890  0.074770  0.737120  1.0  0.1889
  C  C416  1  0.798440  0.125500  0.723690  1.0  0.143
  C  C417  1  0.849030  0.175880  0.724610  1.0  -0.0924
  C  C418  1  0.456220  0.091880  0.694550  1.0  0.2441
  C  C419  1  0.430830  0.082410  0.622100  1.0  -0.0505
  C  C420  1  0.383780  0.033060  0.597680  1.0  0.2769
  C  C421  1  0.290630  0.052760  0.750270  1.0  0.2917
  C  C422  1  0.510150  0.145150  0.707420  1.0  -0.0271
  C  C423  1  0.517200  0.179030  0.771210  1.0  -0.1256
  C  C424  1  0.564250  0.232890  0.776110  1.0  0.1233
  C  C425  1  0.599160  0.219580  0.659380  1.0  0.1529
  C  C426  1  0.552690  0.165840  0.652000  1.0  -0.1226
  C  C427  1  0.365770  0.026980  0.515690  1.0  0.0014
  C  C428  1  0.360190  0.069230  0.479530  1.0  -0.1271
  C  C429  1  0.339450  0.061750  0.404650  1.0  0.1243
  C  C430  1  0.331970  0.973060  0.397860  1.0  0.1264
  C  C431  1  0.351360  0.978340  0.473690  1.0  -0.135
  C  C432  1  0.289260  0.106120  0.749340  1.0  -0.0569
  C  C433  1  0.242290  0.108760  0.724420  1.0  -0.1096
  C  C434  1  0.242940  0.159600  0.725950  1.0  0.1684
  C  C435  1  0.335520  0.206140  0.772830  1.0  0.1482
  C  C436  1  0.336560  0.156080  0.772830  1.0  -0.1025
  C  C437  1  0.580270  0.239890  0.000510  1.0  -0.0792
  C  C438  1  0.609260  0.210560  0.003110  1.0  -0.0911
  C  C439  1  0.523270  0.212480  0.017950  1.0  -0.0666
  C  C440  1  0.581510  0.154170  0.023410  1.0  -0.1156
  C  C441  1  0.495590  0.156230  0.039220  1.0  -0.1139
  C  C442  1  0.524660  0.126770  0.042300  1.0  0.0259
  C  C443  1  0.495830  0.066630  0.065860  1.0  -0.3353
  C  C444  1  0.647010  0.552790  0.691350  1.0  0.2162
  C  C445  1  0.662610  0.579380  0.619480  1.0  -0.0724
  C  C446  1  0.660220  0.626880  0.597160  1.0  0.2718
  C  C447  1  0.772310  0.718550  0.737650  1.0  0.2469
  C  C448  1  0.646310  0.498430  0.702550  1.0  -0.0202
  C  C449  1  0.665570  0.487250  0.771140  1.0  -0.095
  C  C450  1  0.671480  0.439660  0.777300  1.0  0.1254
  C  C451  1  0.637290  0.412120  0.651580  1.0  0.1747
  C  C452  1  0.630890  0.459080  0.642980  1.0  -0.1323
  C  C453  1  0.670990  0.646810  0.515520  1.0  -0.0168
  C  C454  1  0.658560  0.610250  0.452930  1.0  -0.1233
  C  C455  1  0.672480  0.631520  0.378050  1.0  0.1716
  C  C456  1  0.709270  0.723620  0.424130  1.0  0.1485
  C  C457  1  0.695870  0.704170  0.499630  1.0  -0.1064
  C  C458  1  0.827580  0.720750  0.734800  1.0  -0.0855
  C  C459  1  0.878900  0.770660  0.743800  1.0  -0.1217
  C  C460  1  0.928840  0.769490  0.744350  1.0  0.1717
  C  C461  1  0.879840  0.671390  0.730350  1.0  0.1569
  C  C462  1  0.828980  0.670680  0.727970  1.0  -0.1123
  C  C463  1  0.766230  0.999210  0.258980  1.0  -0.086
  C  C464  1  0.005080  0.768300  0.254500  1.0  -0.0947
  C  C465  1  0.239360  0.235560  0.246650  1.0  -0.095
  C  C466  1  0.241480  0.000890  0.756730  1.0  -0.0808
  C  C467  1  0.005930  0.235630  0.732220  1.0  -0.074
  C  C468  1  0.767620  0.766600  0.729990  1.0  -0.0797
  S  S469  1  0.485680  0.229220  0.395390  1.0  0.9287
  S  S470  1  0.335020  0.737300  0.034220  1.0  0.9089
  S  S471  1  0.361820  0.675980  0.519680  1.0  0.9467
  S  S472  1  0.616330  0.312500  0.975950  1.0  0.9899
  N  N473  1  0.663850  0.254940  0.206530  1.0  -0.3229
  N  N474  1  0.700310  0.013270  0.847520  1.0  -0.3402
  N  N475  1  0.927120  0.204790  0.253320  1.0  -0.298
  N  N476  1  0.752990  0.404830  0.208670  1.0  -0.3156
  N  N477  1  0.992420  0.687790  0.856590  1.0  -0.3171
  N  N478  1  0.797410  0.718140  0.254810  1.0  -0.2799
  N  N479  1  0.599330  0.341610  0.215120  1.0  -0.2995
  N  N480  1  0.317030  0.303640  0.865120  1.0  -0.2961
  N  N481  1  0.287910  0.077470  0.250000  1.0  -0.298
  N  N482  1  0.258040  0.659720  0.272880  1.0  -0.2885
  N  N483  1  0.015150  0.696760  0.634260  1.0  -0.3558
  N  N484  1  0.213280  0.926310  0.253440  1.0  -0.3212
  N  N485  1  0.405850  0.748560  0.271650  1.0  -0.3155
  N  N486  1  0.685730  0.991270  0.625880  1.0  -0.3319
  N  N487  1  0.720160  0.793660  0.253410  1.0  -0.2892
  N  N488  1  0.346780  0.596120  0.278090  1.0  -0.288
  N  N489  1  0.314140  0.317650  0.644240  1.0  -0.3238
  N  N490  1  0.080340  0.281600  0.255950  1.0  -0.2837
  N  N491  1  0.344990  0.745510  0.786970  1.0  -0.2748
  N  N492  1  0.311010  0.992900  0.142850  1.0  -0.3287
  N  N493  1  0.081100  0.796050  0.751210  1.0  -0.2869
  N  N494  1  0.254840  0.596930  0.789770  1.0  -0.3052
  N  N495  1  0.012880  0.314780  0.147000  1.0  -0.3295
  N  N496  1  0.211770  0.282950  0.749890  1.0  -0.289
  N  N497  1  0.405740  0.653100  0.790200  1.0  -0.2712
  N  N498  1  0.690950  0.696040  0.143000  1.0  -0.286
  N  N499  1  0.720400  0.925120  0.738950  1.0  -0.2798
  N  N500  1  0.753680  0.347520  0.718120  1.0  -0.2725
  N  N501  1  0.994890  0.302140  0.368130  1.0  -0.3067
  N  N502  1  0.797730  0.076220  0.729560  1.0  -0.277
  N  N503  1  0.603870  0.252510  0.720070  1.0  -0.2938
  N  N504  1  0.325190  0.014010  0.364850  1.0  -0.3639
  N  N505  1  0.288920  0.206940  0.750220  1.0  -0.2914
  N  N506  1  0.658200  0.403560  0.717450  1.0  -0.2749
  N  N507  1  0.697870  0.687460  0.364960  1.0  -0.2944
  N  N508  1  0.928570  0.720450  0.737440  1.0  -0.2691
  O  O509  1  0.634400  0.058420  0.229290  1.0  -0.5625
  O  O510  1  0.650090  0.993350  0.127080  1.0  -0.5686
  O  O511  1  0.727880  0.055660  0.231410  1.0  -0.5651
  O  O512  1  0.544540  0.293550  0.387300  1.0  -0.6157
  O  O513  1  0.947220  0.576050  0.238400  1.0  -0.5701
  O  O514  1  0.011550  0.657000  0.135730  1.0  -0.5636
  O  O515  1  0.948810  0.671640  0.240060  1.0  -0.5693
  O  O516  1  0.440670  0.226270  0.325640  1.0  -0.5207
  O  O517  1  0.456090  0.231300  0.480710  1.0  -0.5769
  O  O518  1  0.431630  0.369710  0.246220  1.0  -0.5576
  O  O519  1  0.348380  0.351180  0.146430  1.0  -0.5832
  O  O520  1  0.336360  0.275670  0.251540  1.0  -0.5688
  O  O521  1  0.062700  0.633570  0.248450  1.0  -0.5566
  O  O522  1  0.999150  0.650410  0.352630  1.0  -0.5769
  O  O523  1  0.061710  0.727880  0.248770  1.0  -0.5774
  O  O524  1  0.375690  0.738990  0.958970  1.0  -0.5891
  O  O525  1  0.575570  0.943050  0.239640  1.0  -0.5689
  O  O526  1  0.655940  0.006230  0.344020  1.0  -0.5854
  O  O527  1  0.670040  0.942670  0.240640  1.0  -0.5709
  O  O528  1  0.320840  0.679330  0.086880  1.0  -0.6166
  O  O529  1  0.272050  0.722470  0.995750  1.0  -0.5868
  O  O530  1  0.373860  0.427570  0.257590  1.0  -0.5678
  O  O531  1  0.359410  0.348410  0.362950  1.0  -0.5783
  O  O532  1  0.279820  0.332150  0.262380  1.0  -0.5623
  O  O533  1  0.375280  0.942020  0.760650  1.0  -0.5638
  O  O534  1  0.357200  0.006290  0.861280  1.0  -0.5788
  O  O535  1  0.281130  0.943440  0.755540  1.0  -0.5722
  O  O536  1  0.061280  0.425390  0.760920  1.0  -0.5639
  O  O537  1  0.997600  0.345400  0.865590  1.0  -0.5717
  O  O538  1  0.060700  0.330240  0.763600  1.0  -0.57
  O  O539  1  0.310070  0.665000  0.456100  1.0  -0.5776
  O  O540  1  0.577470  0.631810  0.760530  1.0  -0.5651
  O  O541  1  0.659280  0.649220  0.861990  1.0  -0.5761
  O  O542  1  0.672670  0.726670  0.759250  1.0  -0.5626
  O  O543  1  0.404590  0.747020  0.523490  1.0  -0.5562
  O  O544  1  0.946280  0.367440  0.750310  1.0  -0.5702
  O  O545  1  0.010820  0.349940  0.648900  1.0  -0.5818
  O  O546  1  0.948190  0.273510  0.752850  1.0  -0.5755
  O  O547  1  0.652000  0.354190  0.052160  1.0  -0.6565
  O  O548  1  0.433450  0.057380  0.750050  1.0  -0.5671
  O  O549  1  0.354640  0.993540  0.644360  1.0  -0.5641
  O  O550  1  0.338360  0.056660  0.746020  1.0  -0.5718
  O  O551  1  0.573370  0.336410  0.944210  1.0  -0.5983
  O  O552  1  0.635560  0.574860  0.748090  1.0  -0.5616
  O  O553  1  0.651060  0.655660  0.645930  1.0  -0.5813
  O  O554  1  0.729500  0.670760  0.748080  1.0  -0.5821
  O  O555  1  0.665750  0.329050  0.906080  1.0  -0.5665
  O  O556  1  0.329910  0.656600  0.607360  1.0  -0.5803
