# generated using pymatgen
data_Fe5H15C31O22
_symmetry_space_group_name_H-M   'P 1'
_cell_length_a   12.80800000
_cell_length_b   14.15500000
_cell_length_c   18.04790000
_cell_angle_alpha   101.46000000
_cell_angle_beta   110.78300000
_cell_angle_gamma   90.00000000
_symmetry_Int_Tables_number   1
_chemical_formula_structural   Fe5H15C31O22
_chemical_formula_sum   'Fe10 H30 C62 O44'
_cell_volume   2989.25147541
_cell_formula_units_Z   2
loop_
 _symmetry_equiv_pos_site_id
 _symmetry_equiv_pos_as_xyz
  1  'x, y, z'
loop_
 _atom_site_type_symbol
 _atom_site_label
 _atom_site_symmetry_multiplicity
 _atom_site_fract_x
 _atom_site_fract_y
 _atom_site_fract_z
 _atom_site_occupancy
 _atom_site_charge
  Fe  Fe1  1  0.254090  0.644810  0.038160  1.0  1.1758
  Fe  Fe2  1  0.534330  0.992730  0.430800  1.0  1.032
  Fe  Fe3  1  0.215930  0.855190  0.961840  1.0  1.1793
  Fe  Fe4  1  0.103530  0.507270  0.569200  1.0  1.0347
  Fe  Fe5  1  0.745910  0.355190  0.961840  1.0  1.1771
  Fe  Fe6  1  0.465670  0.007270  0.569200  1.0  1.0321
  Fe  Fe7  1  0.784070  0.144810  0.038160  1.0  1.1809
  Fe  Fe8  1  0.896470  0.492730  0.430800  1.0  1.0336
  Fe  Fe9  1  0.000000  0.500000  0.000000  1.0  1.2276
  Fe  Fe10  1  0.000000  0.000000  0.000000  1.0  1.2276
  H  H11  1  0.326500  0.734300  0.279000  1.0  0.1091
  H  H12  1  0.266400  0.722900  0.480400  1.0  0.1118
  H  H13  1  0.084600  0.545900  0.268400  1.0  0.107
  H  H14  1  0.899400  0.629600  0.864600  1.0  0.1652
  H  H15  1  0.956100  0.658200  0.807400  1.0  0.1626
  H  H16  1  0.934000  0.738400  0.872400  1.0  0.1653
  H  H17  1  0.568600  0.611000  0.010200  1.0  0.1144
  H  H18  1  0.047500  0.765700  0.721000  1.0  0.1083
  H  H19  1  0.786000  0.777100  0.519600  1.0  0.1118
  H  H20  1  0.816200  0.954100  0.731600  1.0  0.1063
  H  H21  1  0.034800  0.870400  0.135400  1.0  0.1665
  H  H22  1  0.148700  0.841800  0.192600  1.0  0.1643
  H  H23  1  0.061600  0.761600  0.127600  1.0  0.1594
  H  H24  1  0.558400  0.889000  0.989800  1.0  0.1138
  H  H25  1  0.673500  0.265700  0.721000  1.0  0.1094
  H  H26  1  0.733600  0.277100  0.519600  1.0  0.1115
  H  H27  1  0.915400  0.454100  0.731600  1.0  0.107
  H  H28  1  0.100600  0.370400  0.135400  1.0  0.1651
  H  H29  1  0.043900  0.341800  0.192600  1.0  0.1637
  H  H30  1  0.066000  0.261600  0.127600  1.0  0.1642
  H  H31  1  0.431400  0.389000  0.989800  1.0  0.1142
  H  H32  1  0.952500  0.234300  0.279000  1.0  0.1088
  H  H33  1  0.214000  0.222900  0.480400  1.0  0.1117
  H  H34  1  0.183800  0.045900  0.268400  1.0  0.1064
  H  H35  1  0.965200  0.129600  0.864600  1.0  0.1672
  H  H36  1  0.851300  0.158200  0.807400  1.0  0.1641
  H  H37  1  0.938400  0.238400  0.872400  1.0  0.1639
  H  H38  1  0.441600  0.111000  0.010200  1.0  0.1144
  H  H39  1  0.835600  0.750000  0.000000  1.0  0.0957
  H  H40  1  0.164400  0.250000  0.000000  1.0  0.0962
  C  C41  1  0.202630  0.632900  0.259860  1.0  -0.1613
  C  C42  1  0.285200  0.708400  0.304400  1.0  0.0133
  C  C43  1  0.305850  0.744700  0.385100  1.0  -0.1551
  C  C44  1  0.249360  0.701300  0.424920  1.0  0.014
  C  C45  1  0.167420  0.625600  0.381440  1.0  -0.1457
  C  C46  1  0.142230  0.593700  0.298260  1.0  0.0226
  C  C47  1  0.178080  0.598000  0.169360  1.0  0.7068
  C  C48  1  0.386160  0.833600  0.429720  1.0  0.7024
  C  C49  1  0.105610  0.580000  0.424620  1.0  0.7196
  C  C50  1  0.066030  0.662900  0.920860  1.0  0.8003
  C  C51  1  0.953910  0.673200  0.861020  1.0  -0.5263
  C  C52  1  0.711590  0.665200  0.004180  1.0  -0.1789
  C  C53  1  0.602860  0.666400  0.005520  1.0  0.035
  C  C54  1  0.770320  0.573900  0.004640  1.0  0.7238
  C  C55  1  0.942770  0.867100  0.740140  1.0  -0.1613
  C  C56  1  0.980800  0.791600  0.695600  1.0  0.013
  C  C57  1  0.920750  0.755300  0.614900  1.0  -0.1544
  C  C58  1  0.824440  0.798700  0.575080  1.0  0.0131
  C  C59  1  0.785980  0.874400  0.618560  1.0  -0.1449
  C  C60  1  0.843970  0.906300  0.701740  1.0  0.0228
  C  C61  1  0.008720  0.902000  0.830640  1.0  0.7047
  C  C62  1  0.956440  0.666400  0.570280  1.0  0.7036
  C  C63  1  0.680990  0.920000  0.575380  1.0  0.7189
  C  C64  1  0.145170  0.837100  0.079140  1.0  0.8062
  C  C65  1  0.092890  0.826800  0.138980  1.0  -0.5358
  C  C66  1  0.707410  0.834800  0.995820  1.0  -0.1785
  C  C67  1  0.597340  0.833600  0.994480  1.0  0.036
  C  C68  1  0.765680  0.926100  0.995360  1.0  0.7241
  C  C69  1  0.797370  0.367100  0.740140  1.0  -0.1617
  C  C70  1  0.714800  0.291600  0.695600  1.0  0.0132
  C  C71  1  0.694150  0.255300  0.614900  1.0  -0.1556
  C  C72  1  0.750640  0.298700  0.575080  1.0  0.0136
  C  C73  1  0.832580  0.374400  0.618560  1.0  -0.1457
  C  C74  1  0.857770  0.406300  0.701740  1.0  0.0231
  C  C75  1  0.821920  0.402000  0.830640  1.0  0.7062
  C  C76  1  0.613840  0.166400  0.570280  1.0  0.702
  C  C77  1  0.894390  0.420000  0.575380  1.0  0.7201
  C  C78  1  0.933970  0.337100  0.079140  1.0  0.8005
  C  C79  1  0.046090  0.326800  0.138980  1.0  -0.5292
  C  C80  1  0.288410  0.334800  0.995820  1.0  -0.1784
  C  C81  1  0.397140  0.333600  0.994480  1.0  0.0354
  C  C82  1  0.229680  0.426100  0.995360  1.0  0.7226
  C  C83  1  0.057230  0.132900  0.259860  1.0  -0.159
  C  C84  1  0.019200  0.208400  0.304400  1.0  0.0102
  C  C85  1  0.079250  0.244700  0.385100  1.0  -0.1529
  C  C86  1  0.175560  0.201300  0.424920  1.0  0.0135
  C  C87  1  0.214020  0.125600  0.381440  1.0  -0.1455
  C  C88  1  0.156030  0.093700  0.298260  1.0  0.0223
  C  C89  1  0.991280  0.098000  0.169360  1.0  0.7061
  C  C90  1  0.043560  0.333600  0.429720  1.0  0.7036
  C  C91  1  0.319010  0.080000  0.424620  1.0  0.7185
  C  C92  1  0.854830  0.162900  0.920860  1.0  0.8054
  C  C93  1  0.907110  0.173200  0.861020  1.0  -0.5358
  C  C94  1  0.292590  0.165200  0.004180  1.0  -0.1795
  C  C95  1  0.402660  0.166400  0.005520  1.0  0.0356
  C  C96  1  0.234320  0.073900  0.004640  1.0  0.7234
  C  C97  1  0.545700  0.750000  0.000000  1.0  -0.1774
  C  C98  1  0.763000  0.750000  0.000000  1.0  0.0338
  C  C99  1  0.429000  0.750000  0.000000  1.0  0.7387
  C  C100  1  0.454300  0.250000  0.000000  1.0  -0.1774
  C  C101  1  0.237000  0.250000  0.000000  1.0  0.0331
  C  C102  1  0.571000  0.250000  0.000000  1.0  0.7377
  O  O103  1  0.086060  0.553500  0.128320  1.0  -0.5973
  O  O104  1  0.252600  0.620500  0.144600  1.0  -0.5963
  O  O105  1  0.442550  0.861800  0.392900  1.0  -0.5849
  O  O106  1  0.387870  0.873500  0.498940  1.0  -0.6077
  O  O107  1  0.160150  0.573300  0.495700  1.0  -0.5973
  O  O108  1  0.005090  0.552700  0.385780  1.0  -0.5889
  O  O109  1  0.154240  0.696800  0.916280  1.0  -0.6484
  O  O110  1  0.074950  0.624100  0.979900  1.0  -0.6624
  O  O111  1  0.869010  0.580300  0.006220  1.0  -0.6119
  O  O112  1  0.716610  0.498000  0.002020  1.0  -0.5986
  O  O113  1  0.399700  0.685900  0.029400  1.0  -0.578
  O  O114  1  0.957740  0.946500  0.871680  1.0  -0.5996
  O  O115  1  0.108000  0.879500  0.855400  1.0  -0.5989
  O  O116  1  0.049650  0.638200  0.607100  1.0  -0.5845
  O  O117  1  0.888930  0.626500  0.501060  1.0  -0.6068
  O  O118  1  0.664450  0.926700  0.504300  1.0  -0.5972
  O  O119  1  0.619310  0.947300  0.614220  1.0  -0.5889
  O  O120  1  0.237960  0.803200  0.083720  1.0  -0.6401
  O  O121  1  0.095050  0.875900  0.020100  1.0  -0.6634
  O  O122  1  0.862790  0.919700  0.993780  1.0  -0.6124
  O  O123  1  0.714590  0.002000  0.997980  1.0  -0.5979
  O  O124  1  0.370300  0.814100  0.970600  1.0  -0.5792
  O  O125  1  0.913940  0.446500  0.871680  1.0  -0.5971
  O  O126  1  0.747400  0.379500  0.855400  1.0  -0.5954
  O  O127  1  0.557450  0.138200  0.607100  1.0  -0.5847
  O  O128  1  0.612130  0.126500  0.501060  1.0  -0.6062
  O  O129  1  0.839850  0.426700  0.504300  1.0  -0.5963
  O  O130  1  0.994910  0.447300  0.614220  1.0  -0.5898
  O  O131  1  0.845760  0.303200  0.083720  1.0  -0.6483
  O  O132  1  0.925050  0.375900  0.020100  1.0  -0.6628
  O  O133  1  0.130990  0.419700  0.993780  1.0  -0.6123
  O  O134  1  0.283390  0.502000  0.997980  1.0  -0.5974
  O  O135  1  0.600300  0.314100  0.970600  1.0  -0.5783
  O  O136  1  0.042260  0.053500  0.128320  1.0  -0.5989
  O  O137  1  0.892000  0.120500  0.144600  1.0  -0.5976
  O  O138  1  0.950350  0.361800  0.392900  1.0  -0.5832
  O  O139  1  0.111070  0.373500  0.498940  1.0  -0.6089
  O  O140  1  0.335550  0.073300  0.495700  1.0  -0.6006
  O  O141  1  0.380690  0.052700  0.385780  1.0  -0.5887
  O  O142  1  0.762040  0.196800  0.916280  1.0  -0.6426
  O  O143  1  0.904950  0.124100  0.979900  1.0  -0.6645
  O  O144  1  0.137210  0.080300  0.006220  1.0  -0.6136
  O  O145  1  0.285410  0.998000  0.002020  1.0  -0.5978
  O  O146  1  0.629700  0.185900  0.029400  1.0  -0.5831
