# generated using pymatgen
data_Mn3H32C38(NO8)2
_symmetry_space_group_name_H-M   'P 1'
_cell_length_a   10.76160000
_cell_length_b   16.24170000
_cell_length_c   25.64860000
_cell_angle_alpha   90.00000000
_cell_angle_beta   90.00000000
_cell_angle_gamma   90.00000000
_symmetry_Int_Tables_number   1
_chemical_formula_structural   Mn3H32C38(NO8)2
_chemical_formula_sum   'Mn12 H128 C152 N8 O64'
_cell_volume   4483.03360782
_cell_formula_units_Z   4
loop_
 _symmetry_equiv_pos_site_id
 _symmetry_equiv_pos_as_xyz
  1  'x, y, z'
loop_
 _atom_site_type_symbol
 _atom_site_label
 _atom_site_symmetry_multiplicity
 _atom_site_fract_x
 _atom_site_fract_y
 _atom_site_fract_z
 _atom_site_occupancy
 _atom_site_charge
  Mn  Mn1  1  0.652230  0.931830  0.619520  1.0  1.0385
  Mn  Mn2  1  0.347770  0.568170  0.119520  1.0  1.0384
  Mn  Mn3  1  0.152230  0.068170  0.880480  1.0  1.0387
  Mn  Mn4  1  0.847770  0.431830  0.380480  1.0  1.0383
  Mn  Mn5  1  0.347770  0.068170  0.380480  1.0  1.0383
  Mn  Mn6  1  0.652230  0.431830  0.880480  1.0  1.0387
  Mn  Mn7  1  0.847770  0.931830  0.119520  1.0  1.0386
  Mn  Mn8  1  0.152230  0.568170  0.619520  1.0  1.0383
  Mn  Mn9  1  0.500000  0.000000  0.500000  1.0  1.1084
  Mn  Mn10  1  0.500000  0.500000  0.000000  1.0  1.1084
  Mn  Mn11  1  0.000000  0.000000  0.000000  1.0  1.1084
  Mn  Mn12  1  0.000000  0.500000  0.500000  1.0  1.1084
  H  H13  1  0.743000  0.685800  0.520200  1.0  0.1204
  H  H14  1  0.561200  0.625000  0.387200  1.0  0.1098
  H  H15  1  0.459200  0.827400  0.468100  1.0  0.1088
  H  H16  1  0.467200  0.787600  0.349600  1.0  0.1376
  H  H17  1  0.358700  0.802800  0.390900  1.0  0.143
  H  H18  1  0.243500  0.656100  0.414200  1.0  0.109
  H  H19  1  0.127500  0.546900  0.280000  1.0  0.1223
  H  H20  1  0.405700  0.713400  0.277100  1.0  0.117
  H  H21  1  0.257000  0.814200  0.020200  1.0  0.1204
  H  H22  1  0.438800  0.875000  0.887200  1.0  0.1101
  H  H23  1  0.540800  0.672600  0.968100  1.0  0.1089
  H  H24  1  0.532800  0.712400  0.849600  1.0  0.1378
  H  H25  1  0.641300  0.697200  0.890900  1.0  0.1418
  H  H26  1  0.756500  0.843900  0.914200  1.0  0.1086
  H  H27  1  0.872500  0.953100  0.780000  1.0  0.1227
  H  H28  1  0.594300  0.786600  0.777100  1.0  0.1166
  H  H29  1  0.243000  0.314200  0.979800  1.0  0.12
  H  H30  1  0.061200  0.375000  0.112800  1.0  0.1091
  H  H31  1  0.959200  0.172600  0.031900  1.0  0.1086
  H  H32  1  0.967200  0.212400  0.150400  1.0  0.1378
  H  H33  1  0.858700  0.197200  0.109100  1.0  0.1421
  H  H34  1  0.743500  0.343900  0.085800  1.0  0.1098
  H  H35  1  0.627500  0.453100  0.220000  1.0  0.1223
  H  H36  1  0.905700  0.286600  0.222900  1.0  0.1172
  H  H37  1  0.757000  0.185800  0.479800  1.0  0.12
  H  H38  1  0.938800  0.125000  0.612800  1.0  0.1094
  H  H39  1  0.040800  0.327400  0.531900  1.0  0.109
  H  H40  1  0.032800  0.287600  0.650400  1.0  0.1378
  H  H41  1  0.141300  0.302800  0.609100  1.0  0.1416
  H  H42  1  0.256500  0.156100  0.585800  1.0  0.1094
  H  H43  1  0.372500  0.046900  0.720000  1.0  0.1227
  H  H44  1  0.094300  0.213400  0.722900  1.0  0.1165
  H  H45  1  0.257000  0.314200  0.479800  1.0  0.1201
  H  H46  1  0.438800  0.375000  0.612800  1.0  0.1092
  H  H47  1  0.540800  0.172600  0.531900  1.0  0.1088
  H  H48  1  0.532800  0.212400  0.650400  1.0  0.1378
  H  H49  1  0.641300  0.197200  0.609100  1.0  0.1412
  H  H50  1  0.756500  0.343900  0.585800  1.0  0.1094
  H  H51  1  0.872500  0.453100  0.720000  1.0  0.1228
  H  H52  1  0.594300  0.286600  0.722900  1.0  0.1166
  H  H53  1  0.743000  0.185800  0.979800  1.0  0.1198
  H  H54  1  0.561200  0.125000  0.112800  1.0  0.1094
  H  H55  1  0.459200  0.327400  0.031900  1.0  0.1091
  H  H56  1  0.467200  0.287600  0.150400  1.0  0.1375
  H  H57  1  0.358700  0.302800  0.109100  1.0  0.1426
  H  H58  1  0.243500  0.156100  0.085800  1.0  0.1097
  H  H59  1  0.127500  0.046900  0.220000  1.0  0.1222
  H  H60  1  0.405700  0.213400  0.222900  1.0  0.1172
  H  H61  1  0.757000  0.685800  0.020200  1.0  0.1203
  H  H62  1  0.938800  0.625000  0.887200  1.0  0.11
  H  H63  1  0.040800  0.827400  0.968100  1.0  0.1088
  H  H64  1  0.032800  0.787600  0.849600  1.0  0.1385
  H  H65  1  0.141300  0.802800  0.890900  1.0  0.1426
  H  H66  1  0.256500  0.656100  0.914200  1.0  0.1088
  H  H67  1  0.372500  0.546900  0.780000  1.0  0.1228
  H  H68  1  0.094300  0.713400  0.777100  1.0  0.1167
  H  H69  1  0.243000  0.814200  0.520200  1.0  0.1205
  H  H70  1  0.061200  0.875000  0.387200  1.0  0.11
  H  H71  1  0.959200  0.672600  0.468100  1.0  0.1088
  H  H72  1  0.967200  0.712400  0.349600  1.0  0.1373
  H  H73  1  0.858700  0.697200  0.390900  1.0  0.142
  H  H74  1  0.743500  0.843900  0.414200  1.0  0.1087
  H  H75  1  0.627500  0.953100  0.280000  1.0  0.1223
  H  H76  1  0.905700  0.786600  0.277100  1.0  0.117
  H  H77  1  0.564400  0.318900  0.354200  1.0  0.1176
  H  H78  1  0.432200  0.306300  0.381600  1.0  0.1063
  H  H79  1  0.553600  0.321300  0.416400  1.0  0.1101
  H  H80  1  0.397000  0.523800  0.417600  1.0  0.0906
  H  H81  1  0.447500  0.454500  0.456500  1.0  0.0866
  H  H82  1  0.327700  0.436900  0.421300  1.0  0.0892
  H  H83  1  0.563700  0.458700  0.383000  1.0  0.2367
  H  H84  1  0.452900  0.444900  0.349700  1.0  0.1791
  H  H85  1  0.435600  0.181100  0.854200  1.0  0.1182
  H  H86  1  0.567800  0.193700  0.881600  1.0  0.1081
  H  H87  1  0.446400  0.178700  0.916400  1.0  0.1093
  H  H88  1  0.603000  0.976200  0.917600  1.0  0.0889
  H  H89  1  0.552500  0.045500  0.956500  1.0  0.0868
  H  H90  1  0.672300  0.063100  0.921300  1.0  0.0895
  H  H91  1  0.436300  0.041300  0.883000  1.0  0.2348
  H  H92  1  0.547100  0.055100  0.849700  1.0  0.1797
  H  H93  1  0.064400  0.681100  0.145800  1.0  0.1177
  H  H94  1  0.932200  0.693700  0.118400  1.0  0.107
  H  H95  1  0.053600  0.678700  0.083600  1.0  0.1089
  H  H96  1  0.897000  0.476200  0.082400  1.0  0.0906
  H  H97  1  0.947500  0.545500  0.043500  1.0  0.0886
  H  H98  1  0.827700  0.563100  0.078700  1.0  0.0902
  H  H99  1  0.063700  0.541300  0.117000  1.0  0.2393
  H  H100  1  0.952900  0.555100  0.150300  1.0  0.1793
  H  H101  1  0.935600  0.818900  0.645800  1.0  0.1174
  H  H102  1  0.067800  0.806300  0.618400  1.0  0.1072
  H  H103  1  0.946400  0.821300  0.583600  1.0  0.1096
  H  H104  1  0.103000  0.023800  0.582400  1.0  0.0925
  H  H105  1  0.052500  0.954500  0.543500  1.0  0.0895
  H  H106  1  0.172300  0.936900  0.578700  1.0  0.0903
  H  H107  1  0.936300  0.958700  0.617000  1.0  0.2362
  H  H108  1  0.047100  0.944900  0.650300  1.0  0.1784
  H  H109  1  0.435600  0.681100  0.645800  1.0  0.1177
  H  H110  1  0.567800  0.693700  0.618400  1.0  0.1067
  H  H111  1  0.446400  0.678700  0.583600  1.0  0.1089
  H  H112  1  0.603000  0.476200  0.582400  1.0  0.0904
  H  H113  1  0.552500  0.545500  0.543500  1.0  0.0892
  H  H114  1  0.672300  0.563100  0.578700  1.0  0.09
  H  H115  1  0.436300  0.541300  0.617000  1.0  0.2367
  H  H116  1  0.547100  0.555100  0.650300  1.0  0.179
  H  H117  1  0.564400  0.818900  0.145800  1.0  0.1176
  H  H118  1  0.432200  0.806300  0.118400  1.0  0.108
  H  H119  1  0.553600  0.821300  0.083600  1.0  0.1096
  H  H120  1  0.397000  0.023800  0.082400  1.0  0.0922
  H  H121  1  0.447500  0.954500  0.043500  1.0  0.0886
  H  H122  1  0.327700  0.936900  0.078700  1.0  0.0899
  H  H123  1  0.563700  0.958700  0.117000  1.0  0.2383
  H  H124  1  0.452900  0.944900  0.150300  1.0  0.1786
  H  H125  1  0.935600  0.318900  0.854200  1.0  0.1175
  H  H126  1  0.067800  0.306300  0.881600  1.0  0.1078
  H  H127  1  0.946400  0.321300  0.916400  1.0  0.1096
  H  H128  1  0.103000  0.523800  0.917600  1.0  0.0909
  H  H129  1  0.052500  0.454500  0.956500  1.0  0.0865
  H  H130  1  0.172300  0.436900  0.921300  1.0  0.0898
  H  H131  1  0.936300  0.458700  0.883000  1.0  0.2347
  H  H132  1  0.047100  0.444900  0.849700  1.0  0.1797
  H  H133  1  0.064400  0.181100  0.354200  1.0  0.1181
  H  H134  1  0.932200  0.193700  0.381600  1.0  0.1056
  H  H135  1  0.053600  0.178700  0.416400  1.0  0.1096
  H  H136  1  0.897000  0.976200  0.417600  1.0  0.0892
  H  H137  1  0.947500  0.045500  0.456500  1.0  0.0872
  H  H138  1  0.827700  0.063100  0.421300  1.0  0.0893
  H  H139  1  0.063700  0.041300  0.383000  1.0  0.2373
  H  H140  1  0.952900  0.055100  0.349700  1.0  0.1791
  C  C141  1  0.605000  0.765900  0.500220  1.0  -0.1298
  C  C142  1  0.679500  0.696500  0.495390  1.0  -0.0713
  C  C143  1  0.660400  0.642500  0.453650  1.0  -0.0975
  C  C144  1  0.572100  0.661000  0.416000  1.0  -0.0875
  C  C145  1  0.499500  0.731300  0.419800  1.0  0.0995
  C  C146  1  0.513200  0.781700  0.463410  1.0  -0.1176
  C  C147  1  0.415100  0.760500  0.376430  1.0  -0.2267
  C  C148  1  0.336400  0.695400  0.349560  1.0  0.1133
  C  C149  1  0.249300  0.649700  0.377440  1.0  -0.1036
  C  C150  1  0.170700  0.594900  0.352040  1.0  -0.1247
  C  C151  1  0.181600  0.583600  0.297830  1.0  -0.0137
  C  C152  1  0.271800  0.626500  0.270910  1.0  -0.1195
  C  C153  1  0.346300  0.682700  0.296430  1.0  -0.1223
  C  C154  1  0.624700  0.825900  0.543900  1.0  0.6774
  C  C155  1  0.742300  0.567400  0.448770  1.0  0.6949
  C  C156  1  0.075400  0.547100  0.382950  1.0  0.6831
  C  C157  1  0.293400  0.610900  0.213430  1.0  0.6602
  C  C158  1  0.395000  0.734100  0.000220  1.0  -0.1295
  C  C159  1  0.320500  0.803500  0.995390  1.0  -0.0733
  C  C160  1  0.339600  0.857500  0.953650  1.0  -0.0965
  C  C161  1  0.427900  0.839000  0.916000  1.0  -0.0873
  C  C162  1  0.500500  0.768700  0.919800  1.0  0.0995
  C  C163  1  0.486800  0.718300  0.963410  1.0  -0.1151
  C  C164  1  0.584900  0.739500  0.876430  1.0  -0.2259
  C  C165  1  0.663600  0.804600  0.849560  1.0  0.1137
  C  C166  1  0.750700  0.850300  0.877440  1.0  -0.1044
  C  C167  1  0.829300  0.905100  0.852040  1.0  -0.1247
  C  C168  1  0.818400  0.916400  0.797830  1.0  -0.0154
  C  C169  1  0.728200  0.873500  0.770910  1.0  -0.1186
  C  C170  1  0.653700  0.817300  0.796430  1.0  -0.1222
  C  C171  1  0.375300  0.674100  0.043900  1.0  0.6779
  C  C172  1  0.257700  0.932600  0.948770  1.0  0.6947
  C  C173  1  0.924600  0.952900  0.882950  1.0  0.685
  C  C174  1  0.706600  0.889100  0.713430  1.0  0.6608
  C  C175  1  0.105000  0.234100  0.999780  1.0  -0.1306
  C  C176  1  0.179500  0.303500  0.004610  1.0  -0.0722
  C  C177  1  0.160400  0.357500  0.046350  1.0  -0.0977
  C  C178  1  0.072100  0.339000  0.084000  1.0  -0.0873
  C  C179  1  0.999500  0.268700  0.080200  1.0  0.0995
  C  C180  1  0.013200  0.218300  0.036590  1.0  -0.1169
  C  C181  1  0.915100  0.239500  0.123570  1.0  -0.2262
  C  C182  1  0.836400  0.304600  0.150440  1.0  0.1141
  C  C183  1  0.749300  0.350300  0.122560  1.0  -0.1021
  C  C184  1  0.670700  0.405100  0.147960  1.0  -0.1248
  C  C185  1  0.681600  0.416400  0.202170  1.0  -0.016
  C  C186  1  0.771800  0.373500  0.229090  1.0  -0.1198
  C  C187  1  0.846300  0.317300  0.203570  1.0  -0.1208
  C  C188  1  0.124700  0.174100  0.956100  1.0  0.6771
  C  C189  1  0.242300  0.432600  0.051230  1.0  0.694
  C  C190  1  0.575400  0.452900  0.117050  1.0  0.6854
  C  C191  1  0.793400  0.389100  0.286570  1.0  0.661
  C  C192  1  0.895000  0.265900  0.499780  1.0  -0.1292
  C  C193  1  0.820500  0.196500  0.504610  1.0  -0.0726
  C  C194  1  0.839600  0.142500  0.546350  1.0  -0.0974
  C  C195  1  0.927900  0.161000  0.584000  1.0  -0.0875
  C  C196  1  0.000500  0.231300  0.580200  1.0  0.0999
  C  C197  1  0.986800  0.281700  0.536590  1.0  -0.1159
  C  C198  1  0.084900  0.260500  0.623570  1.0  -0.2275
  C  C199  1  0.163600  0.195400  0.650440  1.0  0.1145
  C  C200  1  0.250700  0.149700  0.622560  1.0  -0.1021
  C  C201  1  0.329300  0.094900  0.647960  1.0  -0.1252
  C  C202  1  0.318400  0.083600  0.702170  1.0  -0.0124
  C  C203  1  0.228200  0.126500  0.729090  1.0  -0.1195
  C  C204  1  0.153700  0.182700  0.703570  1.0  -0.1233
  C  C205  1  0.875300  0.325900  0.456100  1.0  0.6772
  C  C206  1  0.757700  0.067400  0.551230  1.0  0.6948
  C  C207  1  0.424600  0.047100  0.617050  1.0  0.6839
  C  C208  1  0.206600  0.110900  0.786570  1.0  0.6616
  C  C209  1  0.395000  0.234100  0.499780  1.0  -0.1304
  C  C210  1  0.320500  0.303500  0.504610  1.0  -0.0728
  C  C211  1  0.339600  0.357500  0.546350  1.0  -0.097
  C  C212  1  0.427900  0.339000  0.584000  1.0  -0.0873
  C  C213  1  0.500500  0.268700  0.580200  1.0  0.0996
  C  C214  1  0.486800  0.218300  0.536590  1.0  -0.1152
  C  C215  1  0.584900  0.239500  0.623570  1.0  -0.2261
  C  C216  1  0.663600  0.304600  0.650440  1.0  0.1148
  C  C217  1  0.750700  0.350300  0.622560  1.0  -0.1023
  C  C218  1  0.829300  0.405100  0.647960  1.0  -0.1259
  C  C219  1  0.818400  0.416400  0.702170  1.0  -0.0138
  C  C220  1  0.728200  0.373500  0.729090  1.0  -0.1196
  C  C221  1  0.653700  0.317300  0.703570  1.0  -0.1233
  C  C222  1  0.375300  0.174100  0.456100  1.0  0.6774
  C  C223  1  0.257700  0.432600  0.551230  1.0  0.6944
  C  C224  1  0.924600  0.452900  0.617050  1.0  0.6851
  C  C225  1  0.706600  0.389100  0.786570  1.0  0.6614
  C  C226  1  0.605000  0.265900  0.999780  1.0  -0.1296
  C  C227  1  0.679500  0.196500  0.004610  1.0  -0.0718
  C  C228  1  0.660400  0.142500  0.046350  1.0  -0.098
  C  C229  1  0.572100  0.161000  0.084000  1.0  -0.0877
  C  C230  1  0.499500  0.231300  0.080200  1.0  0.0997
  C  C231  1  0.513200  0.281700  0.036590  1.0  -0.1177
  C  C232  1  0.415100  0.260500  0.123570  1.0  -0.2279
  C  C233  1  0.336400  0.195400  0.150440  1.0  0.1138
  C  C234  1  0.249300  0.149700  0.122560  1.0  -0.1018
  C  C235  1  0.170700  0.094900  0.147960  1.0  -0.1248
  C  C236  1  0.181600  0.083600  0.202170  1.0  -0.0133
  C  C237  1  0.271800  0.126500  0.229090  1.0  -0.1197
  C  C238  1  0.346300  0.182700  0.203570  1.0  -0.1206
  C  C239  1  0.624700  0.325900  0.956100  1.0  0.677
  C  C240  1  0.742300  0.067400  0.051230  1.0  0.6945
  C  C241  1  0.075400  0.047100  0.117050  1.0  0.6839
  C  C242  1  0.293400  0.110900  0.286570  1.0  0.6611
  C  C243  1  0.895000  0.765900  0.000220  1.0  -0.1294
  C  C244  1  0.820500  0.696500  0.995390  1.0  -0.073
  C  C245  1  0.839600  0.642500  0.953650  1.0  -0.0969
  C  C246  1  0.927900  0.661000  0.916000  1.0  -0.0873
  C  C247  1  0.000500  0.731300  0.919800  1.0  0.0997
  C  C248  1  0.986800  0.781700  0.963410  1.0  -0.1158
  C  C249  1  0.084900  0.760500  0.876430  1.0  -0.2265
  C  C250  1  0.163600  0.695400  0.849560  1.0  0.1138
  C  C251  1  0.250700  0.649700  0.877440  1.0  -0.1044
  C  C252  1  0.329300  0.594900  0.852040  1.0  -0.1241
  C  C253  1  0.318400  0.583600  0.797830  1.0  -0.0138
  C  C254  1  0.228200  0.626500  0.770910  1.0  -0.119
  C  C255  1  0.153700  0.682700  0.796430  1.0  -0.1223
  C  C256  1  0.875300  0.825900  0.043900  1.0  0.6775
  C  C257  1  0.757700  0.567400  0.948770  1.0  0.6953
  C  C258  1  0.424600  0.547100  0.882950  1.0  0.6833
  C  C259  1  0.206600  0.610900  0.713430  1.0  0.6609
  C  C260  1  0.105000  0.734100  0.500220  1.0  -0.1298
  C  C261  1  0.179500  0.803500  0.495390  1.0  -0.0716
  C  C262  1  0.160400  0.857500  0.453650  1.0  -0.0971
  C  C263  1  0.072100  0.839000  0.416000  1.0  -0.0874
  C  C264  1  0.999500  0.768700  0.419800  1.0  0.0994
  C  C265  1  0.013200  0.718300  0.463410  1.0  -0.1168
  C  C266  1  0.915100  0.739500  0.376430  1.0  -0.2259
  C  C267  1  0.836400  0.804600  0.349560  1.0  0.1133
  C  C268  1  0.749300  0.850300  0.377440  1.0  -0.1036
  C  C269  1  0.670700  0.905100  0.352040  1.0  -0.1246
  C  C270  1  0.681600  0.916400  0.297830  1.0  -0.0161
  C  C271  1  0.771800  0.873500  0.270910  1.0  -0.119
  C  C272  1  0.846300  0.817300  0.296430  1.0  -0.1225
  C  C273  1  0.124700  0.674100  0.543900  1.0  0.6777
  C  C274  1  0.242300  0.932600  0.448770  1.0  0.6943
  C  C275  1  0.575400  0.952900  0.382950  1.0  0.685
  C  C276  1  0.793400  0.889100  0.213430  1.0  0.6602
  C  C277  1  0.511900  0.335300  0.383600  1.0  -0.255
  C  C278  1  0.408600  0.464500  0.422600  1.0  -0.1294
  C  C279  1  0.488100  0.164700  0.883600  1.0  -0.2549
  C  C280  1  0.591400  0.035500  0.922600  1.0  -0.1289
  C  C281  1  0.011900  0.664700  0.116400  1.0  -0.2564
  C  C282  1  0.908600  0.535500  0.077400  1.0  -0.1288
  C  C283  1  0.988100  0.835300  0.616400  1.0  -0.2559
  C  C284  1  0.091400  0.964500  0.577400  1.0  -0.1292
  C  C285  1  0.488100  0.664700  0.616400  1.0  -0.2566
  C  C286  1  0.591400  0.535500  0.577400  1.0  -0.1291
  C  C287  1  0.511900  0.835300  0.116400  1.0  -0.2556
  C  C288  1  0.408600  0.964500  0.077400  1.0  -0.1291
  C  C289  1  0.988100  0.335300  0.883600  1.0  -0.255
  C  C290  1  0.091400  0.464500  0.922600  1.0  -0.1286
  C  C291  1  0.011900  0.164700  0.383600  1.0  -0.2551
  C  C292  1  0.908600  0.035500  0.422600  1.0  -0.1289
  N  N293  1  0.488200  0.432300  0.381400  1.0  -0.1132
  N  N294  1  0.511800  0.067700  0.881400  1.0  -0.112
  N  N295  1  0.988200  0.567700  0.118600  1.0  -0.1154
  N  N296  1  0.011800  0.932300  0.618600  1.0  -0.115
  N  N297  1  0.511800  0.567700  0.618600  1.0  -0.1156
  N  N298  1  0.488200  0.932300  0.118600  1.0  -0.1149
  N  N299  1  0.011800  0.432300  0.881400  1.0  -0.1133
  N  N300  1  0.988200  0.067700  0.381400  1.0  -0.1121
  O  O301  1  0.556200  0.889820  0.546520  1.0  -0.6689
  O  O302  1  0.707100  0.813800  0.577450  1.0  -0.5694
  O  O303  1  0.827600  0.559400  0.481000  1.0  -0.5897
  O  O304  1  0.719200  0.517800  0.411890  1.0  -0.6038
  O  O305  1  0.090900  0.543900  0.431250  1.0  -0.5944
  O  O306  1  0.988000  0.513700  0.357910  1.0  -0.632
  O  O307  1  0.220500  0.565100  0.188440  1.0  -0.5772
  O  O308  1  0.385400  0.642600  0.191640  1.0  -0.5589
  O  O309  1  0.443800  0.610180  0.046520  1.0  -0.6673
  O  O310  1  0.292900  0.686200  0.077450  1.0  -0.5686
  O  O311  1  0.172400  0.940600  0.981000  1.0  -0.5903
  O  O312  1  0.280800  0.982200  0.911890  1.0  -0.6045
  O  O313  1  0.909100  0.956100  0.931250  1.0  -0.5967
  O  O314  1  0.012000  0.986300  0.857910  1.0  -0.633
  O  O315  1  0.779500  0.934900  0.688440  1.0  -0.5791
  O  O316  1  0.614600  0.857400  0.691640  1.0  -0.5596
  O  O317  1  0.056200  0.110180  0.953480  1.0  -0.6679
  O  O318  1  0.207100  0.186200  0.922550  1.0  -0.5689
  O  O319  1  0.327600  0.440600  0.019000  1.0  -0.5899
  O  O320  1  0.219200  0.482200  0.088110  1.0  -0.6036
  O  O321  1  0.590900  0.456100  0.068750  1.0  -0.595
  O  O322  1  0.488000  0.486300  0.142090  1.0  -0.6332
  O  O323  1  0.720500  0.434900  0.311560  1.0  -0.5782
  O  O324  1  0.885400  0.357400  0.308360  1.0  -0.5592
  O  O325  1  0.943800  0.389820  0.453480  1.0  -0.6676
  O  O326  1  0.792900  0.313800  0.422550  1.0  -0.5691
  O  O327  1  0.672400  0.059400  0.519000  1.0  -0.5915
  O  O328  1  0.780800  0.017800  0.588110  1.0  -0.6039
  O  O329  1  0.409100  0.043900  0.568750  1.0  -0.5957
  O  O330  1  0.512000  0.013700  0.642090  1.0  -0.6342
  O  O331  1  0.279500  0.065100  0.811560  1.0  -0.5786
  O  O332  1  0.114600  0.142600  0.808360  1.0  -0.5583
  O  O333  1  0.443800  0.110180  0.453480  1.0  -0.6673
  O  O334  1  0.292900  0.186200  0.422550  1.0  -0.5683
  O  O335  1  0.172400  0.440600  0.519000  1.0  -0.5907
  O  O336  1  0.280800  0.482200  0.588110  1.0  -0.6043
  O  O337  1  0.909100  0.456100  0.568750  1.0  -0.5963
  O  O338  1  0.012000  0.486300  0.642090  1.0  -0.6337
  O  O339  1  0.779500  0.434900  0.811560  1.0  -0.5796
  O  O340  1  0.614600  0.357400  0.808360  1.0  -0.5592
  O  O341  1  0.556200  0.389820  0.953480  1.0  -0.6685
  O  O342  1  0.707100  0.313800  0.922550  1.0  -0.5696
  O  O343  1  0.827600  0.059400  0.019000  1.0  -0.5905
  O  O344  1  0.719200  0.017800  0.088110  1.0  -0.6031
  O  O345  1  0.090900  0.043900  0.068750  1.0  -0.5941
  O  O346  1  0.988000  0.013700  0.142090  1.0  -0.6335
  O  O347  1  0.220500  0.065100  0.311560  1.0  -0.5781
  O  O348  1  0.385400  0.142600  0.308360  1.0  -0.5587
  O  O349  1  0.943800  0.889820  0.046520  1.0  -0.6677
  O  O350  1  0.792900  0.813800  0.077450  1.0  -0.569
  O  O351  1  0.672400  0.559400  0.981000  1.0  -0.5905
  O  O352  1  0.780800  0.517800  0.911890  1.0  -0.6045
  O  O353  1  0.409100  0.543900  0.931250  1.0  -0.5958
  O  O354  1  0.512000  0.513700  0.857910  1.0  -0.633
  O  O355  1  0.279500  0.565100  0.688440  1.0  -0.5781
  O  O356  1  0.114600  0.642600  0.691640  1.0  -0.559
  O  O357  1  0.056200  0.610180  0.546520  1.0  -0.668
  O  O358  1  0.207100  0.686200  0.577450  1.0  -0.5691
  O  O359  1  0.327600  0.940600  0.481000  1.0  -0.5894
  O  O360  1  0.219200  0.982200  0.411890  1.0  -0.6038
  O  O361  1  0.590900  0.956100  0.431250  1.0  -0.5957
  O  O362  1  0.488000  0.986300  0.357910  1.0  -0.632
  O  O363  1  0.720500  0.934900  0.188440  1.0  -0.5775
  O  O364  1  0.885400  0.857400  0.191640  1.0  -0.5593
