# generated using pymatgen
data_Mg3H30C39N2O17
_symmetry_space_group_name_H-M   'P 1'
_cell_length_a   10.78100000
_cell_length_b   15.88370000
_cell_length_c   25.17370000
_cell_angle_alpha   90.00000000
_cell_angle_beta   90.00000000
_cell_angle_gamma   90.00000000
_symmetry_Int_Tables_number   1
_chemical_formula_structural   Mg3H30C39N2O17
_chemical_formula_sum   'Mg12 H120 C156 N8 O68'
_cell_volume   4310.79900738
_cell_formula_units_Z   4
loop_
 _symmetry_equiv_pos_site_id
 _symmetry_equiv_pos_as_xyz
  1  'x, y, z'
loop_
 _atom_site_type_symbol
 _atom_site_label
 _atom_site_symmetry_multiplicity
 _atom_site_fract_x
 _atom_site_fract_y
 _atom_site_fract_z
 _atom_site_occupancy
 _atom_site_charge
  Mg  Mg1  1  0.705460  0.824260  0.281750  1.0  1.5171
  Mg  Mg2  1  0.566330  0.750220  0.397400  1.0  1.5355
  Mg  Mg3  1  0.927590  0.329890  0.516690  1.0  1.5199
  Mg  Mg4  1  0.294540  0.175740  0.781750  1.0  1.5149
  Mg  Mg5  1  0.433670  0.249780  0.897400  1.0  1.5348
  Mg  Mg6  1  0.072410  0.670110  0.016690  1.0  1.5195
  Mg  Mg7  1  0.205460  0.175740  0.281750  1.0  1.5154
  Mg  Mg8  1  0.066330  0.249780  0.397400  1.0  1.5363
  Mg  Mg9  1  0.427590  0.670110  0.516690  1.0  1.5195
  Mg  Mg10  1  0.794540  0.824260  0.781750  1.0  1.5168
  Mg  Mg11  1  0.933670  0.750220  0.897400  1.0  1.5342
  Mg  Mg12  1  0.572410  0.329890  0.016690  1.0  1.52
  H  H13  1  0.811600  0.067800  0.378000  1.0  0.1102
  H  H14  1  0.649300  0.129600  0.517900  1.0  0.1016
  H  H15  1  0.528500  0.927100  0.435000  1.0  0.1021
  H  H16  1  0.448800  0.946000  0.517600  1.0  0.1428
  H  H17  1  0.551000  0.977900  0.558500  1.0  0.1368
  H  H18  1  0.457200  0.039300  0.629800  1.0  0.1189
  H  H19  1  0.160900  0.194700  0.614600  1.0  0.1065
  H  H20  1  0.327300  0.100100  0.484100  1.0  0.1037
  H  H21  1  0.815500  0.561800  0.411300  1.0  0.1175
  H  H22  1  0.985700  0.631400  0.275100  1.0  0.1156
  H  H23  1  0.099900  0.423900  0.354300  1.0  0.1067
  H  H24  1  0.194800  0.453300  0.272600  1.0  0.1255
  H  H25  1  0.086300  0.475400  0.231800  1.0  0.1293
  H  H26  1  0.144100  0.568700  0.163600  1.0  0.1031
  H  H27  1  0.433500  0.728900  0.180100  1.0  0.1098
  H  H28  1  0.314200  0.590700  0.306100  1.0  0.1059
  H  H29  1  0.232500  0.416200  0.536400  1.0  0.105
  H  H30  1  0.042100  0.378700  0.644500  1.0  0.1083
  H  H31  1  0.145300  0.410700  0.685500  1.0  0.1177
  H  H32  1  0.137700  0.313100  0.670100  1.0  0.1187
  H  H33  1  0.391400  0.387800  0.590200  1.0  0.0923
  H  H34  1  0.360200  0.316400  0.633000  1.0  0.094
  H  H35  1  0.369500  0.412800  0.651100  1.0  0.109
  H  H36  1  0.334300  0.741100  0.056700  1.0  0.3675
  H  H37  1  0.188400  0.932200  0.878000  1.0  0.1098
  H  H38  1  0.350700  0.870400  0.017900  1.0  0.1017
  H  H39  1  0.471500  0.072900  0.935000  1.0  0.1013
  H  H40  1  0.551200  0.054000  0.017600  1.0  0.1413
  H  H41  1  0.449000  0.022100  0.058500  1.0  0.1359
  H  H42  1  0.542800  0.960700  0.129800  1.0  0.1187
  H  H43  1  0.839100  0.805300  0.114600  1.0  0.1078
  H  H44  1  0.672700  0.899900  0.984100  1.0  0.104
  H  H45  1  0.184500  0.438200  0.911300  1.0  0.1171
  H  H46  1  0.014300  0.368600  0.775100  1.0  0.1161
  H  H47  1  0.900100  0.576100  0.854300  1.0  0.107
  H  H48  1  0.805200  0.546700  0.772600  1.0  0.1263
  H  H49  1  0.913700  0.524600  0.731800  1.0  0.1263
  H  H50  1  0.855900  0.431300  0.663600  1.0  0.1027
  H  H51  1  0.566500  0.271100  0.680100  1.0  0.1072
  H  H52  1  0.685800  0.409300  0.806100  1.0  0.1075
  H  H53  1  0.767500  0.583800  0.036400  1.0  0.1046
  H  H54  1  0.957900  0.621300  0.144500  1.0  0.1088
  H  H55  1  0.854700  0.589300  0.185500  1.0  0.1186
  H  H56  1  0.862300  0.686900  0.170100  1.0  0.1201
  H  H57  1  0.608600  0.612200  0.090200  1.0  0.0923
  H  H58  1  0.639800  0.683600  0.133000  1.0  0.0957
  H  H59  1  0.630500  0.587200  0.151100  1.0  0.1072
  H  H60  1  0.665700  0.258900  0.556700  1.0  0.3668
  H  H61  1  0.311600  0.932200  0.378000  1.0  0.1103
  H  H62  1  0.149300  0.870400  0.517900  1.0  0.1025
  H  H63  1  0.028500  0.072900  0.435000  1.0  0.102
  H  H64  1  0.948800  0.054000  0.517600  1.0  0.1425
  H  H65  1  0.051000  0.022100  0.558500  1.0  0.1364
  H  H66  1  0.957200  0.960700  0.629800  1.0  0.1191
  H  H67  1  0.660900  0.805300  0.614600  1.0  0.1062
  H  H68  1  0.827300  0.899900  0.484100  1.0  0.1037
  H  H69  1  0.315500  0.438200  0.411300  1.0  0.1172
  H  H70  1  0.485700  0.368600  0.275100  1.0  0.116
  H  H71  1  0.599900  0.576100  0.354300  1.0  0.1066
  H  H72  1  0.694800  0.546700  0.272600  1.0  0.1249
  H  H73  1  0.586300  0.524600  0.231800  1.0  0.1292
  H  H74  1  0.644100  0.431300  0.163600  1.0  0.103
  H  H75  1  0.933500  0.271100  0.180100  1.0  0.1099
  H  H76  1  0.814200  0.409300  0.306100  1.0  0.1058
  H  H77  1  0.732500  0.583800  0.536400  1.0  0.1048
  H  H78  1  0.542100  0.621300  0.644500  1.0  0.1089
  H  H79  1  0.645300  0.589300  0.685500  1.0  0.1184
  H  H80  1  0.637700  0.686900  0.670100  1.0  0.1192
  H  H81  1  0.891400  0.612200  0.590200  1.0  0.0927
  H  H82  1  0.860200  0.683600  0.633000  1.0  0.0965
  H  H83  1  0.869500  0.587200  0.651100  1.0  0.1088
  H  H84  1  0.834300  0.258900  0.056700  1.0  0.3675
  H  H85  1  0.688400  0.067800  0.878000  1.0  0.1104
  H  H86  1  0.850700  0.129600  0.017900  1.0  0.1009
  H  H87  1  0.971500  0.927100  0.935000  1.0  0.1014
  H  H88  1  0.051200  0.946000  0.017600  1.0  0.1419
  H  H89  1  0.949000  0.977900  0.058500  1.0  0.1364
  H  H90  1  0.042800  0.039300  0.129800  1.0  0.1187
  H  H91  1  0.339100  0.194700  0.114600  1.0  0.1081
  H  H92  1  0.172700  0.100100  0.984100  1.0  0.104
  H  H93  1  0.684500  0.561800  0.911300  1.0  0.117
  H  H94  1  0.514300  0.631400  0.775100  1.0  0.1161
  H  H95  1  0.400100  0.423900  0.854300  1.0  0.1072
  H  H96  1  0.305200  0.453300  0.772600  1.0  0.1266
  H  H97  1  0.413700  0.475400  0.731800  1.0  0.1285
  H  H98  1  0.355900  0.568700  0.663600  1.0  0.1026
  H  H99  1  0.066500  0.728900  0.680100  1.0  0.1085
  H  H100  1  0.185800  0.590700  0.806100  1.0  0.1059
  H  H101  1  0.267500  0.416200  0.036400  1.0  0.1049
  H  H102  1  0.457900  0.378700  0.144500  1.0  0.1086
  H  H103  1  0.354700  0.410700  0.185500  1.0  0.1189
  H  H104  1  0.362300  0.313100  0.170100  1.0  0.1199
  H  H105  1  0.108600  0.387800  0.090200  1.0  0.0922
  H  H106  1  0.139800  0.316400  0.133000  1.0  0.0944
  H  H107  1  0.130500  0.412800  0.151100  1.0  0.1072
  H  H108  1  0.165700  0.741100  0.556700  1.0  0.3666
  H  H109  1  0.341500  0.567000  0.005700  1.0  0.1052
  H  H110  1  0.474300  0.557700  0.977900  1.0  0.0786
  H  H111  1  0.464700  0.590400  0.037900  1.0  0.1138
  H  H112  1  0.513400  0.778800  0.962600  1.0  0.1208
  H  H113  1  0.575700  0.725400  0.009500  1.0  0.09
  H  H114  1  0.581000  0.691400  0.949700  1.0  0.1022
  H  H115  1  0.658500  0.433000  0.505700  1.0  0.1071
  H  H116  1  0.525700  0.442300  0.477900  1.0  0.0792
  H  H117  1  0.535300  0.409600  0.537900  1.0  0.1127
  H  H118  1  0.486600  0.221200  0.462600  1.0  0.1162
  H  H119  1  0.424300  0.274600  0.509500  1.0  0.0896
  H  H120  1  0.419000  0.308600  0.449700  1.0  0.1005
  H  H121  1  0.841500  0.433000  0.005700  1.0  0.1054
  H  H122  1  0.974300  0.442300  0.977900  1.0  0.0791
  H  H123  1  0.964700  0.409600  0.037900  1.0  0.1132
  H  H124  1  0.013400  0.221200  0.962600  1.0  0.1205
  H  H125  1  0.075700  0.274600  0.009500  1.0  0.0898
  H  H126  1  0.081000  0.308600  0.949700  1.0  0.102
  H  H127  1  0.158500  0.567000  0.505700  1.0  0.107
  H  H128  1  0.025700  0.557700  0.477900  1.0  0.0785
  H  H129  1  0.035300  0.590400  0.537900  1.0  0.1131
  H  H130  1  0.986600  0.778800  0.462600  1.0  0.1161
  H  H131  1  0.924300  0.725400  0.509500  1.0  0.0896
  H  H132  1  0.919000  0.691400  0.449700  1.0  0.1022
  C  C133  1  0.674000  0.986800  0.400700  1.0  -0.1407
  C  C134  1  0.751600  0.057100  0.404800  1.0  -0.0615
  C  C135  1  0.741200  0.111600  0.448100  1.0  -0.1524
  C  C136  1  0.654800  0.093700  0.487900  1.0  -0.0717
  C  C137  1  0.575500  0.023400  0.484300  1.0  0.0636
  C  C138  1  0.584700  0.972600  0.439300  1.0  -0.1393
  C  C139  1  0.495500  0.996300  0.529400  1.0  -0.2328
  C  C140  1  0.403300  0.057100  0.552700  1.0  0.1157
  C  C141  1  0.397900  0.066700  0.607900  1.0  -0.0879
  C  C142  1  0.305500  0.116700  0.630900  1.0  -0.13
  C  C143  1  0.223100  0.160500  0.598800  1.0  -0.0519
  C  C144  1  0.230900  0.154600  0.544300  1.0  -0.1278
  C  C145  1  0.321400  0.103500  0.521700  1.0  -0.1085
  C  C146  1  0.687700  0.926800  0.356500  1.0  0.6732
  C  C147  1  0.826500  0.185900  0.452400  1.0  0.6872
  C  C148  1  0.299000  0.126300  0.689800  1.0  0.6698
  C  C149  1  0.141900  0.204300  0.510600  1.0  0.6736
  C  C150  1  0.954000  0.483200  0.389500  1.0  -0.1466
  C  C151  1  0.878100  0.552600  0.385400  1.0  -0.0709
  C  C152  1  0.892200  0.608700  0.344200  1.0  -0.1125
  C  C153  1  0.978300  0.593700  0.304200  1.0  -0.1032
  C  C154  1  0.053400  0.522900  0.307400  1.0  0.0653
  C  C155  1  0.044200  0.469900  0.350800  1.0  -0.1332
  C  C156  1  0.138500  0.498700  0.260700  1.0  -0.1991
  C  C157  1  0.216000  0.568700  0.238000  1.0  0.1004
  C  C158  1  0.205900  0.593500  0.185600  1.0  -0.1225
  C  C159  1  0.285400  0.654500  0.164200  1.0  -0.1565
  C  C160  1  0.377000  0.689800  0.195200  1.0  -0.0432
  C  C161  1  0.387100  0.667900  0.249300  1.0  -0.1591
  C  C162  1  0.306900  0.606800  0.269900  1.0  -0.088
  C  C163  1  0.940100  0.422600  0.435500  1.0  0.6415
  C  C164  1  0.809200  0.686200  0.340900  1.0  0.6603
  C  C165  1  0.269500  0.681200  0.107200  1.0  0.675
  C  C166  1  0.481100  0.709100  0.283600  1.0  0.7173
  C  C167  1  0.173600  0.404800  0.563600  1.0  0.1484
  C  C168  1  0.127500  0.370700  0.656900  1.0  -0.1637
  C  C169  1  0.344100  0.374700  0.622400  1.0  -0.1238
  C  C170  1  0.326000  0.013200  0.900700  1.0  -0.1405
  C  C171  1  0.248400  0.942900  0.904800  1.0  -0.0595
  C  C172  1  0.258800  0.888400  0.948100  1.0  -0.1542
  C  C173  1  0.345200  0.906300  0.987900  1.0  -0.0706
  C  C174  1  0.424500  0.976600  0.984300  1.0  0.0637
  C  C175  1  0.415300  0.027400  0.939300  1.0  -0.134
  C  C176  1  0.504500  0.003700  0.029400  1.0  -0.2353
  C  C177  1  0.596700  0.942900  0.052700  1.0  0.1164
  C  C178  1  0.602100  0.933300  0.107900  1.0  -0.0886
  C  C179  1  0.694500  0.883300  0.130900  1.0  -0.1304
  C  C180  1  0.776900  0.839500  0.098800  1.0  -0.0509
  C  C181  1  0.769100  0.845400  0.044300  1.0  -0.128
  C  C182  1  0.678600  0.896500  0.021700  1.0  -0.1077
  C  C183  1  0.312300  0.073200  0.856500  1.0  0.6716
  C  C184  1  0.173500  0.814100  0.952400  1.0  0.6871
  C  C185  1  0.701000  0.873700  0.189800  1.0  0.6694
  C  C186  1  0.858100  0.795700  0.010600  1.0  0.6738
  C  C187  1  0.046000  0.516800  0.889500  1.0  -0.1468
  C  C188  1  0.121900  0.447400  0.885400  1.0  -0.0697
  C  C189  1  0.107800  0.391300  0.844200  1.0  -0.1106
  C  C190  1  0.021700  0.406300  0.804200  1.0  -0.1037
  C  C191  1  0.946600  0.477100  0.807400  1.0  0.0657
  C  C192  1  0.955800  0.530100  0.850800  1.0  -0.1421
  C  C193  1  0.861500  0.501300  0.760700  1.0  -0.2109
  C  C194  1  0.784000  0.431300  0.738000  1.0  0.1013
  C  C195  1  0.794100  0.406500  0.685600  1.0  -0.1209
  C  C196  1  0.714600  0.345500  0.664200  1.0  -0.1555
  C  C197  1  0.623000  0.310200  0.695200  1.0  -0.0453
  C  C198  1  0.612900  0.332100  0.749300  1.0  -0.1587
  C  C199  1  0.693100  0.393200  0.769900  1.0  -0.0868
  C  C200  1  0.059900  0.577400  0.935500  1.0  0.6417
  C  C201  1  0.190800  0.313800  0.840900  1.0  0.6591
  C  C202  1  0.730500  0.318800  0.607200  1.0  0.6751
  C  C203  1  0.518900  0.290900  0.783600  1.0  0.7175
  C  C204  1  0.826400  0.595200  0.063600  1.0  0.1501
  C  C205  1  0.872500  0.629300  0.156900  1.0  -0.1622
  C  C206  1  0.655900  0.625300  0.122400  1.0  -0.1227
  C  C207  1  0.174000  0.013200  0.400700  1.0  -0.1407
  C  C208  1  0.251600  0.942900  0.404800  1.0  -0.0614
  C  C209  1  0.241200  0.888400  0.448100  1.0  -0.1538
  C  C210  1  0.154800  0.906300  0.487900  1.0  -0.071
  C  C211  1  0.075500  0.976600  0.484300  1.0  0.0636
  C  C212  1  0.084700  0.027400  0.439300  1.0  -0.1393
  C  C213  1  0.995500  0.003700  0.529400  1.0  -0.2352
  C  C214  1  0.903300  0.942900  0.552700  1.0  0.1165
  C  C215  1  0.897900  0.933300  0.607900  1.0  -0.0874
  C  C216  1  0.805500  0.883300  0.630900  1.0  -0.1309
  C  C217  1  0.723100  0.839500  0.598800  1.0  -0.0519
  C  C218  1  0.730900  0.845400  0.544300  1.0  -0.1278
  C  C219  1  0.821400  0.896500  0.521700  1.0  -0.1084
  C  C220  1  0.187700  0.073200  0.356500  1.0  0.6715
  C  C221  1  0.326500  0.814100  0.452400  1.0  0.69
  C  C222  1  0.799000  0.873700  0.689800  1.0  0.6684
  C  C223  1  0.641900  0.795700  0.510600  1.0  0.6739
  C  C224  1  0.454000  0.516800  0.389500  1.0  -0.147
  C  C225  1  0.378100  0.447400  0.385400  1.0  -0.0707
  C  C226  1  0.392200  0.391300  0.344200  1.0  -0.1117
  C  C227  1  0.478300  0.406300  0.304200  1.0  -0.1037
  C  C228  1  0.553400  0.477100  0.307400  1.0  0.0654
  C  C229  1  0.544200  0.530100  0.350800  1.0  -0.1352
  C  C230  1  0.638500  0.501300  0.260700  1.0  -0.211
  C  C231  1  0.716000  0.431300  0.238000  1.0  0.101
  C  C232  1  0.705900  0.406500  0.185600  1.0  -0.1225
  C  C233  1  0.785400  0.345500  0.164200  1.0  -0.1555
  C  C234  1  0.877000  0.310200  0.195200  1.0  -0.0442
  C  C235  1  0.887100  0.332100  0.249300  1.0  -0.1589
  C  C236  1  0.806900  0.393200  0.269900  1.0  -0.0867
  C  C237  1  0.440100  0.577400  0.435500  1.0  0.6408
  C  C238  1  0.309200  0.313800  0.340900  1.0  0.6583
  C  C239  1  0.769500  0.318800  0.107200  1.0  0.6746
  C  C240  1  0.981100  0.290900  0.283600  1.0  0.7164
  C  C241  1  0.673600  0.595200  0.563600  1.0  0.1498
  C  C242  1  0.627500  0.629300  0.656900  1.0  -0.1607
  C  C243  1  0.844100  0.625300  0.622400  1.0  -0.1238
  C  C244  1  0.826000  0.986800  0.900700  1.0  -0.1405
  C  C245  1  0.748400  0.057100  0.904800  1.0  -0.059
  C  C246  1  0.758800  0.111600  0.948100  1.0  -0.1525
  C  C247  1  0.845200  0.093700  0.987900  1.0  -0.071
  C  C248  1  0.924500  0.023400  0.984300  1.0  0.0636
  C  C249  1  0.915300  0.972600  0.939300  1.0  -0.1342
  C  C250  1  0.004500  0.996300  0.029400  1.0  -0.2325
  C  C251  1  0.096700  0.057100  0.052700  1.0  0.1159
  C  C252  1  0.102100  0.066700  0.107900  1.0  -0.0885
  C  C253  1  0.194500  0.116700  0.130900  1.0  -0.1293
  C  C254  1  0.276900  0.160500  0.098800  1.0  -0.0513
  C  C255  1  0.269100  0.154600  0.044300  1.0  -0.128
  C  C256  1  0.178600  0.103500  0.021700  1.0  -0.1078
  C  C257  1  0.812300  0.926800  0.856500  1.0  0.6726
  C  C258  1  0.673500  0.185900  0.952400  1.0  0.687
  C  C259  1  0.201000  0.126300  0.189800  1.0  0.6705
  C  C260  1  0.358100  0.204300  0.010600  1.0  0.6737
  C  C261  1  0.546000  0.483200  0.889500  1.0  -0.1465
  C  C262  1  0.621900  0.552600  0.885400  1.0  -0.07
  C  C263  1  0.607800  0.608700  0.844200  1.0  -0.1121
  C  C264  1  0.521700  0.593700  0.804200  1.0  -0.1033
  C  C265  1  0.446600  0.522900  0.807400  1.0  0.0656
  C  C266  1  0.455800  0.469900  0.850800  1.0  -0.1411
  C  C267  1  0.361500  0.498700  0.760700  1.0  -0.1982
  C  C268  1  0.284000  0.568700  0.738000  1.0  0.101
  C  C269  1  0.294100  0.593500  0.685600  1.0  -0.1223
  C  C270  1  0.214600  0.654500  0.664200  1.0  -0.1562
  C  C271  1  0.123000  0.689800  0.695200  1.0  -0.0447
  C  C272  1  0.112900  0.667900  0.749300  1.0  -0.159
  C  C273  1  0.193100  0.606800  0.769900  1.0  -0.0873
  C  C274  1  0.559900  0.422600  0.935500  1.0  0.6423
  C  C275  1  0.690800  0.686200  0.840900  1.0  0.6625
  C  C276  1  0.230500  0.681200  0.607200  1.0  0.6749
  C  C277  1  0.018900  0.709100  0.783600  1.0  0.7173
  C  C278  1  0.326400  0.404800  0.063600  1.0  0.1495
  C  C279  1  0.372500  0.370700  0.156900  1.0  -0.1654
  C  C280  1  0.155900  0.374700  0.122400  1.0  -0.1228
  C  C281  1  0.424900  0.591100  0.002900  1.0  -0.1613
  C  C282  1  0.530600  0.721800  0.975800  1.0  -0.1192
  C  C283  1  0.575100  0.408900  0.502900  1.0  -0.1612
  C  C284  1  0.469400  0.278200  0.475800  1.0  -0.1197
  C  C285  1  0.924900  0.408900  0.002900  1.0  -0.1623
  C  C286  1  0.030600  0.278200  0.975800  1.0  -0.1203
  C  C287  1  0.075100  0.591100  0.502900  1.0  -0.1602
  C  C288  1  0.969400  0.721800  0.475800  1.0  -0.1194
  N  N289  1  0.214600  0.385300  0.612100  1.0  -0.0927
  N  N290  1  0.785400  0.614700  0.112100  1.0  -0.0921
  N  N291  1  0.714600  0.614700  0.612100  1.0  -0.0931
  N  N292  1  0.285400  0.385300  0.112100  1.0  -0.0919
  N  N293  1  0.416300  0.678200  0.983800  1.0  -0.4096
  N  N294  1  0.583700  0.321800  0.483800  1.0  -0.4099
  N  N295  1  0.916300  0.321800  0.983800  1.0  -0.4118
  N  N296  1  0.083700  0.678200  0.483800  1.0  -0.4104
  O  O297  1  0.623000  0.860200  0.354360  1.0  -0.6829
  O  O298  1  0.766500  0.939400  0.319240  1.0  -0.5797
  O  O299  1  0.913000  0.187900  0.419410  1.0  -0.6417
  O  O300  1  0.806200  0.239800  0.487410  1.0  -0.5713
  O  O301  1  0.380600  0.094900  0.719230  1.0  -0.5621
  O  O302  1  0.210300  0.167800  0.708880  1.0  -0.5543
  O  O303  1  0.048700  0.235500  0.533580  1.0  -0.6163
  O  O304  1  0.165600  0.211400  0.462140  1.0  -0.6066
  O  O305  1  0.009000  0.357800  0.438030  1.0  -0.741
  O  O306  1  0.863100  0.437200  0.471400  1.0  -0.579
  O  O307  1  0.722100  0.690000  0.372760  1.0  -0.6108
  O  O308  1  0.835000  0.741600  0.306100  1.0  -0.616
  O  O309  1  0.177800  0.654400  0.082140  1.0  -0.6162
  O  O310  1  0.351300  0.729700  0.088490  1.0  -0.4912
  O  O311  1  0.576300  0.738000  0.261600  1.0  -0.6042
  O  O312  1  0.460300  0.711300  0.332750  1.0  -0.6115
  O  O313  1  0.060400  0.408500  0.552500  1.0  -0.6219
  O  O314  1  0.377000  0.139800  0.854360  1.0  -0.6812
  O  O315  1  0.233500  0.060600  0.819240  1.0  -0.5774
  O  O316  1  0.087000  0.812100  0.919410  1.0  -0.6419
  O  O317  1  0.193800  0.760200  0.987410  1.0  -0.5713
  O  O318  1  0.619400  0.905100  0.219230  1.0  -0.5605
  O  O319  1  0.789700  0.832200  0.208880  1.0  -0.5567
  O  O320  1  0.951300  0.764500  0.033580  1.0  -0.614
  O  O321  1  0.834400  0.788600  0.962140  1.0  -0.6063
  O  O322  1  0.991000  0.642200  0.938030  1.0  -0.7411
  O  O323  1  0.136900  0.562800  0.971400  1.0  -0.5799
  O  O324  1  0.277900  0.310000  0.872760  1.0  -0.6135
  O  O325  1  0.165000  0.258400  0.806100  1.0  -0.6146
  O  O326  1  0.822200  0.345600  0.582140  1.0  -0.6149
  O  O327  1  0.648700  0.270300  0.588490  1.0  -0.4933
  O  O328  1  0.423700  0.262000  0.761600  1.0  -0.6037
  O  O329  1  0.539700  0.288700  0.832750  1.0  -0.6123
  O  O330  1  0.939600  0.591500  0.052500  1.0  -0.6211
  O  O331  1  0.123000  0.139800  0.354360  1.0  -0.6817
  O  O332  1  0.266500  0.060600  0.319240  1.0  -0.5794
  O  O333  1  0.413000  0.812100  0.419410  1.0  -0.641
  O  O334  1  0.306200  0.760200  0.487410  1.0  -0.5713
  O  O335  1  0.880600  0.905100  0.719230  1.0  -0.5611
  O  O336  1  0.710300  0.832200  0.708880  1.0  -0.5566
  O  O337  1  0.548700  0.764500  0.533580  1.0  -0.6163
  O  O338  1  0.665600  0.788600  0.462140  1.0  -0.6067
  O  O339  1  0.509000  0.642200  0.438030  1.0  -0.741
  O  O340  1  0.363100  0.562800  0.471400  1.0  -0.5792
  O  O341  1  0.222100  0.310000  0.372760  1.0  -0.6115
  O  O342  1  0.335000  0.258400  0.306100  1.0  -0.6141
  O  O343  1  0.677800  0.345600  0.082140  1.0  -0.6163
  O  O344  1  0.851300  0.270300  0.088490  1.0  -0.4914
  O  O345  1  0.076300  0.262000  0.261600  1.0  -0.6037
  O  O346  1  0.960300  0.288700  0.332750  1.0  -0.6106
  O  O347  1  0.560400  0.591500  0.552500  1.0  -0.6223
  O  O348  1  0.877000  0.860200  0.854360  1.0  -0.6827
  O  O349  1  0.733500  0.939400  0.819240  1.0  -0.5776
  O  O350  1  0.587000  0.187900  0.919410  1.0  -0.6417
  O  O351  1  0.693800  0.239800  0.987410  1.0  -0.5714
  O  O352  1  0.119400  0.094900  0.219230  1.0  -0.5611
  O  O353  1  0.289700  0.167800  0.208880  1.0  -0.5548
  O  O354  1  0.451300  0.235500  0.033580  1.0  -0.6141
  O  O355  1  0.334400  0.211400  0.962140  1.0  -0.6061
  O  O356  1  0.491000  0.357800  0.938030  1.0  -0.741
  O  O357  1  0.636900  0.437200  0.971400  1.0  -0.5796
  O  O358  1  0.777900  0.690000  0.872760  1.0  -0.6133
  O  O359  1  0.665000  0.741600  0.806100  1.0  -0.6157
  O  O360  1  0.322200  0.654400  0.582140  1.0  -0.615
  O  O361  1  0.148700  0.729700  0.588490  1.0  -0.4925
  O  O362  1  0.923700  0.738000  0.761600  1.0  -0.604
  O  O363  1  0.039700  0.711300  0.832750  1.0  -0.6123
  O  O364  1  0.439600  0.408500  0.052500  1.0  -0.6211
