# generated using pymatgen
data_Co2H9C17O9
_symmetry_space_group_name_H-M   'P 1'
_cell_length_a   11.06600000
_cell_length_b   13.82140000
_cell_length_c   16.83870000
_cell_angle_alpha   90.00000000
_cell_angle_beta   103.31000000
_cell_angle_gamma   90.00000000
_symmetry_Int_Tables_number   1
_chemical_formula_structural   Co2H9C17O9
_chemical_formula_sum   'Co8 H36 C68 O36'
_cell_volume   2506.25933962
_cell_formula_units_Z   4
loop_
 _symmetry_equiv_pos_site_id
 _symmetry_equiv_pos_as_xyz
  1  'x, y, z'
loop_
 _atom_site_type_symbol
 _atom_site_label
 _atom_site_symmetry_multiplicity
 _atom_site_fract_x
 _atom_site_fract_y
 _atom_site_fract_z
 _atom_site_occupancy
 _atom_site_charge
  Co  Co1  1  0.056720  0.089250  0.174070  1.0  1.1023
  Co  Co2  1  0.141770  0.997270  0.994940  1.0  1.126
  Co  Co3  1  0.443280  0.589250  0.325930  1.0  1.102
  Co  Co4  1  0.358230  0.497270  0.505060  1.0  1.1276
  Co  Co5  1  0.943280  0.910750  0.825930  1.0  1.1017
  Co  Co6  1  0.858230  0.002730  0.005060  1.0  1.1269
  Co  Co7  1  0.556720  0.410750  0.674070  1.0  1.1027
  Co  Co8  1  0.641770  0.502730  0.494940  1.0  1.1256
  H  H9  1  0.534800  0.038400  0.099500  1.0  0.125
  H  H10  1  0.411100  0.081200  0.305200  1.0  0.1096
  H  H11  1  0.780000  0.076300  0.316800  1.0  0.127
  H  H12  1  0.548700  0.904600  0.383500  1.0  0.1189
  H  H13  1  0.729700  0.773800  0.592600  1.0  0.1226
  H  H14  1  0.765600  0.062100  0.563900  1.0  0.1272
  H  H15  1  0.557000  0.123000  0.435000  1.0  0.1387
  H  H16  1  0.692000  0.135000  0.436500  1.0  0.1501
  H  H17  1  0.038000  0.941000  0.098000  1.0  0.4658
  H  H18  1  0.965200  0.538400  0.400500  1.0  0.1262
  H  H19  1  0.088900  0.581200  0.194800  1.0  0.1099
  H  H20  1  0.720000  0.576300  0.183200  1.0  0.1272
  H  H21  1  0.951300  0.404600  0.116500  1.0  0.1194
  H  H22  1  0.770300  0.273800  0.907400  1.0  0.1227
  H  H23  1  0.734400  0.562100  0.936100  1.0  0.1283
  H  H24  1  0.943000  0.623000  0.065000  1.0  0.1381
  H  H25  1  0.808000  0.635000  0.063500  1.0  0.1519
  H  H26  1  0.462000  0.441000  0.402000  1.0  0.4646
  H  H27  1  0.465200  0.961600  0.900500  1.0  0.1261
  H  H28  1  0.588900  0.918800  0.694800  1.0  0.1102
  H  H29  1  0.220000  0.923700  0.683200  1.0  0.1273
  H  H30  1  0.451300  0.095400  0.616500  1.0  0.1194
  H  H31  1  0.270300  0.226200  0.407400  1.0  0.1232
  H  H32  1  0.234400  0.937900  0.436100  1.0  0.127
  H  H33  1  0.443000  0.877000  0.565000  1.0  0.1388
  H  H34  1  0.308000  0.865000  0.563500  1.0  0.1532
  H  H35  1  0.962000  0.059000  0.902000  1.0  0.4639
  H  H36  1  0.034800  0.461600  0.599500  1.0  0.1251
  H  H37  1  0.911100  0.418800  0.805200  1.0  0.1096
  H  H38  1  0.280000  0.423700  0.816800  1.0  0.1274
  H  H39  1  0.048700  0.595400  0.883500  1.0  0.1195
  H  H40  1  0.229700  0.726200  0.092600  1.0  0.1223
  H  H41  1  0.265600  0.437900  0.063900  1.0  0.1275
  H  H42  1  0.057000  0.377000  0.935000  1.0  0.1395
  H  H43  1  0.192000  0.365000  0.936500  1.0  0.1523
  H  H44  1  0.538000  0.559000  0.598000  1.0  0.4656
  C  C45  1  0.673600  0.058000  0.201620  1.0  -0.1312
  C  C46  1  0.551300  0.050200  0.156610  1.0  0.0068
  C  C47  1  0.453900  0.059600  0.195160  1.0  -0.0803
  C  C48  1  0.478200  0.074400  0.279120  1.0  -0.0608
  C  C49  1  0.600200  0.079100  0.325380  1.0  0.1237
  C  C50  1  0.696700  0.071800  0.286000  1.0  -0.0606
  C  C51  1  0.623900  0.090700  0.416710  1.0  -0.2886
  C  C52  1  0.653600  0.997200  0.465070  1.0  0.12
  C  C53  1  0.603500  0.908300  0.435880  1.0  -0.0966
  C  C54  1  0.632500  0.824100  0.482600  1.0  -0.144
  C  C55  1  0.710000  0.830500  0.560210  1.0  -0.019
  C  C56  1  0.758800  0.919100  0.590540  1.0  -0.1379
  C  C57  1  0.731300  0.001700  0.543080  1.0  -0.1089
  C  C58  1  0.779300  0.046800  0.159810  1.0  0.7396
  C  C59  1  0.321200  0.052700  0.147160  1.0  0.7334
  C  C60  1  0.583900  0.725300  0.453300  1.0  0.7213
  C  C61  1  0.838700  0.924900  0.675640  1.0  0.6472
  C  C62  1  0.826400  0.558000  0.298380  1.0  -0.1319
  C  C63  1  0.948700  0.550200  0.343390  1.0  0.0063
  C  C64  1  0.046100  0.559600  0.304840  1.0  -0.0803
  C  C65  1  0.021800  0.574400  0.220880  1.0  -0.0601
  C  C66  1  0.899800  0.579100  0.174620  1.0  0.1233
  C  C67  1  0.803300  0.571800  0.214000  1.0  -0.0605
  C  C68  1  0.876100  0.590700  0.083290  1.0  -0.2876
  C  C69  1  0.846400  0.497200  0.034930  1.0  0.1197
  C  C70  1  0.896500  0.408300  0.064120  1.0  -0.097
  C  C71  1  0.867500  0.324100  0.017400  1.0  -0.1429
  C  C72  1  0.790000  0.330500  0.939790  1.0  -0.0173
  C  C73  1  0.741200  0.419100  0.909460  1.0  -0.1381
  C  C74  1  0.768700  0.501700  0.956920  1.0  -0.1085
  C  C75  1  0.720700  0.546800  0.340190  1.0  0.7406
  C  C76  1  0.178800  0.552700  0.352840  1.0  0.7333
  C  C77  1  0.916100  0.225300  0.046700  1.0  0.722
  C  C78  1  0.661300  0.424900  0.824360  1.0  0.6472
  C  C79  1  0.326400  0.942000  0.798380  1.0  -0.132
  C  C80  1  0.448700  0.949800  0.843390  1.0  0.0064
  C  C81  1  0.546100  0.940400  0.804840  1.0  -0.0802
  C  C82  1  0.521800  0.925600  0.720880  1.0  -0.0604
  C  C83  1  0.399800  0.920900  0.674620  1.0  0.1234
  C  C84  1  0.303300  0.928200  0.714000  1.0  -0.0607
  C  C85  1  0.376100  0.909300  0.583290  1.0  -0.2834
  C  C86  1  0.346400  0.002800  0.534930  1.0  0.1203
  C  C87  1  0.396500  0.091700  0.564120  1.0  -0.0978
  C  C88  1  0.367500  0.175900  0.517400  1.0  -0.1425
  C  C89  1  0.290000  0.169500  0.439790  1.0  -0.0158
  C  C90  1  0.241200  0.080900  0.409460  1.0  -0.138
  C  C91  1  0.268700  0.998300  0.456920  1.0  -0.1088
  C  C92  1  0.220700  0.953200  0.840190  1.0  0.7405
  C  C93  1  0.678800  0.947300  0.852840  1.0  0.7337
  C  C94  1  0.416100  0.274700  0.546700  1.0  0.7217
  C  C95  1  0.161300  0.075100  0.324360  1.0  0.6469
  C  C96  1  0.173600  0.442000  0.701620  1.0  -0.1312
  C  C97  1  0.051300  0.449800  0.656610  1.0  0.0066
  C  C98  1  0.953900  0.440400  0.695160  1.0  -0.0804
  C  C99  1  0.978200  0.425600  0.779120  1.0  -0.0602
  C  C100  1  0.100200  0.420900  0.825380  1.0  0.1233
  C  C101  1  0.196700  0.428200  0.786000  1.0  -0.06
  C  C102  1  0.123900  0.409300  0.916710  1.0  -0.2841
  C  C103  1  0.153600  0.502800  0.965070  1.0  0.1203
  C  C104  1  0.103500  0.591700  0.935880  1.0  -0.0971
  C  C105  1  0.132500  0.675900  0.982600  1.0  -0.1418
  C  C106  1  0.210000  0.669500  0.060210  1.0  -0.0182
  C  C107  1  0.258800  0.580900  0.090540  1.0  -0.1379
  C  C108  1  0.231300  0.498300  0.043080  1.0  -0.1085
  C  C109  1  0.279300  0.453200  0.659810  1.0  0.7395
  C  C110  1  0.821200  0.447300  0.647160  1.0  0.7339
  C  C111  1  0.083900  0.774700  0.953300  1.0  0.7211
  C  C112  1  0.338700  0.575100  0.175640  1.0  0.6471
  O  O113  1  0.883250  0.078700  0.197620  1.0  -0.6031
  O  O114  1  0.755100  0.005170  0.091590  1.0  -0.5983
  O  O115  1  0.300550  0.994280  0.087520  1.0  -0.5739
  O  O116  1  0.243510  0.105050  0.170390  1.0  -0.586
  O  O117  1  0.491450  0.719390  0.392590  1.0  -0.5961
  O  O118  1  0.638400  0.655600  0.492860  1.0  -0.5979
  O  O119  1  0.884520  0.845980  0.709650  1.0  -0.5436
  O  O120  1  0.856200  0.003840  0.712960  1.0  -0.589
  O  O121  1  0.030720  0.992780  0.082460  1.0  -0.999
  O  O122  1  0.616750  0.578700  0.302380  1.0  -0.602
  O  O123  1  0.744900  0.505170  0.408410  1.0  -0.5968
  O  O124  1  0.199450  0.494280  0.412480  1.0  -0.5736
  O  O125  1  0.256490  0.605050  0.329610  1.0  -0.5859
  O  O126  1  0.008550  0.219390  0.107410  1.0  -0.597
  O  O127  1  0.861600  0.155600  0.007140  1.0  -0.5967
  O  O128  1  0.615480  0.345980  0.790350  1.0  -0.5444
  O  O129  1  0.643800  0.503840  0.787040  1.0  -0.59
  O  O130  1  0.469280  0.492780  0.417540  1.0  -0.999
  O  O131  1  0.116750  0.921300  0.802380  1.0  -0.6021
  O  O132  1  0.244900  0.994830  0.908410  1.0  -0.5982
  O  O133  1  0.699450  0.005720  0.912480  1.0  -0.573
  O  O134  1  0.756490  0.894950  0.829610  1.0  -0.5862
  O  O135  1  0.508550  0.280610  0.607410  1.0  -0.5957
  O  O136  1  0.361600  0.344400  0.507140  1.0  -0.597
  O  O137  1  0.115480  0.154020  0.290350  1.0  -0.5446
  O  O138  1  0.143800  0.996160  0.287040  1.0  -0.5883
  O  O139  1  0.969280  0.007220  0.917540  1.0  -0.9976
  O  O140  1  0.383250  0.421300  0.697620  1.0  -0.6031
  O  O141  1  0.255100  0.494830  0.591590  1.0  -0.6001
  O  O142  1  0.800550  0.505720  0.587520  1.0  -0.5736
  O  O143  1  0.743510  0.394950  0.670390  1.0  -0.5868
  O  O144  1  0.991450  0.780610  0.892590  1.0  -0.5965
  O  O145  1  0.138400  0.844400  0.992860  1.0  -0.5985
  O  O146  1  0.384520  0.654020  0.209650  1.0  -0.5443
  O  O147  1  0.356200  0.496160  0.212960  1.0  -0.5876
  O  O148  1  0.530720  0.507220  0.582460  1.0  -0.9983
