# generated using pymatgen
data_CuH24(C4N3)4
_symmetry_space_group_name_H-M   'P 1'
_cell_length_a   13.14300000
_cell_length_b   17.51300000
_cell_length_c   25.34800000
_cell_angle_alpha   90.00000000
_cell_angle_beta   90.00000000
_cell_angle_gamma   90.00000000
_symmetry_Int_Tables_number   1
_chemical_formula_structural   CuH24(C4N3)4
_chemical_formula_sum   'Cu8 H192 C128 N96'
_cell_volume   5834.43430393
_cell_formula_units_Z   8
loop_
 _symmetry_equiv_pos_site_id
 _symmetry_equiv_pos_as_xyz
  1  'x, y, z'
loop_
 _atom_site_type_symbol
 _atom_site_label
 _atom_site_symmetry_multiplicity
 _atom_site_fract_x
 _atom_site_fract_y
 _atom_site_fract_z
 _atom_site_occupancy
 _atom_site_charge
  Cu  Cu1  1  0.625000  0.125000  0.125000  1.0  0.3232
  Cu  Cu2  1  0.625000  0.625000  0.625000  1.0  0.3232
  Cu  Cu3  1  0.125000  0.625000  0.125000  1.0  0.3232
  Cu  Cu4  1  0.125000  0.125000  0.625000  1.0  0.3232
  Cu  Cu5  1  0.375000  0.875000  0.875000  1.0  0.3231
  Cu  Cu6  1  0.375000  0.375000  0.375000  1.0  0.3231
  Cu  Cu7  1  0.875000  0.375000  0.875000  1.0  0.3231
  Cu  Cu8  1  0.875000  0.875000  0.375000  1.0  0.3231
  H  H9  1  0.921700  0.303700  0.241200  1.0  0.0731
  H  H10  1  0.984800  0.297800  0.294100  1.0  0.0672
  H  H11  1  0.912600  0.177900  0.311900  1.0  0.0945
  H  H12  1  0.826400  0.240700  0.305900  1.0  0.0888
  H  H13  1  0.816700  0.033500  0.172100  1.0  0.0525
  H  H14  1  0.711100  0.228400  0.219800  1.0  0.0753
  H  H15  1  0.921700  0.803700  0.741200  1.0  0.0731
  H  H16  1  0.984800  0.797800  0.794100  1.0  0.0672
  H  H17  1  0.912600  0.677900  0.811900  1.0  0.0945
  H  H18  1  0.826400  0.740700  0.805900  1.0  0.0888
  H  H19  1  0.816700  0.533500  0.672100  1.0  0.0525
  H  H20  1  0.711100  0.728400  0.719800  1.0  0.0753
  H  H21  1  0.421700  0.303700  0.741200  1.0  0.0731
  H  H22  1  0.484800  0.297800  0.794100  1.0  0.0672
  H  H23  1  0.412600  0.177900  0.811900  1.0  0.0945
  H  H24  1  0.326400  0.240700  0.805900  1.0  0.0888
  H  H25  1  0.316700  0.033500  0.672100  1.0  0.0525
  H  H26  1  0.211100  0.228400  0.719800  1.0  0.0753
  H  H27  1  0.421700  0.803700  0.241200  1.0  0.0731
  H  H28  1  0.484800  0.797800  0.294100  1.0  0.0672
  H  H29  1  0.412600  0.677900  0.311900  1.0  0.0945
  H  H30  1  0.326400  0.740700  0.305900  1.0  0.0888
  H  H31  1  0.316700  0.533500  0.172100  1.0  0.0525
  H  H32  1  0.211100  0.728400  0.219800  1.0  0.0753
  H  H33  1  0.828300  0.446300  0.241200  1.0  0.0716
  H  H34  1  0.765200  0.452200  0.294100  1.0  0.0672
  H  H35  1  0.837400  0.572100  0.311900  1.0  0.0937
  H  H36  1  0.923600  0.509300  0.305900  1.0  0.0872
  H  H37  1  0.933300  0.716500  0.172100  1.0  0.0532
  H  H38  1  0.038900  0.521600  0.219800  1.0  0.0747
  H  H39  1  0.828300  0.946300  0.741200  1.0  0.0716
  H  H40  1  0.765200  0.952200  0.794100  1.0  0.0672
  H  H41  1  0.837400  0.072100  0.811900  1.0  0.0937
  H  H42  1  0.923600  0.009300  0.805900  1.0  0.0872
  H  H43  1  0.933300  0.216500  0.672100  1.0  0.0532
  H  H44  1  0.038900  0.021600  0.719800  1.0  0.0747
  H  H45  1  0.328300  0.446300  0.741200  1.0  0.0716
  H  H46  1  0.265200  0.452200  0.794100  1.0  0.0672
  H  H47  1  0.337400  0.572100  0.811900  1.0  0.0937
  H  H48  1  0.423600  0.509300  0.805900  1.0  0.0872
  H  H49  1  0.433300  0.716500  0.672100  1.0  0.0532
  H  H50  1  0.538900  0.521600  0.719800  1.0  0.0747
  H  H51  1  0.328300  0.946300  0.241200  1.0  0.0716
  H  H52  1  0.265200  0.952200  0.294100  1.0  0.0672
  H  H53  1  0.337400  0.072100  0.311900  1.0  0.0937
  H  H54  1  0.423600  0.009300  0.305900  1.0  0.0872
  H  H55  1  0.433300  0.216500  0.172100  1.0  0.0532
  H  H56  1  0.538900  0.021600  0.219800  1.0  0.0747
  H  H57  1  0.828300  0.303700  0.508800  1.0  0.0729
  H  H58  1  0.765200  0.297800  0.455900  1.0  0.0677
  H  H59  1  0.837400  0.177900  0.438100  1.0  0.0931
  H  H60  1  0.923600  0.240700  0.444100  1.0  0.0871
  H  H61  1  0.933300  0.033500  0.577900  1.0  0.0524
  H  H62  1  0.038900  0.228400  0.530200  1.0  0.0751
  H  H63  1  0.828300  0.803700  0.008800  1.0  0.0729
  H  H64  1  0.765200  0.797800  0.955900  1.0  0.0677
  H  H65  1  0.837400  0.677900  0.938100  1.0  0.0931
  H  H66  1  0.923600  0.740700  0.944100  1.0  0.0871
  H  H67  1  0.933300  0.533500  0.077900  1.0  0.0524
  H  H68  1  0.038900  0.728400  0.030200  1.0  0.0751
  H  H69  1  0.328300  0.303700  0.008800  1.0  0.0729
  H  H70  1  0.265200  0.297800  0.955900  1.0  0.0677
  H  H71  1  0.337400  0.177900  0.938100  1.0  0.0931
  H  H72  1  0.423600  0.240700  0.944100  1.0  0.0871
  H  H73  1  0.433300  0.033500  0.077900  1.0  0.0524
  H  H74  1  0.538900  0.228400  0.030200  1.0  0.0751
  H  H75  1  0.328300  0.803700  0.508800  1.0  0.0729
  H  H76  1  0.265200  0.797800  0.455900  1.0  0.0677
  H  H77  1  0.337400  0.677900  0.438100  1.0  0.0931
  H  H78  1  0.423600  0.740700  0.444100  1.0  0.0871
  H  H79  1  0.433300  0.533500  0.577900  1.0  0.0524
  H  H80  1  0.538900  0.728400  0.530200  1.0  0.0751
  H  H81  1  0.921700  0.446300  0.508800  1.0  0.0734
  H  H82  1  0.984800  0.452200  0.455900  1.0  0.0674
  H  H83  1  0.912600  0.572100  0.438100  1.0  0.0931
  H  H84  1  0.826400  0.509300  0.444100  1.0  0.0888
  H  H85  1  0.816700  0.716500  0.577900  1.0  0.052
  H  H86  1  0.711100  0.521600  0.530200  1.0  0.0745
  H  H87  1  0.921700  0.946300  0.008800  1.0  0.0734
  H  H88  1  0.984800  0.952200  0.955900  1.0  0.0674
  H  H89  1  0.912600  0.072100  0.938100  1.0  0.0931
  H  H90  1  0.826400  0.009300  0.944100  1.0  0.0888
  H  H91  1  0.816700  0.216500  0.077900  1.0  0.052
  H  H92  1  0.711100  0.021600  0.030200  1.0  0.0745
  H  H93  1  0.421700  0.446300  0.008800  1.0  0.0734
  H  H94  1  0.484800  0.452200  0.955900  1.0  0.0674
  H  H95  1  0.412600  0.572100  0.938100  1.0  0.0931
  H  H96  1  0.326400  0.509300  0.944100  1.0  0.0888
  H  H97  1  0.316700  0.716500  0.077900  1.0  0.052
  H  H98  1  0.211100  0.521600  0.030200  1.0  0.0745
  H  H99  1  0.421700  0.946300  0.508800  1.0  0.0734
  H  H100  1  0.484800  0.952200  0.455900  1.0  0.0674
  H  H101  1  0.412600  0.072100  0.438100  1.0  0.0931
  H  H102  1  0.326400  0.009300  0.444100  1.0  0.0888
  H  H103  1  0.316700  0.216500  0.577900  1.0  0.052
  H  H104  1  0.211100  0.021600  0.530200  1.0  0.0745
  H  H105  1  0.078300  0.696300  0.758800  1.0  0.0732
  H  H106  1  0.015200  0.702200  0.705900  1.0  0.0674
  H  H107  1  0.087400  0.822100  0.688100  1.0  0.094
  H  H108  1  0.173600  0.759300  0.694100  1.0  0.088
  H  H109  1  0.183300  0.966500  0.827900  1.0  0.0522
  H  H110  1  0.288900  0.771600  0.780200  1.0  0.0747
  H  H111  1  0.078300  0.196300  0.258800  1.0  0.0732
  H  H112  1  0.015200  0.202200  0.205900  1.0  0.0674
  H  H113  1  0.087400  0.322100  0.188100  1.0  0.094
  H  H114  1  0.173600  0.259300  0.194100  1.0  0.0881
  H  H115  1  0.183300  0.466500  0.327900  1.0  0.0522
  H  H116  1  0.288900  0.271600  0.280200  1.0  0.0748
  H  H117  1  0.578300  0.696300  0.258800  1.0  0.0732
  H  H118  1  0.515200  0.702200  0.205900  1.0  0.0674
  H  H119  1  0.587400  0.822100  0.188100  1.0  0.094
  H  H120  1  0.673600  0.759300  0.194100  1.0  0.088
  H  H121  1  0.683300  0.966500  0.327900  1.0  0.0522
  H  H122  1  0.788900  0.771600  0.280200  1.0  0.0747
  H  H123  1  0.578300  0.196300  0.758800  1.0  0.0732
  H  H124  1  0.515200  0.202200  0.705900  1.0  0.0674
  H  H125  1  0.587400  0.322100  0.688100  1.0  0.094
  H  H126  1  0.673600  0.259300  0.694100  1.0  0.0881
  H  H127  1  0.683300  0.466500  0.827900  1.0  0.0522
  H  H128  1  0.788900  0.271600  0.780200  1.0  0.0748
  H  H129  1  0.171700  0.553700  0.758800  1.0  0.0732
  H  H130  1  0.234800  0.547800  0.705900  1.0  0.0679
  H  H131  1  0.162600  0.427900  0.688100  1.0  0.0928
  H  H132  1  0.076400  0.490700  0.694100  1.0  0.0882
  H  H133  1  0.066700  0.283500  0.827900  1.0  0.0518
  H  H134  1  0.961100  0.478400  0.780200  1.0  0.0751
  H  H135  1  0.171700  0.053700  0.258800  1.0  0.0732
  H  H136  1  0.234800  0.047800  0.205900  1.0  0.0679
  H  H137  1  0.162600  0.927900  0.188100  1.0  0.0928
  H  H138  1  0.076400  0.990700  0.194100  1.0  0.0882
  H  H139  1  0.066700  0.783500  0.327900  1.0  0.0518
  H  H140  1  0.961100  0.978400  0.280200  1.0  0.0751
  H  H141  1  0.671700  0.553700  0.258800  1.0  0.0732
  H  H142  1  0.734800  0.547800  0.205900  1.0  0.0679
  H  H143  1  0.662600  0.427900  0.188100  1.0  0.0928
  H  H144  1  0.576400  0.490700  0.194100  1.0  0.0882
  H  H145  1  0.566700  0.283500  0.327900  1.0  0.0518
  H  H146  1  0.461100  0.478400  0.280200  1.0  0.0751
  H  H147  1  0.671700  0.053700  0.758800  1.0  0.0732
  H  H148  1  0.734800  0.047800  0.705900  1.0  0.0679
  H  H149  1  0.662600  0.927900  0.688100  1.0  0.0928
  H  H150  1  0.576400  0.990700  0.694100  1.0  0.0882
  H  H151  1  0.566700  0.783500  0.827900  1.0  0.0518
  H  H152  1  0.461100  0.978400  0.780200  1.0  0.0751
  H  H153  1  0.171700  0.696300  0.491200  1.0  0.0719
  H  H154  1  0.234800  0.702200  0.544100  1.0  0.0674
  H  H155  1  0.162600  0.822100  0.561900  1.0  0.0931
  H  H156  1  0.076400  0.759300  0.555900  1.0  0.0891
  H  H157  1  0.066700  0.966500  0.422100  1.0  0.053
  H  H158  1  0.961100  0.771600  0.469800  1.0  0.0743
  H  H159  1  0.171700  0.196300  0.991200  1.0  0.0719
  H  H160  1  0.234800  0.202200  0.044100  1.0  0.0674
  H  H161  1  0.162600  0.322100  0.061900  1.0  0.0931
  H  H162  1  0.076400  0.259300  0.055900  1.0  0.0891
  H  H163  1  0.066700  0.466500  0.922100  1.0  0.053
  H  H164  1  0.961100  0.271600  0.969800  1.0  0.0743
  H  H165  1  0.671700  0.696300  0.991200  1.0  0.0719
  H  H166  1  0.734800  0.702200  0.044100  1.0  0.0674
  H  H167  1  0.662600  0.822100  0.061900  1.0  0.0931
  H  H168  1  0.576400  0.759300  0.055900  1.0  0.0891
  H  H169  1  0.566700  0.966500  0.922100  1.0  0.053
  H  H170  1  0.461100  0.771600  0.969800  1.0  0.0743
  H  H171  1  0.671700  0.196300  0.491200  1.0  0.0719
  H  H172  1  0.734800  0.202200  0.544100  1.0  0.0674
  H  H173  1  0.662600  0.322100  0.561900  1.0  0.0931
  H  H174  1  0.576400  0.259300  0.555900  1.0  0.0891
  H  H175  1  0.566700  0.466500  0.422100  1.0  0.053
  H  H176  1  0.461100  0.271600  0.469800  1.0  0.0743
  H  H177  1  0.078300  0.553700  0.491200  1.0  0.0724
  H  H178  1  0.015200  0.547800  0.544100  1.0  0.0666
  H  H179  1  0.087400  0.427900  0.561900  1.0  0.0944
  H  H180  1  0.173600  0.490700  0.555900  1.0  0.0865
  H  H181  1  0.183300  0.283500  0.422100  1.0  0.0529
  H  H182  1  0.288900  0.478400  0.469800  1.0  0.0754
  H  H183  1  0.078300  0.053700  0.991200  1.0  0.0724
  H  H184  1  0.015200  0.047800  0.044100  1.0  0.0666
  H  H185  1  0.087400  0.927900  0.061900  1.0  0.0944
  H  H186  1  0.173600  0.990700  0.055900  1.0  0.0865
  H  H187  1  0.183300  0.783500  0.922100  1.0  0.0529
  H  H188  1  0.288900  0.978400  0.969800  1.0  0.0754
  H  H189  1  0.578300  0.553700  0.991200  1.0  0.0724
  H  H190  1  0.515200  0.547800  0.044100  1.0  0.0666
  H  H191  1  0.587400  0.427900  0.061900  1.0  0.0944
  H  H192  1  0.673600  0.490700  0.055900  1.0  0.0865
  H  H193  1  0.683300  0.283500  0.922100  1.0  0.0529
  H  H194  1  0.788900  0.478400  0.969800  1.0  0.0754
  H  H195  1  0.578300  0.053700  0.491200  1.0  0.0724
  H  H196  1  0.515200  0.047800  0.544100  1.0  0.0666
  H  H197  1  0.587400  0.927900  0.561900  1.0  0.0944
  H  H198  1  0.673600  0.990700  0.555900  1.0  0.0865
  H  H199  1  0.683300  0.783500  0.422100  1.0  0.0529
  H  H200  1  0.788900  0.978400  0.469800  1.0  0.0754
  C  C201  1  0.956700  0.268000  0.264800  1.0  -0.1408
  C  C202  1  0.879000  0.212200  0.286750  1.0  -0.0554
  C  C203  1  0.808100  0.079000  0.191300  1.0  0.2286
  C  C204  1  0.750300  0.183900  0.216150  1.0  0.1052
  C  C205  1  0.956700  0.768000  0.764800  1.0  -0.1407
  C  C206  1  0.879000  0.712200  0.786750  1.0  -0.0559
  C  C207  1  0.808100  0.579000  0.691300  1.0  0.2286
  C  C208  1  0.750300  0.683900  0.716150  1.0  0.1052
  C  C209  1  0.456700  0.268000  0.764800  1.0  -0.1408
  C  C210  1  0.379000  0.212200  0.786750  1.0  -0.0554
  C  C211  1  0.308100  0.079000  0.691300  1.0  0.2286
  C  C212  1  0.250300  0.183900  0.716150  1.0  0.1052
  C  C213  1  0.456700  0.768000  0.264800  1.0  -0.1407
  C  C214  1  0.379000  0.712200  0.286750  1.0  -0.0559
  C  C215  1  0.308100  0.579000  0.191300  1.0  0.2286
  C  C216  1  0.250300  0.683900  0.216150  1.0  0.1052
  C  C217  1  0.793300  0.482000  0.264800  1.0  -0.1421
  C  C218  1  0.871000  0.537800  0.286750  1.0  -0.0552
  C  C219  1  0.941900  0.671000  0.191300  1.0  0.2293
  C  C220  1  0.999700  0.566100  0.216150  1.0  0.1051
  C  C221  1  0.793300  0.982000  0.764800  1.0  -0.1421
  C  C222  1  0.871000  0.037800  0.786750  1.0  -0.0552
  C  C223  1  0.941900  0.171000  0.691300  1.0  0.2293
  C  C224  1  0.999700  0.066100  0.716150  1.0  0.1051
  C  C225  1  0.293300  0.482000  0.764800  1.0  -0.1421
  C  C226  1  0.371000  0.537800  0.786750  1.0  -0.0552
  C  C227  1  0.441900  0.671000  0.691300  1.0  0.2293
  C  C228  1  0.499700  0.566100  0.716150  1.0  0.1051
  C  C229  1  0.293300  0.982000  0.264800  1.0  -0.1421
  C  C230  1  0.371000  0.037800  0.286750  1.0  -0.0552
  C  C231  1  0.441900  0.171000  0.191300  1.0  0.2293
  C  C232  1  0.499700  0.066100  0.216150  1.0  0.1051
  C  C233  1  0.793300  0.268000  0.485200  1.0  -0.1414
  C  C234  1  0.871000  0.212200  0.463250  1.0  -0.0533
  C  C235  1  0.941900  0.079000  0.558700  1.0  0.2326
  C  C236  1  0.999700  0.183900  0.533850  1.0  0.1045
  C  C237  1  0.793300  0.768000  0.985200  1.0  -0.1414
  C  C238  1  0.871000  0.712200  0.963250  1.0  -0.0538
  C  C239  1  0.941900  0.579000  0.058700  1.0  0.2326
  C  C240  1  0.999700  0.683900  0.033850  1.0  0.1045
  C  C241  1  0.293300  0.268000  0.985200  1.0  -0.1414
  C  C242  1  0.371000  0.212200  0.963250  1.0  -0.0533
  C  C243  1  0.441900  0.079000  0.058700  1.0  0.2326
  C  C244  1  0.499700  0.183900  0.033850  1.0  0.1045
  C  C245  1  0.293300  0.768000  0.485200  1.0  -0.1414
  C  C246  1  0.371000  0.712200  0.463250  1.0  -0.0538
  C  C247  1  0.441900  0.579000  0.558700  1.0  0.2326
  C  C248  1  0.499700  0.683900  0.533850  1.0  0.1045
  C  C249  1  0.956700  0.482000  0.485200  1.0  -0.1404
  C  C250  1  0.879000  0.537800  0.463250  1.0  -0.0525
  C  C251  1  0.808100  0.671000  0.558700  1.0  0.232
  C  C252  1  0.750300  0.566100  0.533850  1.0  0.1059
  C  C253  1  0.956700  0.982000  0.985200  1.0  -0.1404
  C  C254  1  0.879000  0.037800  0.963250  1.0  -0.0525
  C  C255  1  0.808100  0.171000  0.058700  1.0  0.232
  C  C256  1  0.750300  0.066100  0.033850  1.0  0.1059
  C  C257  1  0.456700  0.482000  0.985200  1.0  -0.1404
  C  C258  1  0.379000  0.537800  0.963250  1.0  -0.0525
  C  C259  1  0.308100  0.671000  0.058700  1.0  0.232
  C  C260  1  0.250300  0.566100  0.033850  1.0  0.1059
  C  C261  1  0.456700  0.982000  0.485200  1.0  -0.1404
  C  C262  1  0.379000  0.037800  0.463250  1.0  -0.0525
  C  C263  1  0.308100  0.171000  0.558700  1.0  0.232
  C  C264  1  0.250300  0.066100  0.533850  1.0  0.1059
  C  C265  1  0.043300  0.732000  0.735200  1.0  -0.1412
  C  C266  1  0.121000  0.787800  0.713250  1.0  -0.0532
  C  C267  1  0.191900  0.921000  0.808700  1.0  0.2289
  C  C268  1  0.249700  0.816100  0.783850  1.0  0.1052
  C  C269  1  0.043300  0.232000  0.235200  1.0  -0.1412
  C  C270  1  0.121000  0.287800  0.213250  1.0  -0.0537
  C  C271  1  0.191900  0.421000  0.308700  1.0  0.2289
  C  C272  1  0.249700  0.316100  0.283850  1.0  0.1052
  C  C273  1  0.543300  0.732000  0.235200  1.0  -0.1412
  C  C274  1  0.621000  0.787800  0.213250  1.0  -0.0532
  C  C275  1  0.691900  0.921000  0.308700  1.0  0.2289
  C  C276  1  0.749700  0.816100  0.283850  1.0  0.1052
  C  C277  1  0.543300  0.232000  0.735200  1.0  -0.1412
  C  C278  1  0.621000  0.287800  0.713250  1.0  -0.0537
  C  C279  1  0.691900  0.421000  0.808700  1.0  0.2289
  C  C280  1  0.749700  0.316100  0.783850  1.0  0.1052
  C  C281  1  0.206700  0.518000  0.735200  1.0  -0.1392
  C  C282  1  0.129000  0.462200  0.713250  1.0  -0.0528
  C  C283  1  0.058100  0.329000  0.808700  1.0  0.2296
  C  C284  1  0.000300  0.433900  0.783850  1.0  0.1051
  C  C285  1  0.206700  0.018000  0.235200  1.0  -0.1392
  C  C286  1  0.129000  0.962200  0.213250  1.0  -0.0528
  C  C287  1  0.058100  0.829000  0.308700  1.0  0.2296
  C  C288  1  0.000300  0.933900  0.283850  1.0  0.1051
  C  C289  1  0.706700  0.518000  0.235200  1.0  -0.1392
  C  C290  1  0.629000  0.462200  0.213250  1.0  -0.0528
  C  C291  1  0.558100  0.329000  0.308700  1.0  0.2296
  C  C292  1  0.500300  0.433900  0.283850  1.0  0.1051
  C  C293  1  0.706700  0.018000  0.735200  1.0  -0.1392
  C  C294  1  0.629000  0.962200  0.713250  1.0  -0.0528
  C  C295  1  0.558100  0.829000  0.808700  1.0  0.2296
  C  C296  1  0.500300  0.933900  0.783850  1.0  0.1051
  C  C297  1  0.206700  0.732000  0.514800  1.0  -0.1405
  C  C298  1  0.129000  0.787800  0.536750  1.0  -0.0558
  C  C299  1  0.058100  0.921000  0.441300  1.0  0.2321
  C  C300  1  0.000300  0.816100  0.466150  1.0  0.1059
  C  C301  1  0.206700  0.232000  0.014800  1.0  -0.1405
  C  C302  1  0.129000  0.287800  0.036750  1.0  -0.0563
  C  C303  1  0.058100  0.421000  0.941300  1.0  0.2321
  C  C304  1  0.000300  0.316100  0.966150  1.0  0.1059
  C  C305  1  0.706700  0.732000  0.014800  1.0  -0.1405
  C  C306  1  0.629000  0.787800  0.036750  1.0  -0.0558
  C  C307  1  0.558100  0.921000  0.941300  1.0  0.2321
  C  C308  1  0.500300  0.816100  0.966150  1.0  0.1059
  C  C309  1  0.706700  0.232000  0.514800  1.0  -0.1405
  C  C310  1  0.629000  0.287800  0.536750  1.0  -0.0563
  C  C311  1  0.558100  0.421000  0.441300  1.0  0.2321
  C  C312  1  0.500300  0.316100  0.466150  1.0  0.1059
  C  C313  1  0.043300  0.518000  0.514800  1.0  -0.1418
  C  C314  1  0.121000  0.462200  0.536750  1.0  -0.055
  C  C315  1  0.191900  0.329000  0.441300  1.0  0.2319
  C  C316  1  0.249700  0.433900  0.466150  1.0  0.1046
  C  C317  1  0.043300  0.018000  0.014800  1.0  -0.1418
  C  C318  1  0.121000  0.962200  0.036750  1.0  -0.055
  C  C319  1  0.191900  0.829000  0.941300  1.0  0.2319
  C  C320  1  0.249700  0.933900  0.966150  1.0  0.1046
  C  C321  1  0.543300  0.518000  0.014800  1.0  -0.1418
  C  C322  1  0.621000  0.462200  0.036750  1.0  -0.055
  C  C323  1  0.691900  0.329000  0.941300  1.0  0.2319
  C  C324  1  0.749700  0.433900  0.966150  1.0  0.1046
  C  C325  1  0.543300  0.018000  0.514800  1.0  -0.1418
  C  C326  1  0.621000  0.962200  0.536750  1.0  -0.055
  C  C327  1  0.691900  0.829000  0.441300  1.0  0.2319
  C  C328  1  0.749700  0.933900  0.466150  1.0  0.1046
  N  N329  1  0.830800  0.166680  0.245230  1.0  0.1479
  N  N330  1  0.868600  0.098900  0.230300  1.0  -0.3983
  N  N331  1  0.733100  0.129080  0.181100  1.0  -0.4205
  N  N332  1  0.830800  0.666667  0.745230  1.0  0.1475
  N  N333  1  0.868600  0.598900  0.730300  1.0  -0.3983
  N  N334  1  0.733100  0.629080  0.681100  1.0  -0.4205
  N  N335  1  0.330800  0.166680  0.745230  1.0  0.1479
  N  N336  1  0.368600  0.098900  0.730300  1.0  -0.3983
  N  N337  1  0.233100  0.129080  0.681100  1.0  -0.4205
  N  N338  1  0.330800  0.666667  0.245230  1.0  0.1475
  N  N339  1  0.368600  0.598900  0.230300  1.0  -0.3983
  N  N340  1  0.233100  0.629080  0.181100  1.0  -0.4205
  N  N341  1  0.919200  0.583320  0.245230  1.0  0.1467
  N  N342  1  0.881400  0.651100  0.230300  1.0  -0.3998
  N  N343  1  0.016900  0.620920  0.181100  1.0  -0.4178
  N  N344  1  0.919200  0.083320  0.745230  1.0  0.1467
  N  N345  1  0.881400  0.151100  0.730300  1.0  -0.3998
  N  N346  1  0.016900  0.120920  0.681100  1.0  -0.4178
  N  N347  1  0.419200  0.583320  0.745230  1.0  0.1467
  N  N348  1  0.381400  0.651100  0.730300  1.0  -0.3998
  N  N349  1  0.516900  0.620920  0.681100  1.0  -0.4178
  N  N350  1  0.419200  0.083320  0.245230  1.0  0.1467
  N  N351  1  0.381400  0.151100  0.230300  1.0  -0.3998
  N  N352  1  0.516900  0.120920  0.181100  1.0  -0.4178
  N  N353  1  0.919200  0.166680  0.504770  1.0  0.1478
  N  N354  1  0.881400  0.098900  0.519700  1.0  -0.3996
  N  N355  1  0.016900  0.129080  0.568900  1.0  -0.4169
  N  N356  1  0.919200  0.666667  0.004770  1.0  0.1475
  N  N357  1  0.881400  0.598900  0.019700  1.0  -0.3996
  N  N358  1  0.016900  0.629080  0.068900  1.0  -0.4169
  N  N359  1  0.419200  0.166680  0.004770  1.0  0.1478
  N  N360  1  0.381400  0.098900  0.019700  1.0  -0.3996
  N  N361  1  0.516900  0.129080  0.068900  1.0  -0.4169
  N  N362  1  0.419200  0.666667  0.504770  1.0  0.1475
  N  N363  1  0.381400  0.598900  0.519700  1.0  -0.3996
  N  N364  1  0.516900  0.629080  0.568900  1.0  -0.4169
  N  N365  1  0.830800  0.583320  0.504770  1.0  0.1482
  N  N366  1  0.868600  0.651100  0.519700  1.0  -0.3999
  N  N367  1  0.733100  0.620920  0.568900  1.0  -0.4192
  N  N368  1  0.830800  0.083320  0.004770  1.0  0.1482
  N  N369  1  0.868600  0.151100  0.019700  1.0  -0.3999
  N  N370  1  0.733100  0.120920  0.068900  1.0  -0.4192
  N  N371  1  0.330800  0.583320  0.004770  1.0  0.1482
  N  N372  1  0.368600  0.651100  0.019700  1.0  -0.3999
  N  N373  1  0.233100  0.620920  0.068900  1.0  -0.4192
  N  N374  1  0.330800  0.083320  0.504770  1.0  0.1482
  N  N375  1  0.368600  0.151100  0.519700  1.0  -0.3999
  N  N376  1  0.233100  0.120920  0.568900  1.0  -0.4192
  N  N377  1  0.169200  0.833320  0.754770  1.0  0.1476
  N  N378  1  0.131400  0.901100  0.769700  1.0  -0.3995
  N  N379  1  0.266900  0.870920  0.818900  1.0  -0.4166
  N  N380  1  0.169200  0.333333  0.254770  1.0  0.1474
  N  N381  1  0.131400  0.401100  0.269700  1.0  -0.3995
  N  N382  1  0.266900  0.370920  0.318900  1.0  -0.4166
  N  N383  1  0.669200  0.833320  0.254770  1.0  0.1476
  N  N384  1  0.631400  0.901100  0.269700  1.0  -0.3995
  N  N385  1  0.766900  0.870920  0.318900  1.0  -0.4166
  N  N386  1  0.669200  0.333333  0.754770  1.0  0.1474
  N  N387  1  0.631400  0.401100  0.769700  1.0  -0.3995
  N  N388  1  0.766900  0.370920  0.818900  1.0  -0.4166
  N  N389  1  0.080800  0.416680  0.754770  1.0  0.1481
  N  N390  1  0.118600  0.348900  0.769700  1.0  -0.3983
  N  N391  1  0.983100  0.379080  0.818900  1.0  -0.4193
  N  N392  1  0.080800  0.916680  0.254770  1.0  0.1481
  N  N393  1  0.118600  0.848900  0.269700  1.0  -0.3983
  N  N394  1  0.983100  0.879080  0.318900  1.0  -0.4193
  N  N395  1  0.580800  0.416680  0.254770  1.0  0.1481
  N  N396  1  0.618600  0.348900  0.269700  1.0  -0.3983
  N  N397  1  0.483100  0.379080  0.318900  1.0  -0.4193
  N  N398  1  0.580800  0.916680  0.754770  1.0  0.1481
  N  N399  1  0.618600  0.848900  0.769700  1.0  -0.3983
  N  N400  1  0.483100  0.879080  0.818900  1.0  -0.4193
  N  N401  1  0.080800  0.833320  0.495230  1.0  0.1478
  N  N402  1  0.118600  0.901100  0.480300  1.0  -0.4002
  N  N403  1  0.983100  0.870920  0.431100  1.0  -0.42
  N  N404  1  0.080800  0.333333  0.995230  1.0  0.1475
  N  N405  1  0.118600  0.401100  0.980300  1.0  -0.4002
  N  N406  1  0.983100  0.370920  0.931100  1.0  -0.42
  N  N407  1  0.580800  0.833320  0.995230  1.0  0.1478
  N  N408  1  0.618600  0.901100  0.980300  1.0  -0.4002
  N  N409  1  0.483100  0.870920  0.931100  1.0  -0.42
  N  N410  1  0.580800  0.333333  0.495230  1.0  0.1475
  N  N411  1  0.618600  0.401100  0.480300  1.0  -0.4002
  N  N412  1  0.483100  0.370920  0.431100  1.0  -0.42
  N  N413  1  0.169200  0.416680  0.495230  1.0  0.1472
  N  N414  1  0.131400  0.348900  0.480300  1.0  -0.3996
  N  N415  1  0.266900  0.379080  0.431100  1.0  -0.4183
  N  N416  1  0.169200  0.916680  0.995230  1.0  0.1472
  N  N417  1  0.131400  0.848900  0.980300  1.0  -0.3996
  N  N418  1  0.266900  0.879080  0.931100  1.0  -0.4183
  N  N419  1  0.669200  0.416680  0.995230  1.0  0.1472
  N  N420  1  0.631400  0.348900  0.980300  1.0  -0.3996
  N  N421  1  0.766900  0.379080  0.931100  1.0  -0.4183
  N  N422  1  0.669200  0.916680  0.495230  1.0  0.1472
  N  N423  1  0.631400  0.848900  0.480300  1.0  -0.3996
  N  N424  1  0.766900  0.879080  0.431100  1.0  -0.4183
