# generated using pymatgen
data_CuH24(C4N3)4
_symmetry_space_group_name_H-M   'P 1'
_cell_length_a   13.10730000
_cell_length_b   17.59350000
_cell_length_c   25.47960000
_cell_angle_alpha   90.00000000
_cell_angle_beta   90.00000000
_cell_angle_gamma   90.00000000
_symmetry_Int_Tables_number   1
_chemical_formula_structural   CuH24(C4N3)4
_chemical_formula_sum   'Cu8 H192 C128 N96'
_cell_volume   5875.67939806
_cell_formula_units_Z   8
loop_
 _symmetry_equiv_pos_site_id
 _symmetry_equiv_pos_as_xyz
  1  'x, y, z'
loop_
 _atom_site_type_symbol
 _atom_site_label
 _atom_site_symmetry_multiplicity
 _atom_site_fract_x
 _atom_site_fract_y
 _atom_site_fract_z
 _atom_site_occupancy
 _atom_site_charge
  Cu  Cu1  1  0.625000  0.625000  0.625000  1.0  0.3253
  Cu  Cu2  1  0.125000  0.125000  0.625000  1.0  0.3254
  Cu  Cu3  1  0.125000  0.625000  0.125000  1.0  0.3253
  Cu  Cu4  1  0.625000  0.125000  0.125000  1.0  0.3254
  Cu  Cu5  1  0.375000  0.375000  0.375000  1.0  0.3254
  Cu  Cu6  1  0.875000  0.875000  0.375000  1.0  0.3254
  Cu  Cu7  1  0.875000  0.375000  0.875000  1.0  0.3254
  Cu  Cu8  1  0.375000  0.875000  0.875000  1.0  0.3254
  H  H9  1  0.817200  0.534700  0.672400  1.0  0.0539
  H  H10  1  0.710800  0.727100  0.719500  1.0  0.075
  H  H11  1  0.912200  0.677600  0.810500  1.0  0.0853
  H  H12  1  0.826800  0.739500  0.804800  1.0  0.0805
  H  H13  1  0.922100  0.802500  0.741700  1.0  0.0718
  H  H14  1  0.984200  0.795900  0.793800  1.0  0.0658
  H  H15  1  0.817200  0.034700  0.172400  1.0  0.0539
  H  H16  1  0.710800  0.227100  0.219500  1.0  0.0748
  H  H17  1  0.912200  0.177600  0.310500  1.0  0.0853
  H  H18  1  0.826800  0.239500  0.304800  1.0  0.0805
  H  H19  1  0.922100  0.302500  0.241700  1.0  0.0718
  H  H20  1  0.984200  0.295900  0.293800  1.0  0.0658
  H  H21  1  0.317200  0.534700  0.172400  1.0  0.0539
  H  H22  1  0.210800  0.727100  0.219500  1.0  0.075
  H  H23  1  0.412200  0.677600  0.310500  1.0  0.0853
  H  H24  1  0.326800  0.739500  0.304800  1.0  0.0805
  H  H25  1  0.422100  0.802500  0.241700  1.0  0.0718
  H  H26  1  0.484200  0.795900  0.293800  1.0  0.0658
  H  H27  1  0.317200  0.034700  0.672400  1.0  0.0539
  H  H28  1  0.210800  0.227100  0.719500  1.0  0.0748
  H  H29  1  0.412200  0.177600  0.810500  1.0  0.0853
  H  H30  1  0.326800  0.239500  0.804800  1.0  0.0805
  H  H31  1  0.422100  0.302500  0.741700  1.0  0.0718
  H  H32  1  0.484200  0.295900  0.793800  1.0  0.0658
  H  H33  1  0.932800  0.215300  0.672400  1.0  0.0551
  H  H34  1  0.039200  0.022900  0.719500  1.0  0.0744
  H  H35  1  0.837800  0.072400  0.810500  1.0  0.0841
  H  H36  1  0.923200  0.010500  0.804800  1.0  0.0796
  H  H37  1  0.827900  0.947500  0.741700  1.0  0.0709
  H  H38  1  0.765800  0.954100  0.793800  1.0  0.0662
  H  H39  1  0.932800  0.715300  0.172400  1.0  0.0551
  H  H40  1  0.039200  0.522900  0.219500  1.0  0.0744
  H  H41  1  0.837800  0.572400  0.310500  1.0  0.0841
  H  H42  1  0.923200  0.510500  0.304800  1.0  0.0796
  H  H43  1  0.827900  0.447500  0.241700  1.0  0.0709
  H  H44  1  0.765800  0.454100  0.293800  1.0  0.0662
  H  H45  1  0.432800  0.215300  0.172400  1.0  0.0551
  H  H46  1  0.539200  0.022900  0.219500  1.0  0.0744
  H  H47  1  0.337800  0.072400  0.310500  1.0  0.0841
  H  H48  1  0.423200  0.010500  0.304800  1.0  0.0796
  H  H49  1  0.327900  0.947500  0.241700  1.0  0.0709
  H  H50  1  0.265800  0.954100  0.293800  1.0  0.0662
  H  H51  1  0.432800  0.715300  0.672400  1.0  0.0551
  H  H52  1  0.539200  0.522900  0.719500  1.0  0.0744
  H  H53  1  0.337800  0.572400  0.810500  1.0  0.0841
  H  H54  1  0.423200  0.510500  0.804800  1.0  0.0796
  H  H55  1  0.327900  0.447500  0.741700  1.0  0.0709
  H  H56  1  0.265800  0.454100  0.793800  1.0  0.0662
  H  H57  1  0.932800  0.534700  0.077600  1.0  0.054
  H  H58  1  0.039200  0.727100  0.030500  1.0  0.0749
  H  H59  1  0.837800  0.677600  0.939500  1.0  0.0838
  H  H60  1  0.923200  0.739500  0.945200  1.0  0.079
  H  H61  1  0.827900  0.802500  0.008300  1.0  0.0714
  H  H62  1  0.765800  0.795900  0.956200  1.0  0.0671
  H  H63  1  0.932800  0.034700  0.577600  1.0  0.054
  H  H64  1  0.039200  0.227100  0.530500  1.0  0.0747
  H  H65  1  0.837800  0.177600  0.439500  1.0  0.0838
  H  H66  1  0.923200  0.239500  0.445200  1.0  0.079
  H  H67  1  0.827900  0.302500  0.508300  1.0  0.0714
  H  H68  1  0.765800  0.295900  0.456200  1.0  0.0671
  H  H69  1  0.432800  0.534700  0.577600  1.0  0.054
  H  H70  1  0.539200  0.727100  0.530500  1.0  0.0749
  H  H71  1  0.337800  0.677600  0.439500  1.0  0.0838
  H  H72  1  0.423200  0.739500  0.445200  1.0  0.079
  H  H73  1  0.327900  0.802500  0.508300  1.0  0.0714
  H  H74  1  0.265800  0.795900  0.456200  1.0  0.0671
  H  H75  1  0.432800  0.034700  0.077600  1.0  0.054
  H  H76  1  0.539200  0.227100  0.030500  1.0  0.0747
  H  H77  1  0.337800  0.177600  0.939500  1.0  0.0838
  H  H78  1  0.423200  0.239500  0.945200  1.0  0.079
  H  H79  1  0.327900  0.302500  0.008300  1.0  0.0714
  H  H80  1  0.265800  0.295900  0.956200  1.0  0.0671
  H  H81  1  0.817200  0.215300  0.077600  1.0  0.0542
  H  H82  1  0.710800  0.022900  0.030500  1.0  0.0743
  H  H83  1  0.912200  0.072400  0.939500  1.0  0.0835
  H  H84  1  0.826800  0.010500  0.945200  1.0  0.0799
  H  H85  1  0.922100  0.947500  0.008300  1.0  0.0728
  H  H86  1  0.984200  0.954100  0.956200  1.0  0.0673
  H  H87  1  0.817200  0.715300  0.577600  1.0  0.0542
  H  H88  1  0.710800  0.522900  0.530500  1.0  0.0743
  H  H89  1  0.912200  0.572400  0.439500  1.0  0.0835
  H  H90  1  0.826800  0.510500  0.445200  1.0  0.0799
  H  H91  1  0.922100  0.447500  0.508300  1.0  0.0728
  H  H92  1  0.984200  0.454100  0.456200  1.0  0.0673
  H  H93  1  0.317200  0.215300  0.577600  1.0  0.0542
  H  H94  1  0.210800  0.022900  0.530500  1.0  0.0743
  H  H95  1  0.412200  0.072400  0.439500  1.0  0.0835
  H  H96  1  0.326800  0.010500  0.445200  1.0  0.0799
  H  H97  1  0.422100  0.947500  0.508300  1.0  0.0728
  H  H98  1  0.484200  0.954100  0.456200  1.0  0.0673
  H  H99  1  0.317200  0.715300  0.077600  1.0  0.0542
  H  H100  1  0.210800  0.522900  0.030500  1.0  0.0743
  H  H101  1  0.412200  0.572400  0.939500  1.0  0.0835
  H  H102  1  0.326800  0.510500  0.945200  1.0  0.0799
  H  H103  1  0.422100  0.447500  0.008300  1.0  0.0728
  H  H104  1  0.484200  0.454100  0.956200  1.0  0.0673
  H  H105  1  0.182800  0.465300  0.327600  1.0  0.0543
  H  H106  1  0.289200  0.272900  0.280500  1.0  0.0745
  H  H107  1  0.087800  0.322400  0.189500  1.0  0.0833
  H  H108  1  0.173200  0.260500  0.195200  1.0  0.0797
  H  H109  1  0.077900  0.197500  0.258300  1.0  0.0726
  H  H110  1  0.015800  0.204100  0.206200  1.0  0.0673
  H  H111  1  0.182800  0.965300  0.827600  1.0  0.0543
  H  H112  1  0.289200  0.772900  0.780500  1.0  0.0745
  H  H113  1  0.087800  0.822400  0.689500  1.0  0.0833
  H  H114  1  0.173200  0.760500  0.695200  1.0  0.0797
  H  H115  1  0.077900  0.697500  0.758300  1.0  0.0726
  H  H116  1  0.015800  0.704100  0.706200  1.0  0.0673
  H  H117  1  0.682800  0.465300  0.827600  1.0  0.0543
  H  H118  1  0.789200  0.272900  0.780500  1.0  0.0745
  H  H119  1  0.587800  0.322400  0.689500  1.0  0.0833
  H  H120  1  0.673200  0.260500  0.695200  1.0  0.0797
  H  H121  1  0.577900  0.197500  0.758300  1.0  0.0726
  H  H122  1  0.515800  0.204100  0.706200  1.0  0.0673
  H  H123  1  0.682800  0.965300  0.327600  1.0  0.0543
  H  H124  1  0.789200  0.772900  0.280500  1.0  0.0745
  H  H125  1  0.587800  0.822400  0.189500  1.0  0.0833
  H  H126  1  0.673200  0.760500  0.195200  1.0  0.0797
  H  H127  1  0.577900  0.697500  0.258300  1.0  0.0726
  H  H128  1  0.515800  0.704100  0.206200  1.0  0.0673
  H  H129  1  0.067200  0.784700  0.327600  1.0  0.0536
  H  H130  1  0.960800  0.977100  0.280500  1.0  0.0748
  H  H131  1  0.162200  0.927600  0.189500  1.0  0.0831
  H  H132  1  0.076800  0.989500  0.195200  1.0  0.0797
  H  H133  1  0.172100  0.052500  0.258300  1.0  0.0716
  H  H134  1  0.234200  0.045900  0.206200  1.0  0.0676
  H  H135  1  0.067200  0.284700  0.827600  1.0  0.0536
  H  H136  1  0.960800  0.477100  0.780500  1.0  0.0748
  H  H137  1  0.162200  0.427600  0.689500  1.0  0.0831
  H  H138  1  0.076800  0.489500  0.695200  1.0  0.0797
  H  H139  1  0.172100  0.552500  0.758300  1.0  0.0716
  H  H140  1  0.234200  0.545900  0.706200  1.0  0.0676
  H  H141  1  0.567200  0.784700  0.827600  1.0  0.0536
  H  H142  1  0.460800  0.977100  0.780500  1.0  0.0748
  H  H143  1  0.662200  0.927600  0.689500  1.0  0.0831
  H  H144  1  0.576800  0.989500  0.695200  1.0  0.0797
  H  H145  1  0.672100  0.052500  0.758300  1.0  0.0716
  H  H146  1  0.734200  0.045900  0.706200  1.0  0.0676
  H  H147  1  0.567200  0.284700  0.327600  1.0  0.0536
  H  H148  1  0.460800  0.477100  0.280500  1.0  0.0748
  H  H149  1  0.662200  0.427600  0.189500  1.0  0.0831
  H  H150  1  0.576800  0.489500  0.195200  1.0  0.0797
  H  H151  1  0.672100  0.552500  0.258300  1.0  0.0716
  H  H152  1  0.734200  0.545900  0.206200  1.0  0.0676
  H  H153  1  0.067200  0.465300  0.922400  1.0  0.0549
  H  H154  1  0.960800  0.272900  0.969500  1.0  0.0741
  H  H155  1  0.162200  0.322400  0.060500  1.0  0.0833
  H  H156  1  0.076800  0.260500  0.054800  1.0  0.0807
  H  H157  1  0.172100  0.197500  0.991700  1.0  0.0714
  H  H158  1  0.234200  0.204100  0.043800  1.0  0.0662
  H  H159  1  0.067200  0.965300  0.422400  1.0  0.0549
  H  H160  1  0.960800  0.772900  0.469500  1.0  0.0741
  H  H161  1  0.162200  0.822400  0.560500  1.0  0.0833
  H  H162  1  0.076800  0.760500  0.554800  1.0  0.0807
  H  H163  1  0.172100  0.697500  0.491700  1.0  0.0714
  H  H164  1  0.234200  0.704100  0.543800  1.0  0.0662
  H  H165  1  0.567200  0.465300  0.422400  1.0  0.0549
  H  H166  1  0.460800  0.272900  0.469500  1.0  0.0741
  H  H167  1  0.662200  0.322400  0.560500  1.0  0.0833
  H  H168  1  0.576800  0.260500  0.554800  1.0  0.0807
  H  H169  1  0.672100  0.197500  0.491700  1.0  0.0714
  H  H170  1  0.734200  0.204100  0.543800  1.0  0.0662
  H  H171  1  0.567200  0.965300  0.922400  1.0  0.0549
  H  H172  1  0.460800  0.772900  0.969500  1.0  0.0741
  H  H173  1  0.662200  0.822400  0.060500  1.0  0.0833
  H  H174  1  0.576800  0.760500  0.054800  1.0  0.0807
  H  H175  1  0.672100  0.697500  0.991700  1.0  0.0714
  H  H176  1  0.734200  0.704100  0.043800  1.0  0.0662
  H  H177  1  0.182800  0.784700  0.922400  1.0  0.0542
  H  H178  1  0.289200  0.977100  0.969500  1.0  0.0749
  H  H179  1  0.087800  0.927600  0.060500  1.0  0.0846
  H  H180  1  0.173200  0.989500  0.054800  1.0  0.079
  H  H181  1  0.077900  0.052500  0.991700  1.0  0.0711
  H  H182  1  0.015800  0.045900  0.043800  1.0  0.0654
  H  H183  1  0.182800  0.284700  0.422400  1.0  0.0542
  H  H184  1  0.289200  0.477100  0.469500  1.0  0.0749
  H  H185  1  0.087800  0.427600  0.560500  1.0  0.0846
  H  H186  1  0.173200  0.489500  0.554800  1.0  0.079
  H  H187  1  0.077900  0.552500  0.491700  1.0  0.0711
  H  H188  1  0.015800  0.545900  0.543800  1.0  0.0654
  H  H189  1  0.682800  0.784700  0.422400  1.0  0.0542
  H  H190  1  0.789200  0.977100  0.469500  1.0  0.0749
  H  H191  1  0.587800  0.927600  0.560500  1.0  0.0846
  H  H192  1  0.673200  0.989500  0.554800  1.0  0.079
  H  H193  1  0.577900  0.052500  0.491700  1.0  0.0711
  H  H194  1  0.515800  0.045900  0.543800  1.0  0.0654
  H  H195  1  0.682800  0.284700  0.922400  1.0  0.0542
  H  H196  1  0.789200  0.477100  0.969500  1.0  0.0749
  H  H197  1  0.587800  0.427600  0.060500  1.0  0.0846
  H  H198  1  0.673200  0.489500  0.054800  1.0  0.079
  H  H199  1  0.577900  0.552500  0.991700  1.0  0.0711
  H  H200  1  0.515800  0.545900  0.043800  1.0  0.0654
  C  C201  1  0.808900  0.579710  0.691090  1.0  0.2247
  C  C202  1  0.750210  0.683490  0.715720  1.0  0.11
  C  C203  1  0.879000  0.711600  0.785850  1.0  -0.0524
  C  C204  1  0.956800  0.767020  0.764650  1.0  -0.1358
  C  C205  1  0.808900  0.079710  0.191090  1.0  0.2253
  C  C206  1  0.750210  0.183490  0.215720  1.0  0.1099
  C  C207  1  0.879000  0.211600  0.285850  1.0  -0.0525
  C  C208  1  0.956800  0.267020  0.264650  1.0  -0.1358
  C  C209  1  0.308900  0.579710  0.191090  1.0  0.2247
  C  C210  1  0.250210  0.683490  0.215720  1.0  0.11
  C  C211  1  0.379000  0.711600  0.285850  1.0  -0.0524
  C  C212  1  0.456800  0.767020  0.264650  1.0  -0.1358
  C  C213  1  0.308900  0.079710  0.691090  1.0  0.2253
  C  C214  1  0.250210  0.183490  0.715720  1.0  0.1099
  C  C215  1  0.379000  0.211600  0.785850  1.0  -0.0525
  C  C216  1  0.456800  0.267020  0.764650  1.0  -0.1358
  C  C217  1  0.941100  0.170290  0.691090  1.0  0.2259
  C  C218  1  0.999790  0.066510  0.715720  1.0  0.1099
  C  C219  1  0.871000  0.038400  0.785850  1.0  -0.0527
  C  C220  1  0.793200  0.982980  0.764650  1.0  -0.1365
  C  C221  1  0.941100  0.670290  0.191090  1.0  0.2259
  C  C222  1  0.999790  0.566510  0.215720  1.0  0.1099
  C  C223  1  0.871000  0.538400  0.285850  1.0  -0.0527
  C  C224  1  0.793200  0.482980  0.264650  1.0  -0.1365
  C  C225  1  0.441100  0.170290  0.191090  1.0  0.2259
  C  C226  1  0.499790  0.066510  0.215720  1.0  0.1099
  C  C227  1  0.371000  0.038400  0.285850  1.0  -0.0527
  C  C228  1  0.293200  0.982980  0.264650  1.0  -0.1365
  C  C229  1  0.441100  0.670290  0.691090  1.0  0.2259
  C  C230  1  0.499790  0.566510  0.715720  1.0  0.1099
  C  C231  1  0.371000  0.538400  0.785850  1.0  -0.0527
  C  C232  1  0.293200  0.482980  0.764650  1.0  -0.1365
  C  C233  1  0.941100  0.579710  0.058910  1.0  0.2263
  C  C234  1  0.999790  0.683490  0.034280  1.0  0.1098
  C  C235  1  0.871000  0.711600  0.964150  1.0  -0.0507
  C  C236  1  0.793200  0.767020  0.985350  1.0  -0.1359
  C  C237  1  0.941100  0.079710  0.558910  1.0  0.2268
  C  C238  1  0.999790  0.183490  0.534280  1.0  0.1095
  C  C239  1  0.871000  0.211600  0.464150  1.0  -0.0507
  C  C240  1  0.793200  0.267020  0.485350  1.0  -0.1359
  C  C241  1  0.441100  0.579710  0.558910  1.0  0.2263
  C  C242  1  0.499790  0.683490  0.534280  1.0  0.1098
  C  C243  1  0.371000  0.711600  0.464150  1.0  -0.0507
  C  C244  1  0.293200  0.767020  0.485350  1.0  -0.1359
  C  C245  1  0.441100  0.079710  0.058910  1.0  0.2268
  C  C246  1  0.499790  0.183490  0.034280  1.0  0.1095
  C  C247  1  0.371000  0.211600  0.964150  1.0  -0.0507
  C  C248  1  0.293200  0.267020  0.985350  1.0  -0.1359
  C  C249  1  0.808900  0.170290  0.058910  1.0  0.226
  C  C250  1  0.750210  0.066510  0.034280  1.0  0.1097
  C  C251  1  0.879000  0.038400  0.964150  1.0  -0.0495
  C  C252  1  0.956800  0.982980  0.985350  1.0  -0.1354
  C  C253  1  0.808900  0.670290  0.558910  1.0  0.226
  C  C254  1  0.750210  0.566510  0.534280  1.0  0.1097
  C  C255  1  0.879000  0.538400  0.464150  1.0  -0.0495
  C  C256  1  0.956800  0.482980  0.485350  1.0  -0.1354
  C  C257  1  0.308900  0.170290  0.558910  1.0  0.226
  C  C258  1  0.250210  0.066510  0.534280  1.0  0.1097
  C  C259  1  0.379000  0.038400  0.464150  1.0  -0.0495
  C  C260  1  0.456800  0.982980  0.485350  1.0  -0.1354
  C  C261  1  0.308900  0.670290  0.058910  1.0  0.226
  C  C262  1  0.250210  0.566510  0.034280  1.0  0.1097
  C  C263  1  0.379000  0.538400  0.964150  1.0  -0.0495
  C  C264  1  0.456800  0.482980  0.985350  1.0  -0.1354
  C  C265  1  0.191100  0.420290  0.308910  1.0  0.226
  C  C266  1  0.249790  0.316510  0.284280  1.0  0.1097
  C  C267  1  0.121000  0.288400  0.214150  1.0  -0.0507
  C  C268  1  0.043200  0.232980  0.235350  1.0  -0.1362
  C  C269  1  0.191100  0.920290  0.808910  1.0  0.226
  C  C270  1  0.249790  0.816510  0.784280  1.0  0.1096
  C  C271  1  0.121000  0.788400  0.714150  1.0  -0.0507
  C  C272  1  0.043200  0.732980  0.735350  1.0  -0.1362
  C  C273  1  0.691100  0.420290  0.808910  1.0  0.226
  C  C274  1  0.749790  0.316510  0.784280  1.0  0.1097
  C  C275  1  0.621000  0.288400  0.714150  1.0  -0.0507
  C  C276  1  0.543200  0.232980  0.735350  1.0  -0.1362
  C  C277  1  0.691100  0.920290  0.308910  1.0  0.226
  C  C278  1  0.749790  0.816510  0.284280  1.0  0.1096
  C  C279  1  0.621000  0.788400  0.214150  1.0  -0.0507
  C  C280  1  0.543200  0.732980  0.235350  1.0  -0.1362
  C  C281  1  0.058900  0.829710  0.308910  1.0  0.2266
  C  C282  1  0.000210  0.933490  0.284280  1.0  0.1095
  C  C283  1  0.129000  0.961600  0.214150  1.0  -0.0497
  C  C284  1  0.206800  0.017020  0.235350  1.0  -0.1344
  C  C285  1  0.058900  0.329710  0.808910  1.0  0.2266
  C  C286  1  0.000210  0.433490  0.784280  1.0  0.1095
  C  C287  1  0.129000  0.461600  0.714150  1.0  -0.0497
  C  C288  1  0.206800  0.517020  0.735350  1.0  -0.1344
  C  C289  1  0.558900  0.829710  0.808910  1.0  0.2266
  C  C290  1  0.500210  0.933490  0.784280  1.0  0.1095
  C  C291  1  0.629000  0.961600  0.714150  1.0  -0.0497
  C  C292  1  0.706800  0.017020  0.735350  1.0  -0.1344
  C  C293  1  0.558900  0.329710  0.308910  1.0  0.2266
  C  C294  1  0.500210  0.433490  0.284280  1.0  0.1095
  C  C295  1  0.629000  0.461600  0.214150  1.0  -0.0497
  C  C296  1  0.706800  0.517020  0.235350  1.0  -0.1344
  C  C297  1  0.058900  0.420290  0.941090  1.0  0.2255
  C  C298  1  0.000210  0.316510  0.965720  1.0  0.11
  C  C299  1  0.129000  0.288400  0.035850  1.0  -0.0531
  C  C300  1  0.206800  0.232980  0.014650  1.0  -0.1357
  C  C301  1  0.058900  0.920290  0.441090  1.0  0.2255
  C  C302  1  0.000210  0.816510  0.465720  1.0  0.1099
  C  C303  1  0.129000  0.788400  0.535850  1.0  -0.0531
  C  C304  1  0.206800  0.732980  0.514650  1.0  -0.1357
  C  C305  1  0.558900  0.420290  0.441090  1.0  0.2255
  C  C306  1  0.500210  0.316510  0.465720  1.0  0.11
  C  C307  1  0.629000  0.288400  0.535850  1.0  -0.0531
  C  C308  1  0.706800  0.232980  0.514650  1.0  -0.1357
  C  C309  1  0.558900  0.920290  0.941090  1.0  0.2255
  C  C310  1  0.500210  0.816510  0.965720  1.0  0.1099
  C  C311  1  0.629000  0.788400  0.035850  1.0  -0.0531
  C  C312  1  0.706800  0.732980  0.014650  1.0  -0.1357
  C  C313  1  0.191100  0.829710  0.941090  1.0  0.2257
  C  C314  1  0.249790  0.933490  0.965720  1.0  0.1098
  C  C315  1  0.121000  0.961600  0.035850  1.0  -0.0522
  C  C316  1  0.043200  0.017020  0.014650  1.0  -0.1362
  C  C317  1  0.191100  0.329710  0.441090  1.0  0.2257
  C  C318  1  0.249790  0.433490  0.465720  1.0  0.1098
  C  C319  1  0.121000  0.461600  0.535850  1.0  -0.0522
  C  C320  1  0.043200  0.517020  0.514650  1.0  -0.1362
  C  C321  1  0.691100  0.829710  0.441090  1.0  0.2257
  C  C322  1  0.749790  0.933490  0.465720  1.0  0.1098
  C  C323  1  0.621000  0.961600  0.535850  1.0  -0.0522
  C  C324  1  0.543200  0.017020  0.514650  1.0  -0.1362
  C  C325  1  0.691100  0.329710  0.941090  1.0  0.2257
  C  C326  1  0.749790  0.433490  0.965720  1.0  0.1098
  C  C327  1  0.621000  0.461600  0.035850  1.0  -0.0522
  C  C328  1  0.543200  0.517020  0.014650  1.0  -0.1362
  N  N329  1  0.733660  0.629440  0.680810  1.0  -0.4103
  N  N330  1  0.869100  0.599490  0.729260  1.0  -0.4048
  N  N331  1  0.830810  0.666667  0.744400  1.0  0.153
  N  N332  1  0.733660  0.129440  0.180810  1.0  -0.4103
  N  N333  1  0.869100  0.099490  0.229260  1.0  -0.4049
  N  N334  1  0.830810  0.166610  0.244400  1.0  0.1539
  N  N335  1  0.233660  0.629440  0.180810  1.0  -0.4103
  N  N336  1  0.369100  0.599490  0.229260  1.0  -0.4048
  N  N337  1  0.330810  0.666667  0.244400  1.0  0.153
  N  N338  1  0.233660  0.129440  0.680810  1.0  -0.4103
  N  N339  1  0.369100  0.099490  0.729260  1.0  -0.4049
  N  N340  1  0.330810  0.166610  0.744400  1.0  0.1539
  N  N341  1  0.016340  0.120560  0.680810  1.0  -0.409
  N  N342  1  0.880900  0.150510  0.729260  1.0  -0.4046
  N  N343  1  0.919190  0.083390  0.744400  1.0  0.1528
  N  N344  1  0.016340  0.620560  0.180810  1.0  -0.409
  N  N345  1  0.880900  0.650510  0.229260  1.0  -0.4046
  N  N346  1  0.919190  0.583390  0.244400  1.0  0.1528
  N  N347  1  0.516340  0.120560  0.180810  1.0  -0.409
  N  N348  1  0.380900  0.150510  0.229260  1.0  -0.4046
  N  N349  1  0.419190  0.083390  0.244400  1.0  0.1528
  N  N350  1  0.516340  0.620560  0.680810  1.0  -0.409
  N  N351  1  0.380900  0.650510  0.729260  1.0  -0.4046
  N  N352  1  0.419190  0.583390  0.744400  1.0  0.1528
  N  N353  1  0.016340  0.629440  0.069190  1.0  -0.4083
  N  N354  1  0.880900  0.599490  0.020740  1.0  -0.4053
  N  N355  1  0.919190  0.666667  0.005600  1.0  0.1527
  N  N356  1  0.016340  0.129440  0.569190  1.0  -0.4083
  N  N357  1  0.880900  0.099490  0.520740  1.0  -0.4053
  N  N358  1  0.919190  0.166610  0.505600  1.0  0.1537
  N  N359  1  0.516340  0.629440  0.569190  1.0  -0.4083
  N  N360  1  0.380900  0.599490  0.520740  1.0  -0.4053
  N  N361  1  0.419190  0.666667  0.505600  1.0  0.1527
  N  N362  1  0.516340  0.129440  0.069190  1.0  -0.4083
  N  N363  1  0.380900  0.099490  0.020740  1.0  -0.4053
  N  N364  1  0.419190  0.166610  0.005600  1.0  0.1537
  N  N365  1  0.733660  0.120560  0.069190  1.0  -0.4094
  N  N366  1  0.869100  0.150510  0.020740  1.0  -0.4055
  N  N367  1  0.830810  0.083390  0.005600  1.0  0.1544
  N  N368  1  0.733660  0.620560  0.569190  1.0  -0.4094
  N  N369  1  0.869100  0.650510  0.520740  1.0  -0.4055
  N  N370  1  0.830810  0.583390  0.505600  1.0  0.1544
  N  N371  1  0.233660  0.120560  0.569190  1.0  -0.4094
  N  N372  1  0.369100  0.150510  0.520740  1.0  -0.4055
  N  N373  1  0.330810  0.083390  0.505600  1.0  0.1544
  N  N374  1  0.233660  0.620560  0.069190  1.0  -0.4094
  N  N375  1  0.369100  0.650510  0.020740  1.0  -0.4055
  N  N376  1  0.330810  0.583390  0.005600  1.0  0.1544
  N  N377  1  0.266340  0.370560  0.319190  1.0  -0.408
  N  N378  1  0.130900  0.400510  0.270740  1.0  -0.4048
  N  N379  1  0.169190  0.333390  0.255600  1.0  0.1535
  N  N380  1  0.266340  0.870560  0.819190  1.0  -0.408
  N  N381  1  0.130900  0.900510  0.770740  1.0  -0.4048
  N  N382  1  0.169190  0.833390  0.755600  1.0  0.1535
  N  N383  1  0.766340  0.370560  0.819190  1.0  -0.408
  N  N384  1  0.630900  0.400510  0.770740  1.0  -0.4048
  N  N385  1  0.669190  0.333390  0.755600  1.0  0.1535
  N  N386  1  0.766340  0.870560  0.319190  1.0  -0.408
  N  N387  1  0.630900  0.900510  0.270740  1.0  -0.4048
  N  N388  1  0.669190  0.833390  0.255600  1.0  0.1535
  N  N389  1  0.983660  0.879440  0.319190  1.0  -0.4095
  N  N390  1  0.119100  0.849490  0.270740  1.0  -0.4047
  N  N391  1  0.080810  0.916610  0.255600  1.0  0.1542
  N  N392  1  0.983660  0.379440  0.819190  1.0  -0.4095
  N  N393  1  0.119100  0.349490  0.770740  1.0  -0.4047
  N  N394  1  0.080810  0.416610  0.755600  1.0  0.1542
  N  N395  1  0.483660  0.879440  0.819190  1.0  -0.4095
  N  N396  1  0.619100  0.849490  0.770740  1.0  -0.4047
  N  N397  1  0.580810  0.916610  0.755600  1.0  0.1542
  N  N398  1  0.483660  0.379440  0.319190  1.0  -0.4095
  N  N399  1  0.619100  0.349490  0.270740  1.0  -0.4047
  N  N400  1  0.580810  0.416610  0.255600  1.0  0.1542
  N  N401  1  0.983660  0.370560  0.930810  1.0  -0.4099
  N  N402  1  0.119100  0.400510  0.979260  1.0  -0.4052
  N  N403  1  0.080810  0.333390  0.994400  1.0  0.154
  N  N404  1  0.983660  0.870560  0.430810  1.0  -0.4099
  N  N405  1  0.119100  0.900510  0.479260  1.0  -0.4052
  N  N406  1  0.080810  0.833390  0.494400  1.0  0.154
  N  N407  1  0.483660  0.370560  0.430810  1.0  -0.4099
  N  N408  1  0.619100  0.400510  0.479260  1.0  -0.4052
  N  N409  1  0.580810  0.333390  0.494400  1.0  0.154
  N  N410  1  0.483660  0.870560  0.930810  1.0  -0.4099
  N  N411  1  0.619100  0.900510  0.979260  1.0  -0.4052
  N  N412  1  0.580810  0.833390  0.994400  1.0  0.154
  N  N413  1  0.266340  0.879440  0.930810  1.0  -0.4095
  N  N414  1  0.130900  0.849490  0.979260  1.0  -0.4057
  N  N415  1  0.169190  0.916610  0.994400  1.0  0.1531
  N  N416  1  0.266340  0.379440  0.430810  1.0  -0.4095
  N  N417  1  0.130900  0.349490  0.479260  1.0  -0.4057
  N  N418  1  0.169190  0.416610  0.494400  1.0  0.1531
  N  N419  1  0.766340  0.879440  0.430810  1.0  -0.4095
  N  N420  1  0.630900  0.849490  0.479260  1.0  -0.4057
  N  N421  1  0.669190  0.916610  0.494400  1.0  0.1531
  N  N422  1  0.766340  0.379440  0.930810  1.0  -0.4095
  N  N423  1  0.630900  0.349490  0.979260  1.0  -0.4057
  N  N424  1  0.669190  0.416610  0.994400  1.0  0.1531
