# generated using pymatgen
data_CuH24(C4N3)4
_symmetry_space_group_name_H-M   'P 1'
_cell_length_a   25.05400000
_cell_length_b   13.21540000
_cell_length_c   17.38850000
_cell_angle_alpha   90.00000000
_cell_angle_beta   90.00000000
_cell_angle_gamma   90.00000000
_symmetry_Int_Tables_number   1
_chemical_formula_structural   CuH24(C4N3)4
_chemical_formula_sum   'Cu8 H192 C128 N96'
_cell_volume   5757.30855558
_cell_formula_units_Z   8
loop_
 _symmetry_equiv_pos_site_id
 _symmetry_equiv_pos_as_xyz
  1  'x, y, z'
loop_
 _atom_site_type_symbol
 _atom_site_label
 _atom_site_symmetry_multiplicity
 _atom_site_fract_x
 _atom_site_fract_y
 _atom_site_fract_z
 _atom_site_occupancy
 _atom_site_charge
  Cu  Cu1  1  0.375000  0.875000  0.875000  1.0  0.2971
  Cu  Cu2  1  0.375000  0.375000  0.375000  1.0  0.2971
  Cu  Cu3  1  0.875000  0.875000  0.375000  1.0  0.2971
  Cu  Cu4  1  0.875000  0.375000  0.875000  1.0  0.2971
  Cu  Cu5  1  0.625000  0.125000  0.125000  1.0  0.2971
  Cu  Cu6  1  0.625000  0.625000  0.625000  1.0  0.2971
  Cu  Cu7  1  0.125000  0.125000  0.625000  1.0  0.2971
  Cu  Cu8  1  0.125000  0.625000  0.125000  1.0  0.2971
  H  H9  1  0.280700  0.961600  0.979800  1.0  0.0693
  H  H10  1  0.325600  0.063300  0.782200  1.0  0.0527
  H  H11  1  0.187500  0.162600  0.930400  1.0  0.0861
  H  H12  1  0.193500  0.078300  0.993300  1.0  0.0808
  H  H13  1  0.206500  0.234400  0.050400  1.0  0.0642
  H  H14  1  0.259900  0.173000  0.054500  1.0  0.0656
  H  H15  1  0.280700  0.461600  0.479800  1.0  0.0711
  H  H16  1  0.325600  0.563300  0.282200  1.0  0.053
  H  H17  1  0.187500  0.662600  0.430400  1.0  0.0861
  H  H18  1  0.193500  0.578300  0.493300  1.0  0.0808
  H  H19  1  0.206500  0.734400  0.550400  1.0  0.0642
  H  H20  1  0.259900  0.673000  0.554500  1.0  0.0656
  H  H21  1  0.780700  0.961600  0.479800  1.0  0.0693
  H  H22  1  0.825600  0.063300  0.282200  1.0  0.0527
  H  H23  1  0.687500  0.162600  0.430400  1.0  0.0861
  H  H24  1  0.693500  0.078300  0.493300  1.0  0.0808
  H  H25  1  0.706500  0.234400  0.550400  1.0  0.0642
  H  H26  1  0.759900  0.173000  0.554500  1.0  0.0656
  H  H27  1  0.780700  0.461600  0.979800  1.0  0.0711
  H  H28  1  0.825600  0.563300  0.782200  1.0  0.053
  H  H29  1  0.687500  0.662600  0.930400  1.0  0.0861
  H  H30  1  0.693500  0.578300  0.993300  1.0  0.0808
  H  H31  1  0.706500  0.734400  0.050400  1.0  0.0642
  H  H32  1  0.759900  0.673000  0.054500  1.0  0.0656
  H  H33  1  0.469300  0.788400  0.979800  1.0  0.0717
  H  H34  1  0.424400  0.686700  0.782200  1.0  0.0534
  H  H35  1  0.562500  0.587400  0.930400  1.0  0.0862
  H  H36  1  0.556500  0.671700  0.993300  1.0  0.0794
  H  H37  1  0.543500  0.515600  0.050400  1.0  0.0635
  H  H38  1  0.490100  0.577000  0.054500  1.0  0.0651
  H  H39  1  0.469300  0.288400  0.479800  1.0  0.0717
  H  H40  1  0.424400  0.186700  0.282200  1.0  0.0534
  H  H41  1  0.562500  0.087400  0.430400  1.0  0.0862
  H  H42  1  0.556500  0.171700  0.493300  1.0  0.0794
  H  H43  1  0.543500  0.015600  0.550400  1.0  0.0635
  H  H44  1  0.490100  0.077000  0.554500  1.0  0.0651
  H  H45  1  0.969300  0.788400  0.479800  1.0  0.0721
  H  H46  1  0.924400  0.686700  0.282200  1.0  0.0534
  H  H47  1  0.062500  0.587400  0.430400  1.0  0.0862
  H  H48  1  0.056500  0.671700  0.493300  1.0  0.0794
  H  H49  1  0.043500  0.515600  0.550400  1.0  0.0635
  H  H50  1  0.990100  0.577000  0.554500  1.0  0.0651
  H  H51  1  0.969300  0.288400  0.979800  1.0  0.0721
  H  H52  1  0.924400  0.186700  0.782200  1.0  0.0534
  H  H53  1  0.062500  0.087400  0.930400  1.0  0.0862
  H  H54  1  0.056500  0.171700  0.993300  1.0  0.0794
  H  H55  1  0.043500  0.015600  0.050400  1.0  0.0635
  H  H56  1  0.990100  0.077000  0.054500  1.0  0.0651
  H  H57  1  0.469300  0.961600  0.770200  1.0  0.0716
  H  H58  1  0.424400  0.063300  0.967800  1.0  0.0534
  H  H59  1  0.562500  0.162600  0.819600  1.0  0.0847
  H  H60  1  0.556500  0.078300  0.756700  1.0  0.08
  H  H61  1  0.543500  0.234400  0.699600  1.0  0.064
  H  H62  1  0.490100  0.173000  0.695500  1.0  0.0644
  H  H63  1  0.469300  0.461600  0.270200  1.0  0.0716
  H  H64  1  0.424400  0.563300  0.467800  1.0  0.0536
  H  H65  1  0.562500  0.662600  0.319600  1.0  0.0847
  H  H66  1  0.556500  0.578300  0.256700  1.0  0.08
  H  H67  1  0.543500  0.734400  0.199600  1.0  0.064
  H  H68  1  0.490100  0.673000  0.195500  1.0  0.0644
  H  H69  1  0.969300  0.961600  0.270200  1.0  0.0722
  H  H70  1  0.924400  0.063300  0.467800  1.0  0.0534
  H  H71  1  0.062500  0.162600  0.319600  1.0  0.0847
  H  H72  1  0.056500  0.078300  0.256700  1.0  0.08
  H  H73  1  0.043500  0.234400  0.199600  1.0  0.064
  H  H74  1  0.990100  0.173000  0.195500  1.0  0.0644
  H  H75  1  0.969300  0.461600  0.770200  1.0  0.0722
  H  H76  1  0.924400  0.563300  0.967800  1.0  0.0536
  H  H77  1  0.062500  0.662600  0.819600  1.0  0.0847
  H  H78  1  0.056500  0.578300  0.756700  1.0  0.08
  H  H79  1  0.043500  0.734400  0.699600  1.0  0.064
  H  H80  1  0.990100  0.673000  0.695500  1.0  0.0644
  H  H81  1  0.280700  0.788400  0.770200  1.0  0.0717
  H  H82  1  0.325600  0.686700  0.967800  1.0  0.0532
  H  H83  1  0.187500  0.587400  0.819600  1.0  0.0857
  H  H84  1  0.193500  0.671700  0.756700  1.0  0.0803
  H  H85  1  0.206500  0.515600  0.699600  1.0  0.065
  H  H86  1  0.259900  0.577000  0.695500  1.0  0.0643
  H  H87  1  0.280700  0.288400  0.270200  1.0  0.0717
  H  H88  1  0.325600  0.186700  0.467800  1.0  0.0532
  H  H89  1  0.187500  0.087400  0.319600  1.0  0.0857
  H  H90  1  0.193500  0.171700  0.256700  1.0  0.0803
  H  H91  1  0.206500  0.015600  0.199600  1.0  0.065
  H  H92  1  0.259900  0.077000  0.195500  1.0  0.0643
  H  H93  1  0.780700  0.788400  0.270200  1.0  0.0717
  H  H94  1  0.825600  0.686700  0.467800  1.0  0.0532
  H  H95  1  0.687500  0.587400  0.319600  1.0  0.0857
  H  H96  1  0.693500  0.671700  0.256700  1.0  0.0803
  H  H97  1  0.706500  0.515600  0.199600  1.0  0.065
  H  H98  1  0.759900  0.577000  0.195500  1.0  0.0643
  H  H99  1  0.780700  0.288400  0.770200  1.0  0.0717
  H  H100  1  0.825600  0.186700  0.967800  1.0  0.0532
  H  H101  1  0.687500  0.087400  0.819600  1.0  0.0857
  H  H102  1  0.693500  0.171700  0.756700  1.0  0.0803
  H  H103  1  0.706500  0.015600  0.699600  1.0  0.065
  H  H104  1  0.759900  0.077000  0.695500  1.0  0.0643
  H  H105  1  0.719300  0.038400  0.020200  1.0  0.0717
  H  H106  1  0.674400  0.936700  0.217800  1.0  0.0536
  H  H107  1  0.812500  0.837400  0.069600  1.0  0.0848
  H  H108  1  0.806500  0.921700  0.006700  1.0  0.0796
  H  H109  1  0.793500  0.765600  0.949600  1.0  0.0639
  H  H110  1  0.740100  0.827000  0.945500  1.0  0.0644
  H  H111  1  0.719300  0.538400  0.520200  1.0  0.072
  H  H112  1  0.674400  0.436700  0.717800  1.0  0.0538
  H  H113  1  0.812500  0.337400  0.569600  1.0  0.0848
  H  H114  1  0.806500  0.421700  0.506700  1.0  0.0796
  H  H115  1  0.793500  0.265600  0.449600  1.0  0.0639
  H  H116  1  0.740100  0.327000  0.445500  1.0  0.0644
  H  H117  1  0.219300  0.038400  0.520200  1.0  0.0717
  H  H118  1  0.174400  0.936700  0.717800  1.0  0.0536
  H  H119  1  0.312500  0.837400  0.569600  1.0  0.0848
  H  H120  1  0.306500  0.921700  0.506700  1.0  0.0796
  H  H121  1  0.293500  0.765600  0.449600  1.0  0.0639
  H  H122  1  0.240100  0.827000  0.445500  1.0  0.0644
  H  H123  1  0.219300  0.538400  0.020200  1.0  0.072
  H  H124  1  0.174400  0.436700  0.217800  1.0  0.0538
  H  H125  1  0.312500  0.337400  0.069600  1.0  0.0848
  H  H126  1  0.306500  0.421700  0.006700  1.0  0.0796
  H  H127  1  0.293500  0.265600  0.949600  1.0  0.0639
  H  H128  1  0.240100  0.327000  0.945500  1.0  0.0644
  H  H129  1  0.530700  0.211600  0.020200  1.0  0.071
  H  H130  1  0.575600  0.313300  0.217800  1.0  0.0532
  H  H131  1  0.437500  0.412600  0.069600  1.0  0.0853
  H  H132  1  0.443500  0.328300  0.006700  1.0  0.0813
  H  H133  1  0.456500  0.484400  0.949600  1.0  0.0649
  H  H134  1  0.509900  0.423000  0.945500  1.0  0.0638
  H  H135  1  0.530700  0.711600  0.520200  1.0  0.071
  H  H136  1  0.575600  0.813300  0.717800  1.0  0.0532
  H  H137  1  0.437500  0.912600  0.569600  1.0  0.0853
  H  H138  1  0.443500  0.828300  0.506700  1.0  0.0813
  H  H139  1  0.456500  0.984400  0.449600  1.0  0.0649
  H  H140  1  0.509900  0.923000  0.445500  1.0  0.0638
  H  H141  1  0.030700  0.211600  0.520200  1.0  0.071
  H  H142  1  0.075600  0.313300  0.717800  1.0  0.0532
  H  H143  1  0.937500  0.412600  0.569600  1.0  0.0853
  H  H144  1  0.943500  0.328300  0.506700  1.0  0.081
  H  H145  1  0.956500  0.484400  0.449600  1.0  0.0649
  H  H146  1  0.009900  0.423000  0.445500  1.0  0.0638
  H  H147  1  0.030700  0.711600  0.020200  1.0  0.071
  H  H148  1  0.075600  0.813300  0.217800  1.0  0.0532
  H  H149  1  0.937500  0.912600  0.069600  1.0  0.0853
  H  H150  1  0.943500  0.828300  0.006700  1.0  0.081
  H  H151  1  0.956500  0.984400  0.949600  1.0  0.0649
  H  H152  1  0.009900  0.923000  0.945500  1.0  0.0638
  H  H153  1  0.530700  0.038400  0.229800  1.0  0.0719
  H  H154  1  0.575600  0.936700  0.032200  1.0  0.053
  H  H155  1  0.437500  0.837400  0.180400  1.0  0.0863
  H  H156  1  0.443500  0.921700  0.243300  1.0  0.0801
  H  H157  1  0.456500  0.765600  0.300400  1.0  0.0644
  H  H158  1  0.509900  0.827000  0.304500  1.0  0.0654
  H  H159  1  0.530700  0.538400  0.729800  1.0  0.0713
  H  H160  1  0.575600  0.436700  0.532200  1.0  0.053
  H  H161  1  0.437500  0.337400  0.680400  1.0  0.0863
  H  H162  1  0.443500  0.421700  0.743300  1.0  0.0801
  H  H163  1  0.456500  0.265600  0.800400  1.0  0.0644
  H  H164  1  0.509900  0.327000  0.804500  1.0  0.0654
  H  H165  1  0.030700  0.038400  0.729800  1.0  0.0719
  H  H166  1  0.075600  0.936700  0.532200  1.0  0.053
  H  H167  1  0.937500  0.837400  0.680400  1.0  0.0863
  H  H168  1  0.943500  0.921700  0.743300  1.0  0.0801
  H  H169  1  0.956500  0.765600  0.800400  1.0  0.0644
  H  H170  1  0.009900  0.827000  0.804500  1.0  0.0654
  H  H171  1  0.030700  0.538400  0.229800  1.0  0.0713
  H  H172  1  0.075600  0.436700  0.032200  1.0  0.053
  H  H173  1  0.937500  0.337400  0.180400  1.0  0.0863
  H  H174  1  0.943500  0.421700  0.243300  1.0  0.0801
  H  H175  1  0.956500  0.265600  0.300400  1.0  0.0644
  H  H176  1  0.009900  0.327000  0.304500  1.0  0.0654
  H  H177  1  0.719300  0.211600  0.229800  1.0  0.0718
  H  H178  1  0.674400  0.313300  0.032200  1.0  0.0533
  H  H179  1  0.812500  0.412600  0.180400  1.0  0.0858
  H  H180  1  0.806500  0.328300  0.243300  1.0  0.0802
  H  H181  1  0.793500  0.484400  0.300400  1.0  0.0636
  H  H182  1  0.740100  0.423000  0.304500  1.0  0.0657
  H  H183  1  0.719300  0.711600  0.729800  1.0  0.0718
  H  H184  1  0.674400  0.813300  0.532200  1.0  0.0533
  H  H185  1  0.812500  0.912600  0.680400  1.0  0.0858
  H  H186  1  0.806500  0.828300  0.743300  1.0  0.0802
  H  H187  1  0.793500  0.984400  0.800400  1.0  0.0636
  H  H188  1  0.740100  0.923000  0.804500  1.0  0.0657
  H  H189  1  0.219300  0.211600  0.729800  1.0  0.0718
  H  H190  1  0.174400  0.313300  0.532200  1.0  0.0533
  H  H191  1  0.312500  0.412600  0.680400  1.0  0.0858
  H  H192  1  0.306500  0.328300  0.743300  1.0  0.0802
  H  H193  1  0.293500  0.484400  0.800400  1.0  0.0636
  H  H194  1  0.240100  0.423000  0.804500  1.0  0.0657
  H  H195  1  0.219300  0.711600  0.229800  1.0  0.0718
  H  H196  1  0.174400  0.813300  0.032200  1.0  0.0533
  H  H197  1  0.312500  0.912600  0.180400  1.0  0.0858
  H  H198  1  0.306500  0.828300  0.243300  1.0  0.0802
  H  H199  1  0.293500  0.984400  0.300400  1.0  0.0636
  H  H200  1  0.240100  0.923000  0.304500  1.0  0.0657
  C  C201  1  0.283700  0.999800  0.935200  1.0  0.1023
  C  C202  1  0.307200  0.056500  0.828400  1.0  0.2476
  C  C203  1  0.212700  0.129400  0.964400  1.0  -0.0515
  C  C204  1  0.235400  0.206700  0.019800  1.0  -0.1407
  C  C205  1  0.283700  0.499800  0.435200  1.0  0.1023
  C  C206  1  0.307200  0.556500  0.328400  1.0  0.2476
  C  C207  1  0.212700  0.629400  0.464400  1.0  -0.0515
  C  C208  1  0.235400  0.706700  0.519800  1.0  -0.1407
  C  C209  1  0.783700  0.999800  0.435200  1.0  0.1023
  C  C210  1  0.807200  0.056500  0.328400  1.0  0.2476
  C  C211  1  0.712700  0.129400  0.464400  1.0  -0.0515
  C  C212  1  0.735400  0.206700  0.519800  1.0  -0.1407
  C  C213  1  0.783700  0.499800  0.935200  1.0  0.1023
  C  C214  1  0.807200  0.556500  0.828400  1.0  0.2476
  C  C215  1  0.712700  0.629400  0.964400  1.0  -0.0515
  C  C216  1  0.735400  0.706700  0.019800  1.0  -0.1407
  C  C217  1  0.466300  0.750200  0.935200  1.0  0.1018
  C  C218  1  0.442800  0.693500  0.828400  1.0  0.2476
  C  C219  1  0.537300  0.620600  0.964400  1.0  -0.0514
  C  C220  1  0.514600  0.543300  0.019800  1.0  -0.1385
  C  C221  1  0.466300  0.250200  0.435200  1.0  0.1018
  C  C222  1  0.442800  0.193500  0.328400  1.0  0.2476
  C  C223  1  0.537300  0.120600  0.464400  1.0  -0.0514
  C  C224  1  0.514600  0.043300  0.519800  1.0  -0.1385
  C  C225  1  0.966300  0.750200  0.435200  1.0  0.1018
  C  C226  1  0.942800  0.693500  0.328400  1.0  0.2476
  C  C227  1  0.037300  0.620600  0.464400  1.0  -0.0514
  C  C228  1  0.014600  0.543300  0.519800  1.0  -0.14
  C  C229  1  0.966300  0.250200  0.935200  1.0  0.1018
  C  C230  1  0.942800  0.193500  0.828400  1.0  0.2476
  C  C231  1  0.037300  0.120600  0.964400  1.0  -0.0514
  C  C232  1  0.014600  0.043300  0.019800  1.0  -0.14
  C  C233  1  0.466300  0.999800  0.814800  1.0  0.1011
  C  C234  1  0.442800  0.056500  0.921600  1.0  0.2468
  C  C235  1  0.537300  0.129400  0.785600  1.0  -0.0517
  C  C236  1  0.514600  0.206700  0.730200  1.0  -0.1377
  C  C237  1  0.466300  0.499800  0.314800  1.0  0.1011
  C  C238  1  0.442800  0.556500  0.421600  1.0  0.2468
  C  C239  1  0.537300  0.629400  0.285600  1.0  -0.0517
  C  C240  1  0.514600  0.706700  0.230200  1.0  -0.1377
  C  C241  1  0.966300  0.999800  0.314800  1.0  0.1011
  C  C242  1  0.942800  0.056500  0.421600  1.0  0.2468
  C  C243  1  0.037300  0.129400  0.285600  1.0  -0.0517
  C  C244  1  0.014600  0.206700  0.230200  1.0  -0.1389
  C  C245  1  0.966300  0.499800  0.814800  1.0  0.1011
  C  C246  1  0.942800  0.556500  0.921600  1.0  0.2468
  C  C247  1  0.037300  0.629400  0.785600  1.0  -0.0517
  C  C248  1  0.014600  0.706700  0.730200  1.0  -0.1389
  C  C249  1  0.283700  0.750200  0.814800  1.0  0.1021
  C  C250  1  0.307200  0.693500  0.921600  1.0  0.2478
  C  C251  1  0.212700  0.620600  0.785600  1.0  -0.0511
  C  C252  1  0.235400  0.543300  0.730200  1.0  -0.1386
  C  C253  1  0.283700  0.250200  0.314800  1.0  0.1021
  C  C254  1  0.307200  0.193500  0.421600  1.0  0.2478
  C  C255  1  0.212700  0.120600  0.285600  1.0  -0.0511
  C  C256  1  0.235400  0.043300  0.230200  1.0  -0.1386
  C  C257  1  0.783700  0.750200  0.314800  1.0  0.1021
  C  C258  1  0.807200  0.693500  0.421600  1.0  0.2478
  C  C259  1  0.712700  0.620600  0.285600  1.0  -0.0511
  C  C260  1  0.735400  0.543300  0.230200  1.0  -0.1386
  C  C261  1  0.783700  0.250200  0.814800  1.0  0.1021
  C  C262  1  0.807200  0.193500  0.921600  1.0  0.2478
  C  C263  1  0.712700  0.120600  0.785600  1.0  -0.0511
  C  C264  1  0.735400  0.043300  0.730200  1.0  -0.1386
  C  C265  1  0.716300  0.000200  0.064800  1.0  0.1021
  C  C266  1  0.692800  0.943500  0.171600  1.0  0.2469
  C  C267  1  0.787300  0.870600  0.035600  1.0  -0.0512
  C  C268  1  0.764600  0.793300  0.980200  1.0  -0.1373
  C  C269  1  0.716300  0.500200  0.564800  1.0  0.1021
  C  C270  1  0.692800  0.443500  0.671600  1.0  0.2469
  C  C271  1  0.787300  0.370600  0.535600  1.0  -0.0512
  C  C272  1  0.764600  0.293300  0.480200  1.0  -0.1373
  C  C273  1  0.216300  0.000200  0.564800  1.0  0.1021
  C  C274  1  0.192800  0.943500  0.671600  1.0  0.2469
  C  C275  1  0.287300  0.870600  0.535600  1.0  -0.0512
  C  C276  1  0.264600  0.793300  0.480200  1.0  -0.1373
  C  C277  1  0.216300  0.500200  0.064800  1.0  0.1021
  C  C278  1  0.192800  0.443500  0.171600  1.0  0.2469
  C  C279  1  0.287300  0.370600  0.035600  1.0  -0.0512
  C  C280  1  0.264600  0.293300  0.980200  1.0  -0.1373
  C  C281  1  0.533700  0.249800  0.064800  1.0  0.101
  C  C282  1  0.557200  0.306500  0.171600  1.0  0.2482
  C  C283  1  0.462700  0.379400  0.035600  1.0  -0.0501
  C  C284  1  0.485400  0.456700  0.980200  1.0  -0.1386
  C  C285  1  0.533700  0.749800  0.564800  1.0  0.101
  C  C286  1  0.557200  0.806500  0.671600  1.0  0.2482
  C  C287  1  0.462700  0.879400  0.535600  1.0  -0.0501
  C  C288  1  0.485400  0.956700  0.480200  1.0  -0.1386
  C  C289  1  0.033700  0.249800  0.564800  1.0  0.101
  C  C290  1  0.057200  0.306500  0.671600  1.0  0.2482
  C  C291  1  0.962700  0.379400  0.535600  1.0  -0.0501
  C  C292  1  0.985400  0.456700  0.480200  1.0  -0.1386
  C  C293  1  0.033700  0.749800  0.064800  1.0  0.101
  C  C294  1  0.057200  0.806500  0.171600  1.0  0.2482
  C  C295  1  0.962700  0.879400  0.035600  1.0  -0.0501
  C  C296  1  0.985400  0.956700  0.980200  1.0  -0.1386
  C  C297  1  0.533700  0.000200  0.185200  1.0  0.102
  C  C298  1  0.557200  0.943500  0.078400  1.0  0.2472
  C  C299  1  0.462700  0.870600  0.214400  1.0  -0.0517
  C  C300  1  0.485400  0.793300  0.269800  1.0  -0.1409
  C  C301  1  0.533700  0.500200  0.685200  1.0  0.102
  C  C302  1  0.557200  0.443500  0.578400  1.0  0.2472
  C  C303  1  0.462700  0.370600  0.714400  1.0  -0.0517
  C  C304  1  0.485400  0.293300  0.769800  1.0  -0.1409
  C  C305  1  0.033700  0.000200  0.685200  1.0  0.102
  C  C306  1  0.057200  0.943500  0.578400  1.0  0.2472
  C  C307  1  0.962700  0.870600  0.714400  1.0  -0.0517
  C  C308  1  0.985400  0.793300  0.769800  1.0  -0.1418
  C  C309  1  0.033700  0.500200  0.185200  1.0  0.102
  C  C310  1  0.057200  0.443500  0.078400  1.0  0.2472
  C  C311  1  0.962700  0.370600  0.214400  1.0  -0.0517
  C  C312  1  0.985400  0.293300  0.269800  1.0  -0.1418
  C  C313  1  0.716300  0.249800  0.185200  1.0  0.1023
  C  C314  1  0.692800  0.306500  0.078400  1.0  0.2473
  C  C315  1  0.787300  0.379400  0.214400  1.0  -0.0529
  C  C316  1  0.764600  0.456700  0.269800  1.0  -0.1387
  C  C317  1  0.716300  0.749800  0.685200  1.0  0.1023
  C  C318  1  0.692800  0.806500  0.578400  1.0  0.2473
  C  C319  1  0.787300  0.879400  0.714400  1.0  -0.0529
  C  C320  1  0.764600  0.956700  0.769800  1.0  -0.1387
  C  C321  1  0.216300  0.249800  0.685200  1.0  0.1023
  C  C322  1  0.192800  0.306500  0.578400  1.0  0.2473
  C  C323  1  0.287300  0.379400  0.714400  1.0  -0.0529
  C  C324  1  0.264600  0.456700  0.769800  1.0  -0.1387
  C  C325  1  0.216300  0.749800  0.185200  1.0  0.1023
  C  C326  1  0.192800  0.806500  0.078400  1.0  0.2473
  C  C327  1  0.287300  0.879400  0.214400  1.0  -0.0529
  C  C328  1  0.264600  0.956700  0.269800  1.0  -0.1387
  N  N329  1  0.253900  0.080000  0.918000  1.0  0.1444
  N  N330  1  0.269000  0.117800  0.849000  1.0  -0.3925
  N  N331  1  0.317900  0.982700  0.879400  1.0  -0.4017
  N  N332  1  0.253900  0.580000  0.418000  1.0  0.1445
  N  N333  1  0.269000  0.617800  0.349000  1.0  -0.3925
  N  N334  1  0.317900  0.482700  0.379400  1.0  -0.4017
  N  N335  1  0.753900  0.080000  0.418000  1.0  0.1444
  N  N336  1  0.769000  0.117800  0.349000  1.0  -0.3925
  N  N337  1  0.817900  0.982700  0.379400  1.0  -0.4017
  N  N338  1  0.753900  0.580000  0.918000  1.0  0.1445
  N  N339  1  0.769000  0.617800  0.849000  1.0  -0.3925
  N  N340  1  0.817900  0.482700  0.879400  1.0  -0.4017
  N  N341  1  0.496100  0.670000  0.918000  1.0  0.1429
  N  N342  1  0.481000  0.632200  0.849000  1.0  -0.3926
  N  N343  1  0.432100  0.767300  0.879400  1.0  -0.4029
  N  N344  1  0.496100  0.170000  0.418000  1.0  0.1429
  N  N345  1  0.481000  0.132200  0.349000  1.0  -0.3926
  N  N346  1  0.432100  0.267300  0.379400  1.0  -0.4029
  N  N347  1  0.996100  0.670000  0.418000  1.0  0.1429
  N  N348  1  0.981000  0.632200  0.349000  1.0  -0.3926
  N  N349  1  0.932100  0.767300  0.379400  1.0  -0.4029
  N  N350  1  0.996100  0.170000  0.918000  1.0  0.1429
  N  N351  1  0.981000  0.132200  0.849000  1.0  -0.3926
  N  N352  1  0.932100  0.267300  0.879400  1.0  -0.4029
  N  N353  1  0.496100  0.080000  0.832000  1.0  0.1406
  N  N354  1  0.481000  0.117800  0.901000  1.0  -0.3927
  N  N355  1  0.432100  0.982700  0.870600  1.0  -0.403
  N  N356  1  0.496100  0.580000  0.332000  1.0  0.1403
  N  N357  1  0.481000  0.617800  0.401000  1.0  -0.3927
  N  N358  1  0.432100  0.482700  0.370600  1.0  -0.403
  N  N359  1  0.996100  0.080000  0.332000  1.0  0.1406
  N  N360  1  0.981000  0.117800  0.401000  1.0  -0.3927
  N  N361  1  0.932100  0.982700  0.370600  1.0  -0.403
  N  N362  1  0.996100  0.580000  0.832000  1.0  0.1403
  N  N363  1  0.981000  0.617800  0.901000  1.0  -0.3927
  N  N364  1  0.932100  0.482700  0.870600  1.0  -0.403
  N  N365  1  0.253900  0.670000  0.832000  1.0  0.1427
  N  N366  1  0.269000  0.632200  0.901000  1.0  -0.3924
  N  N367  1  0.317900  0.767300  0.870600  1.0  -0.4018
  N  N368  1  0.253900  0.170000  0.332000  1.0  0.1427
  N  N369  1  0.269000  0.132200  0.401000  1.0  -0.3924
  N  N370  1  0.317900  0.267300  0.370600  1.0  -0.4018
  N  N371  1  0.753900  0.670000  0.332000  1.0  0.1427
  N  N372  1  0.769000  0.632200  0.401000  1.0  -0.3924
  N  N373  1  0.817900  0.767300  0.370600  1.0  -0.4018
  N  N374  1  0.753900  0.170000  0.832000  1.0  0.1427
  N  N375  1  0.769000  0.132200  0.901000  1.0  -0.3924
  N  N376  1  0.817900  0.267300  0.870600  1.0  -0.4018
  N  N377  1  0.746100  0.920000  0.082000  1.0  0.1379
  N  N378  1  0.731000  0.882200  0.151000  1.0  -0.3918
  N  N379  1  0.682100  0.017300  0.120600  1.0  -0.4027
  N  N380  1  0.746100  0.420000  0.582000  1.0  0.1379
  N  N381  1  0.731000  0.382200  0.651000  1.0  -0.3918
  N  N382  1  0.682100  0.517300  0.620600  1.0  -0.4027
  N  N383  1  0.246100  0.920000  0.582000  1.0  0.1379
  N  N384  1  0.231000  0.882200  0.651000  1.0  -0.3918
  N  N385  1  0.182100  0.017300  0.620600  1.0  -0.4027
  N  N386  1  0.246100  0.420000  0.082000  1.0  0.1379
  N  N387  1  0.231000  0.382200  0.151000  1.0  -0.3918
  N  N388  1  0.182100  0.517300  0.120600  1.0  -0.4027
  N  N389  1  0.503900  0.330000  0.082000  1.0  0.1431
  N  N390  1  0.519000  0.367800  0.151000  1.0  -0.3927
  N  N391  1  0.567900  0.232700  0.120600  1.0  -0.4014
  N  N392  1  0.503900  0.830000  0.582000  1.0  0.1431
  N  N393  1  0.519000  0.867800  0.651000  1.0  -0.3927
  N  N394  1  0.567900  0.732700  0.620600  1.0  -0.4014
  N  N395  1  0.003900  0.330000  0.582000  1.0  0.1431
  N  N396  1  0.019000  0.367800  0.651000  1.0  -0.3927
  N  N397  1  0.067900  0.232700  0.620600  1.0  -0.4014
  N  N398  1  0.003900  0.830000  0.082000  1.0  0.1431
  N  N399  1  0.019000  0.867800  0.151000  1.0  -0.3927
  N  N400  1  0.067900  0.732700  0.120600  1.0  -0.4014
  N  N401  1  0.503900  0.920000  0.168000  1.0  0.1452
  N  N402  1  0.519000  0.882200  0.099000  1.0  -0.3931
  N  N403  1  0.567900  0.017300  0.129400  1.0  -0.402
  N  N404  1  0.503900  0.420000  0.668000  1.0  0.1452
  N  N405  1  0.519000  0.382200  0.599000  1.0  -0.3931
  N  N406  1  0.567900  0.517300  0.629400  1.0  -0.402
  N  N407  1  0.003900  0.920000  0.668000  1.0  0.1452
  N  N408  1  0.019000  0.882200  0.599000  1.0  -0.3931
  N  N409  1  0.067900  0.017300  0.629400  1.0  -0.402
  N  N410  1  0.003900  0.420000  0.168000  1.0  0.1452
  N  N411  1  0.019000  0.382200  0.099000  1.0  -0.3931
  N  N412  1  0.067900  0.517300  0.129400  1.0  -0.402
  N  N413  1  0.746100  0.330000  0.168000  1.0  0.1428
  N  N414  1  0.731000  0.367800  0.099000  1.0  -0.3931
  N  N415  1  0.682100  0.232700  0.129400  1.0  -0.4034
  N  N416  1  0.746100  0.830000  0.668000  1.0  0.1428
  N  N417  1  0.731000  0.867800  0.599000  1.0  -0.3931
  N  N418  1  0.682100  0.732700  0.629400  1.0  -0.4034
  N  N419  1  0.246100  0.330000  0.668000  1.0  0.1428
  N  N420  1  0.231000  0.367800  0.599000  1.0  -0.3931
  N  N421  1  0.182100  0.232700  0.629400  1.0  -0.4034
  N  N422  1  0.246100  0.830000  0.168000  1.0  0.1428
  N  N423  1  0.231000  0.867800  0.099000  1.0  -0.3931
  N  N424  1  0.182100  0.732700  0.129400  1.0  -0.4034
