# generated using pymatgen
data_CuH7C9N3O4
_symmetry_space_group_name_H-M   'P 1'
_cell_length_a   7.57980000
_cell_length_b   8.78490000
_cell_length_c   19.05600000
_cell_angle_alpha   94.15400000
_cell_angle_beta   96.89000000
_cell_angle_gamma   112.58000000
_symmetry_Int_Tables_number   1
_chemical_formula_structural   CuH7C9N3O4
_chemical_formula_sum   'Cu4 H28 C36 N12 O16'
_cell_volume   1153.40761894
_cell_formula_units_Z   4
loop_
 _symmetry_equiv_pos_site_id
 _symmetry_equiv_pos_as_xyz
  1  'x, y, z'
loop_
 _atom_site_type_symbol
 _atom_site_label
 _atom_site_symmetry_multiplicity
 _atom_site_fract_x
 _atom_site_fract_y
 _atom_site_fract_z
 _atom_site_occupancy
 _atom_site_charge
  Cu  Cu1  1  0.320000  0.145290  0.166410  1.0  0.924
  Cu  Cu2  1  0.005100  0.295360  0.348900  1.0  0.7759
  Cu  Cu3  1  0.680000  0.854710  0.833590  1.0  0.9235
  Cu  Cu4  1  0.994900  0.704640  0.651100  1.0  0.7805
  H  H5  1  0.991600  0.658500  0.010800  1.0  0.0898
  H  H6  1  0.185500  0.629000  0.023600  1.0  0.093
  H  H7  1  0.082600  0.664100  0.132400  1.0  0.1044
  H  H8  1  0.085800  0.484900  0.119500  1.0  0.095
  H  H9  1  0.413400  0.467400  0.089300  1.0  0.0861
  H  H10  1  0.776500  0.274200  0.158200  1.0  0.1153
  H  H11  1  0.351600  0.858700  0.519100  1.0  0.0907
  H  H12  1  0.543700  0.856000  0.495600  1.0  0.094
  H  H13  1  0.284600  0.738600  0.400400  1.0  0.1076
  H  H14  1  0.447100  0.898800  0.379800  1.0  0.0978
  H  H15  1  0.839800  0.971800  0.419700  1.0  0.0846
  H  H16  1  0.326500  0.128900  0.344200  1.0  0.1156
  H  H17  1  0.969100  0.735900  0.263800  1.0  0.1025
  H  H18  1  0.335500  0.691600  0.243500  1.0  0.1106
  H  H19  1  0.008400  0.341500  0.989200  1.0  0.0897
  H  H20  1  0.814500  0.371000  0.976400  1.0  0.0912
  H  H21  1  0.917400  0.335900  0.867600  1.0  0.1042
  H  H22  1  0.914200  0.515100  0.880500  1.0  0.0956
  H  H23  1  0.586600  0.532600  0.910700  1.0  0.0857
  H  H24  1  0.223500  0.725800  0.841800  1.0  0.1159
  H  H25  1  0.648400  0.141300  0.480900  1.0  0.0899
  H  H26  1  0.456300  0.144000  0.504400  1.0  0.0922
  H  H27  1  0.715400  0.261400  0.599600  1.0  0.1085
  H  H28  1  0.552900  0.101200  0.620200  1.0  0.0972
  H  H29  1  0.160200  0.028200  0.580300  1.0  0.0851
  H  H30  1  0.673500  0.871100  0.655800  1.0  0.1154
  H  H31  1  0.030900  0.264100  0.736200  1.0  0.102
  H  H32  1  0.664500  0.308400  0.756500  1.0  0.1087
  C  C33  1  0.046700  0.579600  0.025900  1.0  -0.1478
  C  C34  1  0.021100  0.556000  0.102500  1.0  -0.0354
  C  C35  1  0.528800  0.451400  0.100400  1.0  0.2819
  C  C36  1  0.721400  0.343600  0.138300  1.0  0.199
  C  C37  1  0.448700  0.906200  0.488400  1.0  -0.148
  C  C38  1  0.349800  0.859800  0.411100  1.0  -0.0421
  C  C39  1  0.960500  0.980700  0.408400  1.0  0.2635
  C  C40  1  0.222800  0.067600  0.366900  1.0  0.1798
  C  C41  1  0.515300  0.584600  0.279100  1.0  -0.0421
  C  C42  1  0.707300  0.599100  0.286600  1.0  -0.1263
  C  C43  1  0.840400  0.726700  0.259200  1.0  -0.0215
  C  C44  1  0.790800  0.842700  0.224900  1.0  -0.1354
  C  C45  1  0.597900  0.828700  0.218400  1.0  -0.018
  C  C46  1  0.463700  0.700000  0.246600  1.0  -0.1347
  C  C47  1  0.353100  0.433700  0.297500  1.0  0.6886
  C  C48  1  0.766200  0.481800  0.325800  1.0  0.6804
  C  C49  1  0.942000  0.981800  0.196700  1.0  0.6698
  C  C50  1  0.521400  0.939800  0.179600  1.0  0.6437
  C  C51  1  0.953300  0.420400  0.974100  1.0  -0.1452
  C  C52  1  0.978900  0.444000  0.897500  1.0  -0.0346
  C  C53  1  0.471200  0.548600  0.899600  1.0  0.283
  C  C54  1  0.278600  0.656400  0.861700  1.0  0.1976
  C  C55  1  0.551300  0.093800  0.511600  1.0  -0.1464
  C  C56  1  0.650200  0.140200  0.588900  1.0  -0.0425
  C  C57  1  0.039500  0.019300  0.591600  1.0  0.2631
  C  C58  1  0.777200  0.932400  0.633100  1.0  0.1811
  C  C59  1  0.484700  0.415400  0.720900  1.0  -0.043
  C  C60  1  0.292700  0.400900  0.713400  1.0  -0.125
  C  C61  1  0.159600  0.273300  0.740800  1.0  -0.0211
  C  C62  1  0.209200  0.157300  0.775100  1.0  -0.1355
  C  C63  1  0.402100  0.171300  0.781600  1.0  -0.0158
  C  C64  1  0.536300  0.300000  0.753400  1.0  -0.1335
  C  C65  1  0.646900  0.566300  0.702500  1.0  0.688
  C  C66  1  0.233800  0.518200  0.674200  1.0  0.6804
  C  C67  1  0.058000  0.018200  0.803300  1.0  0.669
  C  C68  1  0.478600  0.060200  0.820400  1.0  0.6449
  N  N69  1  0.816400  0.480300  0.109900  1.0  0.1613
  N  N70  1  0.692800  0.550800  0.085100  1.0  -0.3518
  N  N71  1  0.537700  0.321100  0.133900  1.0  -0.4348
  N  N72  1  0.207900  0.934200  0.397700  1.0  0.1701
  N  N73  1  0.039700  0.876400  0.425900  1.0  -0.3643
  N  N74  1  0.067900  0.101800  0.372900  1.0  -0.4625
  N  N75  1  0.183600  0.519700  0.890100  1.0  0.1603
  N  N76  1  0.307200  0.449200  0.914900  1.0  -0.3506
  N  N77  1  0.462300  0.678900  0.866100  1.0  -0.4241
  N  N78  1  0.792100  0.065800  0.602300  1.0  0.1695
  N  N79  1  0.960300  0.123600  0.574100  1.0  -0.3651
  N  N80  1  0.932100  0.898200  0.627100  1.0  -0.4618
  O  O81  1  0.304200  0.301100  0.258900  1.0  -0.6118
  O  O82  1  0.266700  0.457000  0.346740  1.0  -0.5437
  O  O83  1  0.916700  0.462200  0.311780  1.0  -0.5856
  O  O84  1  0.663600  0.407800  0.369900  1.0  -0.5771
  O  O85  1  0.100000  0.965800  0.191310  1.0  -0.5831
  O  O86  1  0.901600  0.098800  0.180700  1.0  -0.5846
  O  O87  1  0.494000  0.051500  0.219560  1.0  -0.5488
  O  O88  1  0.472000  0.911600  0.114340  1.0  -0.5343
  O  O89  1  0.695800  0.698900  0.741100  1.0  -0.6112
  O  O90  1  0.733300  0.543000  0.653260  1.0  -0.5446
  O  O91  1  0.083300  0.537800  0.688220  1.0  -0.5861
  O  O92  1  0.336400  0.592200  0.630100  1.0  -0.5772
  O  O93  1  0.900000  0.034200  0.808690  1.0  -0.5825
  O  O94  1  0.098400  0.901200  0.819300  1.0  -0.5833
  O  O95  1  0.506000  0.948500  0.780440  1.0  -0.5479
  O  O96  1  0.528000  0.088400  0.885660  1.0  -0.5361
