# generated using pymatgen
data_Zn2H8C11O7
_symmetry_space_group_name_H-M   'P 1'
_cell_length_a   10.33320000
_cell_length_b   11.76350000
_cell_length_c   20.45240000
_cell_angle_alpha   90.00000000
_cell_angle_beta   90.00000000
_cell_angle_gamma   90.00000000
_symmetry_Int_Tables_number   1
_chemical_formula_structural   Zn2H8C11O7
_chemical_formula_sum   'Zn8 H32 C44 O28'
_cell_volume   2486.08326423
_cell_formula_units_Z   4
loop_
 _symmetry_equiv_pos_site_id
 _symmetry_equiv_pos_as_xyz
  1  'x, y, z'
loop_
 _atom_site_type_symbol
 _atom_site_label
 _atom_site_symmetry_multiplicity
 _atom_site_fract_x
 _atom_site_fract_y
 _atom_site_fract_z
 _atom_site_occupancy
 _atom_site_charge
  Zn  Zn1  1  0.450830  0.422330  0.009750  1.0  1.0767
  Zn  Zn2  1  0.138420  0.324060  0.007500  1.0  1.0618
  Zn  Zn3  1  0.049170  0.577670  0.509750  1.0  1.0765
  Zn  Zn4  1  0.361580  0.675940  0.507500  1.0  1.0596
  Zn  Zn5  1  0.549170  0.922330  0.490250  1.0  1.0747
  Zn  Zn6  1  0.861580  0.824060  0.492500  1.0  1.0608
  Zn  Zn7  1  0.950830  0.077670  0.990250  1.0  1.0729
  Zn  Zn8  1  0.638420  0.175940  0.992500  1.0  1.0594
  H  H9  1  0.231400  0.026500  0.985200  1.0  0.0988
  H  H10  1  0.167900  0.035200  0.878800  1.0  0.1324
  H  H11  1  0.311600  0.085500  0.875500  1.0  0.1133
  H  H12  1  0.189900  0.169600  0.874400  1.0  0.1416
  H  H13  1  0.124700  0.340300  0.218400  1.0  0.121
  H  H14  1  0.119000  0.384900  0.329600  1.0  0.1116
  H  H15  1  0.379100  0.635500  0.302100  1.0  0.1187
  H  H16  1  0.388400  0.591400  0.190800  1.0  0.1158
  H  H17  1  0.268600  0.973500  0.485200  1.0  0.0963
  H  H18  1  0.332100  0.964800  0.378800  1.0  0.1326
  H  H19  1  0.188400  0.914500  0.375500  1.0  0.1154
  H  H20  1  0.310100  0.830400  0.374400  1.0  0.1416
  H  H21  1  0.375300  0.659700  0.718400  1.0  0.1222
  H  H22  1  0.381000  0.615100  0.829600  1.0  0.1118
  H  H23  1  0.120900  0.364500  0.802100  1.0  0.1184
  H  H24  1  0.111600  0.408600  0.690800  1.0  0.1147
  H  H25  1  0.768600  0.526500  0.514800  1.0  0.0981
  H  H26  1  0.832100  0.535200  0.621200  1.0  0.1326
  H  H27  1  0.688400  0.585500  0.624500  1.0  0.1175
  H  H28  1  0.810100  0.669600  0.625600  1.0  0.1399
  H  H29  1  0.875300  0.840300  0.281600  1.0  0.1216
  H  H30  1  0.881000  0.884900  0.170400  1.0  0.1118
  H  H31  1  0.620900  0.135500  0.197900  1.0  0.1188
  H  H32  1  0.611600  0.091400  0.309200  1.0  0.1157
  H  H33  1  0.731400  0.473500  0.014800  1.0  0.0966
  H  H34  1  0.667900  0.464800  0.121200  1.0  0.132
  H  H35  1  0.811600  0.414500  0.124500  1.0  0.1131
  H  H36  1  0.689900  0.330400  0.125600  1.0  0.1414
  H  H37  1  0.624700  0.159700  0.781600  1.0  0.1222
  H  H38  1  0.619000  0.115100  0.670400  1.0  0.1119
  H  H39  1  0.879100  0.864500  0.697900  1.0  0.119
  H  H40  1  0.888400  0.908600  0.809200  1.0  0.1155
  C  C41  1  0.350600  0.169500  0.986500  1.0  0.6682
  C  C42  1  0.227600  0.105300  0.966900  1.0  0.1461
  C  C43  1  0.223900  0.098300  0.892200  1.0  -0.3476
  C  C44  1  0.266500  0.431500  0.122700  1.0  0.7285
  C  C45  1  0.258400  0.461800  0.194000  1.0  -0.1306
  C  C46  1  0.176700  0.400100  0.235200  1.0  -0.0672
  C  C47  1  0.172800  0.427700  0.301100  1.0  -0.0749
  C  C48  1  0.245500  0.516000  0.326100  1.0  -0.1067
  C  C49  1  0.327000  0.575900  0.285100  1.0  -0.0399
  C  C50  1  0.333000  0.549400  0.218900  1.0  -0.0795
  C  C51  1  0.235600  0.548400  0.397800  1.0  0.7348
  C  C52  1  0.149400  0.830500  0.486500  1.0  0.6674
  C  C53  1  0.272400  0.894700  0.466900  1.0  0.1433
  C  C54  1  0.276100  0.901700  0.392200  1.0  -0.3479
  C  C55  1  0.233500  0.568500  0.622700  1.0  0.7286
  C  C56  1  0.241600  0.538200  0.694000  1.0  -0.1298
  C  C57  1  0.323300  0.599900  0.735200  1.0  -0.0667
  C  C58  1  0.327200  0.572300  0.801100  1.0  -0.0759
  C  C59  1  0.254500  0.484000  0.826100  1.0  -0.1068
  C  C60  1  0.173000  0.424100  0.785100  1.0  -0.0391
  C  C61  1  0.167000  0.450600  0.718900  1.0  -0.0789
  C  C62  1  0.264400  0.451600  0.897800  1.0  0.7344
  C  C63  1  0.649400  0.669500  0.513500  1.0  0.6663
  C  C64  1  0.772400  0.605300  0.533100  1.0  0.1487
  C  C65  1  0.776100  0.598300  0.607800  1.0  -0.3488
  C  C66  1  0.733500  0.931500  0.377300  1.0  0.7287
  C  C67  1  0.741600  0.961800  0.306000  1.0  -0.1302
  C  C68  1  0.823300  0.900100  0.264800  1.0  -0.0677
  C  C69  1  0.827200  0.927700  0.198900  1.0  -0.0764
  C  C70  1  0.754500  0.016000  0.173900  1.0  -0.1076
  C  C71  1  0.673000  0.075900  0.214900  1.0  -0.0389
  C  C72  1  0.667000  0.049400  0.281100  1.0  -0.0793
  C  C73  1  0.764400  0.048400  0.102200  1.0  0.7349
  C  C74  1  0.850600  0.330500  0.013500  1.0  0.6665
  C  C75  1  0.727600  0.394700  0.033100  1.0  0.1465
  C  C76  1  0.723900  0.401700  0.107800  1.0  -0.3482
  C  C77  1  0.766500  0.068500  0.877300  1.0  0.7283
  C  C78  1  0.758400  0.038200  0.806000  1.0  -0.13
  C  C79  1  0.676700  0.099900  0.764800  1.0  -0.0677
  C  C80  1  0.672800  0.072300  0.698900  1.0  -0.0756
  C  C81  1  0.745500  0.984000  0.673900  1.0  -0.1078
  C  C82  1  0.827000  0.924100  0.714900  1.0  -0.04
  C  C83  1  0.833000  0.950600  0.781100  1.0  -0.0794
  C  C84  1  0.735600  0.951600  0.602200  1.0  0.735
  O  O85  1  0.336900  0.272600  0.003900  1.0  -0.6934
  O  O86  1  0.455400  0.118100  0.982500  1.0  -0.6141
  O  O87  1  0.116000  0.160000  0.990900  1.0  -0.7183
  O  O88  1  0.367700  0.461500  0.093500  1.0  -0.6186
  O  O89  1  0.170600  0.380600  0.098100  1.0  -0.612
  O  O90  1  0.130000  0.526500  0.425300  1.0  -0.6473
  O  O91  1  0.335000  0.590900  0.423500  1.0  -0.6152
  O  O92  1  0.163100  0.727400  0.503900  1.0  -0.6939
  O  O93  1  0.044600  0.881900  0.482500  1.0  -0.6134
  O  O94  1  0.384000  0.840000  0.490900  1.0  -0.719
  O  O95  1  0.132300  0.538500  0.593500  1.0  -0.6186
  O  O96  1  0.329400  0.619400  0.598100  1.0  -0.6118
  O  O97  1  0.370000  0.473500  0.925300  1.0  -0.6462
  O  O98  1  0.165000  0.409100  0.923500  1.0  -0.6169
  O  O99  1  0.663100  0.772600  0.496100  1.0  -0.6934
  O  O100  1  0.544600  0.618100  0.517500  1.0  -0.6133
  O  O101  1  0.884000  0.660000  0.509100  1.0  -0.718
  O  O102  1  0.632300  0.961500  0.406500  1.0  -0.6182
  O  O103  1  0.829400  0.880600  0.401900  1.0  -0.6111
  O  O104  1  0.870000  0.026500  0.074700  1.0  -0.6461
  O  O105  1  0.665000  0.090900  0.076500  1.0  -0.6167
  O  O106  1  0.836900  0.227400  0.996100  1.0  -0.6926
  O  O107  1  0.955400  0.381900  0.017500  1.0  -0.6132
  O  O108  1  0.616000  0.340000  0.009100  1.0  -0.7201
  O  O109  1  0.867700  0.038500  0.906500  1.0  -0.618
  O  O110  1  0.670600  0.119400  0.901900  1.0  -0.6117
  O  O111  1  0.630000  0.973500  0.574700  1.0  -0.6478
  O  O112  1  0.835000  0.909100  0.576500  1.0  -0.6146
