# generated using pymatgen
data_CdH20C19(NO)4
_symmetry_space_group_name_H-M   'P 1'
_cell_length_a   10.85460000
_cell_length_b   23.62610000
_cell_length_c   9.67990000
_cell_angle_alpha   90.00000000
_cell_angle_beta   104.14000000
_cell_angle_gamma   90.00000000
_symmetry_Int_Tables_number   1
_chemical_formula_structural   CdH20C19(NO)4
_chemical_formula_sum   'Cd4 H80 C76 N16 O16'
_cell_volume   2407.21505684
_cell_formula_units_Z   4
loop_
 _symmetry_equiv_pos_site_id
 _symmetry_equiv_pos_as_xyz
  1  'x, y, z'
loop_
 _atom_site_type_symbol
 _atom_site_label
 _atom_site_symmetry_multiplicity
 _atom_site_fract_x
 _atom_site_fract_y
 _atom_site_fract_z
 _atom_site_occupancy
 _atom_site_charge
  Cd  Cd1  1  0.319340  0.105540  0.472380  1.0  0.9716
  Cd  Cd2  1  0.680660  0.605540  0.027620  1.0  0.9708
  Cd  Cd3  1  0.680660  0.894460  0.527620  1.0  0.9708
  Cd  Cd4  1  0.319340  0.394460  0.972380  1.0  0.972
  H  H5  1  0.976900  0.986600  0.232000  1.0  0.0958
  H  H6  1  0.154000  0.062500  0.957400  1.0  0.0995
  H  H7  1  0.535200  0.960900  0.790600  1.0  0.0856
  H  H8  1  0.380900  0.083200  0.991100  1.0  0.0979
  H  H9  1  0.614100  0.056600  0.534000  1.0  0.1015
  H  H10  1  0.492100  0.189200  0.289500  1.0  0.0906
  H  H11  1  0.706800  0.166100  0.261600  1.0  0.1268
  H  H12  1  0.835700  0.058600  0.331700  1.0  0.0914
  H  H13  1  0.825500  0.037800  0.486000  1.0  0.0891
  H  H14  1  0.939200  0.141600  0.428000  1.0  0.0754
  H  H15  1  0.014900  0.088400  0.509600  1.0  0.0767
  H  H16  1  0.910600  0.103500  0.699200  1.0  0.0609
  H  H17  1  0.847300  0.159400  0.619300  1.0  0.0703
  H  H18  1  0.116000  0.144200  0.730100  1.0  0.0709
  H  H19  1  0.054100  0.200000  0.647100  1.0  0.0672
  H  H20  1  0.942400  0.215600  0.828900  1.0  0.0925
  H  H21  1  0.013500  0.162100  0.913500  1.0  0.0886
  H  H22  1  0.236500  0.181600  0.086100  1.0  0.1147
  H  H23  1  0.369700  0.267300  0.143300  1.0  0.095
  H  H24  1  0.093700  0.302800  0.804500  1.0  0.09
  H  H25  1  0.023100  0.486600  0.268000  1.0  0.0951
  H  H26  1  0.846000  0.562500  0.542600  1.0  0.0998
  H  H27  1  0.464800  0.460900  0.709400  1.0  0.0859
  H  H28  1  0.619100  0.583200  0.508900  1.0  0.0978
  H  H29  1  0.385900  0.556600  0.966000  1.0  0.1013
  H  H30  1  0.507900  0.689200  0.210500  1.0  0.0899
  H  H31  1  0.293200  0.666100  0.238400  1.0  0.1276
  H  H32  1  0.164300  0.558600  0.168300  1.0  0.0907
  H  H33  1  0.174500  0.537800  0.014000  1.0  0.0884
  H  H34  1  0.060800  0.641600  0.072000  1.0  0.0742
  H  H35  1  0.985100  0.588400  0.990400  1.0  0.0778
  H  H36  1  0.089400  0.603500  0.800800  1.0  0.0613
  H  H37  1  0.152700  0.659400  0.880700  1.0  0.0697
  H  H38  1  0.884000  0.644200  0.769900  1.0  0.07
  H  H39  1  0.945900  0.700000  0.852900  1.0  0.0676
  H  H40  1  0.057600  0.715600  0.671100  1.0  0.0928
  H  H41  1  0.986500  0.662100  0.586500  1.0  0.0883
  H  H42  1  0.763500  0.681600  0.413900  1.0  0.1147
  H  H43  1  0.630300  0.767300  0.356700  1.0  0.0952
  H  H44  1  0.906300  0.802800  0.695500  1.0  0.0899
  H  H45  1  0.023100  0.013400  0.768000  1.0  0.095
  H  H46  1  0.846000  0.937500  0.042600  1.0  0.1002
  H  H47  1  0.464800  0.039100  0.209400  1.0  0.0854
  H  H48  1  0.619100  0.916800  0.008900  1.0  0.0975
  H  H49  1  0.385900  0.943400  0.466000  1.0  0.1013
  H  H50  1  0.507900  0.810800  0.710500  1.0  0.0891
  H  H51  1  0.293200  0.833900  0.738400  1.0  0.1275
  H  H52  1  0.164300  0.941400  0.668300  1.0  0.0912
  H  H53  1  0.174500  0.962200  0.514000  1.0  0.0888
  H  H54  1  0.060800  0.858400  0.572000  1.0  0.0755
  H  H55  1  0.985100  0.911600  0.490400  1.0  0.0775
  H  H56  1  0.089400  0.896500  0.300800  1.0  0.0615
  H  H57  1  0.152700  0.840600  0.380700  1.0  0.0694
  H  H58  1  0.884000  0.855800  0.269900  1.0  0.07
  H  H59  1  0.945900  0.800000  0.352900  1.0  0.0688
  H  H60  1  0.057600  0.784400  0.171100  1.0  0.0923
  H  H61  1  0.986500  0.837900  0.086500  1.0  0.0883
  H  H62  1  0.763500  0.818400  0.913900  1.0  0.1143
  H  H63  1  0.630300  0.732700  0.856700  1.0  0.0951
  H  H64  1  0.906300  0.697200  0.195500  1.0  0.0904
  H  H65  1  0.976900  0.513400  0.732000  1.0  0.0968
  H  H66  1  0.154000  0.437500  0.457400  1.0  0.1001
  H  H67  1  0.535200  0.539100  0.290600  1.0  0.0851
  H  H68  1  0.380900  0.416800  0.491100  1.0  0.0975
  H  H69  1  0.614100  0.443400  0.034000  1.0  0.1011
  H  H70  1  0.492100  0.310800  0.789500  1.0  0.0887
  H  H71  1  0.706800  0.333900  0.761600  1.0  0.1264
  H  H72  1  0.835700  0.441400  0.831700  1.0  0.0914
  H  H73  1  0.825500  0.462200  0.986000  1.0  0.0891
  H  H74  1  0.939200  0.358400  0.928000  1.0  0.0745
  H  H75  1  0.014900  0.411600  0.009600  1.0  0.0774
  H  H76  1  0.910600  0.396500  0.199200  1.0  0.0602
  H  H77  1  0.847300  0.340600  0.119300  1.0  0.0698
  H  H78  1  0.116000  0.355800  0.230100  1.0  0.071
  H  H79  1  0.054100  0.300000  0.147100  1.0  0.0672
  H  H80  1  0.942400  0.284400  0.328900  1.0  0.0922
  H  H81  1  0.013500  0.337900  0.413500  1.0  0.0879
  H  H82  1  0.236500  0.318400  0.586100  1.0  0.1143
  H  H83  1  0.369700  0.232700  0.643300  1.0  0.0951
  H  H84  1  0.093700  0.197200  0.304500  1.0  0.09
  C  C85  1  0.163820  0.060300  0.235810  1.0  0.6814
  C  C86  1  0.078420  0.029220  0.113250  1.0  -0.1258
  C  C87  1  0.986320  0.992020  0.137890  1.0  -0.078
  C  C88  1  0.091550  0.037110  0.974680  1.0  -0.0382
  C  C89  1  0.396940  0.054610  0.728270  1.0  0.6381
  C  C90  1  0.449280  0.026130  0.869140  1.0  -0.1373
  C  C91  1  0.520820  0.976710  0.875540  1.0  -0.0288
  C  C92  1  0.429090  0.049400  0.994760  1.0  -0.042
  C  C93  1  0.609850  0.087120  0.469130  1.0  0.1273
  C  C94  1  0.544240  0.159230  0.336200  1.0  0.0
  C  C95  1  0.661680  0.146800  0.319900  1.0  -0.155
  C  C96  1  0.824760  0.071570  0.425200  1.0  -0.0574
  C  C97  1  0.934610  0.110110  0.494200  1.0  -0.1126
  C  C98  1  0.923150  0.134720  0.635870  1.0  -0.1239
  C  C99  1  0.040110  0.168940  0.710300  1.0  -0.1133
  C  C100  1  0.022120  0.193430  0.848700  1.0  -0.0041
  C  C101  1  0.223760  0.216610  0.036600  1.0  -0.1364
  C  C102  1  0.296450  0.263680  0.066600  1.0  0.0039
  C  C103  1  0.146750  0.283390  0.882830  1.0  0.1389
  C  C104  1  0.836180  0.560300  0.264190  1.0  0.682
  C  C105  1  0.921580  0.529220  0.386750  1.0  -0.1264
  C  C106  1  0.013680  0.492020  0.362110  1.0  -0.0773
  C  C107  1  0.908450  0.537110  0.525320  1.0  -0.0367
  C  C108  1  0.603060  0.554610  0.771730  1.0  0.6377
  C  C109  1  0.550720  0.526130  0.630860  1.0  -0.1378
  C  C110  1  0.479180  0.476710  0.624460  1.0  -0.0292
  C  C111  1  0.570910  0.549400  0.505240  1.0  -0.0414
  C  C112  1  0.390150  0.587120  0.030870  1.0  0.1272
  C  C113  1  0.455760  0.659230  0.163800  1.0  0.0009
  C  C114  1  0.338320  0.646800  0.180100  1.0  -0.1547
  C  C115  1  0.175240  0.571570  0.074800  1.0  -0.0571
  C  C116  1  0.065390  0.610110  0.005800  1.0  -0.112
  C  C117  1  0.076850  0.634720  0.864130  1.0  -0.1237
  C  C118  1  0.959890  0.668940  0.789700  1.0  -0.1151
  C  C119  1  0.977880  0.693430  0.651300  1.0  -0.0036
  C  C120  1  0.776240  0.716610  0.463400  1.0  -0.137
  C  C121  1  0.703550  0.763680  0.433400  1.0  0.0029
  C  C122  1  0.853250  0.783390  0.617170  1.0  0.1376
  C  C123  1  0.836180  0.939700  0.764190  1.0  0.6823
  C  C124  1  0.921580  0.970780  0.886750  1.0  -0.1265
  C  C125  1  0.013680  0.007980  0.862110  1.0  -0.0766
  C  C126  1  0.908450  0.962890  0.025320  1.0  -0.0366
  C  C127  1  0.603060  0.945390  0.271730  1.0  0.6379
  C  C128  1  0.550720  0.973870  0.130860  1.0  -0.1379
  C  C129  1  0.479180  0.023290  0.124460  1.0  -0.0294
  C  C130  1  0.570910  0.950600  0.005240  1.0  -0.0427
  C  C131  1  0.390150  0.912880  0.530870  1.0  0.1272
  C  C132  1  0.455760  0.840770  0.663800  1.0  0.0006
  C  C133  1  0.338320  0.853200  0.680100  1.0  -0.1536
  C  C134  1  0.175240  0.928430  0.574800  1.0  -0.0562
  C  C135  1  0.065390  0.889890  0.505800  1.0  -0.1118
  C  C136  1  0.076850  0.865280  0.364130  1.0  -0.1236
  C  C137  1  0.959890  0.831060  0.289700  1.0  -0.1152
  C  C138  1  0.977880  0.806570  0.151300  1.0  -0.0037
  C  C139  1  0.776240  0.783390  0.963400  1.0  -0.1365
  C  C140  1  0.703550  0.736320  0.933400  1.0  0.003
  C  C141  1  0.853250  0.716610  0.117170  1.0  0.1386
  C  C142  1  0.163820  0.439700  0.735810  1.0  0.6816
  C  C143  1  0.078420  0.470780  0.613250  1.0  -0.1258
  C  C144  1  0.986320  0.507980  0.637890  1.0  -0.0777
  C  C145  1  0.091550  0.462890  0.474680  1.0  -0.0381
  C  C146  1  0.396940  0.445390  0.228270  1.0  0.6378
  C  C147  1  0.449280  0.473870  0.369140  1.0  -0.1385
  C  C148  1  0.520820  0.523290  0.375540  1.0  -0.0288
  C  C149  1  0.429090  0.450600  0.494760  1.0  -0.0426
  C  C150  1  0.609850  0.412880  0.969130  1.0  0.1277
  C  C151  1  0.544240  0.340770  0.836200  1.0  0.0007
  C  C152  1  0.661680  0.353200  0.819900  1.0  -0.1546
  C  C153  1  0.824760  0.428430  0.925200  1.0  -0.0566
  C  C154  1  0.934610  0.389890  0.994200  1.0  -0.1121
  C  C155  1  0.923150  0.365280  0.135870  1.0  -0.1238
  C  C156  1  0.040110  0.331060  0.210300  1.0  -0.1134
  C  C157  1  0.022120  0.306570  0.348700  1.0  -0.0033
  C  C158  1  0.223760  0.283390  0.536600  1.0  -0.136
  C  C159  1  0.296450  0.236320  0.566600  1.0  0.0035
  C  C160  1  0.146750  0.216610  0.382830  1.0  0.1395
  N  N161  1  0.511750  0.121910  0.430470  1.0  -0.4009
  N  N162  1  0.702270  0.100500  0.405080  1.0  0.0363
  N  N163  1  0.127820  0.229910  0.919980  1.0  0.0421
  N  N164  1  0.248480  0.305510  0.969190  1.0  -0.401
  N  N165  1  0.488250  0.621910  0.069530  1.0  -0.4029
  N  N166  1  0.297730  0.600500  0.094920  1.0  0.0355
  N  N167  1  0.872180  0.729910  0.580020  1.0  0.0422
  N  N168  1  0.751520  0.805510  0.530810  1.0  -0.4035
  N  N169  1  0.488250  0.878090  0.569530  1.0  -0.4016
  N  N170  1  0.297730  0.899500  0.594920  1.0  0.036
  N  N171  1  0.872180  0.770090  0.080020  1.0  0.0423
  N  N172  1  0.751520  0.694490  0.030810  1.0  -0.4021
  N  N173  1  0.511750  0.378090  0.930470  1.0  -0.4008
  N  N174  1  0.702270  0.399500  0.905080  1.0  0.0362
  N  N175  1  0.127820  0.270090  0.419980  1.0  0.0422
  N  N176  1  0.248480  0.194490  0.469190  1.0  -0.4019
  O  O177  1  0.164050  0.044580  0.361010  1.0  -0.6096
  O  O178  1  0.231750  0.099610  0.210450  1.0  -0.6346
  O  O179  1  0.423500  0.033600  0.619640  1.0  -0.6217
  O  O180  1  0.330060  0.098290  0.722340  1.0  -0.5947
  O  O181  1  0.835950  0.544580  0.138990  1.0  -0.6092
  O  O182  1  0.768250  0.599610  0.289550  1.0  -0.6335
  O  O183  1  0.576500  0.533600  0.880360  1.0  -0.6235
  O  O184  1  0.669940  0.598290  0.777660  1.0  -0.5957
  O  O185  1  0.835950  0.955420  0.638990  1.0  -0.6092
  O  O186  1  0.768250  0.900390  0.789550  1.0  -0.6335
  O  O187  1  0.576500  0.966400  0.380360  1.0  -0.6235
  O  O188  1  0.669940  0.901710  0.277660  1.0  -0.5971
  O  O189  1  0.164050  0.455420  0.861010  1.0  -0.6097
  O  O190  1  0.231750  0.400390  0.710450  1.0  -0.6343
  O  O191  1  0.423500  0.466400  0.119640  1.0  -0.6214
  O  O192  1  0.330060  0.401710  0.222340  1.0  -0.5971
