# generated using pymatgen
data_Be3P4(HO3)4
_symmetry_space_group_name_H-M   'P 1'
_cell_length_a   8.59830000
_cell_length_b   13.15610000
_cell_length_c   13.46000000
_cell_angle_alpha   90.00000000
_cell_angle_beta   92.47000000
_cell_angle_gamma   90.00000000
_symmetry_Int_Tables_number   1
_chemical_formula_structural   Be3P4(HO3)4
_chemical_formula_sum   'Be12 P16 H16 O48'
_cell_volume   1521.18186541
_cell_formula_units_Z   4
loop_
 _symmetry_equiv_pos_site_id
 _symmetry_equiv_pos_as_xyz
  1  'x, y, z'
loop_
 _atom_site_type_symbol
 _atom_site_label
 _atom_site_symmetry_multiplicity
 _atom_site_fract_x
 _atom_site_fract_y
 _atom_site_fract_z
 _atom_site_occupancy
 _atom_site_charge
  Be  Be1  1  0.578300  0.119600  0.250500  1.0  1.1891
  Be  Be2  1  0.156200  0.995400  0.239500  1.0  1.1655
  Be  Be3  1  0.677000  0.826200  0.404600  1.0  1.1681
  Be  Be4  1  0.421700  0.619600  0.249500  1.0  1.189
  Be  Be5  1  0.843800  0.495400  0.260500  1.0  1.1675
  Be  Be6  1  0.323000  0.326200  0.095400  1.0  1.1685
  Be  Be7  1  0.421700  0.880400  0.749500  1.0  1.1897
  Be  Be8  1  0.843800  0.004600  0.760500  1.0  1.1666
  Be  Be9  1  0.323000  0.173800  0.595400  1.0  1.1696
  Be  Be10  1  0.578300  0.380400  0.750500  1.0  1.1895
  Be  Be11  1  0.156200  0.504600  0.739500  1.0  1.1654
  Be  Be12  1  0.677000  0.673800  0.904600  1.0  1.169
  P  P13  1  0.308530  0.136650  0.375790  1.0  1.5843
  P  P14  1  0.340870  0.100410  0.092610  1.0  1.5965
  P  P15  1  0.604240  0.341240  0.228330  1.0  1.6818
  P  P16  1  0.812110  0.953910  0.248830  1.0  1.608
  P  P17  1  0.691470  0.636650  0.124210  1.0  1.5864
  P  P18  1  0.659130  0.600410  0.407390  1.0  1.6001
  P  P19  1  0.395760  0.841240  0.271670  1.0  1.6788
  P  P20  1  0.187890  0.453910  0.251170  1.0  1.5875
  P  P21  1  0.691470  0.863350  0.624210  1.0  1.5903
  P  P22  1  0.659130  0.899590  0.907390  1.0  1.5983
  P  P23  1  0.395760  0.658760  0.771670  1.0  1.6786
  P  P24  1  0.187890  0.046090  0.751170  1.0  1.6081
  P  P25  1  0.308530  0.363350  0.875790  1.0  1.5879
  P  P26  1  0.340870  0.399590  0.592610  1.0  1.5983
  P  P27  1  0.604240  0.158760  0.728330  1.0  1.6805
  P  P28  1  0.812110  0.546090  0.748830  1.0  1.589
  H  H29  1  0.297000  0.238000  0.359000  1.0  -0.1218
  H  H30  1  0.360000  0.073000  0.990000  1.0  -0.0609
  H  H31  1  0.532000  0.377800  0.316100  1.0  -0.0818
  H  H32  1  0.734000  0.920000  0.168000  1.0  -0.0584
  H  H33  1  0.703000  0.738000  0.141000  1.0  -0.1217
  H  H34  1  0.640000  0.573000  0.510000  1.0  -0.0629
  H  H35  1  0.468000  0.877800  0.183900  1.0  -0.0799
  H  H36  1  0.266000  0.420000  0.332000  1.0  -0.0615
  H  H37  1  0.703000  0.762000  0.641000  1.0  -0.1231
  H  H38  1  0.640000  0.927000  0.010000  1.0  -0.0622
  H  H39  1  0.468000  0.622200  0.683900  1.0  -0.0796
  H  H40  1  0.266000  0.080000  0.832000  1.0  -0.0615
  H  H41  1  0.297000  0.262000  0.859000  1.0  -0.1223
  H  H42  1  0.360000  0.427000  0.490000  1.0  -0.0599
  H  H43  1  0.532000  0.122200  0.816100  1.0  -0.0818
  H  H44  1  0.734000  0.580000  0.668000  1.0  -0.0582
  O  O45  1  0.463100  0.097610  0.340860  1.0  -0.8539
  O  O46  1  0.501700  0.094750  0.142570  1.0  -0.6763
  O  O47  1  0.636300  0.235330  0.264710  1.0  -0.7068
  O  O48  1  0.736100  0.054490  0.270500  1.0  -0.7065
  O  O49  1  0.171100  0.090240  0.318450  1.0  -0.7913
  O  O50  1  0.225300  0.026540  0.133650  1.0  -0.8245
  O  O51  1  0.975700  0.968500  0.218880  1.0  -0.7876
  O  O52  1  0.801500  0.878570  0.332710  1.0  -0.8224
  O  O53  1  0.297400  0.119300  0.486640  1.0  -0.8936
  O  O54  1  0.274900  0.207130  0.089970  1.0  -0.8968
  O  O55  1  0.757000  0.395150  0.212160  1.0  -0.8265
  O  O56  1  0.502800  0.343410  0.133320  1.0  -0.8764
  O  O57  1  0.536900  0.597610  0.159140  1.0  -0.8539
  O  O58  1  0.498300  0.594750  0.357430  1.0  -0.6772
  O  O59  1  0.363700  0.735330  0.235290  1.0  -0.7055
  O  O60  1  0.263900  0.554490  0.229500  1.0  -0.7067
  O  O61  1  0.828900  0.590240  0.181550  1.0  -0.7918
  O  O62  1  0.774700  0.526540  0.366350  1.0  -0.8255
  O  O63  1  0.024300  0.468500  0.281120  1.0  -0.7899
  O  O64  1  0.198500  0.378570  0.167290  1.0  -0.8206
  O  O65  1  0.702600  0.619300  0.013360  1.0  -0.892
  O  O66  1  0.725100  0.707130  0.410030  1.0  -0.8974
  O  O67  1  0.243000  0.895150  0.287840  1.0  -0.8274
  O  O68  1  0.497200  0.843410  0.366680  1.0  -0.8776
  O  O69  1  0.536900  0.902390  0.659140  1.0  -0.853
  O  O70  1  0.498300  0.905250  0.857430  1.0  -0.6775
  O  O71  1  0.363700  0.764670  0.735290  1.0  -0.7051
  O  O72  1  0.263900  0.945510  0.729500  1.0  -0.7062
  O  O73  1  0.828900  0.909760  0.681550  1.0  -0.792
  O  O74  1  0.774700  0.973460  0.866350  1.0  -0.825
  O  O75  1  0.024300  0.031500  0.781120  1.0  -0.7906
  O  O76  1  0.198500  0.121430  0.667290  1.0  -0.8204
  O  O77  1  0.702600  0.880700  0.513360  1.0  -0.892
  O  O78  1  0.725100  0.792870  0.910030  1.0  -0.8975
  O  O79  1  0.243000  0.604850  0.787840  1.0  -0.8277
  O  O80  1  0.497200  0.656590  0.866680  1.0  -0.8773
  O  O81  1  0.463100  0.402390  0.840860  1.0  -0.854
  O  O82  1  0.501700  0.405250  0.642570  1.0  -0.6765
  O  O83  1  0.636300  0.264670  0.764710  1.0  -0.7069
  O  O84  1  0.736100  0.445510  0.770500  1.0  -0.707
  O  O85  1  0.171100  0.409760  0.818450  1.0  -0.7913
  O  O86  1  0.225300  0.473460  0.633650  1.0  -0.825
  O  O87  1  0.975700  0.531500  0.718880  1.0  -0.787
  O  O88  1  0.801500  0.621430  0.832710  1.0  -0.8222
  O  O89  1  0.297400  0.380700  0.986640  1.0  -0.8942
  O  O90  1  0.274900  0.292870  0.589970  1.0  -0.8968
  O  O91  1  0.757000  0.104850  0.712160  1.0  -0.8257
  O  O92  1  0.502800  0.156590  0.633320  1.0  -0.8756
