# generated using pymatgen
data_Be3P4(HO3)4
_symmetry_space_group_name_H-M   'P 1'
_cell_length_a   8.60320000
_cell_length_b   13.22300000
_cell_length_c   13.48100000
_cell_angle_alpha   90.00000000
_cell_angle_beta   92.38600000
_cell_angle_gamma   90.00000000
_symmetry_Int_Tables_number   1
_chemical_formula_structural   Be3P4(HO3)4
_chemical_formula_sum   'Be12 P16 H16 O48'
_cell_volume   1532.27050989
_cell_formula_units_Z   4
loop_
 _symmetry_equiv_pos_site_id
 _symmetry_equiv_pos_as_xyz
  1  'x, y, z'
loop_
 _atom_site_type_symbol
 _atom_site_label
 _atom_site_symmetry_multiplicity
 _atom_site_fract_x
 _atom_site_fract_y
 _atom_site_fract_z
 _atom_site_occupancy
 _atom_site_charge
  Be  Be1  1  0.420300  0.119600  0.750100  1.0  1.1996
  Be  Be2  1  0.676800  0.326300  0.904100  1.0  1.1576
  Be  Be3  1  0.841800  0.503900  0.258400  1.0  1.1578
  Be  Be4  1  0.579700  0.619600  0.749900  1.0  1.1996
  Be  Be5  1  0.323200  0.826300  0.595900  1.0  1.1605
  Be  Be6  1  0.158200  0.003900  0.241600  1.0  1.1585
  Be  Be7  1  0.579700  0.880400  0.249900  1.0  1.2003
  Be  Be8  1  0.323200  0.673700  0.095900  1.0  1.1605
  Be  Be9  1  0.158200  0.496100  0.741600  1.0  1.1591
  Be  Be10  1  0.420300  0.380400  0.250100  1.0  1.2
  Be  Be11  1  0.676800  0.173700  0.404100  1.0  1.1578
  Be  Be12  1  0.841800  0.996100  0.758400  1.0  1.1581
  P  P13  1  0.658810  0.100760  0.905970  1.0  1.565
  P  P14  1  0.394640  0.340090  0.771250  1.0  1.6309
  P  P15  1  0.813560  0.453960  0.750460  1.0  1.6176
  P  P16  1  0.690300  0.362290  0.123330  1.0  1.5979
  P  P17  1  0.341190  0.600760  0.594030  1.0  1.5643
  P  P18  1  0.605360  0.840090  0.728750  1.0  1.6336
  P  P19  1  0.186440  0.953960  0.749540  1.0  1.6166
  P  P20  1  0.309700  0.862290  0.376670  1.0  1.597
  P  P21  1  0.341190  0.899240  0.094030  1.0  1.5643
  P  P22  1  0.605360  0.659910  0.228750  1.0  1.6333
  P  P23  1  0.186440  0.546040  0.249540  1.0  1.619
  P  P24  1  0.309700  0.637710  0.876670  1.0  1.5917
  P  P25  1  0.658810  0.399240  0.405970  1.0  1.566
  P  P26  1  0.394640  0.159910  0.271250  1.0  1.6306
  P  P27  1  0.813560  0.046040  0.250460  1.0  1.6192
  P  P28  1  0.690300  0.137710  0.623330  1.0  1.5925
  H  H29  1  0.642700  0.075000  0.000900  1.0  -0.1186
  H  H30  1  0.466000  0.384600  0.698500  1.0  -0.125
  H  H31  1  0.737700  0.415200  0.673400  1.0  -0.0805
  H  H32  1  0.698400  0.264500  0.138600  1.0  -0.1202
  H  H33  1  0.357300  0.575000  0.499100  1.0  -0.1157
  H  H34  1  0.534000  0.884600  0.801500  1.0  -0.1276
  H  H35  1  0.262300  0.915200  0.826600  1.0  -0.0821
  H  H36  1  0.301600  0.764500  0.361400  1.0  -0.1199
  H  H37  1  0.357300  0.925000  0.999100  1.0  -0.115
  H  H38  1  0.534000  0.615400  0.301500  1.0  -0.1271
  H  H39  1  0.262300  0.584800  0.326600  1.0  -0.0822
  H  H40  1  0.301600  0.735500  0.861400  1.0  -0.1201
  H  H41  1  0.642700  0.425000  0.500900  1.0  -0.1183
  H  H42  1  0.466000  0.115400  0.198500  1.0  -0.1243
  H  H43  1  0.737700  0.084800  0.173400  1.0  -0.0798
  H  H44  1  0.698400  0.235500  0.638600  1.0  -0.1198
  O  O45  1  0.775800  0.028000  0.865100  1.0  -0.8362
  O  O46  1  0.498100  0.093700  0.856500  1.0  -0.66
  O  O47  1  0.723500  0.207600  0.908500  1.0  -0.8887
  O  O48  1  0.357700  0.233700  0.740200  1.0  -0.7163
  O  O49  1  0.498000  0.344600  0.864600  1.0  -0.874
  O  O50  1  0.243800  0.395900  0.787400  1.0  -0.8151
  O  O51  1  0.734900  0.552800  0.771300  1.0  -0.7065
  O  O52  1  0.976900  0.470000  0.720900  1.0  -0.7489
  O  O53  1  0.803400  0.378800  0.833100  1.0  -0.7189
  O  O54  1  0.699900  0.379400  0.012300  1.0  -0.8798
  O  O55  1  0.826800  0.410400  0.179800  1.0  -0.7873
  O  O56  1  0.534600  0.398600  0.159000  1.0  -0.8534
  O  O57  1  0.224200  0.528000  0.634900  1.0  -0.837
  O  O58  1  0.501900  0.593700  0.643500  1.0  -0.658
  O  O59  1  0.276500  0.707600  0.591500  1.0  -0.8877
  O  O60  1  0.642300  0.733700  0.759800  1.0  -0.7193
  O  O61  1  0.502000  0.844600  0.635400  1.0  -0.8721
  O  O62  1  0.756200  0.895900  0.712600  1.0  -0.8135
  O  O63  1  0.265100  0.052800  0.728700  1.0  -0.7061
  O  O64  1  0.023100  0.970000  0.779100  1.0  -0.7513
  O  O65  1  0.196600  0.878800  0.666900  1.0  -0.7166
  O  O66  1  0.300100  0.879400  0.487700  1.0  -0.8825
  O  O67  1  0.173200  0.910400  0.320200  1.0  -0.7846
  O  O68  1  0.465400  0.898600  0.341000  1.0  -0.854
  O  O69  1  0.224200  0.972000  0.134900  1.0  -0.8364
  O  O70  1  0.501900  0.906300  0.143500  1.0  -0.6581
  O  O71  1  0.276500  0.792400  0.091500  1.0  -0.8879
  O  O72  1  0.642300  0.766300  0.259800  1.0  -0.7193
  O  O73  1  0.502000  0.655400  0.135400  1.0  -0.8721
  O  O74  1  0.756200  0.604100  0.212600  1.0  -0.8123
  O  O75  1  0.265100  0.447200  0.228700  1.0  -0.7058
  O  O76  1  0.023100  0.530000  0.279100  1.0  -0.7514
  O  O77  1  0.196600  0.621200  0.166900  1.0  -0.7164
  O  O78  1  0.300100  0.620600  0.987700  1.0  -0.8817
  O  O79  1  0.173200  0.589600  0.820200  1.0  -0.7856
  O  O80  1  0.465400  0.601400  0.841000  1.0  -0.8541
  O  O81  1  0.775800  0.472000  0.365100  1.0  -0.8347
  O  O82  1  0.498100  0.406300  0.356500  1.0  -0.6601
  O  O83  1  0.723500  0.292400  0.408500  1.0  -0.8892
  O  O84  1  0.357700  0.266300  0.240200  1.0  -0.7158
  O  O85  1  0.498000  0.155400  0.364600  1.0  -0.8739
  O  O86  1  0.243800  0.104100  0.287400  1.0  -0.8154
  O  O87  1  0.734900  0.947200  0.271300  1.0  -0.7065
  O  O88  1  0.976900  0.030000  0.220900  1.0  -0.7501
  O  O89  1  0.803400  0.121200  0.333100  1.0  -0.7186
  O  O90  1  0.699900  0.120600  0.512300  1.0  -0.8797
  O  O91  1  0.826800  0.089600  0.679800  1.0  -0.7858
  O  O92  1  0.534600  0.101400  0.659000  1.0  -0.8539
