# generated using pymatgen
data_Cu2H9C17NO8
_symmetry_space_group_name_H-M   'P 1'
_cell_length_a   23.35800000
_cell_length_b   23.35800000
_cell_length_c   19.30000000
_cell_angle_alpha   90.00000000
_cell_angle_beta   90.00000000
_cell_angle_gamma   120.00000000
_symmetry_Int_Tables_number   1
_chemical_formula_structural   Cu2H9C17NO8
_chemical_formula_sum   'Cu18 H81 C153 N9 O72'
_cell_volume   9119.25266786
_cell_formula_units_Z   9
loop_
 _symmetry_equiv_pos_site_id
 _symmetry_equiv_pos_as_xyz
  1  'x, y, z'
loop_
 _atom_site_type_symbol
 _atom_site_label
 _atom_site_symmetry_multiplicity
 _atom_site_fract_x
 _atom_site_fract_y
 _atom_site_fract_z
 _atom_site_occupancy
 _atom_site_charge
  Cu  Cu1  1  0.064990  0.532710  0.999940  1.0  0.9178
  Cu  Cu2  1  0.934940  0.467590  0.973200  1.0  0.8872
  Cu  Cu3  1  0.731660  0.866040  0.333270  1.0  0.9165
  Cu  Cu4  1  0.601610  0.800920  0.306530  1.0  0.8889
  Cu  Cu5  1  0.398320  0.199380  0.666667  1.0  0.9183
  Cu  Cu6  1  0.268270  0.134260  0.639870  1.0  0.8872
  Cu  Cu7  1  0.467290  0.532280  0.999940  1.0  0.9179
  Cu  Cu8  1  0.532410  0.467350  0.973200  1.0  0.8875
  Cu  Cu9  1  0.133960  0.865610  0.333270  1.0  0.9172
  Cu  Cu10  1  0.199080  0.800680  0.306530  1.0  0.8883
  Cu  Cu11  1  0.800620  0.198950  0.666667  1.0  0.9175
  Cu  Cu12  1  0.865740  0.134020  0.639870  1.0  0.8875
  Cu  Cu13  1  0.467720  0.935010  0.999940  1.0  0.9189
  Cu  Cu14  1  0.532650  0.065060  0.973200  1.0  0.8877
  Cu  Cu15  1  0.134390  0.268340  0.333270  1.0  0.9183
  Cu  Cu16  1  0.199320  0.398390  0.306530  1.0  0.8887
  Cu  Cu17  1  0.801050  0.601680  0.666667  1.0  0.918
  Cu  Cu18  1  0.865980  0.731730  0.639870  1.0  0.8877
  H  H19  1  0.929100  0.596600  0.821700  1.0  0.1156
  H  H20  1  0.036300  0.787700  0.760400  1.0  0.1219
  H  H21  1  0.120800  0.707400  0.879900  1.0  0.113
  H  H22  1  0.189500  0.844900  0.739700  1.0  0.1016
  H  H23  1  0.214700  0.812400  0.796900  1.0  0.1051
  H  H24  1  0.135800  0.849300  0.854200  1.0  0.1604
  H  H25  1  0.292500  0.878300  0.881100  1.0  0.1126
  H  H26  1  0.401400  0.070700  0.824600  1.0  0.1152
  H  H27  1  0.214600  0.958500  0.752100  1.0  0.1188
  H  H28  1  0.595770  0.929930  0.155030  1.0  0.1156
  H  H29  1  0.702970  0.121030  0.093730  1.0  0.1219
  H  H30  1  0.787470  0.040730  0.213230  1.0  0.113
  H  H31  1  0.856170  0.178230  0.073030  1.0  0.1016
  H  H32  1  0.881370  0.145730  0.130230  1.0  0.1039
  H  H33  1  0.802470  0.182630  0.187530  1.0  0.1595
  H  H34  1  0.959170  0.211630  0.214430  1.0  0.1126
  H  H35  1  0.068070  0.404030  0.157930  1.0  0.1152
  H  H36  1  0.881270  0.291830  0.085430  1.0  0.1188
  H  H37  1  0.262430  0.263270  0.488370  1.0  0.1144
  H  H38  1  0.369630  0.454370  0.427070  1.0  0.1219
  H  H39  1  0.454130  0.374070  0.546570  1.0  0.113
  H  H40  1  0.522830  0.511570  0.406370  1.0  0.1016
  H  H41  1  0.548030  0.479070  0.463570  1.0  0.1026
  H  H42  1  0.469130  0.515970  0.520870  1.0  0.1614
  H  H43  1  0.625830  0.544970  0.547770  1.0  0.1126
  H  H44  1  0.734730  0.737370  0.491270  1.0  0.1152
  H  H45  1  0.547930  0.625170  0.418770  1.0  0.1188
  H  H46  1  0.403400  0.332500  0.821700  1.0  0.1165
  H  H47  1  0.212300  0.248600  0.760400  1.0  0.1226
  H  H48  1  0.292600  0.413400  0.879900  1.0  0.1128
  H  H49  1  0.155100  0.344600  0.739700  1.0  0.1016
  H  H50  1  0.187600  0.402300  0.796900  1.0  0.1025
  H  H51  1  0.150700  0.286500  0.854200  1.0  0.1607
  H  H52  1  0.121700  0.414200  0.881100  1.0  0.1127
  H  H53  1  0.929300  0.330700  0.824600  1.0  0.1147
  H  H54  1  0.041500  0.256100  0.752100  1.0  0.1191
  H  H55  1  0.070070  0.665830  0.155030  1.0  0.1165
  H  H56  1  0.878970  0.581930  0.093730  1.0  0.1226
  H  H57  1  0.959270  0.746730  0.213230  1.0  0.1128
  H  H58  1  0.821770  0.677930  0.073030  1.0  0.1016
  H  H59  1  0.854270  0.735630  0.130230  1.0  0.1025
  H  H60  1  0.817370  0.619830  0.187530  1.0  0.1626
  H  H61  1  0.788370  0.747530  0.214430  1.0  0.1127
  H  H62  1  0.595970  0.664030  0.157930  1.0  0.1147
  H  H63  1  0.708170  0.589430  0.085430  1.0  0.1191
  H  H64  1  0.736730  0.999170  0.488370  1.0  0.1163
  H  H65  1  0.545630  0.915270  0.427070  1.0  0.1225
  H  H66  1  0.625930  0.080070  0.546570  1.0  0.1128
  H  H67  1  0.488430  0.011270  0.406370  1.0  0.1016
  H  H68  1  0.520930  0.068970  0.463570  1.0  0.1049
  H  H69  1  0.484030  0.953170  0.520870  1.0  0.1607
  H  H70  1  0.455030  0.080870  0.547770  1.0  0.1128
  H  H71  1  0.262630  0.997370  0.491270  1.0  0.1147
  H  H72  1  0.374830  0.922770  0.418770  1.0  0.1192
  H  H73  1  0.667500  0.070900  0.821700  1.0  0.1157
  H  H74  1  0.751400  0.963700  0.760400  1.0  0.1227
  H  H75  1  0.586600  0.879200  0.879900  1.0  0.1122
  H  H76  1  0.655400  0.810500  0.739700  1.0  0.1014
  H  H77  1  0.597700  0.785300  0.796900  1.0  0.1041
  H  H78  1  0.713500  0.864200  0.854200  1.0  0.1615
  H  H79  1  0.585800  0.707500  0.881100  1.0  0.1131
  H  H80  1  0.669300  0.598600  0.824600  1.0  0.1151
  H  H81  1  0.743900  0.785400  0.752100  1.0  0.1182
  H  H82  1  0.334170  0.404230  0.155030  1.0  0.1157
  H  H83  1  0.418070  0.297030  0.093730  1.0  0.1227
  H  H84  1  0.253270  0.212530  0.213230  1.0  0.1122
  H  H85  1  0.322070  0.143830  0.073030  1.0  0.1014
  H  H86  1  0.264370  0.118630  0.130230  1.0  0.1041
  H  H87  1  0.380170  0.197530  0.187530  1.0  0.162
  H  H88  1  0.252470  0.040830  0.214430  1.0  0.1131
  H  H89  1  0.335970  0.931930  0.157930  1.0  0.1151
  H  H90  1  0.410570  0.118730  0.085430  1.0  0.1182
  H  H91  1  0.000830  0.737570  0.488370  1.0  0.1162
  H  H92  1  0.084730  0.630370  0.427070  1.0  0.1227
  H  H93  1  0.919930  0.545870  0.546570  1.0  0.1122
  H  H94  1  0.988730  0.477170  0.406370  1.0  0.1014
  H  H95  1  0.931030  0.451970  0.463570  1.0  0.1039
  H  H96  1  0.046830  0.530870  0.520870  1.0  0.1615
  H  H97  1  0.919130  0.374170  0.547770  1.0  0.1131
  H  H98  1  0.002630  0.265270  0.491270  1.0  0.1151
  H  H99  1  0.077230  0.452070  0.418770  1.0  0.1182
  C  C100  1  0.016800  0.586200  0.901000  1.0  0.7089
  C  C101  1  0.917800  0.687000  0.743000  1.0  0.7171
  C  C102  1  0.024200  0.643500  0.856500  1.0  -0.1383
  C  C103  1  0.969500  0.637400  0.821300  1.0  0.0077
  C  C104  1  0.974100  0.691200  0.785500  1.0  -0.1742
  C  C105  1  0.033300  0.751000  0.784800  1.0  -0.141
  C  C106  1  0.088000  0.757000  0.820000  1.0  0.2476
  C  C107  1  0.083400  0.703300  0.855800  1.0  -0.0873
  C  C108  1  0.197000  0.843000  0.790000  1.0  0.056
  C  C109  1  0.244300  0.908900  0.816100  1.0  0.1185
  C  C110  1  0.296700  0.915200  0.856000  1.0  -0.1492
  C  C111  1  0.355300  0.975500  0.859100  1.0  -0.1702
  C  C112  1  0.361400  0.029500  0.822400  1.0  -0.0064
  C  C113  1  0.309000  0.023200  0.782500  1.0  -0.1462
  C  C114  1  0.250400  0.962800  0.779400  1.0  -0.1835
  C  C115  1  0.411600  0.985700  0.905600  1.0  0.6867
  C  C116  1  0.315000  0.078600  0.737000  1.0  0.6862
  C  C117  1  0.683470  0.919530  0.234330  1.0  0.7089
  C  C118  1  0.584470  0.020330  0.076330  1.0  0.7171
  C  C119  1  0.690870  0.976830  0.189830  1.0  -0.1383
  C  C120  1  0.636170  0.970730  0.154630  1.0  0.0077
  C  C121  1  0.640770  0.024530  0.118830  1.0  -0.1742
  C  C122  1  0.699970  0.084330  0.118130  1.0  -0.141
  C  C123  1  0.754670  0.090330  0.153330  1.0  0.2476
  C  C124  1  0.750070  0.036630  0.189130  1.0  -0.0881
  C  C125  1  0.863670  0.176330  0.123330  1.0  0.056
  C  C126  1  0.910970  0.242230  0.149430  1.0  0.1185
  C  C127  1  0.963370  0.248530  0.189330  1.0  -0.1492
  C  C128  1  0.021970  0.308830  0.192430  1.0  -0.1702
  C  C129  1  0.028070  0.362830  0.155730  1.0  -0.0064
  C  C130  1  0.975670  0.356530  0.115830  1.0  -0.1462
  C  C131  1  0.917070  0.296130  0.112730  1.0  -0.1835
  C  C132  1  0.078270  0.319030  0.238930  1.0  0.6867
  C  C133  1  0.981670  0.411930  0.070330  1.0  0.6862
  C  C134  1  0.350130  0.252870  0.567670  1.0  0.709
  C  C135  1  0.251130  0.353670  0.409670  1.0  0.7171
  C  C136  1  0.357530  0.310170  0.523170  1.0  -0.1383
  C  C137  1  0.302830  0.304070  0.487970  1.0  0.0077
  C  C138  1  0.307430  0.357870  0.452170  1.0  -0.1742
  C  C139  1  0.366630  0.417670  0.451470  1.0  -0.141
  C  C140  1  0.421330  0.423670  0.486670  1.0  0.2487
  C  C141  1  0.416730  0.369970  0.522470  1.0  -0.0873
  C  C142  1  0.530330  0.509670  0.456670  1.0  0.056
  C  C143  1  0.577630  0.575570  0.482770  1.0  0.1185
  C  C144  1  0.630030  0.581870  0.522670  1.0  -0.1492
  C  C145  1  0.688630  0.642170  0.525770  1.0  -0.1702
  C  C146  1  0.694730  0.696170  0.489070  1.0  -0.0064
  C  C147  1  0.642330  0.689870  0.449170  1.0  -0.1462
  C  C148  1  0.583730  0.629470  0.446070  1.0  -0.1835
  C  C149  1  0.744930  0.652370  0.572270  1.0  0.6866
  C  C150  1  0.648330  0.745270  0.403670  1.0  0.6863
  C  C151  1  0.413800  0.430600  0.901000  1.0  0.7109
  C  C152  1  0.313000  0.230800  0.743000  1.0  0.7172
  C  C153  1  0.356500  0.380700  0.856500  1.0  -0.1377
  C  C154  1  0.362600  0.332100  0.821300  1.0  0.0065
  C  C155  1  0.308800  0.282900  0.785500  1.0  -0.1744
  C  C156  1  0.249000  0.282300  0.784800  1.0  -0.1403
  C  C157  1  0.243000  0.331000  0.820000  1.0  0.2479
  C  C158  1  0.296700  0.380100  0.855800  1.0  -0.0894
  C  C159  1  0.157000  0.354000  0.790000  1.0  0.0564
  C  C160  1  0.091100  0.335400  0.816100  1.0  0.1183
  C  C161  1  0.084800  0.381500  0.856000  1.0  -0.1511
  C  C162  1  0.024500  0.379800  0.859100  1.0  -0.1706
  C  C163  1  0.970500  0.331900  0.822400  1.0  -0.0058
  C  C164  1  0.976800  0.285800  0.782500  1.0  -0.1488
  C  C165  1  0.037200  0.287600  0.779400  1.0  -0.1836
  C  C166  1  0.014300  0.425900  0.905600  1.0  0.6884
  C  C167  1  0.921400  0.236400  0.737000  1.0  0.6871
  C  C168  1  0.080470  0.763930  0.234330  1.0  0.7109
  C  C169  1  0.979670  0.564130  0.076330  1.0  0.7172
  C  C170  1  0.023170  0.714030  0.189830  1.0  -0.1377
  C  C171  1  0.029270  0.665430  0.154630  1.0  0.0065
  C  C172  1  0.975470  0.616230  0.118830  1.0  -0.1744
  C  C173  1  0.915670  0.615630  0.118130  1.0  -0.1403
  C  C174  1  0.909670  0.664330  0.153330  1.0  0.2479
  C  C175  1  0.963370  0.713430  0.189130  1.0  -0.0902
  C  C176  1  0.823670  0.687330  0.123330  1.0  0.0564
  C  C177  1  0.757770  0.668730  0.149430  1.0  0.1183
  C  C178  1  0.751470  0.714830  0.189330  1.0  -0.1511
  C  C179  1  0.691170  0.713130  0.192430  1.0  -0.1706
  C  C180  1  0.637170  0.665230  0.155730  1.0  -0.0058
  C  C181  1  0.643470  0.619130  0.115830  1.0  -0.1488
  C  C182  1  0.703870  0.620930  0.112730  1.0  -0.1836
  C  C183  1  0.680970  0.759230  0.238930  1.0  0.6883
  C  C184  1  0.588070  0.569730  0.070330  1.0  0.6871
  C  C185  1  0.747130  0.097270  0.567670  1.0  0.711
  C  C186  1  0.646330  0.897470  0.409670  1.0  0.7172
  C  C187  1  0.689830  0.047370  0.523170  1.0  -0.1377
  C  C188  1  0.695930  0.998770  0.487970  1.0  0.0065
  C  C189  1  0.642130  0.949570  0.452170  1.0  -0.1743
  C  C190  1  0.582330  0.948970  0.451470  1.0  -0.1403
  C  C191  1  0.576330  0.997670  0.486670  1.0  0.2466
  C  C192  1  0.630030  0.046770  0.522470  1.0  -0.0894
  C  C193  1  0.490330  0.020670  0.456670  1.0  0.0564
  C  C194  1  0.424430  0.002070  0.482770  1.0  0.1183
  C  C195  1  0.418130  0.048170  0.522670  1.0  -0.1511
  C  C196  1  0.357830  0.046470  0.525770  1.0  -0.1706
  C  C197  1  0.303830  0.998570  0.489070  1.0  -0.0058
  C  C198  1  0.310130  0.952470  0.449170  1.0  -0.1488
  C  C199  1  0.370530  0.954270  0.446070  1.0  -0.1836
  C  C200  1  0.347630  0.092570  0.572270  1.0  0.6883
  C  C201  1  0.254730  0.903070  0.403670  1.0  0.687
  C  C202  1  0.569400  0.983200  0.901000  1.0  0.7078
  C  C203  1  0.769200  0.082200  0.743000  1.0  0.7164
  C  C204  1  0.619300  0.975800  0.856500  1.0  -0.138
  C  C205  1  0.667900  0.030500  0.821300  1.0  0.0081
  C  C206  1  0.717100  0.025900  0.785500  1.0  -0.1737
  C  C207  1  0.717700  0.966700  0.784800  1.0  -0.1387
  C  C208  1  0.669000  0.912000  0.820000  1.0  0.2473
  C  C209  1  0.619900  0.916600  0.855800  1.0  -0.0884
  C  C210  1  0.646000  0.803000  0.790000  1.0  0.0572
  C  C211  1  0.664600  0.755700  0.816100  1.0  0.1208
  C  C212  1  0.618500  0.703300  0.856000  1.0  -0.1494
  C  C213  1  0.620200  0.644700  0.859100  1.0  -0.1708
  C  C214  1  0.668100  0.638600  0.822400  1.0  -0.0056
  C  C215  1  0.714200  0.691000  0.782500  1.0  -0.1476
  C  C216  1  0.712400  0.749600  0.779400  1.0  -0.1846
  C  C217  1  0.574100  0.588400  0.905600  1.0  0.6881
  C  C218  1  0.763600  0.685000  0.737000  1.0  0.6856
  C  C219  1  0.236070  0.316530  0.234330  1.0  0.7078
  C  C220  1  0.435870  0.415530  0.076330  1.0  0.7164
  C  C221  1  0.285970  0.309130  0.189830  1.0  -0.138
  C  C222  1  0.334570  0.363830  0.154630  1.0  0.0081
  C  C223  1  0.383770  0.359230  0.118830  1.0  -0.1737
  C  C224  1  0.384370  0.300030  0.118130  1.0  -0.1387
  C  C225  1  0.335670  0.245330  0.153330  1.0  0.2473
  C  C226  1  0.286570  0.249930  0.189130  1.0  -0.088
  C  C227  1  0.312670  0.136330  0.123330  1.0  0.0572
  C  C228  1  0.331270  0.089030  0.149430  1.0  0.1208
  C  C229  1  0.285170  0.036630  0.189330  1.0  -0.1494
  C  C230  1  0.286870  0.978030  0.192430  1.0  -0.1708
  C  C231  1  0.334770  0.971930  0.155730  1.0  -0.0056
  C  C232  1  0.380870  0.024330  0.115830  1.0  -0.1476
  C  C233  1  0.379070  0.082930  0.112730  1.0  -0.1846
  C  C234  1  0.240770  0.921730  0.238930  1.0  0.6881
  C  C235  1  0.430270  0.018330  0.070330  1.0  0.6856
  C  C236  1  0.902730  0.649870  0.567670  1.0  0.7079
  C  C237  1  0.102530  0.748870  0.409670  1.0  0.7164
  C  C238  1  0.952630  0.642470  0.523170  1.0  -0.138
  C  C239  1  0.001230  0.697170  0.487970  1.0  0.0081
  C  C240  1  0.050430  0.692570  0.452170  1.0  -0.1737
  C  C241  1  0.051030  0.633370  0.451470  1.0  -0.1387
  C  C242  1  0.002330  0.578670  0.486670  1.0  0.2465
  C  C243  1  0.953230  0.583270  0.522470  1.0  -0.0884
  C  C244  1  0.979330  0.469670  0.456670  1.0  0.0572
  C  C245  1  0.997930  0.422370  0.482770  1.0  0.1208
  C  C246  1  0.951830  0.369970  0.522670  1.0  -0.1494
  C  C247  1  0.953530  0.311370  0.525770  1.0  -0.1708
  C  C248  1  0.001430  0.305270  0.489070  1.0  -0.0056
  C  C249  1  0.047530  0.357670  0.449170  1.0  -0.1476
  C  C250  1  0.045730  0.416270  0.446070  1.0  -0.1846
  C  C251  1  0.907430  0.255070  0.572270  1.0  0.6881
  C  C252  1  0.096930  0.351670  0.403670  1.0  0.6855
  N  N253  1  0.140000  0.821700  0.826000  1.0  -0.2949
  N  N254  1  0.806670  0.155030  0.159330  1.0  -0.2949
  N  N255  1  0.473330  0.488370  0.492670  1.0  -0.2949
  N  N256  1  0.178300  0.318300  0.826000  1.0  -0.2974
  N  N257  1  0.844970  0.651630  0.159330  1.0  -0.2974
  N  N258  1  0.511630  0.984970  0.492670  1.0  -0.2974
  N  N259  1  0.681700  0.860000  0.826000  1.0  -0.2972
  N  N260  1  0.348370  0.193330  0.159330  1.0  -0.2972
  N  N261  1  0.015030  0.526670  0.492670  1.0  -0.2972
  O  O262  1  0.066300  0.594200  0.931600  1.0  -0.5644
  O  O263  1  0.960500  0.542300  0.906900  1.0  -0.5715
  O  O264  1  0.872400  0.626100  0.733900  1.0  -0.6
  O  O265  1  0.927400  0.734800  0.709000  1.0  -0.5536
  O  O266  1  0.405500  0.932300  0.928600  1.0  -0.5902
  O  O267  1  0.462600  0.041200  0.905600  1.0  -0.5801
  O  O268  1  0.373600  0.129200  0.733300  1.0  -0.5925
  O  O269  1  0.265800  0.071900  0.711400  1.0  -0.5537
  O  O270  1  0.732970  0.927530  0.264930  1.0  -0.5644
  O  O271  1  0.627170  0.875630  0.240230  1.0  -0.5715
  O  O272  1  0.539070  0.959430  0.067230  1.0  -0.6003
  O  O273  1  0.594070  0.068130  0.042330  1.0  -0.554
  O  O274  1  0.072170  0.265630  0.261930  1.0  -0.5902
  O  O275  1  0.129270  0.374530  0.238930  1.0  -0.5801
  O  O276  1  0.040270  0.462530  0.066630  1.0  -0.5926
  O  O277  1  0.932470  0.405230  0.044730  1.0  -0.5538
  O  O278  1  0.399630  0.260870  0.598270  1.0  -0.5644
  O  O279  1  0.293830  0.208970  0.573570  1.0  -0.5716
  O  O280  1  0.205730  0.292770  0.400570  1.0  -0.6005
  O  O281  1  0.260730  0.401470  0.375670  1.0  -0.5503
  O  O282  1  0.738830  0.598970  0.595270  1.0  -0.5898
  O  O283  1  0.795930  0.707870  0.572270  1.0  -0.5802
  O  O284  1  0.706930  0.795870  0.399970  1.0  -0.5918
  O  O285  1  0.599130  0.738570  0.378070  1.0  -0.5538
  O  O286  1  0.405800  0.472100  0.931600  1.0  -0.5656
  O  O287  1  0.457700  0.418200  0.906900  1.0  -0.5726
  O  O288  1  0.373900  0.246300  0.733900  1.0  -0.6003
  O  O289  1  0.265200  0.192600  0.709000  1.0  -0.5476
  O  O290  1  0.067700  0.473200  0.928600  1.0  -0.5916
  O  O291  1  0.958800  0.421400  0.905600  1.0  -0.5796
  O  O292  1  0.870800  0.244400  0.733300  1.0  -0.5928
  O  O293  1  0.928100  0.193900  0.711400  1.0  -0.5542
  O  O294  1  0.072470  0.805430  0.264930  1.0  -0.5656
  O  O295  1  0.124370  0.751530  0.240230  1.0  -0.5726
  O  O296  1  0.040570  0.579630  0.067230  1.0  -0.6008
  O  O297  1  0.931870  0.525930  0.042330  1.0  -0.5478
  O  O298  1  0.734370  0.806530  0.261930  1.0  -0.5915
  O  O299  1  0.625470  0.754730  0.238930  1.0  -0.5796
  O  O300  1  0.537470  0.577730  0.066630  1.0  -0.592
  O  O301  1  0.594770  0.527230  0.044730  1.0  -0.5544
  O  O302  1  0.739130  0.138770  0.598270  1.0  -0.5656
  O  O303  1  0.791030  0.084870  0.573570  1.0  -0.5728
  O  O304  1  0.707230  0.912970  0.400570  1.0  -0.6007
  O  O305  1  0.598530  0.859270  0.375670  1.0  -0.5574
  O  O306  1  0.401030  0.139870  0.595270  1.0  -0.5921
  O  O307  1  0.292130  0.088070  0.572270  1.0  -0.5798
  O  O308  1  0.204130  0.911070  0.399970  1.0  -0.5928
  O  O309  1  0.261430  0.860570  0.378070  1.0  -0.5544
  O  O310  1  0.527900  0.933700  0.931600  1.0  -0.5635
  O  O311  1  0.581800  0.039500  0.906900  1.0  -0.5707
  O  O312  1  0.753700  0.127600  0.733900  1.0  -0.6008
  O  O313  1  0.807400  0.072600  0.709000  1.0  -0.5489
  O  O314  1  0.526800  0.594500  0.928600  1.0  -0.5908
  O  O315  1  0.578600  0.537400  0.905600  1.0  -0.5803
  O  O316  1  0.755600  0.626400  0.733300  1.0  -0.5918
  O  O317  1  0.806100  0.734200  0.711400  1.0  -0.5545
  O  O318  1  0.194570  0.267030  0.264930  1.0  -0.5635
  O  O319  1  0.248470  0.372830  0.240230  1.0  -0.5707
  O  O320  1  0.420370  0.460930  0.067230  1.0  -0.6013
  O  O321  1  0.474070  0.405930  0.042330  1.0  -0.5489
  O  O322  1  0.193470  0.927830  0.261930  1.0  -0.5908
  O  O323  1  0.245270  0.870730  0.238930  1.0  -0.5803
  O  O324  1  0.422270  0.959730  0.066630  1.0  -0.5914
  O  O325  1  0.472770  0.067530  0.044730  1.0  -0.5543
  O  O326  1  0.861230  0.600370  0.598270  1.0  -0.5639
  O  O327  1  0.915130  0.706170  0.573570  1.0  -0.5706
  O  O328  1  0.087030  0.794270  0.400570  1.0  -0.6011
  O  O329  1  0.140730  0.739270  0.375670  1.0  -0.5541
  O  O330  1  0.860130  0.261170  0.595270  1.0  -0.5914
  O  O331  1  0.911930  0.204070  0.572270  1.0  -0.5805
  O  O332  1  0.088930  0.293070  0.399970  1.0  -0.5905
  O  O333  1  0.139430  0.400870  0.378070  1.0  -0.5543
