# generated using pymatgen
data_ZnH12C16(NO2)2
_symmetry_space_group_name_H-M   'P 1'
_cell_length_a   8.89790000
_cell_length_b   21.45870000
_cell_length_c   13.48510000
_cell_angle_alpha   90.00000000
_cell_angle_beta   96.78040000
_cell_angle_gamma   90.00000000
_symmetry_Int_Tables_number   1
_chemical_formula_structural   ZnH12C16(NO2)2
_chemical_formula_sum   'Zn4 H48 C64 N8 O16'
_cell_volume   2556.80114856
_cell_formula_units_Z   4
loop_
 _symmetry_equiv_pos_site_id
 _symmetry_equiv_pos_as_xyz
  1  'x, y, z'
loop_
 _atom_site_type_symbol
 _atom_site_label
 _atom_site_symmetry_multiplicity
 _atom_site_fract_x
 _atom_site_fract_y
 _atom_site_fract_z
 _atom_site_occupancy
 _atom_site_charge
  Zn  Zn1  1  0.500000  0.647320  0.750000  1.0  0.8529
  Zn  Zn2  1  0.000000  0.147320  0.750000  1.0  0.8529
  Zn  Zn3  1  0.500000  0.352680  0.250000  1.0  0.855
  Zn  Zn4  1  0.000000  0.852680  0.250000  1.0  0.855
  H  H5  1  0.828400  0.701600  0.046000  1.0  0.1079
  H  H6  1  0.495200  0.527000  0.861000  1.0  0.0877
  H  H7  1  0.338300  0.470600  0.950300  1.0  0.1168
  H  H8  1  0.017800  0.599000  0.881900  1.0  0.1188
  H  H9  1  0.179200  0.649900  0.788600  1.0  0.0846
  H  H10  1  0.108400  0.455800  0.019400  1.0  0.0822
  H  H11  1  0.328400  0.201600  0.046000  1.0  0.1079
  H  H12  1  0.995200  0.027000  0.861000  1.0  0.0877
  H  H13  1  0.838300  0.970600  0.950300  1.0  0.1168
  H  H14  1  0.517800  0.099000  0.881900  1.0  0.1188
  H  H15  1  0.679200  0.149900  0.788600  1.0  0.0846
  H  H16  1  0.608400  0.955800  0.019400  1.0  0.0822
  H  H17  1  0.171600  0.701600  0.454000  1.0  0.1077
  H  H18  1  0.504800  0.527000  0.639000  1.0  0.0873
  H  H19  1  0.661700  0.470600  0.549700  1.0  0.1172
  H  H20  1  0.982200  0.599000  0.618100  1.0  0.1183
  H  H21  1  0.820800  0.649900  0.711400  1.0  0.0848
  H  H22  1  0.891600  0.455800  0.480600  1.0  0.0818
  H  H23  1  0.671600  0.201600  0.454000  1.0  0.1077
  H  H24  1  0.004800  0.027000  0.639000  1.0  0.0873
  H  H25  1  0.161700  0.970600  0.549700  1.0  0.1172
  H  H26  1  0.482200  0.099000  0.618100  1.0  0.1183
  H  H27  1  0.320800  0.149900  0.711400  1.0  0.0848
  H  H28  1  0.391600  0.955800  0.480600  1.0  0.0818
  H  H29  1  0.171600  0.298400  0.954000  1.0  0.108
  H  H30  1  0.504800  0.473000  0.139000  1.0  0.0871
  H  H31  1  0.661700  0.529400  0.049700  1.0  0.1168
  H  H32  1  0.982200  0.401000  0.118100  1.0  0.1186
  H  H33  1  0.820800  0.350100  0.211400  1.0  0.0853
  H  H34  1  0.891600  0.544200  0.980600  1.0  0.0823
  H  H35  1  0.671600  0.798400  0.954000  1.0  0.108
  H  H36  1  0.004800  0.973000  0.139000  1.0  0.0871
  H  H37  1  0.161700  0.029400  0.049700  1.0  0.1168
  H  H38  1  0.482200  0.901000  0.118100  1.0  0.1186
  H  H39  1  0.320800  0.850100  0.211400  1.0  0.0853
  H  H40  1  0.391600  0.044200  0.980600  1.0  0.0823
  H  H41  1  0.828400  0.298400  0.546000  1.0  0.1079
  H  H42  1  0.495200  0.473000  0.361000  1.0  0.088
  H  H43  1  0.338300  0.529400  0.450300  1.0  0.1166
  H  H44  1  0.017800  0.401000  0.381900  1.0  0.1191
  H  H45  1  0.179200  0.350100  0.288600  1.0  0.0851
  H  H46  1  0.108400  0.544200  0.519400  1.0  0.0821
  H  H47  1  0.328400  0.798400  0.546000  1.0  0.1079
  H  H48  1  0.995200  0.973000  0.361000  1.0  0.088
  H  H49  1  0.838300  0.029400  0.450300  1.0  0.1166
  H  H50  1  0.517800  0.901000  0.381900  1.0  0.1191
  H  H51  1  0.679200  0.850100  0.288600  1.0  0.0851
  H  H52  1  0.608400  0.044200  0.519400  1.0  0.0821
  C  C53  1  0.687100  0.679050  0.916800  1.0  0.6945
  C  C54  1  0.761000  0.720090  0.996700  1.0  -0.1935
  C  C55  1  0.397700  0.541510  0.865200  1.0  0.1729
  C  C56  1  0.304100  0.507500  0.919300  1.0  -0.2132
  C  C57  1  0.159800  0.528540  0.927400  1.0  0.129
  C  C58  1  0.114300  0.583220  0.878100  1.0  -0.205
  C  C59  1  0.212800  0.614100  0.823300  1.0  0.1683
  C  C60  1  0.067200  0.492300  0.990800  1.0  -0.1024
  C  C61  1  0.187100  0.179050  0.916800  1.0  0.6945
  C  C62  1  0.261000  0.220090  0.996700  1.0  -0.1935
  C  C63  1  0.897700  0.041510  0.865200  1.0  0.1729
  C  C64  1  0.804100  0.007500  0.919300  1.0  -0.2132
  C  C65  1  0.659800  0.028540  0.927400  1.0  0.129
  C  C66  1  0.614300  0.083220  0.878100  1.0  -0.205
  C  C67  1  0.712800  0.114100  0.823300  1.0  0.1683
  C  C68  1  0.567200  0.992300  0.990800  1.0  -0.1024
  C  C69  1  0.312900  0.679050  0.583200  1.0  0.6942
  C  C70  1  0.239000  0.720090  0.503300  1.0  -0.1958
  C  C71  1  0.602300  0.541510  0.634800  1.0  0.1731
  C  C72  1  0.695900  0.507500  0.580700  1.0  -0.2148
  C  C73  1  0.840200  0.528540  0.572600  1.0  0.1292
  C  C74  1  0.885700  0.583220  0.621900  1.0  -0.2054
  C  C75  1  0.787200  0.614100  0.676700  1.0  0.1677
  C  C76  1  0.932800  0.492300  0.509200  1.0  -0.1047
  C  C77  1  0.812900  0.179050  0.583200  1.0  0.6942
  C  C78  1  0.739000  0.220090  0.503300  1.0  -0.1958
  C  C79  1  0.102300  0.041510  0.634800  1.0  0.1731
  C  C80  1  0.195900  0.007500  0.580700  1.0  -0.2148
  C  C81  1  0.340200  0.028540  0.572600  1.0  0.1292
  C  C82  1  0.385700  0.083220  0.621900  1.0  -0.2054
  C  C83  1  0.287200  0.114100  0.676700  1.0  0.1677
  C  C84  1  0.432800  0.992300  0.509200  1.0  -0.1047
  C  C85  1  0.312900  0.320950  0.083200  1.0  0.6966
  C  C86  1  0.239000  0.279910  0.003300  1.0  -0.1961
  C  C87  1  0.602300  0.458490  0.134800  1.0  0.1723
  C  C88  1  0.695900  0.492500  0.080700  1.0  -0.2154
  C  C89  1  0.840200  0.471460  0.072600  1.0  0.1294
  C  C90  1  0.885700  0.416780  0.121900  1.0  -0.205
  C  C91  1  0.787200  0.385900  0.176700  1.0  0.1668
  C  C92  1  0.932800  0.507700  0.009200  1.0  -0.1041
  C  C93  1  0.812900  0.820950  0.083200  1.0  0.6966
  C  C94  1  0.739000  0.779910  0.003300  1.0  -0.1961
  C  C95  1  0.102300  0.958490  0.134800  1.0  0.1723
  C  C96  1  0.195900  0.992500  0.080700  1.0  -0.2154
  C  C97  1  0.340200  0.971460  0.072600  1.0  0.1294
  C  C98  1  0.385700  0.916780  0.121900  1.0  -0.205
  C  C99  1  0.287200  0.885900  0.176700  1.0  0.1668
  C  C100  1  0.432800  0.007700  0.009200  1.0  -0.1041
  C  C101  1  0.687100  0.320950  0.416800  1.0  0.6968
  C  C102  1  0.761000  0.279910  0.496700  1.0  -0.194
  C  C103  1  0.397700  0.458490  0.365200  1.0  0.1723
  C  C104  1  0.304100  0.492500  0.419300  1.0  -0.2142
  C  C105  1  0.159800  0.471460  0.427400  1.0  0.1292
  C  C106  1  0.114300  0.416780  0.378100  1.0  -0.2048
  C  C107  1  0.212800  0.385900  0.323300  1.0  0.1676
  C  C108  1  0.067200  0.507700  0.490800  1.0  -0.1017
  C  C109  1  0.187100  0.820950  0.416800  1.0  0.6968
  C  C110  1  0.261000  0.779910  0.496700  1.0  -0.194
  C  C111  1  0.897700  0.958490  0.365200  1.0  0.1723
  C  C112  1  0.804100  0.992500  0.419300  1.0  -0.2142
  C  C113  1  0.659800  0.971460  0.427400  1.0  0.1292
  C  C114  1  0.614300  0.916780  0.378100  1.0  -0.2048
  C  C115  1  0.712800  0.885900  0.323300  1.0  0.1676
  C  C116  1  0.567200  0.007700  0.490800  1.0  -0.1017
  N  N117  1  0.353300  0.594900  0.818180  1.0  -0.3188
  N  N118  1  0.853300  0.094900  0.818180  1.0  -0.3188
  N  N119  1  0.646700  0.594900  0.681820  1.0  -0.3186
  N  N120  1  0.146700  0.094900  0.681820  1.0  -0.3186
  N  N121  1  0.646700  0.405100  0.181820  1.0  -0.3191
  N  N122  1  0.146700  0.905100  0.181820  1.0  -0.3191
  N  N123  1  0.353300  0.405100  0.318180  1.0  -0.3191
  N  N124  1  0.853300  0.905100  0.318180  1.0  -0.3191
  O  O125  1  0.602800  0.705930  0.846320  1.0  -0.5999
  O  O126  1  0.707100  0.622980  0.921900  1.0  -0.555
  O  O127  1  0.102800  0.205930  0.846320  1.0  -0.5999
  O  O128  1  0.207100  0.122980  0.921900  1.0  -0.555
  O  O129  1  0.397200  0.705930  0.653680  1.0  -0.5987
  O  O130  1  0.292900  0.622980  0.578100  1.0  -0.5547
  O  O131  1  0.897200  0.205930  0.653680  1.0  -0.5987
  O  O132  1  0.792900  0.122980  0.578100  1.0  -0.5547
  O  O133  1  0.397200  0.294070  0.153680  1.0  -0.5979
  O  O134  1  0.292900  0.377020  0.078100  1.0  -0.5562
  O  O135  1  0.897200  0.794070  0.153680  1.0  -0.5979
  O  O136  1  0.792900  0.877020  0.078100  1.0  -0.5562
  O  O137  1  0.602800  0.294070  0.346320  1.0  -0.5969
  O  O138  1  0.707100  0.377020  0.421900  1.0  -0.555
  O  O139  1  0.102800  0.794070  0.346320  1.0  -0.5969
  O  O140  1  0.207100  0.877020  0.421900  1.0  -0.555
