# generated using pymatgen
data_ZnH14C18(NO2)2
_symmetry_space_group_name_H-M   'P 1'
_cell_length_a   12.47100000
_cell_length_b   13.30600000
_cell_length_c   15.71100000
_cell_angle_alpha   90.00000000
_cell_angle_beta   90.00000000
_cell_angle_gamma   90.00000000
_symmetry_Int_Tables_number   1
_chemical_formula_structural   ZnH14C18(NO2)2
_chemical_formula_sum   'Zn4 H56 C72 N8 O16'
_cell_volume   2607.06960859
_cell_formula_units_Z   4
loop_
 _symmetry_equiv_pos_site_id
 _symmetry_equiv_pos_as_xyz
  1  'x, y, z'
loop_
 _atom_site_type_symbol
 _atom_site_label
 _atom_site_symmetry_multiplicity
 _atom_site_fract_x
 _atom_site_fract_y
 _atom_site_fract_z
 _atom_site_occupancy
 _atom_site_charge
  Zn  Zn1  1  0.850090  0.250000  0.250000  1.0  0.8334
  Zn  Zn2  1  0.149910  0.750000  0.750000  1.0  0.8311
  Zn  Zn3  1  0.649910  0.750000  0.250000  1.0  0.8311
  Zn  Zn4  1  0.350090  0.250000  0.750000  1.0  0.8334
  H  H5  1  0.067400  0.355400  0.027200  1.0  0.0972
  H  H6  1  0.919000  0.500300  0.064900  1.0  0.1016
  H  H7  1  0.767400  0.265400  0.434900  1.0  0.0949
  H  H8  1  0.644500  0.356900  0.511600  1.0  0.1259
  H  H9  1  0.564500  0.504300  0.301200  1.0  0.1372
  H  H10  1  0.682000  0.411200  0.229000  1.0  0.0734
  H  H11  1  0.482200  0.558100  0.431400  1.0  0.0837
  H  H12  1  0.067400  0.144600  0.472800  1.0  0.0972
  H  H13  1  0.919000  0.999700  0.435100  1.0  0.1022
  H  H14  1  0.767400  0.234600  0.065100  1.0  0.0942
  H  H15  1  0.644500  0.143100  0.988400  1.0  0.1262
  H  H16  1  0.564500  0.995700  0.198800  1.0  0.137
  H  H17  1  0.682000  0.088800  0.271000  1.0  0.0734
  H  H18  1  0.482200  0.941900  0.068600  1.0  0.0833
  H  H19  1  0.932600  0.644600  0.972800  1.0  0.0981
  H  H20  1  0.081000  0.499700  0.935100  1.0  0.1021
  H  H21  1  0.232600  0.734600  0.565100  1.0  0.094
  H  H22  1  0.355500  0.643100  0.488400  1.0  0.1263
  H  H23  1  0.435500  0.495700  0.698800  1.0  0.1371
  H  H24  1  0.318000  0.588800  0.771000  1.0  0.0731
  H  H25  1  0.517800  0.441900  0.568600  1.0  0.083
  H  H26  1  0.932600  0.855400  0.527200  1.0  0.098
  H  H27  1  0.081000  0.000300  0.564900  1.0  0.102
  H  H28  1  0.232600  0.765400  0.934900  1.0  0.0947
  H  H29  1  0.355500  0.856900  0.011600  1.0  0.1256
  H  H30  1  0.435500  0.004300  0.801200  1.0  0.1372
  H  H31  1  0.318000  0.911200  0.729000  1.0  0.0736
  H  H32  1  0.517800  0.058100  0.931400  1.0  0.0829
  H  H33  1  0.432600  0.644600  0.027200  1.0  0.0982
  H  H34  1  0.581000  0.499700  0.064900  1.0  0.1023
  H  H35  1  0.732600  0.734600  0.434900  1.0  0.0946
  H  H36  1  0.855500  0.643100  0.511600  1.0  0.1256
  H  H37  1  0.935500  0.495700  0.301200  1.0  0.1373
  H  H38  1  0.818000  0.588800  0.229000  1.0  0.0737
  H  H39  1  0.017800  0.441900  0.431400  1.0  0.0834
  H  H40  1  0.432600  0.855400  0.472800  1.0  0.098
  H  H41  1  0.581000  0.000300  0.435100  1.0  0.1022
  H  H42  1  0.732600  0.765400  0.065100  1.0  0.0944
  H  H43  1  0.855500  0.856900  0.988400  1.0  0.1263
  H  H44  1  0.935500  0.004300  0.198800  1.0  0.1367
  H  H45  1  0.818000  0.911200  0.271000  1.0  0.0731
  H  H46  1  0.017800  0.058100  0.068600  1.0  0.0824
  H  H47  1  0.567400  0.355400  0.972800  1.0  0.0973
  H  H48  1  0.419000  0.500300  0.935100  1.0  0.1027
  H  H49  1  0.267400  0.265400  0.565100  1.0  0.0946
  H  H50  1  0.144500  0.356900  0.488400  1.0  0.126
  H  H51  1  0.064500  0.504300  0.698800  1.0  0.1369
  H  H52  1  0.182000  0.411200  0.771000  1.0  0.0734
  H  H53  1  0.982200  0.558100  0.568600  1.0  0.0827
  H  H54  1  0.567400  0.144600  0.527200  1.0  0.0972
  H  H55  1  0.419000  0.999700  0.564900  1.0  0.1015
  H  H56  1  0.267400  0.234600  0.934900  1.0  0.0949
  H  H57  1  0.144500  0.143100  0.011600  1.0  0.1259
  H  H58  1  0.064500  0.995700  0.801200  1.0  0.1371
  H  H59  1  0.182000  0.088800  0.729000  1.0  0.0735
  H  H60  1  0.982200  0.941900  0.931400  1.0  0.083
  C  C61  1  0.967800  0.319700  0.129100  1.0  0.6488
  C  C62  1  0.010700  0.382100  0.058200  1.0  -0.0689
  C  C63  1  0.976000  0.471800  0.035300  1.0  -0.1048
  C  C64  1  0.726000  0.313400  0.407200  1.0  0.1391
  C  C65  1  0.652900  0.368600  0.453600  1.0  -0.1449
  C  C66  1  0.592600  0.441100  0.413800  1.0  0.06
  C  C67  1  0.604800  0.455800  0.329400  1.0  -0.2164
  C  C68  1  0.675600  0.399700  0.287200  1.0  0.1759
  C  C69  1  0.513700  0.505500  0.461300  1.0  -0.1106
  C  C70  1  0.967800  0.180300  0.370900  1.0  0.6491
  C  C71  1  0.010700  0.117900  0.441800  1.0  -0.0684
  C  C72  1  0.976000  0.028200  0.464700  1.0  -0.1042
  C  C73  1  0.726000  0.186600  0.092800  1.0  0.1403
  C  C74  1  0.652900  0.131400  0.046400  1.0  -0.1445
  C  C75  1  0.592600  0.058900  0.086200  1.0  0.0593
  C  C76  1  0.604800  0.044200  0.170600  1.0  -0.2158
  C  C77  1  0.675600  0.100300  0.212800  1.0  0.1761
  C  C78  1  0.513700  0.994500  0.038700  1.0  -0.1119
  C  C79  1  0.032200  0.680300  0.870900  1.0  0.6498
  C  C80  1  0.989300  0.617900  0.941800  1.0  -0.0696
  C  C81  1  0.024000  0.528200  0.964700  1.0  -0.1023
  C  C82  1  0.274000  0.686600  0.592800  1.0  0.1406
  C  C83  1  0.347100  0.631400  0.546400  1.0  -0.1446
  C  C84  1  0.407400  0.558900  0.586200  1.0  0.0593
  C  C85  1  0.395200  0.544200  0.670600  1.0  -0.212
  C  C86  1  0.324400  0.600300  0.712800  1.0  0.1752
  C  C87  1  0.486300  0.494500  0.538700  1.0  -0.1121
  C  C88  1  0.032200  0.819700  0.629100  1.0  0.6495
  C  C89  1  0.989300  0.882100  0.558200  1.0  -0.0701
  C  C90  1  0.024000  0.971800  0.535300  1.0  -0.1027
  C  C91  1  0.274000  0.813400  0.907200  1.0  0.1403
  C  C92  1  0.347100  0.868600  0.953600  1.0  -0.1444
  C  C93  1  0.407400  0.941100  0.913800  1.0  0.0597
  C  C94  1  0.395200  0.955800  0.829400  1.0  -0.212
  C  C95  1  0.324400  0.899700  0.787200  1.0  0.1755
  C  C96  1  0.486300  0.005500  0.961300  1.0  -0.111
  C  C97  1  0.532200  0.680300  0.129100  1.0  0.6499
  C  C98  1  0.489300  0.617900  0.058200  1.0  -0.069
  C  C99  1  0.524000  0.528200  0.035300  1.0  -0.1032
  C  C100  1  0.774000  0.686600  0.407200  1.0  0.1402
  C  C101  1  0.847100  0.631400  0.453600  1.0  -0.1434
  C  C102  1  0.907400  0.558900  0.413800  1.0  0.0587
  C  C103  1  0.895200  0.544200  0.329400  1.0  -0.2127
  C  C104  1  0.824400  0.600300  0.287200  1.0  0.1754
  C  C105  1  0.986300  0.494500  0.461300  1.0  -0.1098
  C  C106  1  0.532200  0.819700  0.370900  1.0  0.6498
  C  C107  1  0.489300  0.882100  0.441800  1.0  -0.07
  C  C108  1  0.524000  0.971800  0.464700  1.0  -0.1034
  C  C109  1  0.774000  0.813400  0.092800  1.0  0.1393
  C  C110  1  0.847100  0.868600  0.046400  1.0  -0.1446
  C  C111  1  0.907400  0.941100  0.086200  1.0  0.0603
  C  C112  1  0.895200  0.955800  0.170600  1.0  -0.2113
  C  C113  1  0.824400  0.899700  0.212800  1.0  0.1752
  C  C114  1  0.986300  0.005500  0.038700  1.0  -0.1115
  C  C115  1  0.467800  0.319700  0.870900  1.0  0.649
  C  C116  1  0.510700  0.382100  0.941800  1.0  -0.0686
  C  C117  1  0.476000  0.471800  0.964700  1.0  -0.1033
  C  C118  1  0.226000  0.313400  0.592800  1.0  0.1383
  C  C119  1  0.152900  0.368600  0.546400  1.0  -0.1447
  C  C120  1  0.092600  0.441100  0.586200  1.0  0.0604
  C  C121  1  0.104800  0.455800  0.670600  1.0  -0.2163
  C  C122  1  0.175600  0.399700  0.712800  1.0  0.1756
  C  C123  1  0.013700  0.505500  0.538700  1.0  -0.1127
  C  C124  1  0.467800  0.180300  0.629100  1.0  0.6491
  C  C125  1  0.510700  0.117900  0.558200  1.0  -0.0682
  C  C126  1  0.476000  0.028200  0.535300  1.0  -0.1034
  C  C127  1  0.226000  0.186600  0.907200  1.0  0.1396
  C  C128  1  0.152900  0.131400  0.953600  1.0  -0.144
  C  C129  1  0.092600  0.058900  0.913800  1.0  0.0588
  C  C130  1  0.104800  0.044200  0.829400  1.0  -0.216
  C  C131  1  0.175600  0.100300  0.787200  1.0  0.1765
  C  C132  1  0.013700  0.994500  0.961300  1.0  -0.1116
  N  N133  1  0.739100  0.327300  0.321400  1.0  -0.3438
  N  N134  1  0.739100  0.172700  0.178600  1.0  -0.3431
  N  N135  1  0.260900  0.672700  0.678600  1.0  -0.3427
  N  N136  1  0.260900  0.827300  0.821400  1.0  -0.3439
  N  N137  1  0.760900  0.672700  0.321400  1.0  -0.3424
  N  N138  1  0.760900  0.827300  0.178600  1.0  -0.3432
  N  N139  1  0.239100  0.327300  0.678600  1.0  -0.3429
  N  N140  1  0.239100  0.172700  0.821400  1.0  -0.3431
  O  O141  1  0.892400  0.363100  0.173300  1.0  -0.5808
  O  O142  1  0.991900  0.232400  0.140500  1.0  -0.5897
  O  O143  1  0.892400  0.136900  0.326700  1.0  -0.5809
  O  O144  1  0.991900  0.267600  0.359500  1.0  -0.5887
  O  O145  1  0.107600  0.636900  0.826700  1.0  -0.5798
  O  O146  1  0.008100  0.767600  0.859500  1.0  -0.5877
  O  O147  1  0.107600  0.863100  0.673300  1.0  -0.58
  O  O148  1  0.008100  0.732400  0.640500  1.0  -0.5866
  O  O149  1  0.607600  0.636900  0.173300  1.0  -0.5801
  O  O150  1  0.508100  0.767600  0.140500  1.0  -0.5883
  O  O151  1  0.607600  0.863100  0.326700  1.0  -0.5797
  O  O152  1  0.508100  0.732400  0.359500  1.0  -0.5869
  O  O153  1  0.392400  0.363100  0.826700  1.0  -0.5803
  O  O154  1  0.491900  0.232400  0.859500  1.0  -0.5897
  O  O155  1  0.392400  0.136900  0.673300  1.0  -0.5816
  O  O156  1  0.491900  0.267600  0.640500  1.0  -0.5887
