# generated using pymatgen
data_Eu5(C4O7)3
_symmetry_space_group_name_H-M   'P 1'
_cell_length_a   25.95300000
_cell_length_b   11.01500000
_cell_length_c   13.24600000
_cell_angle_alpha   90.00000000
_cell_angle_beta   119.16000000
_cell_angle_gamma   90.00000000
_symmetry_Int_Tables_number   1
_chemical_formula_structural   Eu5(C4O7)3
_chemical_formula_sum   'Eu20 C48 O84'
_cell_volume   3306.75186658
_cell_formula_units_Z   4
loop_
 _symmetry_equiv_pos_site_id
 _symmetry_equiv_pos_as_xyz
  1  'x, y, z'
loop_
 _atom_site_type_symbol
 _atom_site_label
 _atom_site_symmetry_multiplicity
 _atom_site_fract_x
 _atom_site_fract_y
 _atom_site_fract_z
 _atom_site_occupancy
 _atom_site_charge
  Eu  Eu1  1  0.500000  0.240800  0.000000  1.0  2.0284
  Eu  Eu2  1  0.000000  0.740800  0.000000  1.0  2.0284
  Eu  Eu3  1  0.500000  0.759200  0.000000  1.0  2.0284
  Eu  Eu4  1  0.000000  0.259200  0.000000  1.0  2.0284
  Eu  Eu5  1  0.493700  0.000000  0.792800  1.0  2.0946
  Eu  Eu6  1  0.384800  0.000000  0.902200  1.0  2.1034
  Eu  Eu7  1  0.993700  0.500000  0.792800  1.0  2.0946
  Eu  Eu8  1  0.884800  0.500000  0.902200  1.0  2.1034
  Eu  Eu9  1  0.506300  0.000000  0.207200  1.0  2.0948
  Eu  Eu10  1  0.615200  0.000000  0.097800  1.0  2.1068
  Eu  Eu11  1  0.006300  0.500000  0.207200  1.0  2.0948
  Eu  Eu12  1  0.115200  0.500000  0.097800  1.0  2.1068
  Eu  Eu13  1  0.421200  0.500000  0.082900  1.0  2.1423
  Eu  Eu14  1  0.406400  0.500000  0.773400  1.0  2.1327
  Eu  Eu15  1  0.921200  0.000000  0.082900  1.0  2.1423
  Eu  Eu16  1  0.906400  0.000000  0.773400  1.0  2.1327
  Eu  Eu17  1  0.578800  0.500000  0.917100  1.0  2.1414
  Eu  Eu18  1  0.593600  0.500000  0.226600  1.0  2.1331
  Eu  Eu19  1  0.078800  0.000000  0.917100  1.0  2.1414
  Eu  Eu20  1  0.093600  0.000000  0.226600  1.0  2.1331
  C  C21  1  0.406000  0.317000  0.295000  1.0  0.649
  C  C22  1  0.401000  0.376000  0.385000  1.0  0.1135
  C  C23  1  0.447000  0.366000  0.504000  1.0  -0.0244
  C  C24  1  0.436000  0.288000  0.589000  1.0  0.2659
  C  C25  1  0.906000  0.817000  0.295000  1.0  0.649
  C  C26  1  0.901000  0.876000  0.385000  1.0  0.1135
  C  C27  1  0.947000  0.866000  0.504000  1.0  -0.0244
  C  C28  1  0.936000  0.788000  0.589000  1.0  0.2659
  C  C29  1  0.594000  0.317000  0.705000  1.0  0.6487
  C  C30  1  0.599000  0.376000  0.615000  1.0  0.1166
  C  C31  1  0.553000  0.366000  0.496000  1.0  -0.0231
  C  C32  1  0.564000  0.288000  0.411000  1.0  0.2677
  C  C33  1  0.094000  0.817000  0.705000  1.0  0.6487
  C  C34  1  0.099000  0.876000  0.615000  1.0  0.1166
  C  C35  1  0.053000  0.866000  0.496000  1.0  -0.0231
  C  C36  1  0.064000  0.788000  0.411000  1.0  0.2677
  C  C37  1  0.594000  0.683000  0.705000  1.0  0.6479
  C  C38  1  0.599000  0.624000  0.615000  1.0  0.1151
  C  C39  1  0.553000  0.634000  0.496000  1.0  -0.0243
  C  C40  1  0.564000  0.712000  0.411000  1.0  0.2674
  C  C41  1  0.094000  0.183000  0.705000  1.0  0.6479
  C  C42  1  0.099000  0.124000  0.615000  1.0  0.1151
  C  C43  1  0.053000  0.134000  0.496000  1.0  -0.0243
  C  C44  1  0.064000  0.212000  0.411000  1.0  0.2674
  C  C45  1  0.406000  0.683000  0.295000  1.0  0.6486
  C  C46  1  0.401000  0.624000  0.385000  1.0  0.1123
  C  C47  1  0.447000  0.634000  0.504000  1.0  -0.0255
  C  C48  1  0.436000  0.712000  0.589000  1.0  0.2658
  C  C49  1  0.906000  0.183000  0.295000  1.0  0.6486
  C  C50  1  0.901000  0.124000  0.385000  1.0  0.1123
  C  C51  1  0.947000  0.134000  0.504000  1.0  -0.0255
  C  C52  1  0.936000  0.212000  0.589000  1.0  0.2658
  C  C53  1  0.622000  0.000000  0.816000  1.0  0.6389
  C  C54  1  0.122000  0.500000  0.816000  1.0  0.6389
  C  C55  1  0.378000  0.000000  0.184000  1.0  0.6391
  C  C56  1  0.878000  0.500000  0.184000  1.0  0.6391
  C  C57  1  0.256000  0.500000  0.944000  1.0  0.7414
  C  C58  1  0.221000  0.500000  0.826000  1.0  0.0851
  C  C59  1  0.163000  0.500000  0.769000  1.0  0.0505
  C  C60  1  0.756000  0.000000  0.944000  1.0  0.7414
  C  C61  1  0.721000  0.000000  0.826000  1.0  0.0851
  C  C62  1  0.663000  0.000000  0.769000  1.0  0.0505
  C  C63  1  0.744000  0.500000  0.056000  1.0  0.7419
  C  C64  1  0.779000  0.500000  0.174000  1.0  0.0824
  C  C65  1  0.837000  0.500000  0.231000  1.0  0.0439
  C  C66  1  0.244000  0.000000  0.056000  1.0  0.7419
  C  C67  1  0.279000  0.000000  0.174000  1.0  0.0824
  C  C68  1  0.337000  0.000000  0.231000  1.0  0.0439
  O  O69  1  0.426000  0.137000  0.818000  1.0  -0.841
  O  O70  1  0.434000  0.139000  0.070000  1.0  -0.7232
  O  O71  1  0.407000  0.368000  0.924000  1.0  -0.812
  O  O72  1  0.511000  0.351000  0.170000  1.0  -0.7548
  O  O73  1  0.399000  0.370000  0.203000  1.0  -0.6993
  O  O74  1  0.434000  0.226000  0.320000  1.0  -0.3779
  O  O75  1  0.467000  0.180000  0.639000  1.0  -0.601
  O  O76  1  0.405000  0.340000  0.636000  1.0  -0.5942
  O  O77  1  0.926000  0.637000  0.818000  1.0  -0.841
  O  O78  1  0.934000  0.639000  0.070000  1.0  -0.7232
  O  O79  1  0.907000  0.868000  0.924000  1.0  -0.812
  O  O80  1  0.011000  0.851000  0.170000  1.0  -0.7548
  O  O81  1  0.899000  0.870000  0.203000  1.0  -0.6993
  O  O82  1  0.934000  0.726000  0.320000  1.0  -0.3779
  O  O83  1  0.967000  0.680000  0.639000  1.0  -0.601
  O  O84  1  0.905000  0.840000  0.636000  1.0  -0.5942
  O  O85  1  0.574000  0.137000  0.182000  1.0  -0.8381
  O  O86  1  0.566000  0.139000  0.930000  1.0  -0.7232
  O  O87  1  0.593000  0.368000  0.076000  1.0  -0.815
  O  O88  1  0.489000  0.351000  0.830000  1.0  -0.7563
  O  O89  1  0.601000  0.370000  0.797000  1.0  -0.6988
  O  O90  1  0.566000  0.226000  0.680000  1.0  -0.3784
  O  O91  1  0.533000  0.180000  0.361000  1.0  -0.6011
  O  O92  1  0.595000  0.340000  0.364000  1.0  -0.5909
  O  O93  1  0.074000  0.637000  0.182000  1.0  -0.8381
  O  O94  1  0.066000  0.639000  0.930000  1.0  -0.7232
  O  O95  1  0.093000  0.868000  0.076000  1.0  -0.815
  O  O96  1  0.989000  0.851000  0.830000  1.0  -0.7563
  O  O97  1  0.101000  0.870000  0.797000  1.0  -0.6988
  O  O98  1  0.066000  0.726000  0.680000  1.0  -0.3784
  O  O99  1  0.033000  0.680000  0.361000  1.0  -0.6011
  O  O100  1  0.095000  0.840000  0.364000  1.0  -0.5909
  O  O101  1  0.574000  0.863000  0.182000  1.0  -0.8384
  O  O102  1  0.566000  0.861000  0.930000  1.0  -0.7218
  O  O103  1  0.593000  0.632000  0.076000  1.0  -0.8141
  O  O104  1  0.489000  0.649000  0.830000  1.0  -0.7563
  O  O105  1  0.601000  0.630000  0.797000  1.0  -0.699
  O  O106  1  0.566000  0.774000  0.680000  1.0  -0.3775
  O  O107  1  0.533000  0.820000  0.361000  1.0  -0.5998
  O  O108  1  0.595000  0.660000  0.364000  1.0  -0.5923
  O  O109  1  0.074000  0.363000  0.182000  1.0  -0.8384
  O  O110  1  0.066000  0.361000  0.930000  1.0  -0.7218
  O  O111  1  0.093000  0.132000  0.076000  1.0  -0.8141
  O  O112  1  0.989000  0.149000  0.830000  1.0  -0.7563
  O  O113  1  0.101000  0.130000  0.797000  1.0  -0.699
  O  O114  1  0.066000  0.274000  0.680000  1.0  -0.3775
  O  O115  1  0.033000  0.320000  0.361000  1.0  -0.5998
  O  O116  1  0.095000  0.160000  0.364000  1.0  -0.5923
  O  O117  1  0.426000  0.863000  0.818000  1.0  -0.8411
  O  O118  1  0.434000  0.861000  0.070000  1.0  -0.7221
  O  O119  1  0.407000  0.632000  0.924000  1.0  -0.8111
  O  O120  1  0.511000  0.649000  0.170000  1.0  -0.7549
  O  O121  1  0.399000  0.630000  0.203000  1.0  -0.6994
  O  O122  1  0.434000  0.774000  0.320000  1.0  -0.3808
  O  O123  1  0.467000  0.820000  0.639000  1.0  -0.6003
  O  O124  1  0.405000  0.660000  0.636000  1.0  -0.5946
  O  O125  1  0.926000  0.363000  0.818000  1.0  -0.8411
  O  O126  1  0.934000  0.361000  0.070000  1.0  -0.7221
  O  O127  1  0.907000  0.132000  0.924000  1.0  -0.8111
  O  O128  1  0.011000  0.149000  0.170000  1.0  -0.7549
  O  O129  1  0.899000  0.130000  0.203000  1.0  -0.6994
  O  O130  1  0.934000  0.274000  0.320000  1.0  -0.3808
  O  O131  1  0.967000  0.320000  0.639000  1.0  -0.6003
  O  O132  1  0.905000  0.160000  0.636000  1.0  -0.5946
  O  O133  1  0.567000  0.000000  0.743000  1.0  -0.6152
  O  O134  1  0.362000  0.000000  0.073000  1.0  -0.6214
  O  O135  1  0.067000  0.500000  0.743000  1.0  -0.6152
  O  O136  1  0.862000  0.500000  0.073000  1.0  -0.6214
  O  O137  1  0.433000  0.000000  0.257000  1.0  -0.6174
  O  O138  1  0.638000  0.000000  0.927000  1.0  -0.6222
  O  O139  1  0.933000  0.500000  0.257000  1.0  -0.6174
  O  O140  1  0.138000  0.500000  0.927000  1.0  -0.6222
  O  O141  1  0.313000  0.500000  0.985000  1.0  -0.7447
  O  O142  1  0.235000  0.500000  0.013000  1.0  -0.485
  O  O143  1  0.813000  0.000000  0.985000  1.0  -0.7447
  O  O144  1  0.735000  0.000000  0.013000  1.0  -0.485
  O  O145  1  0.687000  0.500000  0.015000  1.0  -0.7484
  O  O146  1  0.765000  0.500000  0.987000  1.0  -0.4858
  O  O147  1  0.187000  0.000000  0.015000  1.0  -0.7484
  O  O148  1  0.265000  0.000000  0.987000  1.0  -0.4858
  O  O149  1  0.500000  0.500000  0.000000  1.0  -0.7765
  O  O150  1  0.000000  0.000000  0.000000  1.0  -0.7765
  O  O151  1  0.500000  0.000000  0.000000  1.0  -0.7248
  O  O152  1  0.000000  0.500000  0.000000  1.0  -0.7248
