# generated using pymatgen
data_Al2P2C3(O3F)2
_symmetry_space_group_name_H-M   'P 1'
_cell_length_a   12.05910000
_cell_length_b   19.16470000
_cell_length_c   4.91140000
_cell_angle_alpha   90.00000000
_cell_angle_beta   90.00000000
_cell_angle_gamma   90.00000000
_symmetry_Int_Tables_number   1
_chemical_formula_structural   Al2P2C3(O3F)2
_chemical_formula_sum   'Al8 P8 C12 O24 F8'
_cell_volume   1135.06890846
_cell_formula_units_Z   4
loop_
 _symmetry_equiv_pos_site_id
 _symmetry_equiv_pos_as_xyz
  1  'x, y, z'
loop_
 _atom_site_type_symbol
 _atom_site_label
 _atom_site_symmetry_multiplicity
 _atom_site_fract_x
 _atom_site_fract_y
 _atom_site_fract_z
 _atom_site_occupancy
 _atom_site_charge
  Al  Al1  1  0.250000  0.062340  0.733700  1.0  1.9559
  Al  Al2  1  0.250000  0.437660  0.733700  1.0  1.9557
  Al  Al3  1  0.750000  0.562340  0.266300  1.0  1.9559
  Al  Al4  1  0.750000  0.937660  0.266300  1.0  1.9556
  Al  Al5  1  0.000000  0.000000  0.000000  1.0  1.9262
  Al  Al6  1  0.500000  0.500000  0.000000  1.0  1.9262
  Al  Al7  1  0.000000  0.500000  0.000000  1.0  1.9262
  Al  Al8  1  0.500000  0.000000  0.000000  1.0  1.9262
  P  P9  1  0.015430  0.104710  0.502400  1.0  1.5611
  P  P10  1  0.484570  0.395290  0.502400  1.0  1.5598
  P  P11  1  0.984570  0.604710  0.497600  1.0  1.5629
  P  P12  1  0.515430  0.895290  0.497600  1.0  1.5584
  P  P13  1  0.984570  0.895290  0.497600  1.0  1.5598
  P  P14  1  0.515430  0.604710  0.497600  1.0  1.561
  P  P15  1  0.015430  0.395290  0.502400  1.0  1.5584
  P  P16  1  0.484570  0.104710  0.502400  1.0  1.5629
  C  C17  1  0.948400  0.187580  0.559200  1.0  -0.1967
  C  C18  1  0.551600  0.312420  0.559200  1.0  -0.1964
  C  C19  1  0.051600  0.687580  0.440800  1.0  -0.1976
  C  C20  1  0.448400  0.812420  0.440800  1.0  -0.1974
  C  C21  1  0.051600  0.812420  0.440800  1.0  -0.1976
  C  C22  1  0.448400  0.687580  0.440800  1.0  -0.197
  C  C23  1  0.948400  0.312420  0.559200  1.0  -0.197
  C  C24  1  0.551600  0.187580  0.559200  1.0  -0.1968
  C  C25  1  0.012400  0.250000  0.451400  1.0  0.0626
  C  C26  1  0.487600  0.250000  0.451400  1.0  0.0617
  C  C27  1  0.987600  0.750000  0.548600  1.0  0.0599
  C  C28  1  0.512400  0.750000  0.548600  1.0  0.0607
  O  O29  1  0.003000  0.085330  0.200300  1.0  -0.9037
  O  O30  1  0.142400  0.110200  0.534400  1.0  -0.9112
  O  O31  1  0.958700  0.049200  0.682800  1.0  -0.9072
  O  O32  1  0.497000  0.414670  0.200300  1.0  -0.9043
  O  O33  1  0.357600  0.389800  0.534400  1.0  -0.9098
  O  O34  1  0.541300  0.450800  0.682800  1.0  -0.9066
  O  O35  1  0.997000  0.585330  0.799700  1.0  -0.9036
  O  O36  1  0.857600  0.610200  0.465600  1.0  -0.9127
  O  O37  1  0.041300  0.549200  0.317200  1.0  -0.9077
  O  O38  1  0.503000  0.914670  0.799700  1.0  -0.9044
  O  O39  1  0.642400  0.889800  0.465600  1.0  -0.9096
  O  O40  1  0.458700  0.950800  0.317200  1.0  -0.9063
  O  O41  1  0.997000  0.914670  0.799700  1.0  -0.9047
  O  O42  1  0.857600  0.889800  0.465600  1.0  -0.9105
  O  O43  1  0.041300  0.950800  0.317200  1.0  -0.9069
  O  O44  1  0.503000  0.585330  0.799700  1.0  -0.9042
  O  O45  1  0.642400  0.610200  0.465600  1.0  -0.9121
  O  O46  1  0.458700  0.549200  0.317200  1.0  -0.9073
  O  O47  1  0.003000  0.414670  0.200300  1.0  -0.9038
  O  O48  1  0.142400  0.389800  0.534400  1.0  -0.9101
  O  O49  1  0.958700  0.450800  0.682800  1.0  -0.9063
  O  O50  1  0.497000  0.085330  0.200300  1.0  -0.9035
  O  O51  1  0.357600  0.110200  0.534400  1.0  -0.9132
  O  O52  1  0.541300  0.049200  0.682800  1.0  -0.9077
  F  F53  1  0.146100  0.013500  0.926300  1.0  -0.6135
  F  F54  1  0.353900  0.486500  0.926300  1.0  -0.6131
  F  F55  1  0.853900  0.513500  0.073700  1.0  -0.6125
  F  F56  1  0.646100  0.986500  0.073700  1.0  -0.6132
  F  F57  1  0.853900  0.986500  0.073700  1.0  -0.6122
  F  F58  1  0.646100  0.513500  0.073700  1.0  -0.6126
  F  F59  1  0.146100  0.486500  0.926300  1.0  -0.6135
  F  F60  1  0.353900  0.013500  0.926300  1.0  -0.6125
