# generated using pymatgen
data_CoH20C29N3O5
_symmetry_space_group_name_H-M   'P 1'
_cell_length_a   16.83960000
_cell_length_b   21.48630000
_cell_length_c   21.48630000
_cell_angle_alpha   81.16660000
_cell_angle_beta   66.92920000
_cell_angle_gamma   66.92910000
_symmetry_Int_Tables_number   1
_chemical_formula_structural   CoH20C29N3O5
_chemical_formula_sum   'Co8 H160 C232 N24 O40'
_cell_volume   6580.37295185
_cell_formula_units_Z   8
loop_
 _symmetry_equiv_pos_site_id
 _symmetry_equiv_pos_as_xyz
  1  'x, y, z'
loop_
 _atom_site_type_symbol
 _atom_site_label
 _atom_site_symmetry_multiplicity
 _atom_site_fract_x
 _atom_site_fract_y
 _atom_site_fract_z
 _atom_site_occupancy
 _atom_site_charge
  Co  Co1  1  0.358140  0.242380  0.537980  1.0  0.9184
  Co  Co2  1  0.638500  0.257620  0.962020  1.0  0.9233
  Co  Co3  1  0.896120  0.462020  0.742380  1.0  0.9217
  Co  Co4  1  0.600510  0.037990  0.757620  1.0  0.9256
  Co  Co5  1  0.641860  0.757620  0.462020  1.0  0.924
  Co  Co6  1  0.361500  0.742380  0.037980  1.0  0.9205
  Co  Co7  1  0.103870  0.537990  0.257620  1.0  0.9249
  Co  Co8  1  0.399490  0.962010  0.242380  1.0  0.924
  H  H9  1  0.367600  0.141700  0.653300  1.0  0.0867
  H  H10  1  0.299100  0.128800  0.766200  1.0  0.1119
  H  H11  1  0.124900  0.319100  0.774700  1.0  0.1245
  H  H12  1  0.199700  0.326100  0.660900  1.0  0.0849
  H  H13  1  0.205200  0.132700  0.987700  1.0  0.0843
  H  H14  1  0.276500  0.147200  0.874200  1.0  0.1271
  H  H15  1  0.030300  0.276400  0.873000  1.0  0.1301
  H  H16  1  0.970600  0.257700  0.987300  1.0  0.0851
  H  H17  1  0.497700  0.150000  0.414200  1.0  0.0899
  H  H18  1  0.551400  0.150300  0.298900  1.0  0.1224
  H  H19  1  0.393300  0.344800  0.305800  1.0  0.1186
  H  H20  1  0.345200  0.338800  0.420600  1.0  0.0755
  H  H21  1  0.629300  0.540300  0.556300  1.0  0.1072
  H  H22  1  0.751600  0.509300  0.593500  1.0  0.1192
  H  H23  1  0.579500  0.500900  0.784500  1.0  0.1209
  H  H24  1  0.457000  0.532000  0.747400  1.0  0.1162
  H  H25  1  0.310700  0.560900  0.615700  1.0  0.128
  H  H26  1  0.286600  0.479700  0.573100  1.0  0.1164
  H  H27  1  0.527100  0.341600  0.580000  1.0  0.108
  H  H28  1  0.551300  0.422700  0.622500  1.0  0.1062
  H  H29  1  0.662600  0.358300  0.846700  1.0  0.0863
  H  H30  1  0.694100  0.371200  0.733800  1.0  0.1121
  H  H31  1  0.718700  0.180900  0.725300  1.0  0.1244
  H  H32  1  0.686700  0.173900  0.839100  1.0  0.0848
  H  H33  1  0.825600  0.367300  0.512300  1.0  0.0827
  H  H34  1  0.797900  0.352800  0.625800  1.0  0.1253
  H  H35  1  0.679700  0.223600  0.627000  1.0  0.1302
  H  H36  1  0.715600  0.242300  0.512700  1.0  0.0857
  H  H37  1  0.561900  0.350000  0.085800  1.0  0.0905
  H  H38  1  0.500600  0.349700  0.201100  1.0  0.1219
  H  H39  1  0.543900  0.155200  0.194200  1.0  0.1187
  H  H40  1  0.604600  0.161200  0.079400  1.0  0.0748
  H  H41  1  0.225900  0.959700  0.943700  1.0  0.1053
  H  H42  1  0.354400  0.990700  0.906500  1.0  0.1194
  H  H43  1  0.364900  0.999100  0.715500  1.0  0.1209
  H  H44  1  0.236400  0.968000  0.752600  1.0  0.1155
  H  H45  1  0.987300  0.939100  0.884300  1.0  0.1289
  H  H46  1  0.839400  0.020300  0.926900  1.0  0.1177
  H  H47  1  0.948700  0.158400  0.920000  1.0  0.1076
  H  H48  1  0.096500  0.077300  0.877500  1.0  0.1064
  H  H49  1  0.020900  0.346700  0.641700  1.0  0.0867
  H  H50  1  0.065300  0.233800  0.628800  1.0  0.1117
  H  H51  1  0.899600  0.225300  0.819100  1.0  0.1243
  H  H52  1  0.860600  0.339100  0.826100  1.0  0.0847
  H  H53  1  0.192900  0.012300  0.632700  1.0  0.0821
  H  H54  1  0.150700  0.125800  0.647200  1.0  0.128
  H  H55  1  0.903300  0.127000  0.776400  1.0  0.1302
  H  H56  1  0.957900  0.012700  0.757700  1.0  0.0843
  H  H57  1  0.911900  0.585800  0.650000  1.0  0.0899
  H  H58  1  0.850300  0.701100  0.650300  1.0  0.1212
  H  H59  1  0.699100  0.694200  0.844800  1.0  0.1171
  H  H60  1  0.765800  0.579400  0.838800  1.0  0.0749
  H  H61  1  0.185600  0.443700  0.040300  1.0  0.1056
  H  H62  1  0.345100  0.406500  0.009300  1.0  0.1184
  H  H63  1  0.364000  0.215500  0.000900  1.0  0.121
  H  H64  1  0.204400  0.252600  0.032000  1.0  0.1143
  H  H65  1  0.926400  0.384300  0.060900  1.0  0.1284
  H  H66  1  0.859700  0.426900  0.979700  1.0  0.1169
  H  H67  1  0.107100  0.420000  0.841600  1.0  0.1076
  H  H68  1  0.173800  0.377500  0.922700  1.0  0.1063
  H  H69  1  0.509300  0.153300  0.858300  1.0  0.0871
  H  H70  1  0.427900  0.266200  0.871200  1.0  0.111
  H  H71  1  0.444000  0.274700  0.680900  1.0  0.1263
  H  H72  1  0.525800  0.160900  0.673900  1.0  0.0846
  H  H73  1  0.337900  0.487700  0.867300  1.0  0.0838
  H  H74  1  0.423700  0.374200  0.852800  1.0  0.1259
  H  H75  1  0.306700  0.373000  0.723600  1.0  0.1303
  H  H76  1  0.228300  0.487300  0.742300  1.0  0.0832
  H  H77  1  0.647700  0.914200  0.850000  1.0  0.0891
  H  H78  1  0.701700  0.798900  0.849700  1.0  0.122
  H  H79  1  0.738100  0.805800  0.655200  1.0  0.1199
  H  H80  1  0.684000  0.920600  0.661200  1.0  0.0763
  H  H81  1  0.169600  0.056300  0.459700  1.0  0.1061
  H  H82  1  0.260900  0.093500  0.490700  1.0  0.1192
  H  H83  1  0.080400  0.284500  0.499100  1.0  0.1194
  H  H84  1  0.989000  0.247400  0.468000  1.0  0.115
  H  H85  1  0.871600  0.115700  0.439100  1.0  0.1286
  H  H86  1  0.766300  0.073100  0.520300  1.0  0.1165
  H  H87  1  0.868700  0.080000  0.658400  1.0  0.1078
  H  H88  1  0.974000  0.122500  0.577300  1.0  0.1056
  H  H89  1  0.632400  0.858300  0.346700  1.0  0.0865
  H  H90  1  0.700900  0.871200  0.233800  1.0  0.1126
  H  H91  1  0.875100  0.680900  0.225300  1.0  0.1247
  H  H92  1  0.800300  0.673900  0.339100  1.0  0.0848
  H  H93  1  0.794800  0.867300  0.012300  1.0  0.0837
  H  H94  1  0.723500  0.852800  0.125800  1.0  0.1272
  H  H95  1  0.969700  0.723600  0.127000  1.0  0.1301
  H  H96  1  0.029400  0.742300  0.012700  1.0  0.0847
  H  H97  1  0.502300  0.850000  0.585800  1.0  0.09
  H  H98  1  0.448600  0.849700  0.701100  1.0  0.1222
  H  H99  1  0.606700  0.655200  0.694200  1.0  0.1186
  H  H100  1  0.654800  0.661200  0.579400  1.0  0.0752
  H  H101  1  0.370700  0.459700  0.443700  1.0  0.1065
  H  H102  1  0.248400  0.490700  0.406500  1.0  0.1184
  H  H103  1  0.420500  0.499100  0.215500  1.0  0.1208
  H  H104  1  0.543000  0.468000  0.252600  1.0  0.1154
  H  H105  1  0.689300  0.439100  0.384300  1.0  0.1288
  H  H106  1  0.713400  0.520300  0.426900  1.0  0.1162
  H  H107  1  0.472900  0.658400  0.420000  1.0  0.1082
  H  H108  1  0.448700  0.577300  0.377500  1.0  0.1058
  H  H109  1  0.337400  0.641700  0.153300  1.0  0.0864
  H  H110  1  0.305900  0.628800  0.266200  1.0  0.1116
  H  H111  1  0.281300  0.819100  0.274700  1.0  0.1246
  H  H112  1  0.313300  0.826100  0.160900  1.0  0.0846
  H  H113  1  0.174400  0.632700  0.487700  1.0  0.082
  H  H114  1  0.202100  0.647200  0.374200  1.0  0.1262
  H  H115  1  0.320300  0.776400  0.373000  1.0  0.1308
  H  H116  1  0.284400  0.757700  0.487300  1.0  0.0843
  H  H117  1  0.438100  0.650000  0.914200  1.0  0.0901
  H  H118  1  0.499400  0.650300  0.798900  1.0  0.1217
  H  H119  1  0.456100  0.844800  0.805800  1.0  0.1196
  H  H120  1  0.395400  0.838800  0.920600  1.0  0.0754
  H  H121  1  0.774100  0.040300  0.056300  1.0  0.1057
  H  H122  1  0.645600  0.009300  0.093500  1.0  0.1189
  H  H123  1  0.635100  0.000900  0.284500  1.0  0.1206
  H  H124  1  0.763600  0.032000  0.247400  1.0  0.1161
  H  H125  1  0.012700  0.060900  0.115700  1.0  0.1283
  H  H126  1  0.160600  0.979700  0.073100  1.0  0.1164
  H  H127  1  0.051300  0.841600  0.080000  1.0  0.108
  H  H128  1  0.903500  0.922700  0.122500  1.0  0.1062
  H  H129  1  0.979100  0.653300  0.358300  1.0  0.087
  H  H130  1  0.934700  0.766200  0.371200  1.0  0.1115
  H  H131  1  0.100400  0.774700  0.180900  1.0  0.1239
  H  H132  1  0.139400  0.660900  0.173900  1.0  0.0847
  H  H133  1  0.807100  0.987700  0.367300  1.0  0.0818
  H  H134  1  0.849300  0.874200  0.352800  1.0  0.1281
  H  H135  1  0.096700  0.873000  0.223600  1.0  0.1308
  H  H136  1  0.042100  0.987300  0.242300  1.0  0.0832
  H  H137  1  0.088100  0.414200  0.350000  1.0  0.0902
  H  H138  1  0.149700  0.298900  0.349700  1.0  0.1208
  H  H139  1  0.300900  0.305800  0.155200  1.0  0.1177
  H  H140  1  0.234200  0.420600  0.161200  1.0  0.075
  H  H141  1  0.814400  0.556300  0.959700  1.0  0.1058
  H  H142  1  0.654900  0.593500  0.990700  1.0  0.1181
  H  H143  1  0.636000  0.784500  0.999100  1.0  0.1198
  H  H144  1  0.795600  0.747400  0.968000  1.0  0.1144
  H  H145  1  0.073600  0.615700  0.939100  1.0  0.1289
  H  H146  1  0.140300  0.573100  0.020300  1.0  0.1167
  H  H147  1  0.892900  0.580000  0.158400  1.0  0.1077
  H  H148  1  0.826200  0.622500  0.077300  1.0  0.1062
  H  H149  1  0.490700  0.846700  0.141700  1.0  0.0867
  H  H150  1  0.572100  0.733800  0.128800  1.0  0.1108
  H  H151  1  0.556000  0.725300  0.319100  1.0  0.1258
  H  H152  1  0.474200  0.839100  0.326100  1.0  0.0834
  H  H153  1  0.662100  0.512300  0.132700  1.0  0.0835
  H  H154  1  0.576300  0.625800  0.147200  1.0  0.126
  H  H155  1  0.693300  0.627000  0.276400  1.0  0.1306
  H  H156  1  0.771700  0.512700  0.257700  1.0  0.0825
  H  H157  1  0.352300  0.085800  0.150000  1.0  0.0899
  H  H158  1  0.298300  0.201100  0.150300  1.0  0.1223
  H  H159  1  0.261900  0.194200  0.344800  1.0  0.1188
  H  H160  1  0.316000  0.079400  0.338800  1.0  0.0768
  H  H161  1  0.830400  0.943700  0.540300  1.0  0.1055
  H  H162  1  0.739100  0.906500  0.509300  1.0  0.1187
  H  H163  1  0.919600  0.715500  0.500900  1.0  0.1208
  H  H164  1  0.011000  0.752600  0.532000  1.0  0.1151
  H  H165  1  0.128400  0.884300  0.560900  1.0  0.1282
  H  H166  1  0.233700  0.926900  0.479700  1.0  0.1174
  H  H167  1  0.131300  0.920000  0.341600  1.0  0.1086
  H  H168  1  0.026000  0.877500  0.422700  1.0  0.1054
  C  C169  1  0.318050  0.178340  0.677960  1.0  0.1819
  C  C170  1  0.277300  0.170280  0.746120  1.0  -0.1993
  C  C171  1  0.204460  0.222860  0.785020  1.0  0.0955
  C  C172  1  0.175010  0.281850  0.751330  1.0  -0.1962
  C  C173  1  0.220510  0.285360  0.682420  1.0  0.1997
  C  C174  1  0.169200  0.162200  0.964200  1.0  0.1855
  C  C175  1  0.213130  0.170380  0.895560  1.0  -0.206
  C  C176  1  0.160790  0.213950  0.859070  1.0  0.0911
  C  C177  1  0.068740  0.246580  0.894540  1.0  -0.1994
  C  C178  1  0.033400  0.234300  0.963900  1.0  0.1904
  C  C179  1  0.476810  0.190200  0.391980  1.0  0.1726
  C  C180  1  0.509730  0.190070  0.322470  1.0  -0.2025
  C  C181  1  0.480980  0.248820  0.287820  1.0  0.0988
  C  C182  1  0.417190  0.304210  0.326410  1.0  -0.2128
  C  C183  1  0.388040  0.299970  0.395750  1.0  0.215
  C  C184  1  0.379700  0.350700  0.555500  1.0  0.5702
  C  C185  1  0.760400  0.484500  0.707700  1.0  0.5709
  C  C186  1  0.531000  0.539300  0.648100  1.0  0.0787
  C  C187  1  0.619300  0.532400  0.602000  1.0  -0.0679
  C  C188  1  0.692600  0.513800  0.624400  1.0  -0.0972
  C  C189  1  0.677700  0.501900  0.692700  1.0  -0.0092
  C  C190  1  0.589400  0.508800  0.738800  1.0  -0.0897
  C  C191  1  0.516100  0.527500  0.716500  1.0  -0.2113
  C  C192  1  0.433400  0.499900  0.623300  1.0  0.3051
  C  C193  1  0.354100  0.516900  0.608500  1.0  -0.1734
  C  C194  1  0.339600  0.468300  0.583100  1.0  -0.1402
  C  C195  1  0.404400  0.402600  0.572400  1.0  -0.111
  C  C196  1  0.483800  0.385500  0.587100  1.0  -0.0673
  C  C197  1  0.498200  0.434200  0.612600  1.0  -0.1109
  C  C198  1  0.674350  0.321660  0.822040  1.0  0.1818
  C  C199  1  0.693700  0.329720  0.753880  1.0  -0.1981
  C  C200  1  0.712340  0.277140  0.714980  1.0  0.0962
  C  C201  1  0.708190  0.218150  0.748670  1.0  -0.1955
  C  C202  1  0.688290  0.214640  0.817580  1.0  0.1988
  C  C203  1  0.795600  0.337800  0.535800  1.0  0.1884
  C  C204  1  0.779070  0.329620  0.604440  1.0  -0.2062
  C  C205  1  0.733810  0.286050  0.640930  1.0  0.0928
  C  C206  1  0.709860  0.253420  0.605460  1.0  -0.2004
  C  C207  1  0.731600  0.265700  0.536100  1.0  0.1898
  C  C208  1  0.558990  0.309800  0.108020  1.0  0.1758
  C  C209  1  0.522270  0.309930  0.177530  1.0  -0.199
  C  C210  1  0.517620  0.251180  0.212180  1.0  0.0999
  C  C211  1  0.547810  0.195790  0.173590  1.0  -0.2146
  C  C212  1  0.583760  0.200030  0.104250  1.0  0.2165
  C  C213  1  0.785900  0.149300  0.944500  1.0  0.5691
  C  C214  1  0.452600  0.015500  0.792300  1.0  0.5685
  C  C215  1  0.218400  0.960700  0.851900  1.0  0.0753
  C  C216  1  0.253700  0.967600  0.898000  1.0  -0.068
  C  C217  1  0.330800  0.986200  0.875600  1.0  -0.0965
  C  C218  1  0.372300  0.998100  0.807300  1.0  -0.0077
  C  C219  1  0.337000  0.991200  0.761200  1.0  -0.0919
  C  C220  1  0.260100  0.972500  0.783500  1.0  -0.2048
  C  C221  1  0.056600  0.000100  0.876700  1.0  0.3048
  C  C222  1  0.979500  0.983100  0.891500  1.0  -0.1778
  C  C223  1  0.891000  0.031700  0.916900  1.0  -0.1419
  C  C224  1  0.879400  0.097400  0.927600  1.0  -0.1129
  C  C225  1  0.956400  0.114500  0.912900  1.0  -0.0658
  C  C226  1  0.045000  0.065800  0.887400  1.0  -0.1143
  C  C227  1  0.996010  0.322040  0.678340  1.0  0.1805
  C  C228  1  0.023420  0.253880  0.670280  1.0  -0.1998
  C  C229  1  0.989480  0.214980  0.722860  1.0  0.0965
  C  C230  1  0.926340  0.248670  0.781850  1.0  -0.1968
  C  C231  1  0.902930  0.317580  0.785360  1.0  0.1976
  C  C232  1  0.133400  0.035800  0.662200  1.0  0.1841
  C  C233  1  0.108690  0.104440  0.670380  1.0  -0.2105
  C  C234  1  0.019860  0.140930  0.713950  1.0  0.0926
  C  C235  1  0.963280  0.105460  0.746580  1.0  -0.2028
  C  C236  1  0.997300  0.036100  0.734300  1.0  0.1861
  C  C237  1  0.868790  0.608020  0.690200  1.0  0.1741
  C  C238  1  0.832200  0.677530  0.690070  1.0  -0.2014
  C  C239  1  0.768800  0.712180  0.748820  1.0  0.101
  C  C240  1  0.743600  0.673590  0.804210  1.0  -0.2135
  C  C241  1  0.783790  0.604250  0.799970  1.0  0.2153
  C  C242  1  0.935200  0.444500  0.850700  1.0  0.5725
  C  C243  1  0.468100  0.292300  0.984500  1.0  0.5693
  C  C244  1  0.179100  0.351900  0.039300  1.0  0.0763
  C  C245  1  0.221300  0.398000  0.032400  1.0  -0.0729
  C  C246  1  0.317000  0.375600  0.013800  1.0  -0.0961
  C  C247  1  0.370400  0.307300  0.001900  1.0  -0.0085
  C  C248  1  0.328200  0.261200  0.008800  1.0  -0.091
  C  C249  1  0.232600  0.283500  0.027500  1.0  -0.2095
  C  C250  1  0.056700  0.376700  0.999900  1.0  0.3069
  C  C251  1  0.962600  0.391500  0.016900  1.0  -0.1754
  C  C252  1  0.922700  0.416900  0.968300  1.0  -0.1383
  C  C253  1  0.976800  0.427600  0.902600  1.0  -0.1086
  C  C254  1  0.070900  0.412900  0.885500  1.0  -0.069
  C  C255  1  0.110800  0.387400  0.934200  1.0  -0.1135
  C  C256  1  0.496390  0.177960  0.821660  1.0  0.1811
  C  C257  1  0.447580  0.246120  0.829720  1.0  -0.1998
  C  C258  1  0.427320  0.285020  0.777140  1.0  0.0964
  C  C259  1  0.456860  0.251330  0.718150  1.0  -0.1958
  C  C260  1  0.505870  0.182420  0.714640  1.0  0.1988
  C  C261  1  0.331400  0.464200  0.837800  1.0  0.1839
  C  C262  1  0.383510  0.395560  0.829620  1.0  -0.2057
  C  C263  1  0.374740  0.359070  0.786050  1.0  0.0926
  C  C264  1  0.315320  0.394540  0.753420  1.0  -0.2017
  C  C265  1  0.267700  0.463900  0.765700  1.0  0.1859
  C  C266  1  0.667010  0.891980  0.809800  1.0  0.1743
  C  C267  1  0.699800  0.822470  0.809930  1.0  -0.2023
  C  C268  1  0.729800  0.787820  0.751180  1.0  0.0995
  C  C269  1  0.721400  0.826410  0.695790  1.0  -0.2147
  C  C270  1  0.688010  0.895750  0.700030  1.0  0.2156
  C  C271  1  0.730400  0.055500  0.649300  1.0  0.5703
  C  C272  1  0.244900  0.207700  0.515500  1.0  0.5711
  C  C273  1  0.070300  0.148100  0.460700  1.0  0.0784
  C  C274  1  0.151700  0.102000  0.467600  1.0  -0.0692
  C  C275  1  0.206400  0.124400  0.486200  1.0  -0.0964
  C  C276  1  0.179600  0.192700  0.498100  1.0  -0.009
  C  C277  1  0.098200  0.238800  0.491200  1.0  -0.0902
  C  C278  1  0.043600  0.216500  0.472500  1.0  -0.2056
  C  C279  1  0.933300  0.123300  0.500100  1.0  0.306
  C  C280  1  0.871000  0.108500  0.483100  1.0  -0.1694
  C  C281  1  0.807900  0.083100  0.531700  1.0  -0.1374
  C  C282  1  0.807000  0.072400  0.597400  1.0  -0.1106
  C  C283  1  0.869300  0.087100  0.614500  1.0  -0.0677
  C  C284  1  0.932400  0.112600  0.565800  1.0  -0.1118
  C  C285  1  0.681950  0.821660  0.322040  1.0  0.1813
  C  C286  1  0.722700  0.829720  0.253880  1.0  -0.1986
  C  C287  1  0.795540  0.777140  0.214980  1.0  0.0949
  C  C288  1  0.824990  0.718150  0.248670  1.0  -0.1963
  C  C289  1  0.779490  0.714640  0.317580  1.0  0.1999
  C  C290  1  0.830800  0.837800  0.035800  1.0  0.1874
  C  C291  1  0.786870  0.829620  0.104440  1.0  -0.2077
  C  C292  1  0.839210  0.786050  0.140930  1.0  0.0919
  C  C293  1  0.931260  0.753420  0.105460  1.0  -0.2015
  C  C294  1  0.966600  0.765700  0.036100  1.0  0.1905
  C  C295  1  0.523190  0.809800  0.608020  1.0  0.1742
  C  C296  1  0.490270  0.809930  0.677530  1.0  -0.2009
  C  C297  1  0.519020  0.751180  0.712180  1.0  0.1
  C  C298  1  0.582810  0.695790  0.673590  1.0  -0.2143
  C  C299  1  0.611960  0.700030  0.604250  1.0  0.2146
  C  C300  1  0.620300  0.649300  0.444500  1.0  0.5727
  C  C301  1  0.239600  0.515500  0.292300  1.0  0.5717
  C  C302  1  0.469000  0.460700  0.351900  1.0  0.0768
  C  C303  1  0.380700  0.467600  0.398000  1.0  -0.0671
  C  C304  1  0.307400  0.486200  0.375600  1.0  -0.0976
  C  C305  1  0.322300  0.498100  0.307300  1.0  -0.0097
  C  C306  1  0.410600  0.491200  0.261200  1.0  -0.0897
  C  C307  1  0.483900  0.472500  0.283500  1.0  -0.2109
  C  C308  1  0.566600  0.500100  0.376700  1.0  0.3047
  C  C309  1  0.645900  0.483100  0.391500  1.0  -0.1777
  C  C310  1  0.660400  0.531700  0.416900  1.0  -0.1414
  C  C311  1  0.595600  0.597400  0.427600  1.0  -0.1089
  C  C312  1  0.516200  0.614500  0.412900  1.0  -0.0672
  C  C313  1  0.501800  0.565800  0.387400  1.0  -0.1098
  C  C314  1  0.325650  0.678340  0.177960  1.0  0.1824
  C  C315  1  0.306300  0.670280  0.246120  1.0  -0.1991
  C  C316  1  0.287660  0.722860  0.285020  1.0  0.0958
  C  C317  1  0.291810  0.781850  0.251330  1.0  -0.196
  C  C318  1  0.311710  0.785360  0.182420  1.0  0.1977
  C  C319  1  0.204400  0.662200  0.464200  1.0  0.1887
  C  C320  1  0.220930  0.670380  0.395560  1.0  -0.2072
  C  C321  1  0.266190  0.713950  0.359070  1.0  0.0925
  C  C322  1  0.290140  0.746580  0.394540  1.0  -0.1994
  C  C323  1  0.268400  0.734300  0.463900  1.0  0.1904
  C  C324  1  0.441010  0.690200  0.891980  1.0  0.1747
  C  C325  1  0.477730  0.690070  0.822470  1.0  -0.197
  C  C326  1  0.482380  0.748820  0.787820  1.0  0.1002
  C  C327  1  0.452190  0.804210  0.826410  1.0  -0.2153
  C  C328  1  0.416240  0.799970  0.895750  1.0  0.2161
  C  C329  1  0.214100  0.850700  0.055500  1.0  0.5707
  C  C330  1  0.547400  0.984500  0.207700  1.0  0.5692
  C  C331  1  0.781600  0.039300  0.148100  1.0  0.0782
  C  C332  1  0.746300  0.032400  0.102000  1.0  -0.0695
  C  C333  1  0.669200  0.013800  0.124400  1.0  -0.097
  C  C334  1  0.627700  0.001900  0.192700  1.0  -0.0082
  C  C335  1  0.663000  0.008800  0.238800  1.0  -0.0908
  C  C336  1  0.739900  0.027500  0.216500  1.0  -0.203
  C  C337  1  0.943400  0.999900  0.123300  1.0  0.3052
  C  C338  1  0.020500  0.016900  0.108500  1.0  -0.1767
  C  C339  1  0.109000  0.968300  0.083100  1.0  -0.1432
  C  C340  1  0.120600  0.902600  0.072400  1.0  -0.1143
  C  C341  1  0.043600  0.885500  0.087100  1.0  -0.0654
  C  C342  1  0.955000  0.934200  0.112600  1.0  -0.1131
  C  C343  1  0.003990  0.677960  0.321660  1.0  0.1815
  C  C344  1  0.976580  0.746120  0.329720  1.0  -0.1994
  C  C345  1  0.010520  0.785020  0.277140  1.0  0.0959
  C  C346  1  0.073660  0.751330  0.218150  1.0  -0.1968
  C  C347  1  0.097070  0.682420  0.214640  1.0  0.1972
  C  C348  1  0.866600  0.964200  0.337800  1.0  0.1841
  C  C349  1  0.891310  0.895560  0.329620  1.0  -0.211
  C  C350  1  0.980140  0.859070  0.286050  1.0  0.0927
  C  C351  1  0.036720  0.894540  0.253420  1.0  -0.2021
  C  C352  1  0.002700  0.963900  0.265700  1.0  0.1853
  C  C353  1  0.131210  0.391980  0.309800  1.0  0.1741
  C  C354  1  0.167800  0.322470  0.309930  1.0  -0.2006
  C  C355  1  0.231200  0.287820  0.251180  1.0  0.1006
  C  C356  1  0.256400  0.326410  0.195790  1.0  -0.2145
  C  C357  1  0.216210  0.395750  0.200030  1.0  0.2154
  C  C358  1  0.064800  0.555500  0.149300  1.0  0.5735
  C  C359  1  0.531900  0.707700  0.015500  1.0  0.5699
  C  C360  1  0.820900  0.648100  0.960700  1.0  0.0761
  C  C361  1  0.778700  0.602000  0.967600  1.0  -0.071
  C  C362  1  0.683000  0.624400  0.986200  1.0  -0.0969
  C  C363  1  0.629600  0.692700  0.998100  1.0  -0.009
  C  C364  1  0.671800  0.738800  0.991200  1.0  -0.0928
  C  C365  1  0.767400  0.716500  0.972500  1.0  -0.2092
  C  C366  1  0.943300  0.623300  0.000100  1.0  0.3084
  C  C367  1  0.037400  0.608500  0.983100  1.0  -0.1746
  C  C368  1  0.077300  0.583100  0.031700  1.0  -0.1377
  C  C369  1  0.023200  0.572400  0.097400  1.0  -0.1096
  C  C370  1  0.929100  0.587100  0.114500  1.0  -0.0667
  C  C371  1  0.889200  0.612600  0.065800  1.0  -0.1157
  C  C372  1  0.503610  0.822040  0.178340  1.0  0.1809
  C  C373  1  0.552420  0.753880  0.170280  1.0  -0.1995
  C  C374  1  0.572680  0.714980  0.222860  1.0  0.0963
  C  C375  1  0.543140  0.748670  0.281850  1.0  -0.1956
  C  C376  1  0.494130  0.817580  0.285360  1.0  0.1993
  C  C377  1  0.668600  0.535800  0.162200  1.0  0.1846
  C  C378  1  0.616490  0.604440  0.170380  1.0  -0.2078
  C  C379  1  0.625260  0.640930  0.213950  1.0  0.0931
  C  C380  1  0.684680  0.605460  0.246580  1.0  -0.2012
  C  C381  1  0.732300  0.536100  0.234300  1.0  0.1866
  C  C382  1  0.332990  0.108020  0.190200  1.0  0.1748
  C  C383  1  0.300200  0.177530  0.190070  1.0  -0.2021
  C  C384  1  0.270200  0.212180  0.248820  1.0  0.1008
  C  C385  1  0.278600  0.173590  0.304210  1.0  -0.215
  C  C386  1  0.311990  0.104250  0.299970  1.0  0.2154
  C  C387  1  0.269600  0.944500  0.350700  1.0  0.5712
  C  C388  1  0.755100  0.792300  0.484500  1.0  0.5713
  C  C389  1  0.929700  0.851900  0.539300  1.0  0.0808
  C  C390  1  0.848300  0.898000  0.532400  1.0  -0.0714
  C  C391  1  0.793600  0.875600  0.513800  1.0  -0.0958
  C  C392  1  0.820400  0.807300  0.501900  1.0  -0.0096
  C  C393  1  0.901800  0.761200  0.508800  1.0  -0.0894
  C  C394  1  0.956400  0.783500  0.527500  1.0  -0.2057
  C  C395  1  0.066700  0.876700  0.499900  1.0  0.3066
  C  C396  1  0.129000  0.891500  0.516900  1.0  -0.17
  C  C397  1  0.192100  0.916900  0.468300  1.0  -0.1402
  C  C398  1  0.193000  0.927600  0.402600  1.0  -0.1085
  C  C399  1  0.130700  0.912900  0.385500  1.0  -0.0696
  C  C400  1  0.067600  0.887400  0.434200  1.0  -0.1103
  N  N401  1  0.291080  0.235300  0.645140  1.0  -0.3192
  N  N402  1  0.080800  0.192800  0.998600  1.0  -0.4051
  N  N403  1  0.416580  0.245050  0.428990  1.0  -0.3218
  N  N404  1  0.671520  0.264700  0.854860  1.0  -0.3202
  N  N405  1  0.772200  0.307200  0.501400  1.0  -0.4125
  N  N406  1  0.590620  0.254950  0.071010  1.0  -0.3178
  N  N407  1  0.936220  0.354860  0.735300  1.0  -0.3206
  N  N408  1  0.079400  0.001400  0.692800  1.0  -0.4047
  N  N409  1  0.845570  0.571010  0.745050  1.0  -0.3202
  N  N410  1  0.526380  0.145140  0.764700  1.0  -0.3178
  N  N411  1  0.273600  0.498600  0.807200  1.0  -0.4058
  N  N412  1  0.661630  0.928990  0.754950  1.0  -0.3231
  N  N413  1  0.708920  0.764700  0.354860  1.0  -0.3169
  N  N414  1  0.919200  0.807200  0.001400  1.0  -0.4145
  N  N415  1  0.583420  0.754950  0.571010  1.0  -0.3235
  N  N416  1  0.328480  0.735300  0.145140  1.0  -0.3218
  N  N417  1  0.227800  0.692800  0.498600  1.0  -0.4107
  N  N418  1  0.409380  0.745050  0.928990  1.0  -0.3187
  N  N419  1  0.063780  0.645140  0.264700  1.0  -0.3186
  N  N420  1  0.920600  0.998600  0.307200  1.0  -0.4072
  N  N421  1  0.154430  0.428990  0.254950  1.0  -0.3202
  N  N422  1  0.473620  0.854860  0.235300  1.0  -0.3198
  N  N423  1  0.726400  0.501400  0.192800  1.0  -0.4041
  N  N424  1  0.338370  0.071010  0.245050  1.0  -0.3242
  O  O425  1  0.434800  0.287600  0.550400  1.0  -0.5882
  O  O426  1  0.308100  0.360000  0.546200  1.0  -0.5808
  O  O427  1  0.759500  0.473300  0.766500  1.0  -0.5679
  O  O428  1  0.845700  0.473570  0.660630  1.0  -0.6222
  O  O429  1  0.442000  0.548700  0.649700  1.0  -0.3303
  O  O430  1  0.772800  0.212400  0.949600  1.0  -0.5888
  O  O431  1  0.714300  0.140000  0.953800  1.0  -0.5838
  O  O432  1  0.499300  0.026700  0.733500  1.0  -0.568
  O  O433  1  0.479900  0.026430  0.839370  1.0  -0.6236
  O  O434  1  0.140400  0.951300  0.850300  1.0  -0.3302
  O  O435  1  0.985200  0.449600  0.787600  1.0  -0.5897
  O  O436  1  0.854300  0.453800  0.860000  1.0  -0.5835
  O  O437  1  0.526000  0.233500  0.973300  1.0  -0.568
  O  O438  1  0.506330  0.339370  0.973570  1.0  -0.6184
  O  O439  1  0.091700  0.350300  0.048700  1.0  -0.333
  O  O440  1  0.722400  0.050400  0.712400  1.0  -0.5873
  O  O441  1  0.668100  0.046200  0.640000  1.0  -0.5804
  O  O442  1  0.232800  0.266500  0.526700  1.0  -0.5673
  O  O443  1  0.319270  0.160630  0.526430  1.0  -0.6216
  O  O444  1  0.990700  0.149700  0.451300  1.0  -0.331
  O  O445  1  0.565200  0.712400  0.449600  1.0  -0.5886
  O  O446  1  0.691900  0.640000  0.453800  1.0  -0.5814
  O  O447  1  0.240500  0.526700  0.233500  1.0  -0.5677
  O  O448  1  0.154300  0.526430  0.339370  1.0  -0.6201
  O  O449  1  0.558000  0.451300  0.350300  1.0  -0.3276
  O  O450  1  0.227200  0.787600  0.050400  1.0  -0.5906
  O  O451  1  0.285700  0.860000  0.046200  1.0  -0.5823
  O  O452  1  0.500700  0.973300  0.266500  1.0  -0.5692
  O  O453  1  0.520100  0.973570  0.160630  1.0  -0.6259
  O  O454  1  0.859600  0.048700  0.149700  1.0  -0.3304
  O  O455  1  0.014800  0.550400  0.212400  1.0  -0.5894
  O  O456  1  0.145700  0.546200  0.140000  1.0  -0.5825
  O  O457  1  0.474000  0.766500  0.026700  1.0  -0.5681
  O  O458  1  0.493670  0.660630  0.026430  1.0  -0.62
  O  O459  1  0.908300  0.649700  0.951300  1.0  -0.3333
  O  O460  1  0.277600  0.949600  0.287600  1.0  -0.5895
  O  O461  1  0.331900  0.953800  0.360000  1.0  -0.5818
  O  O462  1  0.767200  0.733500  0.473300  1.0  -0.5683
  O  O463  1  0.680730  0.839370  0.473570  1.0  -0.6212
  O  O464  1  0.009300  0.850300  0.548700  1.0  -0.3321
