# generated using pymatgen
data_NaH29C48(NO2)4
_symmetry_space_group_name_H-M   'P 1'
_cell_length_a   16.26680000
_cell_length_b   16.26680000
_cell_length_c   24.01600000
_cell_angle_alpha   91.31360000
_cell_angle_beta   91.31360000
_cell_angle_gamma   107.35300000
_symmetry_Int_Tables_number   1
_chemical_formula_structural   NaH29C48(NO2)4
_chemical_formula_sum   'Na4 H116 C192 N16 O32'
_cell_volume   6061.06147726
_cell_formula_units_Z   4
loop_
 _symmetry_equiv_pos_site_id
 _symmetry_equiv_pos_as_xyz
  1  'x, y, z'
loop_
 _atom_site_type_symbol
 _atom_site_label
 _atom_site_symmetry_multiplicity
 _atom_site_fract_x
 _atom_site_fract_y
 _atom_site_fract_z
 _atom_site_occupancy
 _atom_site_charge
  Na  Na1  1  0.932880  0.074300  0.009950  1.0  0.9446
  Na  Na2  1  0.925700  0.067120  0.490050  1.0  0.9452
  Na  Na3  1  0.067120  0.925700  0.990050  1.0  0.9433
  Na  Na4  1  0.074300  0.932880  0.509950  1.0  0.944
  H  H5  1  0.459500  0.354500  0.848700  1.0  0.2567
  H  H6  1  0.462200  0.492400  0.895400  1.0  0.2655
  H  H7  1  0.777700  0.550700  0.937600  1.0  0.1194
  H  H8  1  0.771000  0.406800  0.901700  1.0  0.1112
  H  H9  1  0.516200  0.136000  0.818100  1.0  0.1211
  H  H10  1  0.373000  0.122600  0.778100  1.0  0.1217
  H  H11  1  0.175900  0.334300  0.762300  1.0  0.1202
  H  H12  1  0.174200  0.464800  0.815000  1.0  0.133
  H  H13  1  0.389400  0.679400  0.961800  1.0  0.1197
  H  H14  1  0.540700  0.703900  0.989100  1.0  0.1229
  H  H15  1  0.666000  0.618600  0.051300  1.0  0.0887
  H  H16  1  0.771200  0.731800  0.093300  1.0  0.0977
  H  H17  1  0.834400  0.831600  0.944600  1.0  0.1041
  H  H18  1  0.727200  0.719800  0.902900  1.0  0.1106
  H  H19  1  0.934200  0.913200  0.121400  1.0  0.3249
  H  H20  1  0.670200  0.225400  0.785500  1.0  0.1083
  H  H21  1  0.767800  0.147600  0.790700  1.0  0.1085
  H  H22  1  0.778300  0.174300  0.956900  1.0  0.1147
  H  H23  1  0.682100  0.252900  0.952100  1.0  0.1078
  H  H24  1  0.917700  0.058100  0.835700  1.0  0.3339
  H  H25  1  0.150200  0.185800  0.801500  1.0  0.1019
  H  H26  1  0.051400  0.091200  0.742000  1.0  0.1
  H  H27  1  0.236200  0.102400  0.633000  1.0  0.1045
  H  H28  1  0.334400  0.199800  0.691100  1.0  0.1045
  H  H29  1  0.217000  0.546200  0.972900  1.0  0.0992
  H  H30  1  0.134500  0.637100  0.988700  1.0  0.1209
  H  H31  1  0.183200  0.727800  0.836500  1.0  0.1139
  H  H32  1  0.270900  0.641900  0.822100  1.0  0.1174
  H  H33  1  0.052200  0.827600  0.884800  1.0  0.348
  H  H34  1  0.645500  0.540500  0.651300  1.0  0.2574
  H  H35  1  0.507600  0.537800  0.604600  1.0  0.2687
  H  H36  1  0.449300  0.222300  0.562400  1.0  0.1214
  H  H37  1  0.593200  0.229000  0.598300  1.0  0.1128
  H  H38  1  0.864000  0.483800  0.681900  1.0  0.1198
  H  H39  1  0.877400  0.627000  0.721900  1.0  0.1203
  H  H40  1  0.665700  0.824100  0.737700  1.0  0.1201
  H  H41  1  0.535200  0.825800  0.685000  1.0  0.1335
  H  H42  1  0.320600  0.610600  0.538200  1.0  0.1187
  H  H43  1  0.296100  0.459300  0.510900  1.0  0.1223
  H  H44  1  0.381400  0.334000  0.448700  1.0  0.0875
  H  H45  1  0.268200  0.228800  0.406700  1.0  0.0981
  H  H46  1  0.168400  0.165600  0.555400  1.0  0.1045
  H  H47  1  0.280200  0.272800  0.597100  1.0  0.1098
  H  H48  1  0.086800  0.065800  0.378600  1.0  0.3252
  H  H49  1  0.774600  0.329800  0.714500  1.0  0.1082
  H  H50  1  0.852400  0.232200  0.709300  1.0  0.1084
  H  H51  1  0.825700  0.221700  0.543100  1.0  0.1146
  H  H52  1  0.747100  0.317900  0.547900  1.0  0.1083
  H  H53  1  0.941900  0.082300  0.664300  1.0  0.3384
  H  H54  1  0.814200  0.849800  0.698500  1.0  0.1017
  H  H55  1  0.908800  0.948600  0.758000  1.0  0.0998
  H  H56  1  0.897600  0.763800  0.867000  1.0  0.1052
  H  H57  1  0.800200  0.665600  0.808900  1.0  0.1037
  H  H58  1  0.453800  0.783000  0.527100  1.0  0.0988
  H  H59  1  0.362900  0.865500  0.511300  1.0  0.1208
  H  H60  1  0.272200  0.816800  0.663500  1.0  0.1138
  H  H61  1  0.358100  0.729100  0.677900  1.0  0.1168
  H  H62  1  0.172400  0.947800  0.615200  1.0  0.3479
  H  H63  1  0.540500  0.645500  0.151300  1.0  0.2555
  H  H64  1  0.537800  0.507600  0.104600  1.0  0.2656
  H  H65  1  0.222300  0.449300  0.062400  1.0  0.1193
  H  H66  1  0.229000  0.593200  0.098300  1.0  0.1113
  H  H67  1  0.483800  0.864000  0.181900  1.0  0.1223
  H  H68  1  0.627000  0.877400  0.221900  1.0  0.1219
  H  H69  1  0.824100  0.665700  0.237700  1.0  0.1203
  H  H70  1  0.825800  0.535200  0.185000  1.0  0.1329
  H  H71  1  0.610600  0.320600  0.038200  1.0  0.12
  H  H72  1  0.459300  0.296100  0.010900  1.0  0.1237
  H  H73  1  0.334000  0.381400  0.948700  1.0  0.088
  H  H74  1  0.228800  0.268200  0.906700  1.0  0.0979
  H  H75  1  0.165600  0.168400  0.055400  1.0  0.1042
  H  H76  1  0.272800  0.280200  0.097100  1.0  0.1102
  H  H77  1  0.065800  0.086800  0.878600  1.0  0.3255
  H  H78  1  0.329800  0.774600  0.214500  1.0  0.1079
  H  H79  1  0.232200  0.852400  0.209300  1.0  0.1085
  H  H80  1  0.221700  0.825700  0.043100  1.0  0.1148
  H  H81  1  0.317900  0.747100  0.047900  1.0  0.1073
  H  H82  1  0.082300  0.941900  0.164300  1.0  0.3317
  H  H83  1  0.849800  0.814200  0.198500  1.0  0.1021
  H  H84  1  0.948600  0.908800  0.258000  1.0  0.0995
  H  H85  1  0.763800  0.897600  0.367000  1.0  0.1049
  H  H86  1  0.665600  0.800200  0.308900  1.0  0.1044
  H  H87  1  0.783000  0.453800  0.027100  1.0  0.0995
  H  H88  1  0.865500  0.362900  0.011300  1.0  0.1208
  H  H89  1  0.816800  0.272200  0.163500  1.0  0.1138
  H  H90  1  0.729100  0.358100  0.177900  1.0  0.1171
  H  H91  1  0.947800  0.172400  0.115200  1.0  0.3482
  H  H92  1  0.354500  0.459500  0.348700  1.0  0.2574
  H  H93  1  0.492400  0.462200  0.395400  1.0  0.2671
  H  H94  1  0.550700  0.777700  0.437600  1.0  0.1221
  H  H95  1  0.406800  0.771000  0.401700  1.0  0.1128
  H  H96  1  0.136000  0.516200  0.318100  1.0  0.1207
  H  H97  1  0.122600  0.373000  0.278100  1.0  0.1204
  H  H98  1  0.334300  0.175900  0.262300  1.0  0.1197
  H  H99  1  0.464800  0.174200  0.315000  1.0  0.1331
  H  H100  1  0.679400  0.389400  0.461800  1.0  0.1189
  H  H101  1  0.703900  0.540700  0.489100  1.0  0.1217
  H  H102  1  0.618600  0.666000  0.551300  1.0  0.0884
  H  H103  1  0.731800  0.771200  0.593300  1.0  0.0975
  H  H104  1  0.831600  0.834400  0.444600  1.0  0.1046
  H  H105  1  0.719800  0.727200  0.402900  1.0  0.1099
  H  H106  1  0.913200  0.934200  0.621400  1.0  0.3258
  H  H107  1  0.225400  0.670200  0.285500  1.0  0.1089
  H  H108  1  0.147600  0.767800  0.290700  1.0  0.1082
  H  H109  1  0.174300  0.778300  0.456900  1.0  0.1143
  H  H110  1  0.252900  0.682100  0.452100  1.0  0.1081
  H  H111  1  0.058100  0.917700  0.335700  1.0  0.3338
  H  H112  1  0.185800  0.150200  0.301500  1.0  0.1019
  H  H113  1  0.091200  0.051400  0.242000  1.0  0.0999
  H  H114  1  0.102400  0.236200  0.133000  1.0  0.1049
  H  H115  1  0.199800  0.334400  0.191100  1.0  0.1035
  H  H116  1  0.546200  0.217000  0.472900  1.0  0.0989
  H  H117  1  0.637100  0.134500  0.488700  1.0  0.1207
  H  H118  1  0.727800  0.183200  0.336500  1.0  0.1136
  H  H119  1  0.641900  0.270900  0.322100  1.0  0.1168
  H  H120  1  0.827600  0.052200  0.384800  1.0  0.3484
  C  C121  1  0.533830  0.589030  0.943530  1.0  0.1529
  C  C122  1  0.617290  0.582950  0.945010  1.0  -0.0886
  C  C123  1  0.642170  0.514350  0.923370  1.0  0.1778
  C  C124  1  0.728320  0.507980  0.924990  1.0  -0.1705
  C  C125  1  0.724810  0.428930  0.904920  1.0  -0.1572
  C  C126  1  0.635420  0.384880  0.889310  1.0  0.1978
  C  C127  1  0.604350  0.300830  0.866790  1.0  -0.0479
  C  C128  1  0.522110  0.263970  0.843080  1.0  0.1551
  C  C129  1  0.488570  0.178430  0.818590  1.0  -0.1563
  C  C130  1  0.409420  0.171280  0.796480  1.0  -0.1577
  C  C131  1  0.390970  0.251210  0.806140  1.0  0.1222
  C  C132  1  0.315710  0.270030  0.789380  1.0  -0.0805
  C  C133  1  0.294780  0.344560  0.805390  1.0  0.1967
  C  C134  1  0.217520  0.365220  0.788350  1.0  -0.1793
  C  C135  1  0.216650  0.437310  0.817040  1.0  -0.1615
  C  C136  1  0.294490  0.463450  0.851550  1.0  0.1996
  C  C137  1  0.317180  0.534780  0.889080  1.0  -0.0892
  C  C138  1  0.395930  0.566450  0.918570  1.0  0.1664
  C  C139  1  0.423140  0.644460  0.952130  1.0  -0.1603
  C  C140  1  0.506700  0.657920  0.967190  1.0  -0.1426
  C  C141  1  0.685930  0.656590  0.972070  1.0  0.0714
  C  C142  1  0.699930  0.661510  0.029530  1.0  -0.0987
  C  C143  1  0.763290  0.729090  0.054740  1.0  -0.0058
  C  C144  1  0.815030  0.792790  0.023080  1.0  -0.1647
  C  C145  1  0.800550  0.788630  0.966390  1.0  -0.0722
  C  C146  1  0.736310  0.721250  0.941310  1.0  -0.1239
  C  C147  1  0.882760  0.867400  0.048470  1.0  0.7011
  C  C148  1  0.664950  0.247050  0.868390  1.0  0.0778
  C  C149  1  0.691770  0.215330  0.820080  1.0  -0.1143
  C  C150  1  0.750440  0.168880  0.823200  1.0  -0.0674
  C  C151  1  0.783750  0.153690  0.874360  1.0  -0.1664
  C  C152  1  0.757080  0.184820  0.922430  1.0  -0.0408
  C  C153  1  0.698910  0.231470  0.919410  1.0  -0.0865
  C  C154  1  0.848070  0.105350  0.879100  1.0  0.6452
  C  C155  1  0.252940  0.205360  0.752250  1.0  0.102
  C  C156  1  0.167620  0.170360  0.767250  1.0  -0.132
  C  C157  1  0.108450  0.112810  0.731690  1.0  -0.0393
  C  C158  1  0.132960  0.087300  0.681430  1.0  -0.1183
  C  C159  1  0.218560  0.119960  0.666590  1.0  -0.0935
  C  C160  1  0.277510  0.178310  0.701600  1.0  -0.1011
  C  C161  1  0.069250  0.023330  0.643110  1.0  0.6804
  C  C162  1  0.255400  0.585740  0.896560  1.0  0.0991
  C  C163  1  0.211940  0.584080  0.945530  1.0  -0.0852
  C  C164  1  0.161090  0.637630  0.954730  1.0  -0.0356
  C  C165  1  0.149870  0.690970  0.914240  1.0  -0.1024
  C  C166  1  0.190890  0.691950  0.864430  1.0  -0.0291
  C  C167  1  0.243350  0.640150  0.855760  1.0  -0.1445
  C  C168  1  0.097390  0.750490  0.924260  1.0  0.6161
  C  C169  1  0.410970  0.466170  0.556470  1.0  0.1502
  C  C170  1  0.417050  0.382710  0.554990  1.0  -0.0908
  C  C171  1  0.485650  0.357830  0.576630  1.0  0.1766
  C  C172  1  0.492020  0.271680  0.575010  1.0  -0.1738
  C  C173  1  0.571070  0.275190  0.595080  1.0  -0.1587
  C  C174  1  0.615120  0.364580  0.610690  1.0  0.2012
  C  C175  1  0.699170  0.395650  0.633210  1.0  -0.0469
  C  C176  1  0.736030  0.477890  0.656920  1.0  0.1553
  C  C177  1  0.821570  0.511430  0.681410  1.0  -0.1509
  C  C178  1  0.828720  0.590580  0.703520  1.0  -0.1517
  C  C179  1  0.748790  0.609030  0.693860  1.0  0.1234
  C  C180  1  0.729970  0.684290  0.710620  1.0  -0.0809
  C  C181  1  0.655440  0.705220  0.694610  1.0  0.1968
  C  C182  1  0.634780  0.782480  0.711650  1.0  -0.1796
  C  C183  1  0.562690  0.783350  0.682960  1.0  -0.1648
  C  C184  1  0.536550  0.705510  0.648450  1.0  0.1991
  C  C185  1  0.465220  0.682820  0.610920  1.0  -0.0929
  C  C186  1  0.433550  0.604070  0.581430  1.0  0.165
  C  C187  1  0.355540  0.576860  0.547870  1.0  -0.1609
  C  C188  1  0.342080  0.493300  0.532810  1.0  -0.1411
  C  C189  1  0.343410  0.314070  0.527930  1.0  0.07
  C  C190  1  0.338490  0.300070  0.470470  1.0  -0.0982
  C  C191  1  0.270910  0.236710  0.445260  1.0  -0.0055
  C  C192  1  0.207210  0.184970  0.476920  1.0  -0.1663
  C  C193  1  0.211370  0.199450  0.533610  1.0  -0.0715
  C  C194  1  0.278750  0.263690  0.558690  1.0  -0.123
  C  C195  1  0.132600  0.117240  0.451530  1.0  0.701
  C  C196  1  0.752950  0.335050  0.631610  1.0  0.078
  C  C197  1  0.784670  0.308230  0.679920  1.0  -0.1139
  C  C198  1  0.831120  0.249560  0.676800  1.0  -0.0665
  C  C199  1  0.846310  0.216250  0.625640  1.0  -0.1664
  C  C200  1  0.815180  0.242920  0.577570  1.0  -0.0396
  C  C201  1  0.768530  0.301090  0.580590  1.0  -0.0845
  C  C202  1  0.894650  0.151930  0.620900  1.0  0.6469
  C  C203  1  0.794640  0.747060  0.747750  1.0  0.102
  C  C204  1  0.829640  0.832380  0.732750  1.0  -0.1322
  C  C205  1  0.887190  0.891550  0.768310  1.0  -0.0383
  C  C206  1  0.912700  0.867040  0.818570  1.0  -0.1198
  C  C207  1  0.880040  0.781440  0.833410  1.0  -0.0926
  C  C208  1  0.821690  0.722490  0.798400  1.0  -0.1016
  C  C209  1  0.976670  0.930750  0.856890  1.0  0.6808
  C  C210  1  0.414260  0.744600  0.603440  1.0  0.0976
  C  C211  1  0.415920  0.788060  0.554470  1.0  -0.0882
  C  C212  1  0.362370  0.838910  0.545270  1.0  -0.0394
  C  C213  1  0.309030  0.850130  0.585760  1.0  -0.1027
  C  C214  1  0.308050  0.809110  0.635570  1.0  -0.029
  C  C215  1  0.359850  0.756650  0.644240  1.0  -0.1422
  C  C216  1  0.249510  0.902610  0.575740  1.0  0.6165
  C  C217  1  0.466170  0.410970  0.056470  1.0  0.1499
  C  C218  1  0.382710  0.417050  0.054990  1.0  -0.0913
  C  C219  1  0.357830  0.485650  0.076630  1.0  0.177
  C  C220  1  0.271680  0.492020  0.075010  1.0  -0.17
  C  C221  1  0.275190  0.571070  0.095080  1.0  -0.1556
  C  C222  1  0.364580  0.615120  0.110690  1.0  0.1993
  C  C223  1  0.395650  0.699170  0.133210  1.0  -0.0477
  C  C224  1  0.477890  0.736030  0.156920  1.0  0.1557
  C  C225  1  0.511430  0.821570  0.181410  1.0  -0.1555
  C  C226  1  0.590580  0.828720  0.203520  1.0  -0.1564
  C  C227  1  0.609030  0.748790  0.193860  1.0  0.123
  C  C228  1  0.684290  0.729970  0.210620  1.0  -0.0811
  C  C229  1  0.705220  0.655440  0.194610  1.0  0.1966
  C  C230  1  0.782480  0.634780  0.211650  1.0  -0.1799
  C  C231  1  0.783350  0.562690  0.182960  1.0  -0.1606
  C  C232  1  0.705510  0.536550  0.148450  1.0  0.2004
  C  C233  1  0.682820  0.465220  0.110920  1.0  -0.0923
  C  C234  1  0.604070  0.433550  0.081430  1.0  0.1674
  C  C235  1  0.576860  0.355540  0.047870  1.0  -0.1615
  C  C236  1  0.493300  0.342080  0.032810  1.0  -0.1431
  C  C237  1  0.314070  0.343410  0.027930  1.0  0.071
  C  C238  1  0.300070  0.338490  0.970470  1.0  -0.0986
  C  C239  1  0.236710  0.270910  0.945260  1.0  -0.0069
  C  C240  1  0.184970  0.207210  0.976920  1.0  -0.1651
  C  C241  1  0.199450  0.211370  0.033610  1.0  -0.0723
  C  C242  1  0.263690  0.278750  0.058690  1.0  -0.1247
  C  C243  1  0.117240  0.132600  0.951530  1.0  0.7011
  C  C244  1  0.335050  0.752950  0.131610  1.0  0.0776
  C  C245  1  0.308230  0.784670  0.179920  1.0  -0.1134
  C  C246  1  0.249560  0.831120  0.176800  1.0  -0.0658
  C  C247  1  0.216250  0.846310  0.125640  1.0  -0.1653
  C  C248  1  0.242920  0.815180  0.077570  1.0  -0.0399
  C  C249  1  0.301090  0.768530  0.080590  1.0  -0.0852
  C  C250  1  0.151930  0.894650  0.120900  1.0  0.646
  C  C251  1  0.747060  0.794640  0.247750  1.0  0.1015
  C  C252  1  0.832380  0.829640  0.232750  1.0  -0.1335
  C  C253  1  0.891550  0.887190  0.268310  1.0  -0.0403
  C  C254  1  0.867040  0.912700  0.318570  1.0  -0.1171
  C  C255  1  0.781440  0.880040  0.333410  1.0  -0.0934
  C  C256  1  0.722490  0.821690  0.298400  1.0  -0.1011
  C  C257  1  0.930750  0.976670  0.356890  1.0  0.6805
  C  C258  1  0.744600  0.414260  0.103440  1.0  0.1004
  C  C259  1  0.788060  0.415920  0.054470  1.0  -0.084
  C  C260  1  0.838910  0.362370  0.045270  1.0  -0.0368
  C  C261  1  0.850130  0.309030  0.085760  1.0  -0.1018
  C  C262  1  0.809110  0.308050  0.135570  1.0  -0.0305
  C  C263  1  0.756650  0.359850  0.144240  1.0  -0.1439
  C  C264  1  0.902610  0.249510  0.075740  1.0  0.6161
  C  C265  1  0.589030  0.533830  0.443530  1.0  0.151
  C  C266  1  0.582950  0.617290  0.445010  1.0  -0.0879
  C  C267  1  0.514350  0.642170  0.423370  1.0  0.177
  C  C268  1  0.507980  0.728320  0.424990  1.0  -0.1721
  C  C269  1  0.428930  0.724810  0.404920  1.0  -0.159
  C  C270  1  0.384880  0.635420  0.389310  1.0  0.1992
  C  C271  1  0.300830  0.604350  0.366790  1.0  -0.0481
  C  C272  1  0.263970  0.522110  0.343080  1.0  0.154
  C  C273  1  0.178430  0.488570  0.318590  1.0  -0.1532
  C  C274  1  0.171280  0.409420  0.296480  1.0  -0.1547
  C  C275  1  0.251210  0.390970  0.306140  1.0  0.122
  C  C276  1  0.270030  0.315710  0.289380  1.0  -0.0807
  C  C277  1  0.344560  0.294780  0.305390  1.0  0.196
  C  C278  1  0.365220  0.217520  0.288350  1.0  -0.178
  C  C279  1  0.437310  0.216650  0.317040  1.0  -0.1648
  C  C280  1  0.463450  0.294490  0.351550  1.0  0.2003
  C  C281  1  0.534780  0.317180  0.389080  1.0  -0.089
  C  C282  1  0.566450  0.395930  0.418570  1.0  0.1654
  C  C283  1  0.644460  0.423140  0.452130  1.0  -0.1611
  C  C284  1  0.657920  0.506700  0.467190  1.0  -0.1416
  C  C285  1  0.656590  0.685930  0.472070  1.0  0.071
  C  C286  1  0.661510  0.699930  0.529530  1.0  -0.098
  C  C287  1  0.729090  0.763290  0.554740  1.0  -0.0057
  C  C288  1  0.792790  0.815030  0.523080  1.0  -0.1663
  C  C289  1  0.788630  0.800550  0.466390  1.0  -0.071
  C  C290  1  0.721250  0.736310  0.441310  1.0  -0.1225
  C  C291  1  0.867400  0.882760  0.548470  1.0  0.6997
  C  C292  1  0.247050  0.664950  0.368390  1.0  0.0776
  C  C293  1  0.215330  0.691770  0.320080  1.0  -0.1129
  C  C294  1  0.168880  0.750440  0.323200  1.0  -0.0672
  C  C295  1  0.153690  0.783750  0.374360  1.0  -0.1663
  C  C296  1  0.184820  0.757080  0.422430  1.0  -0.0391
  C  C297  1  0.231470  0.698910  0.419410  1.0  -0.0843
  C  C298  1  0.105350  0.848070  0.379100  1.0  0.6472
  C  C299  1  0.205360  0.252940  0.252250  1.0  0.1019
  C  C300  1  0.170360  0.167620  0.267250  1.0  -0.1312
  C  C301  1  0.112810  0.108450  0.231690  1.0  -0.0397
  C  C302  1  0.087300  0.132960  0.181430  1.0  -0.1206
  C  C303  1  0.119960  0.218560  0.166590  1.0  -0.0927
  C  C304  1  0.178310  0.277510  0.201600  1.0  -0.103
  C  C305  1  0.023330  0.069250  0.143110  1.0  0.6798
  C  C306  1  0.585740  0.255400  0.396560  1.0  0.0996
  C  C307  1  0.584080  0.211940  0.445530  1.0  -0.0873
  C  C308  1  0.637630  0.161090  0.454730  1.0  -0.039
  C  C309  1  0.690970  0.149870  0.414240  1.0  -0.1036
  C  C310  1  0.691950  0.190890  0.364430  1.0  -0.0287
  C  C311  1  0.640150  0.243350  0.355760  1.0  -0.1428
  C  C312  1  0.750490  0.097390  0.424260  1.0  0.6153
  N  N313  1  0.586720  0.439620  0.899670  1.0  -0.441
  N  N314  1  0.460850  0.304950  0.835610  1.0  -0.2832
  N  N315  1  0.341470  0.407390  0.843120  1.0  -0.4143
  N  N316  1  0.463980  0.533780  0.915560  1.0  -0.2953
  N  N317  1  0.560380  0.413280  0.600330  1.0  -0.4393
  N  N318  1  0.695050  0.539150  0.664390  1.0  -0.2846
  N  N319  1  0.592610  0.658530  0.656880  1.0  -0.4152
  N  N320  1  0.466220  0.536020  0.584440  1.0  -0.2952
  N  N321  1  0.413280  0.560380  0.100330  1.0  -0.4381
  N  N322  1  0.539150  0.695050  0.164390  1.0  -0.283
  N  N323  1  0.658530  0.592610  0.156880  1.0  -0.4142
  N  N324  1  0.536020  0.466220  0.084440  1.0  -0.2939
  N  N325  1  0.439620  0.586720  0.399670  1.0  -0.4385
  N  N326  1  0.304950  0.460850  0.335610  1.0  -0.2836
  N  N327  1  0.407390  0.341470  0.343120  1.0  -0.4132
  N  N328  1  0.533780  0.463980  0.415560  1.0  -0.2963
  O  O329  1  0.927460  0.924700  0.020060  1.0  -0.6841
  O  O330  1  0.891850  0.867670  0.102310  1.0  -0.5008
  O  O331  1  0.874390  0.085490  0.829910  1.0  -0.4967
  O  O332  1  0.874810  0.086070  0.923110  1.0  -0.6706
  O  O333  1  0.989910  0.005950  0.653910  1.0  -0.6184
  O  O334  1  0.096700  0.989440  0.603050  1.0  -0.6172
  O  O335  1  0.076780  0.770500  0.969570  1.0  -0.5863
  O  O336  1  0.077180  0.782800  0.877630  1.0  -0.492
  O  O337  1  0.075300  0.072540  0.479940  1.0  -0.6846
  O  O338  1  0.132330  0.108150  0.397690  1.0  -0.4965
  O  O339  1  0.914510  0.125610  0.670090  1.0  -0.4999
  O  O340  1  0.913930  0.125190  0.576890  1.0  -0.6655
  O  O341  1  0.994050  0.010090  0.846090  1.0  -0.6175
  O  O342  1  0.010560  0.903300  0.896950  1.0  -0.614
  O  O343  1  0.229500  0.923220  0.530430  1.0  -0.5861
  O  O344  1  0.217200  0.922820  0.622370  1.0  -0.4948
  O  O345  1  0.072540  0.075300  0.979940  1.0  -0.6829
  O  O346  1  0.108150  0.132330  0.897690  1.0  -0.4995
  O  O347  1  0.125610  0.914510  0.170090  1.0  -0.4982
  O  O348  1  0.125190  0.913930  0.076890  1.0  -0.669
  O  O349  1  0.010090  0.994050  0.346090  1.0  -0.6184
  O  O350  1  0.903300  0.010560  0.396950  1.0  -0.6168
  O  O351  1  0.923220  0.229500  0.030430  1.0  -0.5829
  O  O352  1  0.922820  0.217200  0.122370  1.0  -0.4945
  O  O353  1  0.924700  0.927460  0.520060  1.0  -0.6825
  O  O354  1  0.867670  0.891850  0.602310  1.0  -0.4978
  O  O355  1  0.085490  0.874390  0.329910  1.0  -0.4983
  O  O356  1  0.086070  0.874810  0.423110  1.0  -0.6662
  O  O357  1  0.005950  0.989910  0.153910  1.0  -0.6184
  O  O358  1  0.989440  0.096700  0.103050  1.0  -0.6148
  O  O359  1  0.770500  0.076780  0.469570  1.0  -0.5873
  O  O360  1  0.782800  0.077180  0.377630  1.0  -0.4927
