# generated using pymatgen
data_Mn3H14C30N4O13
_symmetry_space_group_name_H-M   'P 1'
_cell_length_a   7.24700000
_cell_length_b   15.58730000
_cell_length_c   19.33700000
_cell_angle_alpha   106.36900000
_cell_angle_beta   90.00000000
_cell_angle_gamma   103.44200000
_symmetry_Int_Tables_number   1
_chemical_formula_structural   Mn3H14C30N4O13
_chemical_formula_sum   'Mn6 H28 C60 N8 O26'
_cell_volume   2033.34969869
_cell_formula_units_Z   2
loop_
 _symmetry_equiv_pos_site_id
 _symmetry_equiv_pos_as_xyz
  1  'x, y, z'
loop_
 _atom_site_type_symbol
 _atom_site_label
 _atom_site_symmetry_multiplicity
 _atom_site_fract_x
 _atom_site_fract_y
 _atom_site_fract_z
 _atom_site_occupancy
 _atom_site_charge
  Mn  Mn1  1  0.838750  0.353660  0.089920  1.0  1.1437
  Mn  Mn2  1  0.870620  0.584060  0.049050  1.0  1.1385
  Mn  Mn3  1  0.399810  0.569080  0.230720  1.0  1.2011
  Mn  Mn4  1  0.514910  0.353660  0.589920  1.0  1.1441
  Mn  Mn5  1  0.713440  0.584060  0.549050  1.0  1.138
  Mn  Mn6  1  0.169270  0.569080  0.730720  1.0  1.2012
  H  H7  1  0.368500  0.216600  0.202300  1.0  0.1376
  H  H8  1  0.223500  0.238600  0.405800  1.0  0.1369
  H  H9  1  0.502000  0.464400  0.354000  1.0  0.1187
  H  H10  1  0.995600  0.951200  0.107500  1.0  0.1367
  H  H11  1  0.817100  0.801400  0.087100  1.0  0.1179
  H  H12  1  0.842700  0.830600  0.300100  1.0  0.1193
  H  H13  1  0.019200  0.982600  0.322500  1.0  0.1431
  H  H14  1  0.326900  0.788200  0.306200  1.0  0.1199
  H  H15  1  0.490400  0.937800  0.358100  1.0  0.128
  H  H16  1  0.511100  0.983000  0.162100  1.0  0.1263
  H  H17  1  0.340100  0.831800  0.109800  1.0  0.1206
  H  H18  1  0.682200  0.223400  0.397400  1.0  0.1282
  H  H19  1  0.001800  0.459000  0.370900  1.0  0.116
  H  H20  1  0.882100  0.228800  0.202800  1.0  0.1318
  H  H21  1  0.848100  0.216600  0.702300  1.0  0.1378
  H  H22  1  0.015100  0.238600  0.905800  1.0  0.1368
  H  H23  1  0.962400  0.464400  0.854000  1.0  0.1188
  H  H24  1  0.955600  0.951200  0.607500  1.0  0.1365
  H  H25  1  0.984300  0.801400  0.587100  1.0  0.1179
  H  H26  1  0.987900  0.830600  0.800100  1.0  0.1194
  H  H27  1  0.963400  0.982600  0.822500  1.0  0.1433
  H  H28  1  0.461300  0.788200  0.806200  1.0  0.1197
  H  H29  1  0.447400  0.937800  0.858100  1.0  0.1279
  H  H30  1  0.471900  0.983000  0.662100  1.0  0.1265
  H  H31  1  0.491700  0.831800  0.609800  1.0  0.1206
  H  H32  1  0.541200  0.223400  0.897400  1.0  0.1282
  H  H33  1  0.457200  0.459000  0.870900  1.0  0.116
  H  H34  1  0.346700  0.228800  0.702800  1.0  0.1317
  C  C35  1  0.560100  0.392000  0.216100  1.0  0.7298
  C  C36  1  0.452700  0.347000  0.269700  1.0  -0.1515
  C  C37  1  0.365600  0.253200  0.249300  1.0  0.0029
  C  C38  1  0.272500  0.214800  0.302000  1.0  0.1873
  C  C39  1  0.277700  0.266000  0.371400  1.0  -0.1267
  C  C40  1  0.364500  0.360800  0.391900  1.0  -0.1371
  C  C41  1  0.371600  0.416400  0.469200  1.0  0.6792
  C  C42  1  0.448500  0.401400  0.341000  1.0  0.0212
  C  C43  1  0.021000  0.980800  0.215300  1.0  0.1477
  C  C44  1  0.964500  0.927400  0.146100  1.0  -0.1313
  C  C45  1  0.860200  0.837200  0.134000  1.0  0.0125
  C  C46  1  0.819400  0.799800  0.190900  1.0  -0.1273
  C  C47  1  0.703100  0.701200  0.175800  1.0  0.6974
  C  C48  1  0.875200  0.855000  0.261700  1.0  0.0216
  C  C49  1  0.978900  0.946000  0.275600  1.0  -0.0997
  C  C50  1  0.199500  0.697400  0.168500  1.0  0.7506
  C  C51  1  0.316100  0.793200  0.202200  1.0  -0.1362
  C  C52  1  0.363200  0.827000  0.277400  1.0  -0.0316
  C  C53  1  0.461700  0.916400  0.308400  1.0  -0.1289
  C  C54  1  0.519300  0.975800  0.265800  1.0  0.1803
  C  C55  1  0.473600  0.943800  0.190700  1.0  -0.0555
  C  C56  1  0.371600  0.853000  0.159300  1.0  -0.0186
  C  C57  1  0.768600  0.208400  0.294700  1.0  0.1841
  C  C58  1  0.751100  0.255200  0.368000  1.0  0.0215
  C  C59  1  0.838700  0.350400  0.396200  1.0  -0.141
  C  C60  1  0.799500  0.400000  0.469400  1.0  0.7261
  C  C61  1  0.943100  0.396800  0.352200  1.0  0.0098
  C  C62  1  0.961200  0.351600  0.280400  1.0  -0.1439
  C  C63  1  0.071800  0.402800  0.232200  1.0  0.6949
  C  C64  1  0.872400  0.258200  0.251300  1.0  -0.0659
  C  C65  1  0.831900  0.392000  0.716100  1.0  0.73
  C  C66  1  0.894300  0.347000  0.769700  1.0  -0.1513
  C  C67  1  0.887600  0.253200  0.749300  1.0  0.0022
  C  C68  1  0.942300  0.214800  0.802000  1.0  0.1876
  C  C69  1  0.988300  0.266000  0.871400  1.0  -0.1249
  C  C70  1  0.996300  0.360800  0.891900  1.0  -0.137
  C  C71  1  0.044800  0.416400  0.969200  1.0  0.6798
  C  C72  1  0.952900  0.401400  0.841000  1.0  0.0196
  C  C73  1  0.959800  0.980800  0.715300  1.0  0.1479
  C  C74  1  0.962900  0.927400  0.646100  1.0  -0.1308
  C  C75  1  0.977000  0.837200  0.634000  1.0  0.0118
  C  C76  1  0.980400  0.799800  0.690900  1.0  -0.1269
  C  C77  1  0.998100  0.701200  0.675800  1.0  0.6975
  C  C78  1  0.979800  0.855000  0.761700  1.0  0.022
  C  C79  1  0.967100  0.946000  0.775600  1.0  -0.0998
  C  C80  1  0.497900  0.697400  0.668500  1.0  0.7506
  C  C81  1  0.477100  0.793200  0.702200  1.0  -0.1362
  C  C82  1  0.463800  0.827000  0.777400  1.0  -0.0314
  C  C83  1  0.454700  0.916400  0.808400  1.0  -0.1298
  C  C84  1  0.456500  0.975800  0.765800  1.0  0.1804
  C  C85  1  0.470200  0.943800  0.690700  1.0  -0.0551
  C  C86  1  0.481400  0.853000  0.659300  1.0  -0.0187
  C  C87  1  0.439800  0.208400  0.794700  1.0  0.1838
  C  C88  1  0.504100  0.255200  0.868000  1.0  0.022
  C  C89  1  0.511700  0.350400  0.896200  1.0  -0.1402
  C  C90  1  0.600500  0.400000  0.969400  1.0  0.7251
  C  C91  1  0.453700  0.396800  0.852200  1.0  0.0089
  C  C92  1  0.390400  0.351600  0.780400  1.0  -0.1444
  C  C93  1  0.331000  0.402800  0.732200  1.0  0.6957
  C  C94  1  0.385800  0.258200  0.751300  1.0  -0.0662
  N  N95  1  0.179900  0.119400  0.288600  1.0  -0.1582
  N  N96  1  0.121600  0.076200  0.225100  1.0  -0.1768
  N  N97  1  0.620200  0.067800  0.301700  1.0  -0.1555
  N  N98  1  0.680000  0.115600  0.261100  1.0  -0.1897
  N  N99  1  0.939500  0.119400  0.788600  1.0  -0.1583
  N  N100  1  0.954600  0.076200  0.725100  1.0  -0.1767
  N  N101  1  0.447600  0.067800  0.801700  1.0  -0.1555
  N  N102  1  0.435600  0.115600  0.761100  1.0  -0.1896
  O  O103  1  0.602730  0.338260  0.159200  1.0  -0.6475
  O  O104  1  0.601970  0.478340  0.232000  1.0  -0.6632
  O  O105  1  0.454310  0.501220  0.486200  1.0  -0.6536
  O  O106  1  0.301130  0.376860  0.516400  1.0  -0.6412
  O  O107  1  0.645560  0.675320  0.230800  1.0  -0.6074
  O  O108  1  0.672200  0.652400  0.112700  1.0  -0.6231
  O  O109  1  0.117840  0.681280  0.107200  1.0  -0.6251
  O  O110  1  0.181260  0.638920  0.204000  1.0  -0.6649
  O  O111  1  0.698790  0.354180  0.506400  1.0  -0.6838
  O  O112  1  0.866080  0.486360  0.491400  1.0  -0.6136
  O  O113  1  0.166570  0.483940  0.263100  1.0  -0.6276
  O  O114  1  0.060010  0.364020  0.164900  1.0  -0.6266
  O  O115  1  0.874130  0.509660  0.137400  1.0  -0.48
  O  O116  1  0.735530  0.338260  0.659200  1.0  -0.6464
  O  O117  1  0.876370  0.478340  0.732000  1.0  -0.6631
  O  O118  1  0.046910  0.501220  0.986200  1.0  -0.6516
  O  O119  1  0.075730  0.376860  0.016400  1.0  -0.6405
  O  O120  1  0.029760  0.675320  0.730800  1.0  -0.6074
  O  O121  1  0.980200  0.652400  0.612700  1.0  -0.6227
  O  O122  1  0.563440  0.681280  0.607200  1.0  -0.6254
  O  O123  1  0.457660  0.638920  0.704000  1.0  -0.6646
  O  O124  1  0.655390  0.354180  0.006400  1.0  -0.6839
  O  O125  1  0.620280  0.486360  0.991400  1.0  -0.6151
  O  O126  1  0.317370  0.483940  0.763100  1.0  -0.6274
  O  O127  1  0.304010  0.364020  0.664900  1.0  -0.6269
  O  O128  1  0.635530  0.509660  0.637400  1.0  -0.48
