# generated using pymatgen
data_CuH15C24Br(NO2)3
_symmetry_space_group_name_H-M   'P 1'
_cell_length_a   32.24900000
_cell_length_b   7.77000000
_cell_length_c   30.64100000
_cell_angle_alpha   90.00000000
_cell_angle_beta   116.03000000
_cell_angle_gamma   90.00000000
_symmetry_Int_Tables_number   1
_chemical_formula_structural   CuH15C24Br(NO2)3
_chemical_formula_sum   'Cu8 H120 C192 Br8 N24 O48'
_cell_volume   6899.05187797
_cell_formula_units_Z   8
loop_
 _symmetry_equiv_pos_site_id
 _symmetry_equiv_pos_as_xyz
  1  'x, y, z'
loop_
 _atom_site_type_symbol
 _atom_site_label
 _atom_site_symmetry_multiplicity
 _atom_site_fract_x
 _atom_site_fract_y
 _atom_site_fract_z
 _atom_site_occupancy
 _atom_site_charge
  Cu  Cu1  1  0.242760  0.273410  0.377070  1.0  0.3206
  Cu  Cu2  1  0.742140  0.720150  0.881700  1.0  0.3144
  Cu  Cu3  1  0.242760  0.226590  0.877070  1.0  0.3208
  Cu  Cu4  1  0.742140  0.779850  0.381700  1.0  0.3133
  Cu  Cu5  1  0.757240  0.773410  0.122930  1.0  0.3224
  Cu  Cu6  1  0.257860  0.220150  0.618300  1.0  0.3141
  Cu  Cu7  1  0.757240  0.726590  0.622930  1.0  0.3208
  Cu  Cu8  1  0.257860  0.279850  0.118300  1.0  0.3149
  H  H9  1  0.291890  0.174440  0.483050  1.0  0.0875
  H  H10  1  0.330200  0.306220  0.558400  1.0  0.122
  H  H11  1  0.303040  0.766840  0.489670  1.0  0.1345
  H  H12  1  0.263390  0.623650  0.417100  1.0  0.0963
  H  H13  1  0.326510  0.706020  0.667270  1.0  0.1338
  H  H14  1  0.446930  0.820710  0.785700  1.0  0.1421
  H  H15  1  0.449960  0.567980  0.670520  1.0  0.1345
  H  H16  1  0.271780  0.707170  0.799100  1.0  0.1309
  H  H17  1  0.237110  0.884830  0.834360  1.0  0.0938
  H  H18  1  0.306580  0.287160  0.824980  1.0  0.0877
  H  H19  1  0.342610  0.123340  0.787920  1.0  0.1214
  H  H20  1  0.573180  0.581670  0.824920  1.0  0.1342
  H  H21  1  0.652090  0.564610  0.875620  1.0  0.0942
  H  H22  1  0.680550  0.857840  0.787190  1.0  0.0924
  H  H23  1  0.602900  0.876480  0.732650  1.0  0.1372
  H  H24  1  0.742200  0.374730  0.922930  1.0  0.0959
  H  H25  1  0.779250  0.226170  0.994930  1.0  0.1342
  H  H26  1  0.831180  0.678640  0.062210  1.0  0.1214
  H  H27  1  0.794060  0.814700  0.987330  1.0  0.0952
  H  H28  1  0.826560  0.277240  0.173040  1.0  0.1275
  H  H29  1  0.949830  0.162560  0.287990  1.0  0.1425
  H  H30  1  0.947780  0.412240  0.169630  1.0  0.1338
  H  H31  1  0.787520  0.298630  0.318230  1.0  0.1291
  H  H32  1  0.751500  0.129690  0.353850  1.0  0.0925
  H  H33  1  0.803770  0.707400  0.328610  1.0  0.0884
  H  H34  1  0.841310  0.863240  0.291250  1.0  0.1152
  H  H35  1  0.102610  0.110650  0.229590  1.0  0.1343
  H  H36  1  0.180590  0.133010  0.283210  1.0  0.0956
  H  H37  1  0.152090  0.417790  0.373220  1.0  0.0953
  H  H38  1  0.073240  0.394950  0.323770  1.0  0.136
  H  H39  1  0.291890  0.325560  0.983050  1.0  0.0863
  H  H40  1  0.330200  0.193780  0.058400  1.0  0.1226
  H  H41  1  0.303040  0.733160  0.989670  1.0  0.1347
  H  H42  1  0.263390  0.876350  0.917100  1.0  0.0958
  H  H43  1  0.326510  0.793980  0.167270  1.0  0.134
  H  H44  1  0.446930  0.679290  0.285700  1.0  0.1425
  H  H45  1  0.449960  0.932020  0.170520  1.0  0.1336
  H  H46  1  0.271780  0.792830  0.299100  1.0  0.1314
  H  H47  1  0.237110  0.615170  0.334360  1.0  0.0937
  H  H48  1  0.306580  0.212840  0.324980  1.0  0.0884
  H  H49  1  0.342610  0.376660  0.287920  1.0  0.1214
  H  H50  1  0.573180  0.918330  0.324920  1.0  0.134
  H  H51  1  0.652090  0.935390  0.375620  1.0  0.0941
  H  H52  1  0.680550  0.642160  0.287190  1.0  0.0924
  H  H53  1  0.602900  0.623520  0.232650  1.0  0.137
  H  H54  1  0.742200  0.125270  0.422930  1.0  0.0963
  H  H55  1  0.779250  0.273830  0.494930  1.0  0.135
  H  H56  1  0.831180  0.821360  0.562210  1.0  0.1211
  H  H57  1  0.794060  0.685300  0.487330  1.0  0.0961
  H  H58  1  0.826560  0.222760  0.673040  1.0  0.1269
  H  H59  1  0.949830  0.337440  0.787990  1.0  0.1472
  H  H60  1  0.947780  0.087760  0.669630  1.0  0.1378
  H  H61  1  0.787520  0.201370  0.818230  1.0  0.1294
  H  H62  1  0.751500  0.370310  0.853850  1.0  0.0927
  H  H63  1  0.803770  0.792600  0.828610  1.0  0.0882
  H  H64  1  0.841310  0.636760  0.791250  1.0  0.1153
  H  H65  1  0.102610  0.389350  0.729590  1.0  0.1343
  H  H66  1  0.180590  0.366990  0.783210  1.0  0.0954
  H  H67  1  0.152090  0.082210  0.873220  1.0  0.0954
  H  H68  1  0.073240  0.105050  0.823770  1.0  0.1362
  H  H69  1  0.708110  0.674440  0.016950  1.0  0.0877
  H  H70  1  0.669800  0.806220  0.941600  1.0  0.1219
  H  H71  1  0.696960  0.266840  0.010330  1.0  0.1347
  H  H72  1  0.736610  0.123650  0.082900  1.0  0.0954
  H  H73  1  0.673490  0.206020  0.832730  1.0  0.1332
  H  H74  1  0.553070  0.320710  0.714300  1.0  0.1402
  H  H75  1  0.550040  0.067980  0.829480  1.0  0.1351
  H  H76  1  0.728220  0.207170  0.700900  1.0  0.1308
  H  H77  1  0.762890  0.384830  0.665640  1.0  0.0932
  H  H78  1  0.693420  0.787160  0.675020  1.0  0.0883
  H  H79  1  0.657390  0.623340  0.712080  1.0  0.1211
  H  H80  1  0.426820  0.081670  0.675080  1.0  0.1331
  H  H81  1  0.347910  0.064610  0.624380  1.0  0.0928
  H  H82  1  0.319450  0.357840  0.712810  1.0  0.0925
  H  H83  1  0.397100  0.376480  0.767350  1.0  0.1359
  H  H84  1  0.257800  0.874730  0.577070  1.0  0.0955
  H  H85  1  0.220750  0.726170  0.505070  1.0  0.136
  H  H86  1  0.168820  0.178640  0.437790  1.0  0.1215
  H  H87  1  0.205940  0.314700  0.512670  1.0  0.0956
  H  H88  1  0.173440  0.777240  0.326960  1.0  0.1275
  H  H89  1  0.050170  0.662560  0.212010  1.0  0.1449
  H  H90  1  0.052220  0.912240  0.330370  1.0  0.1372
  H  H91  1  0.212480  0.798630  0.181770  1.0  0.1293
  H  H92  1  0.248500  0.629690  0.146150  1.0  0.0924
  H  H93  1  0.196230  0.207400  0.171390  1.0  0.0887
  H  H94  1  0.158690  0.363240  0.208750  1.0  0.115
  H  H95  1  0.897390  0.610650  0.270410  1.0  0.1339
  H  H96  1  0.819410  0.633010  0.216790  1.0  0.0954
  H  H97  1  0.847910  0.917790  0.126780  1.0  0.0943
  H  H98  1  0.926760  0.894950  0.176230  1.0  0.1345
  H  H99  1  0.708110  0.825560  0.516950  1.0  0.0867
  H  H100  1  0.669800  0.693780  0.441600  1.0  0.123
  H  H101  1  0.696960  0.233160  0.510330  1.0  0.1347
  H  H102  1  0.736610  0.376350  0.582900  1.0  0.0957
  H  H103  1  0.673490  0.293980  0.332730  1.0  0.1333
  H  H104  1  0.553070  0.179290  0.214300  1.0  0.1405
  H  H105  1  0.550040  0.432020  0.329480  1.0  0.1345
  H  H106  1  0.728220  0.292830  0.200900  1.0  0.1313
  H  H107  1  0.762890  0.115170  0.165640  1.0  0.0935
  H  H108  1  0.693420  0.712840  0.175020  1.0  0.089
  H  H109  1  0.657390  0.876660  0.212080  1.0  0.1215
  H  H110  1  0.426820  0.418330  0.175080  1.0  0.1331
  H  H111  1  0.347910  0.435390  0.124380  1.0  0.0923
  H  H112  1  0.319450  0.142160  0.212810  1.0  0.0926
  H  H113  1  0.397100  0.123520  0.267350  1.0  0.1357
  H  H114  1  0.257800  0.625270  0.077070  1.0  0.0951
  H  H115  1  0.220750  0.773830  0.005070  1.0  0.1358
  H  H116  1  0.168820  0.321360  0.937790  1.0  0.1206
  H  H117  1  0.205940  0.185300  0.012670  1.0  0.0968
  H  H118  1  0.173440  0.722760  0.826960  1.0  0.1271
  H  H119  1  0.050170  0.837440  0.712010  1.0  0.14
  H  H120  1  0.052220  0.587760  0.830370  1.0  0.1347
  H  H121  1  0.212480  0.701370  0.681770  1.0  0.1293
  H  H122  1  0.248500  0.870310  0.646150  1.0  0.0921
  H  H123  1  0.196230  0.292600  0.671390  1.0  0.0896
  H  H124  1  0.158690  0.136760  0.708750  1.0  0.1143
  H  H125  1  0.897390  0.889350  0.770410  1.0  0.1339
  H  H126  1  0.819410  0.866990  0.716790  1.0  0.0954
  H  H127  1  0.847910  0.582210  0.626780  1.0  0.0953
  H  H128  1  0.926760  0.605050  0.676230  1.0  0.1345
  C  C129  1  0.293710  0.296500  0.484550  1.0  0.1799
  C  C130  1  0.316950  0.373900  0.529700  1.0  -0.1249
  C  C131  1  0.320470  0.552200  0.532100  1.0  -0.1302
  C  C132  1  0.300670  0.644900  0.489290  1.0  -0.1587
  C  C133  1  0.277500  0.558300  0.446170  1.0  0.1838
  C  C134  1  0.343950  0.651100  0.578380  1.0  0.6302
  C  C135  1  0.385400  0.629200  0.662910  1.0  0.2048
  C  C136  1  0.359270  0.704000  0.683570  1.0  -0.1709
  C  C137  1  0.383560  0.776300  0.729590  1.0  0.2524
  C  C138  1  0.431110  0.771700  0.754250  1.0  -0.1678
  C  C139  1  0.454950  0.693100  0.731490  1.0  0.2439
  C  C140  1  0.433050  0.620800  0.685640  1.0  -0.2008
  C  C141  1  0.332990  0.779800  0.766990  1.0  0.6475
  C  C142  1  0.311270  0.896800  0.789810  1.0  -0.1339
  C  C143  1  0.279440  0.825900  0.803920  1.0  -0.1473
  C  C144  1  0.259190  0.933200  0.825210  1.0  0.1806
  C  C145  1  0.299470  0.168100  0.819610  1.0  0.1511
  C  C146  1  0.321270  0.071200  0.797530  1.0  -0.1078
  C  C147  1  0.529730  0.753100  0.739370  1.0  0.5992
  C  C148  1  0.579770  0.730800  0.773470  1.0  -0.1256
  C  C149  1  0.594660  0.638200  0.816330  1.0  -0.1449
  C  C150  1  0.641820  0.629900  0.846530  1.0  0.18
  C  C151  1  0.658450  0.800300  0.794640  1.0  0.1847
  C  C152  1  0.612230  0.813300  0.761990  1.0  -0.181
  C  C153  1  0.761020  0.436900  0.951530  1.0  0.1843
  C  C154  1  0.782530  0.347500  0.994340  1.0  -0.156
  C  C155  1  0.809080  0.436600  0.036690  1.0  -0.1157
  C  C156  1  0.813300  0.613500  0.033900  1.0  -0.1069
  C  C157  1  0.790980  0.693600  0.989040  1.0  0.1605
  C  C158  1  0.831440  0.335700  0.082390  1.0  0.6472
  C  C159  1  0.883930  0.352900  0.165100  1.0  0.212
  C  C160  1  0.859340  0.278900  0.187880  1.0  -0.1755
  C  C161  1  0.885220  0.207200  0.233630  1.0  0.2282
  C  C162  1  0.932990  0.210900  0.256600  1.0  -0.2202
  C  C163  1  0.955210  0.287900  0.231940  1.0  0.248
  C  C164  1  0.931810  0.360400  0.185930  1.0  -0.1977
  C  C165  1  0.840460  0.210600  0.277270  1.0  0.6422
  C  C166  1  0.818760  0.098000  0.301190  1.0  -0.118
  C  C167  1  0.791540  0.177300  0.319980  1.0  -0.1501
  C  C168  1  0.770390  0.075000  0.341360  1.0  0.1883
  C  C169  1  0.800650  0.829100  0.326660  1.0  0.1545
  C  C170  1  0.823240  0.921200  0.304190  1.0  -0.0885
  C  C171  1  0.029530  0.226600  0.237700  1.0  0.5993
  C  C172  1  0.079720  0.251000  0.271300  1.0  -0.1321
  C  C173  1  0.112060  0.172800  0.259110  1.0  -0.1737
  C  C174  1  0.158490  0.187900  0.291190  1.0  0.1864
  C  C175  1  0.141810  0.353200  0.344010  1.0  0.176
  C  C176  1  0.094720  0.341800  0.314540  1.0  -0.1496
  C  C177  1  0.293710  0.203500  0.984550  1.0  0.1763
  C  C178  1  0.316950  0.126100  0.029700  1.0  -0.1246
  C  C179  1  0.320470  0.947800  0.032100  1.0  -0.1306
  C  C180  1  0.300670  0.855100  0.989290  1.0  -0.1633
  C  C181  1  0.277500  0.941700  0.946170  1.0  0.1866
  C  C182  1  0.343950  0.848900  0.078380  1.0  0.6301
  C  C183  1  0.385400  0.870800  0.162910  1.0  0.2131
  C  C184  1  0.359270  0.796000  0.183570  1.0  -0.171
  C  C185  1  0.383560  0.723700  0.229590  1.0  0.2512
  C  C186  1  0.431110  0.728300  0.254250  1.0  -0.1687
  C  C187  1  0.454950  0.806900  0.231490  1.0  0.244
  C  C188  1  0.433050  0.879200  0.185640  1.0  -0.2018
  C  C189  1  0.332990  0.720200  0.266990  1.0  0.6469
  C  C190  1  0.311270  0.603200  0.289810  1.0  -0.1345
  C  C191  1  0.279440  0.674100  0.303920  1.0  -0.1449
  C  C192  1  0.259190  0.566800  0.325210  1.0  0.1812
  C  C193  1  0.299470  0.331900  0.319610  1.0  0.1543
  C  C194  1  0.321270  0.428800  0.297530  1.0  -0.1082
  C  C195  1  0.529730  0.746900  0.239370  1.0  0.5994
  C  C196  1  0.579770  0.769200  0.273470  1.0  -0.1256
  C  C197  1  0.594660  0.861800  0.316330  1.0  -0.1447
  C  C198  1  0.641820  0.870100  0.346530  1.0  0.1803
  C  C199  1  0.658450  0.699700  0.294640  1.0  0.1876
  C  C200  1  0.612230  0.686700  0.261990  1.0  -0.1793
  C  C201  1  0.761020  0.063100  0.451530  1.0  0.1846
  C  C202  1  0.782530  0.152500  0.494340  1.0  -0.1504
  C  C203  1  0.809080  0.063400  0.536690  1.0  -0.1158
  C  C204  1  0.813300  0.886500  0.533900  1.0  -0.1076
  C  C205  1  0.790980  0.806400  0.489040  1.0  0.1596
  C  C206  1  0.831440  0.164300  0.582390  1.0  0.6473
  C  C207  1  0.883930  0.147100  0.665100  1.0  0.2035
  C  C208  1  0.859340  0.221100  0.687880  1.0  -0.1755
  C  C209  1  0.885220  0.292800  0.733630  1.0  0.2254
  C  C210  1  0.932990  0.289100  0.756600  1.0  -0.2201
  C  C211  1  0.955210  0.212100  0.731940  1.0  0.2478
  C  C212  1  0.931810  0.139600  0.685930  1.0  -0.1985
  C  C213  1  0.840460  0.289400  0.777270  1.0  0.6424
  C  C214  1  0.818760  0.402000  0.801190  1.0  -0.1175
  C  C215  1  0.791540  0.322700  0.819980  1.0  -0.1528
  C  C216  1  0.770390  0.425000  0.841360  1.0  0.1894
  C  C217  1  0.800650  0.670900  0.826660  1.0  0.1494
  C  C218  1  0.823240  0.578800  0.804190  1.0  -0.0874
  C  C219  1  0.029530  0.273400  0.737700  1.0  0.5988
  C  C220  1  0.079720  0.249000  0.771300  1.0  -0.1322
  C  C221  1  0.112060  0.327200  0.759110  1.0  -0.1753
  C  C222  1  0.158490  0.312100  0.791190  1.0  0.1855
  C  C223  1  0.141810  0.146800  0.844010  1.0  0.1759
  C  C224  1  0.094720  0.158200  0.814540  1.0  -0.1499
  C  C225  1  0.706290  0.796500  0.015450  1.0  0.1797
  C  C226  1  0.683050  0.873900  0.970300  1.0  -0.1234
  C  C227  1  0.679530  0.052200  0.967900  1.0  -0.1304
  C  C228  1  0.699330  0.144900  0.010710  1.0  -0.1616
  C  C229  1  0.722500  0.058300  0.053830  1.0  0.1815
  C  C230  1  0.656050  0.151100  0.921620  1.0  0.6293
  C  C231  1  0.614600  0.129200  0.837090  1.0  0.2021
  C  C232  1  0.640730  0.204000  0.816430  1.0  -0.1715
  C  C233  1  0.616440  0.276300  0.770410  1.0  0.2527
  C  C234  1  0.568890  0.271700  0.745750  1.0  -0.167
  C  C235  1  0.545050  0.193100  0.768510  1.0  0.244
  C  C236  1  0.566950  0.120800  0.814360  1.0  -0.2047
  C  C237  1  0.667010  0.279800  0.733010  1.0  0.6471
  C  C238  1  0.688730  0.396800  0.710190  1.0  -0.1342
  C  C239  1  0.720560  0.325900  0.696080  1.0  -0.1508
  C  C240  1  0.740810  0.433200  0.674790  1.0  0.1774
  C  C241  1  0.700530  0.668100  0.680390  1.0  0.1558
  C  C242  1  0.678730  0.571200  0.702470  1.0  -0.109
  C  C243  1  0.470270  0.253100  0.760630  1.0  0.6008
  C  C244  1  0.420230  0.230800  0.726530  1.0  -0.1247
  C  C245  1  0.405340  0.138200  0.683670  1.0  -0.146
  C  C246  1  0.358180  0.129900  0.653470  1.0  0.1785
  C  C247  1  0.341550  0.300300  0.705360  1.0  0.1844
  C  C248  1  0.387770  0.313300  0.738010  1.0  -0.1803
  C  C249  1  0.238980  0.936900  0.548470  1.0  0.1814
  C  C250  1  0.217470  0.847500  0.505660  1.0  -0.149
  C  C251  1  0.190920  0.936600  0.463310  1.0  -0.1146
  C  C252  1  0.186700  0.113500  0.466100  1.0  -0.1087
  C  C253  1  0.209020  0.193600  0.510960  1.0  0.166
  C  C254  1  0.168560  0.835700  0.417610  1.0  0.6467
  C  C255  1  0.116070  0.852900  0.334900  1.0  0.2197
  C  C256  1  0.140660  0.778900  0.312120  1.0  -0.1772
  C  C257  1  0.114780  0.707200  0.266370  1.0  0.2239
  C  C258  1  0.067010  0.710900  0.243400  1.0  -0.2198
  C  C259  1  0.044790  0.787900  0.268060  1.0  0.2469
  C  C260  1  0.068190  0.860400  0.314070  1.0  -0.2017
  C  C261  1  0.159540  0.710600  0.222730  1.0  0.6433
  C  C262  1  0.181240  0.598000  0.198810  1.0  -0.1205
  C  C263  1  0.208460  0.677300  0.180020  1.0  -0.1505
  C  C264  1  0.229610  0.575000  0.158640  1.0  0.1833
  C  C265  1  0.199350  0.329100  0.173340  1.0  0.1564
  C  C266  1  0.176760  0.421200  0.195810  1.0  -0.0877
  C  C267  1  0.970470  0.726600  0.262300  1.0  0.6006
  C  C268  1  0.920280  0.751000  0.228700  1.0  -0.1311
  C  C269  1  0.887940  0.672800  0.240890  1.0  -0.1745
  C  C270  1  0.841510  0.687900  0.208810  1.0  0.1828
  C  C271  1  0.858190  0.853200  0.155990  1.0  0.1745
  C  C272  1  0.905280  0.841800  0.185460  1.0  -0.1507
  C  C273  1  0.706290  0.703500  0.515450  1.0  0.1778
  C  C274  1  0.683050  0.626100  0.470300  1.0  -0.1239
  C  C275  1  0.679530  0.447800  0.467900  1.0  -0.1306
  C  C276  1  0.699330  0.355100  0.510710  1.0  -0.1627
  C  C277  1  0.722500  0.441700  0.553830  1.0  0.184
  C  C278  1  0.656050  0.348900  0.421620  1.0  0.6287
  C  C279  1  0.614600  0.370800  0.337090  1.0  0.2022
  C  C280  1  0.640730  0.296000  0.316430  1.0  -0.1717
  C  C281  1  0.616440  0.223700  0.270410  1.0  0.2507
  C  C282  1  0.568890  0.228300  0.245750  1.0  -0.1682
  C  C283  1  0.545050  0.306900  0.268510  1.0  0.2436
  C  C284  1  0.566950  0.379200  0.314360  1.0  -0.2053
  C  C285  1  0.667010  0.220200  0.233010  1.0  0.6476
  C  C286  1  0.688730  0.103200  0.210190  1.0  -0.1335
  C  C287  1  0.720560  0.174100  0.196080  1.0  -0.1438
  C  C288  1  0.740810  0.066800  0.174790  1.0  0.1779
  C  C289  1  0.700530  0.831900  0.180390  1.0  0.1566
  C  C290  1  0.678730  0.928800  0.202470  1.0  -0.1087
  C  C291  1  0.470270  0.246900  0.260630  1.0  0.6003
  C  C292  1  0.420230  0.269200  0.226530  1.0  -0.1248
  C  C293  1  0.405340  0.361800  0.183670  1.0  -0.1459
  C  C294  1  0.358180  0.370100  0.153470  1.0  0.1786
  C  C295  1  0.341550  0.199700  0.205360  1.0  0.1847
  C  C296  1  0.387770  0.186700  0.238010  1.0  -0.18
  C  C297  1  0.238980  0.563100  0.048470  1.0  0.1818
  C  C298  1  0.217470  0.652500  0.005660  1.0  -0.1474
  C  C299  1  0.190920  0.563400  0.963310  1.0  -0.1147
  C  C300  1  0.186700  0.386500  0.966100  1.0  -0.1088
  C  C301  1  0.209020  0.306400  0.010960  1.0  0.1673
  C  C302  1  0.168560  0.664300  0.917610  1.0  0.6488
  C  C303  1  0.116070  0.647100  0.834900  1.0  0.2111
  C  C304  1  0.140660  0.721100  0.812120  1.0  -0.1772
  C  C305  1  0.114780  0.792800  0.766370  1.0  0.2245
  C  C306  1  0.067010  0.789100  0.743400  1.0  -0.2197
  C  C307  1  0.044790  0.712100  0.768060  1.0  0.2467
  C  C308  1  0.068190  0.639600  0.814070  1.0  -0.2012
  C  C309  1  0.159540  0.789400  0.722730  1.0  0.6422
  C  C310  1  0.181240  0.902000  0.698810  1.0  -0.1215
  C  C311  1  0.208460  0.822700  0.680020  1.0  -0.1546
  C  C312  1  0.229610  0.925000  0.658640  1.0  0.1858
  C  C313  1  0.199350  0.170900  0.673340  1.0  0.1547
  C  C314  1  0.176760  0.078800  0.695810  1.0  -0.0883
  C  C315  1  0.970470  0.773400  0.762300  1.0  0.6011
  C  C316  1  0.920280  0.749000  0.728700  1.0  -0.131
  C  C317  1  0.887940  0.827200  0.740890  1.0  -0.1747
  C  C318  1  0.841510  0.812100  0.708810  1.0  0.182
  C  C319  1  0.858190  0.646800  0.655990  1.0  0.1745
  C  C320  1  0.905280  0.658200  0.685460  1.0  -0.1506
  Br  Br321  1  0.262950  0.968620  0.387200  1.0  -0.4599
  Br  Br322  1  0.762590  0.024150  0.893320  1.0  -0.4374
  Br  Br323  1  0.262950  0.531380  0.887200  1.0  -0.4601
  Br  Br324  1  0.762590  0.475850  0.393320  1.0  -0.4374
  Br  Br325  1  0.737050  0.468620  0.112800  1.0  -0.4621
  Br  Br326  1  0.237410  0.524150  0.606680  1.0  -0.4391
  Br  Br327  1  0.737050  0.031380  0.612800  1.0  -0.4623
  Br  Br328  1  0.237410  0.975850  0.106680  1.0  -0.439
  N  N329  1  0.273740  0.385400  0.442990  1.0  -0.3367
  N  N330  1  0.268910  0.101300  0.833650  1.0  -0.3291
  N  N331  1  0.673600  0.710500  0.836290  1.0  -0.3317
  N  N332  1  0.765260  0.607800  0.948040  1.0  -0.3375
  N  N333  1  0.774930  0.904100  0.345470  1.0  -0.3211
  N  N334  1  0.173640  0.277000  0.333130  1.0  -0.3301
  N  N335  1  0.273740  0.114600  0.942990  1.0  -0.3365
  N  N336  1  0.268910  0.398700  0.333650  1.0  -0.3293
  N  N337  1  0.673600  0.789500  0.336290  1.0  -0.3322
  N  N338  1  0.765260  0.892200  0.448040  1.0  -0.3412
  N  N339  1  0.774930  0.595900  0.845470  1.0  -0.3222
  N  N340  1  0.173640  0.223000  0.833130  1.0  -0.3293
  N  N341  1  0.726260  0.885400  0.057010  1.0  -0.3352
  N  N342  1  0.731090  0.601300  0.666350  1.0  -0.3299
  N  N343  1  0.326400  0.210500  0.663710  1.0  -0.3323
  N  N344  1  0.234740  0.107800  0.551960  1.0  -0.3354
  N  N345  1  0.225070  0.404100  0.154530  1.0  -0.323
  N  N346  1  0.826360  0.777000  0.166870  1.0  -0.3312
  N  N347  1  0.726260  0.614600  0.557010  1.0  -0.3381
  N  N348  1  0.731090  0.898700  0.166350  1.0  -0.3306
  N  N349  1  0.326400  0.289500  0.163710  1.0  -0.3325
  N  N350  1  0.234740  0.392200  0.051960  1.0  -0.3334
  N  N351  1  0.225070  0.095900  0.654530  1.0  -0.3227
  N  N352  1  0.826360  0.723000  0.666870  1.0  -0.332
  O  O353  1  0.362930  0.546900  0.617490  1.0  -0.3387
  O  O354  1  0.345830  0.804500  0.580550  1.0  -0.5419
  O  O355  1  0.360050  0.869200  0.751330  1.0  -0.3111
  O  O356  1  0.326950  0.627700  0.762440  1.0  -0.5058
  O  O357  1  0.502960  0.682100  0.758470  1.0  -0.3172
  O  O358  1  0.515310  0.825300  0.701410  1.0  -0.4611
  O  O359  1  0.860660  0.434400  0.120150  1.0  -0.291
  O  O360  1  0.825460  0.184700  0.085430  1.0  -0.5455
  O  O361  1  0.862760  0.117000  0.256980  1.0  -0.3393
  O  O362  1  0.838450  0.364500  0.276040  1.0  -0.4892
  O  O363  1  0.003310  0.301500  0.257080  1.0  -0.316
  O  O364  1  0.014650  0.151000  0.200240  1.0  -0.4512
  O  O365  1  0.362930  0.953100  0.117490  1.0  -0.3371
  O  O366  1  0.345830  0.695500  0.080550  1.0  -0.5392
  O  O367  1  0.360050  0.630800  0.251330  1.0  -0.3123
  O  O368  1  0.326950  0.872300  0.262440  1.0  -0.5063
  O  O369  1  0.502960  0.817900  0.258470  1.0  -0.316
  O  O370  1  0.515310  0.674700  0.201410  1.0  -0.4614
  O  O371  1  0.860660  0.065600  0.620150  1.0  -0.2924
  O  O372  1  0.825460  0.315300  0.585430  1.0  -0.5485
  O  O373  1  0.862760  0.383000  0.756980  1.0  -0.3378
  O  O374  1  0.838450  0.135500  0.776040  1.0  -0.49
  O  O375  1  0.003310  0.198500  0.757080  1.0  -0.3172
  O  O376  1  0.014650  0.349000  0.700240  1.0  -0.446
  O  O377  1  0.637070  0.046900  0.882510  1.0  -0.3401
  O  O378  1  0.654170  0.304500  0.919450  1.0  -0.5431
  O  O379  1  0.639950  0.369200  0.748670  1.0  -0.3083
  O  O380  1  0.673050  0.127700  0.737560  1.0  -0.5063
  O  O381  1  0.497040  0.182100  0.741530  1.0  -0.3143
  O  O382  1  0.484690  0.325300  0.798590  1.0  -0.461
  O  O383  1  0.139340  0.934400  0.379850  1.0  -0.2915
  O  O384  1  0.174540  0.684700  0.414570  1.0  -0.5466
  O  O385  1  0.137240  0.617000  0.243020  1.0  -0.3364
  O  O386  1  0.161550  0.864500  0.223960  1.0  -0.4901
  O  O387  1  0.996690  0.801500  0.242920  1.0  -0.314
  O  O388  1  0.985350  0.651000  0.299760  1.0  -0.4441
  O  O389  1  0.637070  0.453100  0.382510  1.0  -0.3378
  O  O390  1  0.654170  0.195500  0.419450  1.0  -0.5415
  O  O391  1  0.639950  0.130800  0.248670  1.0  -0.3094
  O  O392  1  0.673050  0.372300  0.237560  1.0  -0.5059
  O  O393  1  0.497040  0.317900  0.241530  1.0  -0.3139
  O  O394  1  0.484690  0.174700  0.298590  1.0  -0.4608
  O  O395  1  0.139340  0.565600  0.879850  1.0  -0.2932
  O  O396  1  0.174540  0.815300  0.914570  1.0  -0.5492
  O  O397  1  0.137240  0.883000  0.743020  1.0  -0.3343
  O  O398  1  0.161550  0.635500  0.723960  1.0  -0.4906
  O  O399  1  0.996690  0.698500  0.742920  1.0  -0.3155
  O  O400  1  0.985350  0.849000  0.799760  1.0  -0.4502
