# generated using pymatgen
data_CuH16C18(NO2)2
_symmetry_space_group_name_H-M   'P 1'
_cell_length_a   7.74100000
_cell_length_b   15.59670000
_cell_length_c   15.59670000
_cell_angle_alpha   62.68100000
_cell_angle_beta   80.47720000
_cell_angle_gamma   99.52280000
_symmetry_Int_Tables_number   1
_chemical_formula_structural   CuH16C18(NO2)2
_chemical_formula_sum   'Cu3 H48 C54 N6 O12'
_cell_volume   1586.13687350
_cell_formula_units_Z   3
loop_
 _symmetry_equiv_pos_site_id
 _symmetry_equiv_pos_as_xyz
  1  'x, y, z'
loop_
 _atom_site_type_symbol
 _atom_site_label
 _atom_site_symmetry_multiplicity
 _atom_site_fract_x
 _atom_site_fract_y
 _atom_site_fract_z
 _atom_site_occupancy
 _atom_site_charge
  Cu  Cu1  1  0.500000  0.000000  0.500000  1.0  0.9452
  Cu  Cu2  1  0.000000  0.500000  0.500000  1.0  0.9452
  Cu  Cu3  1  0.500000  0.500000  0.000000  1.0  0.9452
  H  H4  1  0.138000  0.956200  0.321300  1.0  0.136
  H  H5  1  0.221200  0.880100  0.300700  1.0  0.1251
  H  H6  1  0.317600  0.995600  0.235000  1.0  0.1376
  H  H7  1  0.391900  0.800600  0.397300  1.0  0.0939
  H  H8  1  0.859900  0.816000  0.519800  1.0  0.1022
  H  H9  1  0.016100  0.701400  0.531500  1.0  0.0715
  H  H10  1  0.643700  0.559300  0.469200  1.0  0.066
  H  H11  1  0.473000  0.667800  0.457100  1.0  0.1213
  H  H12  1  0.862000  0.043800  0.678700  1.0  0.1337
  H  H13  1  0.778800  0.119900  0.699300  1.0  0.1263
  H  H14  1  0.682400  0.004400  0.765000  1.0  0.1376
  H  H15  1  0.608100  0.199400  0.602700  1.0  0.0943
  H  H16  1  0.140100  0.184000  0.480200  1.0  0.1021
  H  H17  1  0.983900  0.298600  0.468500  1.0  0.071
  H  H18  1  0.356300  0.440700  0.530800  1.0  0.0659
  H  H19  1  0.527000  0.332200  0.542900  1.0  0.1218
  H  H20  1  0.459300  0.321300  0.722500  1.0  0.1353
  H  H21  1  0.521900  0.300700  0.819200  1.0  0.1269
  H  H22  1  0.552600  0.235000  0.769400  1.0  0.1363
  H  H23  1  0.789200  0.397300  0.802100  1.0  0.095
  H  H24  1  0.379700  0.519800  0.664200  1.0  0.1024
  H  H25  1  0.547600  0.531500  0.767100  1.0  0.0721
  H  H26  1  0.112900  0.469200  0.971500  1.0  0.0671
  H  H27  1  0.930100  0.457100  0.875100  1.0  0.1222
  H  H28  1  0.540700  0.678700  0.277500  1.0  0.1355
  H  H29  1  0.478100  0.699300  0.180800  1.0  0.1273
  H  H30  1  0.447400  0.765000  0.230600  1.0  0.1376
  H  H31  1  0.210800  0.602700  0.197900  1.0  0.0945
  H  H32  1  0.620300  0.480200  0.335800  1.0  0.1033
  H  H33  1  0.452400  0.468500  0.232900  1.0  0.0714
  H  H34  1  0.887100  0.530800  0.028500  1.0  0.0679
  H  H35  1  0.069900  0.542900  0.124900  1.0  0.1223
  H  H36  1  0.181800  0.722500  0.956200  1.0  0.1352
  H  H37  1  0.341100  0.819200  0.880100  1.0  0.1272
  H  H38  1  0.322000  0.769400  0.995600  1.0  0.141
  H  H39  1  0.591300  0.802100  0.800600  1.0  0.0957
  H  H40  1  0.043900  0.664200  0.816000  1.0  0.1025
  H  H41  1  0.314700  0.767100  0.701400  1.0  0.0719
  H  H42  1  0.084400  0.971500  0.559300  1.0  0.0672
  H  H43  1  0.805200  0.875100  0.667800  1.0  0.1215
  H  H44  1  0.818200  0.277500  0.043800  1.0  0.1329
  H  H45  1  0.658900  0.180800  0.119900  1.0  0.1265
  H  H46  1  0.678000  0.230600  0.004400  1.0  0.1414
  H  H47  1  0.408700  0.197900  0.199400  1.0  0.0941
  H  H48  1  0.956100  0.335800  0.184000  1.0  0.1018
  H  H49  1  0.685300  0.232900  0.298600  1.0  0.0716
  H  H50  1  0.915600  0.028500  0.440700  1.0  0.0671
  H  H51  1  0.194800  0.124900  0.332200  1.0  0.1224
  C  C52  1  0.249200  0.942300  0.301100  1.0  -0.4261
  C  C53  1  0.359900  0.933790  0.373890  1.0  0.3584
  C  C54  1  0.430630  0.850910  0.411820  1.0  -0.171
  C  C55  1  0.554060  0.837540  0.469160  1.0  0.4159
  C  C56  1  0.648220  0.757500  0.484040  1.0  -0.0242
  C  C57  1  0.813150  0.764520  0.508370  1.0  -0.122
  C  C58  1  0.906200  0.695100  0.515300  1.0  0.1859
  C  C59  1  0.688200  0.612150  0.479150  1.0  0.1776
  C  C60  1  0.584500  0.677330  0.471130  1.0  -0.2218
  C  C61  1  0.750800  0.057700  0.698900  1.0  -0.4248
  C  C62  1  0.640100  0.066210  0.626110  1.0  0.3595
  C  C63  1  0.569370  0.149090  0.588180  1.0  -0.1692
  C  C64  1  0.445940  0.162460  0.530840  1.0  0.4145
  C  C65  1  0.351780  0.242500  0.515960  1.0  -0.0247
  C  C66  1  0.186850  0.235480  0.491630  1.0  -0.1216
  C  C67  1  0.093800  0.304900  0.484700  1.0  0.1852
  C  C68  1  0.311800  0.387850  0.520850  1.0  0.1785
  C  C69  1  0.415500  0.322670  0.528870  1.0  -0.2213
  C  C70  1  0.550300  0.301100  0.756600  1.0  -0.4235
  C  C71  1  0.733790  0.373890  0.692320  1.0  0.3588
  C  C72  1  0.842450  0.411820  0.737270  1.0  -0.1724
  C  C73  1  0.023220  0.469160  0.693300  1.0  0.415
  C  C74  1  0.132260  0.484040  0.758460  1.0  -0.0221
  C  C75  1  0.321520  0.508370  0.727110  1.0  -0.1218
  C  C76  1  0.421500  0.515300  0.789600  1.0  0.1846
  C  C77  1  0.167350  0.479150  0.908700  1.0  0.1795
  C  C78  1  0.055630  0.471130  0.851540  1.0  -0.2234
  C  C79  1  0.449700  0.698900  0.243400  1.0  -0.4271
  C  C80  1  0.266210  0.626110  0.307680  1.0  0.3603
  C  C81  1  0.157550  0.588180  0.262730  1.0  -0.171
  C  C82  1  0.976780  0.530840  0.306700  1.0  0.4158
  C  C83  1  0.867740  0.515960  0.241540  1.0  -0.0235
  C  C84  1  0.678480  0.491630  0.272890  1.0  -0.1211
  C  C85  1  0.578500  0.484700  0.210400  1.0  0.1833
  C  C86  1  0.832650  0.520850  0.091300  1.0  0.1789
  C  C87  1  0.944370  0.528870  0.148460  1.0  -0.2233
  C  C88  1  0.306900  0.756600  0.942300  1.0  -0.4254
  C  C89  1  0.426110  0.692320  0.933790  1.0  0.3596
  C  C90  1  0.579720  0.737270  0.850910  1.0  -0.1726
  C  C91  1  0.716520  0.693300  0.837540  1.0  0.4144
  C  C92  1  0.890720  0.758460  0.757500  1.0  -0.0217
  C  C93  1  0.048630  0.727110  0.764520  1.0  -0.1251
  C  C94  1  0.211100  0.789600  0.695100  1.0  0.1845
  C  C95  1  0.076050  0.908700  0.612150  1.0  0.1797
  C  C96  1  0.907170  0.851540  0.677330  1.0  -0.2204
  C  C97  1  0.693100  0.243400  0.057700  1.0  -0.4269
  C  C98  1  0.573890  0.307680  0.066210  1.0  0.3592
  C  C99  1  0.420280  0.262730  0.149090  1.0  -0.1708
  C  C100  1  0.283480  0.306700  0.162460  1.0  0.4158
  C  C101  1  0.109280  0.241540  0.242500  1.0  -0.0228
  C  C102  1  0.951370  0.272890  0.235480  1.0  -0.1249
  C  C103  1  0.788900  0.210400  0.304900  1.0  0.183
  C  C104  1  0.923950  0.091300  0.387850  1.0  0.1795
  C  C105  1  0.092830  0.148460  0.322670  1.0  -0.2216
  N  N106  1  0.848310  0.619290  0.500060  1.0  -0.3594
  N  N107  1  0.151690  0.380710  0.499940  1.0  -0.3589
  N  N108  1  0.348370  0.500060  0.880650  1.0  -0.3587
  N  N109  1  0.651630  0.499940  0.119350  1.0  -0.3576
  N  N110  1  0.229020  0.880650  0.619290  1.0  -0.3589
  N  N111  1  0.770980  0.119350  0.380710  1.0  -0.3588
  O  O112  1  0.381940  0.002480  0.395360  1.0  -0.5654
  O  O113  1  0.602650  0.891390  0.506540  1.0  -0.5801
  O  O114  1  0.618060  0.997520  0.604640  1.0  -0.5653
  O  O115  1  0.397350  0.108610  0.493460  1.0  -0.5805
  O  O116  1  0.777300  0.395360  0.602160  1.0  -0.564
  O  O117  1  0.109190  0.506540  0.602070  1.0  -0.5786
  O  O118  1  0.222700  0.604640  0.397840  1.0  -0.565
  O  O119  1  0.890810  0.493460  0.397930  1.0  -0.5773
  O  O120  1  0.379460  0.602160  0.002480  1.0  -0.5663
  O  O121  1  0.711260  0.602070  0.891390  1.0  -0.578
  O  O122  1  0.620540  0.397840  0.997520  1.0  -0.5653
  O  O123  1  0.288740  0.397930  0.108610  1.0  -0.5802
