# generated using pymatgen
data_CuH16C18(NO2)2
_symmetry_space_group_name_H-M   'P 1'
_cell_length_a   7.75540000
_cell_length_b   15.64080000
_cell_length_c   15.64080000
_cell_angle_alpha   62.67590000
_cell_angle_beta   80.48640000
_cell_angle_gamma   99.51360000
_symmetry_Int_Tables_number   1
_chemical_formula_structural   CuH16C18(NO2)2
_chemical_formula_sum   'Cu3 H48 C54 N6 O12'
_cell_volume   1598.17198558
_cell_formula_units_Z   3
loop_
 _symmetry_equiv_pos_site_id
 _symmetry_equiv_pos_as_xyz
  1  'x, y, z'
loop_
 _atom_site_type_symbol
 _atom_site_label
 _atom_site_symmetry_multiplicity
 _atom_site_fract_x
 _atom_site_fract_y
 _atom_site_fract_z
 _atom_site_occupancy
 _atom_site_charge
  Cu  Cu1  1  0.500000  0.000000  0.500000  1.0  0.9535
  Cu  Cu2  1  0.000000  0.500000  0.500000  1.0  0.9535
  Cu  Cu3  1  0.500000  0.500000  0.000000  1.0  0.9535
  H  H4  1  0.810400  0.942400  0.729800  1.0  0.1339
  H  H5  1  0.640300  0.887400  0.823300  1.0  0.1311
  H  H6  1  0.695100  0.004200  0.757100  1.0  0.1359
  H  H7  1  0.404000  0.802900  0.802400  1.0  0.1021
  H  H8  1  0.193900  0.669800  0.873900  1.0  0.1175
  H  H9  1  0.954700  0.815900  0.664500  1.0  0.1
  H  H10  1  0.684800  0.701200  0.767900  1.0  0.0751
  H  H11  1  0.916800  0.560700  0.969700  1.0  0.0658
  H  H12  1  0.189600  0.057600  0.270200  1.0  0.1339
  H  H13  1  0.359700  0.112600  0.176700  1.0  0.1299
  H  H14  1  0.304900  0.995800  0.242900  1.0  0.1362
  H  H15  1  0.596000  0.197100  0.197600  1.0  0.1021
  H  H16  1  0.806100  0.330200  0.126100  1.0  0.1163
  H  H17  1  0.045300  0.184100  0.335500  1.0  0.0998
  H  H18  1  0.315200  0.298800  0.232100  1.0  0.0752
  H  H19  1  0.083200  0.439300  0.030300  1.0  0.0655
  H  H20  1  0.540200  0.729800  0.327800  1.0  0.131
  H  H21  1  0.463600  0.823300  0.289300  1.0  0.1313
  H  H22  1  0.452200  0.757100  0.238700  1.0  0.1368
  H  H23  1  0.206400  0.802400  0.394700  1.0  0.1028
  H  H24  1  0.067800  0.873900  0.456300  1.0  0.1173
  H  H25  1  0.619200  0.664500  0.519600  1.0  0.1001
  H  H26  1  0.452700  0.767900  0.530900  1.0  0.0744
  H  H27  1  0.886500  0.969700  0.469600  1.0  0.0663
  H  H28  1  0.459800  0.270200  0.672200  1.0  0.1343
  H  H29  1  0.536400  0.176700  0.710700  1.0  0.131
  H  H30  1  0.547800  0.242900  0.761300  1.0  0.1377
  H  H31  1  0.793600  0.197600  0.605300  1.0  0.1035
  H  H32  1  0.932200  0.126100  0.543700  1.0  0.1176
  H  H33  1  0.380800  0.335500  0.480400  1.0  0.1003
  H  H34  1  0.547300  0.232100  0.469100  1.0  0.0755
  H  H35  1  0.113500  0.030300  0.530400  1.0  0.0674
  H  H36  1  0.868000  0.327800  0.942400  1.0  0.132
  H  H37  1  0.752900  0.289300  0.887400  1.0  0.131
  H  H38  1  0.690900  0.238700  0.004200  1.0  0.1353
  H  H39  1  0.601100  0.394700  0.802900  1.0  0.1021
  H  H40  1  0.524100  0.456300  0.669800  1.0  0.1184
  H  H41  1  0.138800  0.519600  0.815900  1.0  0.101
  H  H42  1  0.983600  0.530900  0.701200  1.0  0.075
  H  H43  1  0.356100  0.469600  0.560700  1.0  0.068
  H  H44  1  0.132000  0.672200  0.057600  1.0  0.1344
  H  H45  1  0.247100  0.710700  0.112600  1.0  0.1333
  H  H46  1  0.309100  0.761300  0.995800  1.0  0.136
  H  H47  1  0.398900  0.605300  0.197100  1.0  0.1032
  H  H48  1  0.475900  0.543700  0.330200  1.0  0.119
  H  H49  1  0.861200  0.480400  0.184100  1.0  0.1003
  H  H50  1  0.016400  0.469100  0.298800  1.0  0.0757
  H  H51  1  0.643900  0.530400  0.439300  1.0  0.0678
  C  C52  1  0.690100  0.942900  0.756400  1.0  -0.4356
  C  C53  1  0.572120  0.934320  0.692260  1.0  0.363
  C  C54  1  0.417410  0.852580  0.737150  1.0  -0.1653
  C  C55  1  0.282580  0.839200  0.692960  1.0  0.419
  C  C56  1  0.108290  0.759100  0.757730  1.0  -0.042
  C  C57  1  0.092110  0.679180  0.850250  1.0  -0.2229
  C  C58  1  0.950850  0.764830  0.727280  1.0  -0.1462
  C  C59  1  0.788740  0.695140  0.789920  1.0  0.1957
  C  C60  1  0.924420  0.613680  0.907120  1.0  0.1808
  C  C61  1  0.309900  0.057100  0.243600  1.0  -0.4355
  C  C62  1  0.427880  0.065680  0.307740  1.0  0.3618
  C  C63  1  0.582590  0.147420  0.262850  1.0  -0.1662
  C  C64  1  0.717420  0.160800  0.307040  1.0  0.4192
  C  C65  1  0.891710  0.240900  0.242270  1.0  -0.0425
  C  C66  1  0.907890  0.320820  0.149750  1.0  -0.2233
  C  C67  1  0.049150  0.235170  0.272720  1.0  -0.1467
  C  C68  1  0.211260  0.304860  0.210080  1.0  0.197
  C  C69  1  0.075580  0.386320  0.092880  1.0  0.1806
  C  C70  1  0.446500  0.756400  0.300700  1.0  -0.4354
  C  C71  1  0.264380  0.692260  0.373420  1.0  0.3629
  C  C72  1  0.154560  0.737150  0.410270  1.0  -0.1682
  C  C73  1  0.975540  0.692960  0.467840  1.0  0.419
  C  C74  1  0.866020  0.757730  0.483170  1.0  -0.0411
  C  C75  1  0.942360  0.850250  0.470570  1.0  -0.2223
  C  C76  1  0.678130  0.727280  0.507890  1.0  -0.1495
  C  C77  1  0.578660  0.789920  0.514940  1.0  0.1945
  C  C78  1  0.831540  0.907120  0.479200  1.0  0.1822
  C  C79  1  0.553500  0.243600  0.699300  1.0  -0.4334
  C  C80  1  0.735620  0.307740  0.626580  1.0  0.3627
  C  C81  1  0.845440  0.262850  0.589730  1.0  -0.1674
  C  C82  1  0.024460  0.307040  0.532160  1.0  0.4183
  C  C83  1  0.133980  0.242270  0.516830  1.0  -0.0401
  C  C84  1  0.057640  0.149750  0.529430  1.0  -0.2214
  C  C85  1  0.321870  0.272720  0.492110  1.0  -0.1484
  C  C86  1  0.421340  0.210080  0.485060  1.0  0.1952
  C  C87  1  0.168460  0.092880  0.520800  1.0  0.1821
  C  C88  1  0.747200  0.300700  0.942900  1.0  -0.4363
  C  C89  1  0.637800  0.373420  0.934320  1.0  0.3634
  C  C90  1  0.564830  0.410270  0.852580  1.0  -0.1666
  C  C91  1  0.443380  0.467840  0.839200  1.0  0.4196
  C  C92  1  0.349190  0.483170  0.759100  1.0  -0.0413
  C  C93  1  0.412930  0.470570  0.679180  1.0  -0.2243
  C  C94  1  0.186020  0.507890  0.764830  1.0  -0.1438
  C  C95  1  0.093600  0.514940  0.695140  1.0  0.1953
  C  C96  1  0.310740  0.479200  0.613680  1.0  0.1825
  C  C97  1  0.252800  0.699300  0.057100  1.0  -0.4357
  C  C98  1  0.362200  0.626580  0.065680  1.0  0.3623
  C  C99  1  0.435170  0.589730  0.147420  1.0  -0.1683
  C  C100  1  0.556620  0.532160  0.160800  1.0  0.4194
  C  C101  1  0.650810  0.516830  0.240900  1.0  -0.0397
  C  C102  1  0.587070  0.529430  0.320820  1.0  -0.2252
  C  C103  1  0.813980  0.492110  0.235170  1.0  -0.1451
  C  C104  1  0.906400  0.485060  0.304860  1.0  0.195
  C  C105  1  0.689260  0.520800  0.386320  1.0  0.1825
  N  N106  1  0.772070  0.620090  0.879780  1.0  -0.342
  N  N107  1  0.227930  0.379910  0.120220  1.0  -0.3403
  N  N108  1  0.651850  0.879780  0.500130  1.0  -0.3407
  N  N109  1  0.348150  0.120220  0.499870  1.0  -0.3401
  N  N110  1  0.151980  0.500130  0.620090  1.0  -0.3402
  N  N111  1  0.848020  0.499870  0.379910  1.0  -0.3404
  O  O112  1  0.288310  0.891880  0.601550  1.0  -0.5876
  O  O113  1  0.620320  0.002460  0.602000  1.0  -0.5596
  O  O114  1  0.711690  0.108120  0.398450  1.0  -0.5892
  O  O115  1  0.379680  0.997540  0.398000  1.0  -0.5576
  O  O116  1  0.889860  0.601550  0.506570  1.0  -0.5863
  O  O117  1  0.222320  0.602000  0.395540  1.0  -0.558
  O  O118  1  0.110140  0.398450  0.493430  1.0  -0.5869
  O  O119  1  0.777680  0.398000  0.604460  1.0  -0.557
  O  O120  1  0.396430  0.506570  0.891880  1.0  -0.5869
  O  O121  1  0.617860  0.395540  0.002460  1.0  -0.5581
  O  O122  1  0.603570  0.493430  0.108120  1.0  -0.5862
  O  O123  1  0.382140  0.604460  0.997540  1.0  -0.5569
