# generated using pymatgen
data_ZnH24C30(NO2)2
_symmetry_space_group_name_H-M   'P 1'
_cell_length_a   7.71650000
_cell_length_b   21.74600000
_cell_length_c   21.74600000
_cell_angle_alpha   120.00000000
_cell_angle_beta   90.00000000
_cell_angle_gamma   90.00000000
_symmetry_Int_Tables_number   1
_chemical_formula_structural   ZnH24C30(NO2)2
_chemical_formula_sum   'Zn3 H72 C90 N6 O12'
_cell_volume   3160.16500593
_cell_formula_units_Z   3
loop_
 _symmetry_equiv_pos_site_id
 _symmetry_equiv_pos_as_xyz
  1  'x, y, z'
loop_
 _atom_site_type_symbol
 _atom_site_label
 _atom_site_symmetry_multiplicity
 _atom_site_fract_x
 _atom_site_fract_y
 _atom_site_fract_z
 _atom_site_occupancy
 _atom_site_charge
  Zn  Zn1  1  0.000000  0.500000  0.500000  1.0  0.8899
  Zn  Zn2  1  0.000000  0.000000  0.500000  1.0  0.8899
  Zn  Zn3  1  0.000000  0.500000  0.000000  1.0  0.8899
  H  H4  1  0.437700  0.345200  0.382100  1.0  0.1443
  H  H5  1  0.320500  0.319800  0.312800  1.0  0.1387
  H  H6  1  0.326900  0.273600  0.351400  1.0  0.1296
  H  H7  1  0.085800  0.277500  0.406700  1.0  0.1404
  H  H8  1  0.919900  0.211300  0.415600  1.0  0.114
  H  H9  1  0.715900  0.139700  0.425700  1.0  0.1041
  H  H10  1  0.420900  0.308700  0.546100  1.0  0.1121
  H  H11  1  0.618600  0.380000  0.530400  1.0  0.0917
  H  H12  1  0.583500  0.091800  0.480800  1.0  0.1276
  H  H13  1  0.378900  0.017700  0.483400  1.0  0.0792
  H  H14  1  0.009500  0.152300  0.515800  1.0  0.0764
  H  H15  1  0.204100  0.231900  0.515900  1.0  0.1214
  H  H16  1  0.437700  0.036900  0.654800  1.0  0.1441
  H  H17  1  0.320500  0.993000  0.680200  1.0  0.1332
  H  H18  1  0.326900  0.077800  0.726400  1.0  0.1316
  H  H19  1  0.085800  0.129200  0.722500  1.0  0.1406
  H  H20  1  0.919900  0.204300  0.788700  1.0  0.1157
  H  H21  1  0.715900  0.286000  0.860300  1.0  0.1035
  H  H22  1  0.420900  0.237400  0.691300  1.0  0.1118
  H  H23  1  0.618600  0.150400  0.620000  1.0  0.092
  H  H24  1  0.583500  0.389000  0.908200  1.0  0.1275
  H  H25  1  0.378900  0.465700  0.982300  1.0  0.0791
  H  H26  1  0.009500  0.363500  0.847700  1.0  0.0764
  H  H27  1  0.204100  0.284000  0.768100  1.0  0.1206
  H  H28  1  0.437700  0.617900  0.963100  1.0  0.1429
  H  H29  1  0.320500  0.687200  0.007000  1.0  0.1336
  H  H30  1  0.326900  0.648600  0.922200  1.0  0.1368
  H  H31  1  0.085800  0.593300  0.870800  1.0  0.1402
  H  H32  1  0.919900  0.584400  0.795700  1.0  0.1143
  H  H33  1  0.715900  0.574300  0.714000  1.0  0.1032
  H  H34  1  0.420900  0.453900  0.762600  1.0  0.1118
  H  H35  1  0.618600  0.469600  0.849600  1.0  0.0912
  H  H36  1  0.583500  0.519200  0.611000  1.0  0.1281
  H  H37  1  0.378900  0.516600  0.534300  1.0  0.0794
  H  H38  1  0.009500  0.484200  0.636500  1.0  0.0765
  H  H39  1  0.204100  0.484100  0.716000  1.0  0.1215
  H  H40  1  0.562300  0.654800  0.617900  1.0  0.144
  H  H41  1  0.679500  0.680200  0.687200  1.0  0.1381
  H  H42  1  0.673100  0.726400  0.648600  1.0  0.1339
  H  H43  1  0.914200  0.722500  0.593300  1.0  0.1395
  H  H44  1  0.080100  0.788700  0.584400  1.0  0.1141
  H  H45  1  0.284100  0.860300  0.574300  1.0  0.1045
  H  H46  1  0.579100  0.691300  0.453900  1.0  0.1117
  H  H47  1  0.381400  0.620000  0.469600  1.0  0.0906
  H  H48  1  0.416500  0.908200  0.519200  1.0  0.1285
  H  H49  1  0.621100  0.982300  0.516600  1.0  0.0798
  H  H50  1  0.990500  0.847700  0.484200  1.0  0.0768
  H  H51  1  0.795900  0.768100  0.484100  1.0  0.1212
  H  H52  1  0.562300  0.963100  0.345200  1.0  0.1445
  H  H53  1  0.679500  0.007000  0.319800  1.0  0.1325
  H  H54  1  0.673100  0.922200  0.273600  1.0  0.1326
  H  H55  1  0.914200  0.870800  0.277500  1.0  0.1404
  H  H56  1  0.080100  0.795700  0.211300  1.0  0.114
  H  H57  1  0.284100  0.714000  0.139700  1.0  0.1035
  H  H58  1  0.579100  0.762600  0.308700  1.0  0.1121
  H  H59  1  0.381400  0.849600  0.380000  1.0  0.0914
  H  H60  1  0.416500  0.611000  0.091800  1.0  0.1275
  H  H61  1  0.621100  0.534300  0.017700  1.0  0.0787
  H  H62  1  0.990500  0.636500  0.152300  1.0  0.0765
  H  H63  1  0.795900  0.716000  0.231900  1.0  0.121
  H  H64  1  0.562300  0.382100  0.036900  1.0  0.1453
  H  H65  1  0.679500  0.312800  0.993000  1.0  0.1326
  H  H66  1  0.673100  0.351400  0.077800  1.0  0.1343
  H  H67  1  0.914200  0.406700  0.129200  1.0  0.1386
  H  H68  1  0.080100  0.415600  0.204300  1.0  0.1138
  H  H69  1  0.284100  0.425700  0.286000  1.0  0.1042
  H  H70  1  0.579100  0.546100  0.237400  1.0  0.1122
  H  H71  1  0.381400  0.530400  0.150400  1.0  0.091
  H  H72  1  0.416500  0.480800  0.389000  1.0  0.1275
  H  H73  1  0.621100  0.483400  0.465700  1.0  0.0797
  H  H74  1  0.990500  0.515800  0.363500  1.0  0.0769
  H  H75  1  0.795900  0.515900  0.284000  1.0  0.1217
  C  C76  1  0.329000  0.321880  0.358770  1.0  -0.4714
  C  C77  1  0.177640  0.363640  0.405040  1.0  0.5526
  C  C78  1  0.060610  0.326170  0.423600  1.0  -0.5841
  C  C79  1  0.910760  0.353380  0.464450  1.0  0.4622
  C  C80  1  0.787460  0.303820  0.470910  1.0  -0.0639
  C  C81  1  0.815790  0.231710  0.441130  1.0  -0.0778
  C  C82  1  0.695120  0.189380  0.447980  1.0  -0.1154
  C  C83  1  0.546430  0.216040  0.485660  1.0  0.0317
  C  C84  1  0.521000  0.287980  0.517760  1.0  -0.1499
  C  C85  1  0.640500  0.330490  0.508980  1.0  -0.0565
  C  C86  1  0.418420  0.168200  0.491730  1.0  0.1137
  C  C87  1  0.464980  0.105350  0.486330  1.0  -0.2007
  C  C88  1  0.341890  0.061810  0.488890  1.0  0.1715
  C  C89  1  0.128450  0.139510  0.507860  1.0  0.1706
  C  C90  1  0.243000  0.186650  0.506670  1.0  -0.2193
  C  C91  1  0.329000  0.036890  0.678120  1.0  -0.47
  C  C92  1  0.177640  0.041400  0.636360  1.0  0.5468
  C  C93  1  0.060610  0.097430  0.673830  1.0  -0.5826
  C  C94  1  0.910760  0.111070  0.646620  1.0  0.4647
  C  C95  1  0.787460  0.167090  0.696180  1.0  -0.0642
  C  C96  1  0.815790  0.209420  0.768290  1.0  -0.0789
  C  C97  1  0.695120  0.258600  0.810620  1.0  -0.1145
  C  C98  1  0.546430  0.269620  0.783960  1.0  0.0325
  C  C99  1  0.521000  0.229780  0.712020  1.0  -0.1482
  C  C100  1  0.640500  0.178490  0.669510  1.0  -0.0579
  C  C101  1  0.418420  0.323530  0.831800  1.0  0.1136
  C  C102  1  0.464980  0.380980  0.894650  1.0  -0.2016
  C  C103  1  0.341890  0.427080  0.938190  1.0  0.1692
  C  C104  1  0.128450  0.368350  0.860490  1.0  0.1704
  C  C105  1  0.243000  0.320020  0.813350  1.0  -0.2209
  C  C106  1  0.329000  0.641230  0.963110  1.0  -0.4702
  C  C107  1  0.177640  0.594960  0.958600  1.0  0.5536
  C  C108  1  0.060610  0.576400  0.902570  1.0  -0.581
  C  C109  1  0.910760  0.535550  0.888930  1.0  0.464
  C  C110  1  0.787460  0.529090  0.832910  1.0  -0.0639
  C  C111  1  0.815790  0.558870  0.790580  1.0  -0.0803
  C  C112  1  0.695120  0.552020  0.741400  1.0  -0.1164
  C  C113  1  0.546430  0.514340  0.730380  1.0  0.0317
  C  C114  1  0.521000  0.482240  0.770220  1.0  -0.1487
  C  C115  1  0.640500  0.491020  0.821510  1.0  -0.0575
  C  C116  1  0.418420  0.508270  0.676470  1.0  0.1144
  C  C117  1  0.464980  0.513670  0.619020  1.0  -0.2002
  C  C118  1  0.341890  0.511110  0.572920  1.0  0.1722
  C  C119  1  0.128450  0.492140  0.631650  1.0  0.1716
  C  C120  1  0.243000  0.493330  0.679980  1.0  -0.2192
  C  C121  1  0.671000  0.678120  0.641230  1.0  -0.471
  C  C122  1  0.822360  0.636360  0.594960  1.0  0.55
  C  C123  1  0.939390  0.673830  0.576400  1.0  -0.5962
  C  C124  1  0.089240  0.646620  0.535550  1.0  0.461
  C  C125  1  0.212540  0.696180  0.529090  1.0  -0.0647
  C  C126  1  0.184210  0.768290  0.558870  1.0  -0.0813
  C  C127  1  0.304880  0.810620  0.552020  1.0  -0.1162
  C  C128  1  0.453570  0.783960  0.514340  1.0  0.0312
  C  C129  1  0.479000  0.712020  0.482240  1.0  -0.1485
  C  C130  1  0.359500  0.669510  0.491020  1.0  -0.0575
  C  C131  1  0.581580  0.831800  0.508270  1.0  0.1159
  C  C132  1  0.535020  0.894650  0.513670  1.0  -0.2011
  C  C133  1  0.658110  0.938190  0.511110  1.0  0.1716
  C  C134  1  0.871550  0.860490  0.492140  1.0  0.1699
  C  C135  1  0.757000  0.813350  0.493330  1.0  -0.2199
  C  C136  1  0.671000  0.963110  0.321880  1.0  -0.4696
  C  C137  1  0.822360  0.958600  0.363640  1.0  0.5552
  C  C138  1  0.939390  0.902570  0.326170  1.0  -0.5903
  C  C139  1  0.089240  0.888930  0.353380  1.0  0.4648
  C  C140  1  0.212540  0.832910  0.303820  1.0  -0.0637
  C  C141  1  0.184210  0.790580  0.231710  1.0  -0.0803
  C  C142  1  0.304880  0.741400  0.189380  1.0  -0.1163
  C  C143  1  0.453570  0.730380  0.216040  1.0  0.0318
  C  C144  1  0.479000  0.770220  0.287980  1.0  -0.1492
  C  C145  1  0.359500  0.821510  0.330490  1.0  -0.0563
  C  C146  1  0.581580  0.676470  0.168200  1.0  0.1144
  C  C147  1  0.535020  0.619020  0.105350  1.0  -0.2015
  C  C148  1  0.658110  0.572920  0.061810  1.0  0.1694
  C  C149  1  0.871550  0.631650  0.139510  1.0  0.1696
  C  C150  1  0.757000  0.679980  0.186650  1.0  -0.2202
  C  C151  1  0.671000  0.358770  0.036890  1.0  -0.4693
  C  C152  1  0.822360  0.405040  0.041400  1.0  0.5544
  C  C153  1  0.939390  0.423600  0.097430  1.0  -0.5961
  C  C154  1  0.089240  0.464450  0.111070  1.0  0.4648
  C  C155  1  0.212540  0.470910  0.167090  1.0  -0.0653
  C  C156  1  0.184210  0.441130  0.209420  1.0  -0.0805
  C  C157  1  0.304880  0.447980  0.258600  1.0  -0.1168
  C  C158  1  0.453570  0.485660  0.269620  1.0  0.0313
  C  C159  1  0.479000  0.517760  0.229780  1.0  -0.1493
  C  C160  1  0.359500  0.508980  0.178490  1.0  -0.0571
  C  C161  1  0.581580  0.491730  0.323530  1.0  0.1144
  C  C162  1  0.535020  0.486330  0.380980  1.0  -0.2017
  C  C163  1  0.658110  0.488890  0.427080  1.0  0.173
  C  C164  1  0.871550  0.507860  0.368350  1.0  0.1704
  C  C165  1  0.757000  0.506670  0.320020  1.0  -0.2193
  N  N166  1  0.174980  0.076580  0.498420  1.0  -0.3145
  N  N167  1  0.174980  0.421840  0.923420  1.0  -0.3151
  N  N168  1  0.174980  0.501580  0.578160  1.0  -0.3158
  N  N169  1  0.825020  0.923420  0.501580  1.0  -0.3145
  N  N170  1  0.825020  0.578160  0.076580  1.0  -0.3139
  N  N171  1  0.825020  0.498420  0.421840  1.0  -0.3129
  O  O172  1  0.865100  0.418000  0.496920  1.0  -0.5313
  O  O173  1  0.166970  0.427700  0.422240  1.0  -0.5374
  O  O174  1  0.865100  0.078920  0.582000  1.0  -0.5294
  O  O175  1  0.166970  0.994540  0.572300  1.0  -0.5348
  O  O176  1  0.865100  0.503080  0.921080  1.0  -0.5297
  O  O177  1  0.166970  0.577760  0.005460  1.0  -0.5368
  O  O178  1  0.134900  0.582000  0.503080  1.0  -0.5301
  O  O179  1  0.833030  0.572300  0.577760  1.0  -0.5373
  O  O180  1  0.134900  0.921080  0.418000  1.0  -0.5291
  O  O181  1  0.833030  0.005460  0.427700  1.0  -0.5382
  O  O182  1  0.134900  0.496920  0.078920  1.0  -0.5279
  O  O183  1  0.833030  0.422240  0.994540  1.0  -0.5364
