# generated using pymatgen
data_ZnPH5C5NO4
_symmetry_space_group_name_H-M   'P 1'
_cell_length_a   9.06560000
_cell_length_b   10.22900000
_cell_length_c   11.76400000
_cell_angle_alpha   115.77000000
_cell_angle_beta   90.18910000
_cell_angle_gamma   90.00000000
_symmetry_Int_Tables_number   1
_chemical_formula_structural   ZnPH5C5NO4
_chemical_formula_sum   'Zn4 P4 H20 C20 N4 O16'
_cell_volume   982.39917692
_cell_formula_units_Z   4
loop_
 _symmetry_equiv_pos_site_id
 _symmetry_equiv_pos_as_xyz
  1  'x, y, z'
loop_
 _atom_site_type_symbol
 _atom_site_label
 _atom_site_symmetry_multiplicity
 _atom_site_fract_x
 _atom_site_fract_y
 _atom_site_fract_z
 _atom_site_occupancy
 _atom_site_charge
  Zn  Zn1  1  0.929960  0.153760  0.446880  1.0  1.0933
  Zn  Zn2  1  0.570040  0.706880  0.553120  1.0  1.0922
  Zn  Zn3  1  0.070040  0.846240  0.553120  1.0  1.0915
  Zn  Zn4  1  0.429960  0.293120  0.446880  1.0  1.0936
  P  P5  1  0.736710  0.435440  0.556140  1.0  1.7917
  P  P6  1  0.763290  0.879300  0.443860  1.0  1.7911
  P  P7  1  0.263290  0.564560  0.443860  1.0  1.7904
  P  P8  1  0.236710  0.120700  0.556140  1.0  1.7912
  H  H9  1  0.885900  0.527300  0.693600  1.0  0.4586
  H  H10  1  0.014600  0.855900  0.240200  1.0  0.0805
  H  H11  1  0.153800  0.762000  0.060800  1.0  0.1274
  H  H12  1  0.212700  0.165400  0.095400  1.0  0.1199
  H  H13  1  0.068800  0.247800  0.274000  1.0  0.0776
  H  H14  1  0.614100  0.833700  0.306400  1.0  0.4562
  H  H15  1  0.485400  0.615700  0.759800  1.0  0.0834
  H  H16  1  0.346200  0.701200  0.939200  1.0  0.129
  H  H17  1  0.287300  0.070000  0.904600  1.0  0.1216
  H  H18  1  0.431200  0.973800  0.726000  1.0  0.0777
  H  H19  1  0.114100  0.472700  0.306400  1.0  0.4591
  H  H20  1  0.985400  0.144100  0.759800  1.0  0.0806
  H  H21  1  0.846200  0.238000  0.939200  1.0  0.1289
  H  H22  1  0.787300  0.834600  0.904600  1.0  0.12
  H  H23  1  0.931200  0.752200  0.726000  1.0  0.0777
  H  H24  1  0.385900  0.166300  0.693600  1.0  0.4562
  H  H25  1  0.514600  0.384300  0.240200  1.0  0.0819
  H  H26  1  0.653800  0.298800  0.060800  1.0  0.129
  H  H27  1  0.712700  0.930000  0.095400  1.0  0.1214
  H  H28  1  0.568800  0.026200  0.274000  1.0  0.0771
  C  C29  1  0.054900  0.918900  0.210800  1.0  0.1925
  C  C30  1  0.139200  0.861720  0.103040  1.0  -0.1862
  C  C31  1  0.202400  0.953450  0.057300  1.0  0.0843
  C  C32  1  0.174000  0.099990  0.122980  1.0  -0.2037
  C  C33  1  0.087000  0.148740  0.230680  1.0  0.1885
  C  C34  1  0.445100  0.708100  0.789200  1.0  0.1917
  C  C35  1  0.360800  0.758680  0.896960  1.0  -0.1839
  C  C36  1  0.297600  0.896150  0.942700  1.0  0.0841
  C  C37  1  0.326000  0.977010  0.877020  1.0  -0.2051
  C  C38  1  0.413000  0.918060  0.769320  1.0  0.191
  C  C39  1  0.945100  0.081100  0.789200  1.0  0.192
  C  C40  1  0.860800  0.138280  0.896960  1.0  -0.186
  C  C41  1  0.797600  0.046550  0.942700  1.0  0.0833
  C  C42  1  0.826000  0.900010  0.877020  1.0  -0.2035
  C  C43  1  0.913000  0.851260  0.769320  1.0  0.1902
  C  C44  1  0.554900  0.291900  0.210800  1.0  0.1904
  C  C45  1  0.639200  0.241320  0.103040  1.0  -0.1854
  C  C46  1  0.702400  0.103850  0.057300  1.0  0.0839
  C  C47  1  0.674000  0.022990  0.122980  1.0  -0.2047
  C  C48  1  0.587000  0.081940  0.230680  1.0  0.1901
  N  N49  1  0.028500  0.060880  0.274960  1.0  -0.359
  N  N50  1  0.471500  0.785920  0.725040  1.0  -0.3661
  N  N51  1  0.971500  0.939120  0.725040  1.0  -0.3669
  N  N52  1  0.528500  0.214080  0.274960  1.0  -0.3603
  O  O53  1  0.841500  0.330440  0.459020  1.0  -0.8892
  O  O54  1  0.091600  0.199830  0.567860  1.0  -0.883
  O  O55  1  0.715400  0.562530  0.525180  1.0  -0.9162
  O  O56  1  0.806000  0.488710  0.691420  1.0  -0.7748
  O  O57  1  0.658500  0.871420  0.540980  1.0  -0.8869
  O  O58  1  0.408400  0.631970  0.432140  1.0  -0.8851
  O  O59  1  0.784600  0.037350  0.474820  1.0  -0.9154
  O  O60  1  0.694000  0.797290  0.308580  1.0  -0.7712
  O  O61  1  0.158500  0.669560  0.540980  1.0  -0.8876
  O  O62  1  0.908400  0.800170  0.432140  1.0  -0.8847
  O  O63  1  0.284600  0.437470  0.474820  1.0  -0.917
  O  O64  1  0.194000  0.511290  0.308580  1.0  -0.773
  O  O65  1  0.341500  0.128580  0.459020  1.0  -0.8916
  O  O66  1  0.591600  0.368030  0.567860  1.0  -0.8853
  O  O67  1  0.215400  0.962650  0.525180  1.0  -0.9141
  O  O68  1  0.306000  0.202710  0.691420  1.0  -0.7749
