# generated using pymatgen
data_CuP2H8C8(N2O3)2
_symmetry_space_group_name_H-M   'P 1'
_cell_length_a   7.03030000
_cell_length_b   12.56190000
_cell_length_c   15.64080000
_cell_angle_alpha   90.00000000
_cell_angle_beta   90.00000000
_cell_angle_gamma   100.91800000
_symmetry_Int_Tables_number   1
_chemical_formula_structural   CuP2H8C8(N2O3)2
_chemical_formula_sum   'Cu4 P8 H32 C32 N16 O24'
_cell_volume   1356.29788425
_cell_formula_units_Z   4
loop_
 _symmetry_equiv_pos_site_id
 _symmetry_equiv_pos_as_xyz
  1  'x, y, z'
loop_
 _atom_site_type_symbol
 _atom_site_label
 _atom_site_symmetry_multiplicity
 _atom_site_fract_x
 _atom_site_fract_y
 _atom_site_fract_z
 _atom_site_occupancy
 _atom_site_charge
  Cu  Cu1  1  0.500000  0.000000  0.500000  1.0  1.0641
  Cu  Cu2  1  0.000000  0.500000  0.000000  1.0  1.0641
  Cu  Cu3  1  0.000000  0.000000  0.500000  1.0  1.0739
  Cu  Cu4  1  0.500000  0.500000  0.000000  1.0  1.0739
  P  P5  1  0.740840  0.216360  0.413800  1.0  1.4337
  P  P6  1  0.260710  0.268230  0.074140  1.0  1.4054
  P  P7  1  0.759160  0.283640  0.913800  1.0  1.4328
  P  P8  1  0.239290  0.231770  0.574140  1.0  1.4077
  P  P9  1  0.259160  0.783640  0.586200  1.0  1.4319
  P  P10  1  0.739290  0.731770  0.925860  1.0  1.4094
  P  P11  1  0.240840  0.716360  0.086200  1.0  1.4328
  P  P12  1  0.760710  0.768230  0.425860  1.0  1.4073
  H  H13  1  0.810500  0.202400  0.232400  1.0  0.1015
  H  H14  1  0.632200  0.221000  0.110000  1.0  0.1004
  H  H15  1  0.188600  0.276900  0.255100  1.0  0.0946
  H  H16  1  0.366200  0.256500  0.377400  1.0  0.0944
  H  H17  1  0.641600  0.945900  0.324900  1.0  0.3471
  H  H18  1  0.577800  0.952400  0.234500  1.0  0.3826
  H  H19  1  0.041000  0.269000  0.411000  1.0  0.4649
  H  H20  1  0.988000  0.228000  0.069000  1.0  0.4379
  H  H21  1  0.689500  0.297600  0.732400  1.0  0.1014
  H  H22  1  0.867800  0.279000  0.610000  1.0  0.1005
  H  H23  1  0.311400  0.223100  0.755100  1.0  0.0952
  H  H24  1  0.133800  0.243500  0.877400  1.0  0.0946
  H  H25  1  0.858400  0.554100  0.824900  1.0  0.345
  H  H26  1  0.922200  0.547600  0.734500  1.0  0.3825
  H  H27  1  0.459000  0.231000  0.911000  1.0  0.4648
  H  H28  1  0.512000  0.272000  0.569000  1.0  0.439
  H  H29  1  0.189500  0.797600  0.767600  1.0  0.1015
  H  H30  1  0.367800  0.779000  0.890000  1.0  0.0999
  H  H31  1  0.811400  0.723100  0.744900  1.0  0.0951
  H  H32  1  0.633800  0.743500  0.622600  1.0  0.0948
  H  H33  1  0.358400  0.054100  0.675100  1.0  0.3443
  H  H34  1  0.422200  0.047600  0.765500  1.0  0.3804
  H  H35  1  0.959000  0.731000  0.589000  1.0  0.4631
  H  H36  1  0.012000  0.772000  0.931000  1.0  0.4383
  H  H37  1  0.310500  0.702400  0.267600  1.0  0.1017
  H  H38  1  0.132200  0.721000  0.390000  1.0  0.1
  H  H39  1  0.688600  0.776900  0.244900  1.0  0.0947
  H  H40  1  0.866200  0.756500  0.122600  1.0  0.0948
  H  H41  1  0.141600  0.445900  0.175100  1.0  0.3463
  H  H42  1  0.077800  0.452400  0.265500  1.0  0.3796
  H  H43  1  0.541000  0.769000  0.089000  1.0  0.4645
  H  H44  1  0.488000  0.728000  0.431000  1.0  0.439
  C  C45  1  0.607000  0.228200  0.317200  1.0  -0.3269
  C  C46  1  0.686300  0.217300  0.237100  1.0  -0.0122
  C  C47  1  0.579300  0.228700  0.163600  1.0  -0.001
  C  C48  1  0.392700  0.251700  0.170500  1.0  -0.3205
  C  C49  1  0.312900  0.262000  0.250400  1.0  -0.0361
  C  C50  1  0.419900  0.250000  0.323700  1.0  0.0097
  C  C51  1  0.101500  0.005900  0.313200  1.0  0.291
  C  C52  1  0.394600  0.977500  0.314100  1.0  0.6493
  C  C53  1  0.893000  0.271800  0.817200  1.0  -0.3267
  C  C54  1  0.813700  0.282700  0.737100  1.0  -0.0113
  C  C55  1  0.920700  0.271300  0.663600  1.0  -0.0036
  C  C56  1  0.107300  0.248300  0.670500  1.0  -0.3207
  C  C57  1  0.187100  0.238000  0.750400  1.0  -0.0362
  C  C58  1  0.080100  0.250000  0.823700  1.0  0.0113
  C  C59  1  0.398500  0.494100  0.813200  1.0  0.2934
  C  C60  1  0.105400  0.522500  0.814100  1.0  0.6493
  C  C61  1  0.393000  0.771800  0.682800  1.0  -0.3278
  C  C62  1  0.313700  0.782700  0.762900  1.0  -0.0117
  C  C63  1  0.420700  0.771300  0.836400  1.0  0.0004
  C  C64  1  0.607300  0.748300  0.829500  1.0  -0.3194
  C  C65  1  0.687100  0.738000  0.749600  1.0  -0.0351
  C  C66  1  0.580100  0.750000  0.676300  1.0  0.0074
  C  C67  1  0.898500  0.994100  0.686800  1.0  0.2949
  C  C68  1  0.605400  0.022500  0.685900  1.0  0.6494
  C  C69  1  0.107000  0.728200  0.182800  1.0  -0.3276
  C  C70  1  0.186300  0.717300  0.262900  1.0  -0.0127
  C  C71  1  0.079300  0.728700  0.336400  1.0  0.0006
  C  C72  1  0.892700  0.751700  0.329500  1.0  -0.319
  C  C73  1  0.812900  0.762000  0.249600  1.0  -0.0349
  C  C74  1  0.919900  0.750000  0.176300  1.0  0.0046
  C  C75  1  0.601500  0.505900  0.186800  1.0  0.2916
  C  C76  1  0.894600  0.477500  0.185900  1.0  0.6496
  N  N77  1  0.153500  0.002100  0.393700  1.0  -0.2453
  N  N78  1  0.343500  0.985600  0.394300  1.0  -0.3627
  N  N79  1  0.248500  0.990200  0.260700  1.0  -0.4449
  N  N80  1  0.555400  0.956300  0.288400  1.0  -0.6445
  N  N81  1  0.346500  0.497900  0.893700  1.0  -0.2445
  N  N82  1  0.156500  0.514400  0.894300  1.0  -0.3619
  N  N83  1  0.251500  0.509800  0.760700  1.0  -0.4416
  N  N84  1  0.944600  0.543700  0.788400  1.0  -0.6453
  N  N85  1  0.846500  0.997900  0.606300  1.0  -0.2443
  N  N86  1  0.656500  0.014400  0.605700  1.0  -0.3616
  N  N87  1  0.751500  0.009800  0.739300  1.0  -0.4514
  N  N88  1  0.444600  0.043700  0.711600  1.0  -0.6455
  N  N89  1  0.653500  0.502100  0.106300  1.0  -0.2448
  N  N90  1  0.843500  0.485600  0.105700  1.0  -0.3625
  N  N91  1  0.748500  0.490200  0.239300  1.0  -0.4547
  N  N92  1  0.055400  0.456300  0.211600  1.0  -0.6453
  O  O93  1  0.954900  0.251500  0.384710  1.0  -0.7039
  O  O94  1  0.685900  0.293200  0.479510  1.0  -0.7011
  O  O95  1  0.711400  0.098700  0.442830  1.0  -0.8476
  O  O96  1  0.294000  0.386400  0.046760  1.0  -0.8588
  O  O97  1  0.313100  0.191800  0.006970  1.0  -0.7045
  O  O98  1  0.046500  0.233800  0.103200  1.0  -0.6711
  O  O99  1  0.545100  0.248500  0.884710  1.0  -0.6971
  O  O100  1  0.814100  0.206800  0.979510  1.0  -0.7025
  O  O101  1  0.788600  0.401300  0.942830  1.0  -0.8466
  O  O102  1  0.206000  0.113600  0.546760  1.0  -0.8585
  O  O103  1  0.186900  0.308200  0.506970  1.0  -0.7056
  O  O104  1  0.453500  0.266200  0.603200  1.0  -0.6728
  O  O105  1  0.045100  0.748500  0.615290  1.0  -0.6949
  O  O106  1  0.314100  0.706800  0.520490  1.0  -0.7016
  O  O107  1  0.288600  0.901300  0.557170  1.0  -0.846
  O  O108  1  0.706000  0.613600  0.953240  1.0  -0.8587
  O  O109  1  0.686900  0.808200  0.993030  1.0  -0.7058
  O  O110  1  0.953500  0.766200  0.896800  1.0  -0.6744
  O  O111  1  0.454900  0.751500  0.115290  1.0  -0.7016
  O  O112  1  0.185900  0.793200  0.020490  1.0  -0.702
  O  O113  1  0.211400  0.598700  0.057170  1.0  -0.8471
  O  O114  1  0.794000  0.886400  0.453240  1.0  -0.8588
  O  O115  1  0.813100  0.691800  0.493030  1.0  -0.705
  O  O116  1  0.546500  0.733800  0.396800  1.0  -0.6734
