# generated using pymatgen
data_MnN9
_symmetry_space_group_name_H-M   'P 1'
_cell_length_a   7.54090000
_cell_length_b   12.85010000
_cell_length_c   18.86500000
_cell_angle_alpha   90.00000000
_cell_angle_beta   90.00000000
_cell_angle_gamma   90.00000000
_symmetry_Int_Tables_number   1
_chemical_formula_structural   MnN9
_chemical_formula_sum   'Mn8 N72'
_cell_volume   1828.04338463
_cell_formula_units_Z   8
loop_
 _symmetry_equiv_pos_site_id
 _symmetry_equiv_pos_as_xyz
  1  'x, y, z'
loop_
 _atom_site_type_symbol
 _atom_site_label
 _atom_site_symmetry_multiplicity
 _atom_site_fract_x
 _atom_site_fract_y
 _atom_site_fract_z
 _atom_site_occupancy
 _atom_site_charge
  Mn  Mn1  1  0.239650  0.844570  0.386340  1.0  1.0936
  Mn  Mn2  1  0.260350  0.155430  0.886340  1.0  1.0947
  Mn  Mn3  1  0.760350  0.344570  0.113650  1.0  1.0944
  Mn  Mn4  1  0.739650  0.655430  0.613650  1.0  1.0946
  Mn  Mn5  1  0.760350  0.155430  0.613650  1.0  1.0952
  Mn  Mn6  1  0.739650  0.844570  0.113650  1.0  1.0939
  Mn  Mn7  1  0.239650  0.655430  0.886340  1.0  1.0942
  Mn  Mn8  1  0.260350  0.344570  0.386340  1.0  1.094
  N  N9  1  0.248300  0.592800  0.394930  1.0  0.3685
  N  N10  1  0.953500  0.866000  0.263830  1.0  0.4622
  N  N11  1  0.232800  0.675570  0.372370  1.0  -0.4218
  N  N12  1  0.524200  0.750740  0.485960  1.0  0.4871
  N  N13  1  0.484800  0.826420  0.454640  1.0  -0.3392
  N  N14  1  0.995800  0.869980  0.323520  1.0  -0.4276
  N  N15  1  0.263800  0.508940  0.417980  1.0  -0.4218
  N  N16  1  0.562600  0.675150  0.516870  1.0  -0.3887
  N  N17  1  0.911900  0.865760  0.205110  1.0  -0.4101
  N  N18  1  0.251700  0.407200  0.894930  1.0  0.3689
  N  N19  1  0.546500  0.134000  0.763830  1.0  0.4625
  N  N20  1  0.267200  0.324430  0.872370  1.0  -0.4211
  N  N21  1  0.975800  0.249260  0.985960  1.0  0.4865
  N  N22  1  0.015200  0.173580  0.954640  1.0  -0.3379
  N  N23  1  0.504200  0.130020  0.823520  1.0  -0.4278
  N  N24  1  0.236200  0.491060  0.917980  1.0  -0.4206
  N  N25  1  0.937400  0.324850  0.016870  1.0  -0.3888
  N  N26  1  0.588100  0.134240  0.705110  1.0  -0.4106
  N  N27  1  0.751700  0.092800  0.105070  1.0  0.3683
  N  N28  1  0.046500  0.366000  0.236170  1.0  0.4627
  N  N29  1  0.767200  0.175570  0.127630  1.0  -0.4215
  N  N30  1  0.475800  0.250740  0.014040  1.0  0.486
  N  N31  1  0.515200  0.326420  0.045360  1.0  -0.3408
  N  N32  1  0.004200  0.369980  0.176480  1.0  -0.4279
  N  N33  1  0.736200  0.008940  0.082020  1.0  -0.4245
  N  N34  1  0.437400  0.175150  0.983130  1.0  -0.3877
  N  N35  1  0.088100  0.365760  0.294890  1.0  -0.4101
  N  N36  1  0.748300  0.907200  0.605070  1.0  0.3686
  N  N37  1  0.453500  0.634000  0.736170  1.0  0.4627
  N  N38  1  0.732800  0.824430  0.627630  1.0  -0.422
  N  N39  1  0.024200  0.749260  0.514040  1.0  0.4862
  N  N40  1  0.984800  0.673580  0.545360  1.0  -0.3385
  N  N41  1  0.495800  0.630020  0.676480  1.0  -0.4279
  N  N42  1  0.763800  0.991060  0.582020  1.0  -0.4236
  N  N43  1  0.062600  0.824850  0.483130  1.0  -0.3885
  N  N44  1  0.411900  0.634240  0.794890  1.0  -0.4102
  N  N45  1  0.751700  0.407200  0.605070  1.0  0.3687
  N  N46  1  0.046500  0.134000  0.736170  1.0  0.4628
  N  N47  1  0.767200  0.324430  0.627630  1.0  -0.4217
  N  N48  1  0.475800  0.249260  0.514040  1.0  0.4867
  N  N49  1  0.515200  0.173580  0.545360  1.0  -0.3384
  N  N50  1  0.004200  0.130020  0.676480  1.0  -0.428
  N  N51  1  0.736200  0.491060  0.582020  1.0  -0.4279
  N  N52  1  0.437400  0.324850  0.483130  1.0  -0.3854
  N  N53  1  0.088100  0.134240  0.794890  1.0  -0.4099
  N  N54  1  0.748300  0.592800  0.105070  1.0  0.3681
  N  N55  1  0.453500  0.866000  0.236170  1.0  0.4626
  N  N56  1  0.732800  0.675570  0.127630  1.0  -0.4221
  N  N57  1  0.024200  0.750740  0.014040  1.0  0.4874
  N  N58  1  0.984800  0.826420  0.045360  1.0  -0.3407
  N  N59  1  0.495800  0.869980  0.176480  1.0  -0.4278
  N  N60  1  0.763800  0.508940  0.082020  1.0  -0.4292
  N  N61  1  0.062600  0.675150  0.983130  1.0  -0.3849
  N  N62  1  0.411900  0.865760  0.294890  1.0  -0.4096
  N  N63  1  0.248300  0.907200  0.894930  1.0  0.3688
  N  N64  1  0.953500  0.634000  0.763830  1.0  0.4624
  N  N65  1  0.232800  0.824430  0.872370  1.0  -0.4216
  N  N66  1  0.524200  0.749260  0.985960  1.0  0.486
  N  N67  1  0.484800  0.673580  0.954640  1.0  -0.3376
  N  N68  1  0.995800  0.630020  0.823520  1.0  -0.4279
  N  N69  1  0.263800  0.991060  0.917980  1.0  -0.428
  N  N70  1  0.562600  0.824850  0.016870  1.0  -0.3884
  N  N71  1  0.911900  0.634240  0.705110  1.0  -0.4105
  N  N72  1  0.251700  0.092800  0.394930  1.0  0.3686
  N  N73  1  0.546500  0.366000  0.263830  1.0  0.4623
  N  N74  1  0.267200  0.175570  0.372370  1.0  -0.4209
  N  N75  1  0.975800  0.250740  0.485960  1.0  0.4858
  N  N76  1  0.015200  0.326420  0.454640  1.0  -0.3398
  N  N77  1  0.504200  0.369980  0.323520  1.0  -0.4274
  N  N78  1  0.236200  0.008940  0.417980  1.0  -0.4288
  N  N79  1  0.937400  0.175150  0.516870  1.0  -0.3884
  N  N80  1  0.588100  0.365760  0.205110  1.0  -0.4109
