# generated using pymatgen
data_CaH8(C9O4)2
_symmetry_space_group_name_H-M   'P 1'
_cell_length_a   11.43250000
_cell_length_b   23.17100000
_cell_length_c   9.78520000
_cell_angle_alpha   90.00000000
_cell_angle_beta   102.15200000
_cell_angle_gamma   90.00000000
_symmetry_Int_Tables_number   1
_chemical_formula_structural   CaH8(C9O4)2
_chemical_formula_sum   'Ca4 H32 C72 O32'
_cell_volume   2534.04075331
_cell_formula_units_Z   4
loop_
 _symmetry_equiv_pos_site_id
 _symmetry_equiv_pos_as_xyz
  1  'x, y, z'
loop_
 _atom_site_type_symbol
 _atom_site_label
 _atom_site_symmetry_multiplicity
 _atom_site_fract_x
 _atom_site_fract_y
 _atom_site_fract_z
 _atom_site_occupancy
 _atom_site_charge
  Ca  Ca1  1  0.000000  0.146140  0.750000  1.0  1.6446
  Ca  Ca2  1  0.500000  0.646140  0.750000  1.0  1.6446
  Ca  Ca3  1  0.000000  0.853860  0.250000  1.0  1.6411
  Ca  Ca4  1  0.500000  0.353860  0.250000  1.0  1.6411
  H  H5  1  0.694500  0.235800  0.334600  1.0  0.3845
  H  H6  1  0.413000  0.241200  0.569300  1.0  0.1098
  H  H7  1  0.343700  0.076400  0.646100  1.0  0.115
  H  H8  1  0.592000  0.114400  0.423500  1.0  0.1229
  H  H9  1  0.194500  0.735800  0.334600  1.0  0.3845
  H  H10  1  0.913000  0.741200  0.569300  1.0  0.1098
  H  H11  1  0.843700  0.576400  0.646100  1.0  0.115
  H  H12  1  0.092000  0.614400  0.423500  1.0  0.1229
  H  H13  1  0.305500  0.235800  0.165400  1.0  0.3843
  H  H14  1  0.587000  0.241200  0.930700  1.0  0.1096
  H  H15  1  0.656300  0.076400  0.853900  1.0  0.1155
  H  H16  1  0.408000  0.114400  0.076500  1.0  0.1232
  H  H17  1  0.805500  0.735800  0.165400  1.0  0.3843
  H  H18  1  0.087000  0.741200  0.930700  1.0  0.1096
  H  H19  1  0.156300  0.576400  0.853900  1.0  0.1155
  H  H20  1  0.908000  0.614400  0.076500  1.0  0.1232
  H  H21  1  0.305500  0.764200  0.665400  1.0  0.385
  H  H22  1  0.587000  0.758800  0.430700  1.0  0.1108
  H  H23  1  0.656300  0.923600  0.353900  1.0  0.1147
  H  H24  1  0.408000  0.885600  0.576500  1.0  0.1231
  H  H25  1  0.805500  0.264200  0.665400  1.0  0.385
  H  H26  1  0.087000  0.258800  0.430700  1.0  0.1108
  H  H27  1  0.156300  0.423600  0.353900  1.0  0.1147
  H  H28  1  0.908000  0.385600  0.576500  1.0  0.1231
  H  H29  1  0.694500  0.764200  0.834600  1.0  0.3862
  H  H30  1  0.413000  0.758800  0.069300  1.0  0.1108
  H  H31  1  0.343700  0.923600  0.146100  1.0  0.1149
  H  H32  1  0.592000  0.885600  0.923500  1.0  0.1225
  H  H33  1  0.194500  0.264200  0.834600  1.0  0.3862
  H  H34  1  0.913000  0.258800  0.069300  1.0  0.1108
  H  H35  1  0.843700  0.423600  0.146100  1.0  0.1149
  H  H36  1  0.092000  0.385600  0.923500  1.0  0.1225
  C  C37  1  0.427500  0.202020  0.559800  1.0  0.0196
  C  C38  1  0.386300  0.103420  0.606100  1.0  -0.0526
  C  C39  1  0.511800  0.184370  0.485200  1.0  -0.1523
  C  C40  1  0.364700  0.161690  0.620000  1.0  -0.1416
  C  C41  1  0.271400  0.181070  0.696900  1.0  0.694
  C  C42  1  0.534600  0.126150  0.472300  1.0  -0.0841
  C  C43  1  0.492200  0.024600  0.511400  1.0  -0.0488
  C  C44  1  0.471600  0.084940  0.532400  1.0  -0.0375
  C  C45  1  0.573600  0.228590  0.413900  1.0  0.6615
  C  C46  1  0.927500  0.702020  0.559800  1.0  0.0196
  C  C47  1  0.886300  0.603420  0.606100  1.0  -0.0526
  C  C48  1  0.011800  0.684370  0.485200  1.0  -0.1523
  C  C49  1  0.864700  0.661690  0.620000  1.0  -0.1416
  C  C50  1  0.771400  0.681070  0.696900  1.0  0.694
  C  C51  1  0.034600  0.626150  0.472300  1.0  -0.0841
  C  C52  1  0.992200  0.524600  0.511400  1.0  -0.0488
  C  C53  1  0.971600  0.584940  0.532400  1.0  -0.0375
  C  C54  1  0.073600  0.728590  0.413900  1.0  0.6615
  C  C55  1  0.572500  0.202020  0.940200  1.0  0.019
  C  C56  1  0.613700  0.103420  0.893900  1.0  -0.0518
  C  C57  1  0.488200  0.184370  0.014800  1.0  -0.152
  C  C58  1  0.635300  0.161690  0.880000  1.0  -0.1408
  C  C59  1  0.728600  0.181070  0.803100  1.0  0.694
  C  C60  1  0.465400  0.126150  0.027700  1.0  -0.0846
  C  C61  1  0.507800  0.024600  0.988600  1.0  -0.0487
  C  C62  1  0.528400  0.084940  0.967600  1.0  -0.0365
  C  C63  1  0.426400  0.228590  0.086100  1.0  0.6618
  C  C64  1  0.072500  0.702020  0.940200  1.0  0.019
  C  C65  1  0.113700  0.603420  0.893900  1.0  -0.0518
  C  C66  1  0.988200  0.684370  0.014800  1.0  -0.152
  C  C67  1  0.135300  0.661690  0.880000  1.0  -0.1408
  C  C68  1  0.228600  0.681070  0.803100  1.0  0.694
  C  C69  1  0.965400  0.626150  0.027700  1.0  -0.0846
  C  C70  1  0.007800  0.524600  0.988600  1.0  -0.0487
  C  C71  1  0.028400  0.584940  0.967600  1.0  -0.0365
  C  C72  1  0.926400  0.728590  0.086100  1.0  0.6618
  C  C73  1  0.572500  0.797980  0.440200  1.0  0.0195
  C  C74  1  0.613700  0.896580  0.393900  1.0  -0.0508
  C  C75  1  0.488200  0.815630  0.514800  1.0  -0.1523
  C  C76  1  0.635300  0.838310  0.380000  1.0  -0.1408
  C  C77  1  0.728600  0.818930  0.303100  1.0  0.6942
  C  C78  1  0.465400  0.873850  0.527700  1.0  -0.0865
  C  C79  1  0.507800  0.975400  0.488600  1.0  -0.0487
  C  C80  1  0.528400  0.915060  0.467600  1.0  -0.0354
  C  C81  1  0.426400  0.771410  0.586100  1.0  0.6619
  C  C82  1  0.072500  0.297980  0.440200  1.0  0.0195
  C  C83  1  0.113700  0.396580  0.393900  1.0  -0.0508
  C  C84  1  0.988200  0.315630  0.514800  1.0  -0.1523
  C  C85  1  0.135300  0.338310  0.380000  1.0  -0.1408
  C  C86  1  0.228600  0.318930  0.303100  1.0  0.6942
  C  C87  1  0.965400  0.373850  0.527700  1.0  -0.0865
  C  C88  1  0.007800  0.475400  0.488600  1.0  -0.0487
  C  C89  1  0.028400  0.415060  0.467600  1.0  -0.0354
  C  C90  1  0.926400  0.271410  0.586100  1.0  0.6619
  C  C91  1  0.427500  0.797980  0.059800  1.0  0.0198
  C  C92  1  0.386300  0.896580  0.106100  1.0  -0.0527
  C  C93  1  0.511800  0.815630  0.985200  1.0  -0.1527
  C  C94  1  0.364700  0.838310  0.120000  1.0  -0.1416
  C  C95  1  0.271400  0.818930  0.196900  1.0  0.6949
  C  C96  1  0.534600  0.873850  0.972300  1.0  -0.0849
  C  C97  1  0.492200  0.975400  0.011400  1.0  -0.0488
  C  C98  1  0.471600  0.915060  0.032400  1.0  -0.0353
  C  C99  1  0.573600  0.771410  0.913900  1.0  0.6615
  C  C100  1  0.927500  0.297980  0.059800  1.0  0.0198
  C  C101  1  0.886300  0.396580  0.106100  1.0  -0.0527
  C  C102  1  0.011800  0.315630  0.985200  1.0  -0.1527
  C  C103  1  0.864700  0.338310  0.120000  1.0  -0.1416
  C  C104  1  0.771400  0.318930  0.196900  1.0  0.6949
  C  C105  1  0.034600  0.373850  0.972300  1.0  -0.0849
  C  C106  1  0.992200  0.475400  0.011400  1.0  -0.0488
  C  C107  1  0.971600  0.415060  0.032400  1.0  -0.0353
  C  C108  1  0.073600  0.271410  0.913900  1.0  0.6615
  O  O109  1  0.196000  0.145860  0.719400  1.0  -0.725
  O  O110  1  0.277000  0.233690  0.732500  1.0  -0.5811
  O  O111  1  0.656000  0.208880  0.357200  1.0  -0.5059
  O  O112  1  0.541800  0.279160  0.411100  1.0  -0.6025
  O  O113  1  0.696000  0.645860  0.719400  1.0  -0.725
  O  O114  1  0.777000  0.733690  0.732500  1.0  -0.5811
  O  O115  1  0.156000  0.708880  0.357200  1.0  -0.5059
  O  O116  1  0.041800  0.779160  0.411100  1.0  -0.6025
  O  O117  1  0.804000  0.145860  0.780600  1.0  -0.7255
  O  O118  1  0.723000  0.233690  0.767500  1.0  -0.5815
  O  O119  1  0.344000  0.208880  0.142800  1.0  -0.5052
  O  O120  1  0.458200  0.279160  0.088900  1.0  -0.6021
  O  O121  1  0.304000  0.645860  0.780600  1.0  -0.7255
  O  O122  1  0.223000  0.733690  0.767500  1.0  -0.5815
  O  O123  1  0.844000  0.708880  0.142800  1.0  -0.5052
  O  O124  1  0.958200  0.779160  0.088900  1.0  -0.6021
  O  O125  1  0.804000  0.854140  0.280600  1.0  -0.725
  O  O126  1  0.723000  0.766310  0.267500  1.0  -0.5816
  O  O127  1  0.344000  0.791120  0.642800  1.0  -0.5038
  O  O128  1  0.458200  0.720840  0.588900  1.0  -0.6035
  O  O129  1  0.304000  0.354140  0.280600  1.0  -0.725
  O  O130  1  0.223000  0.266310  0.267500  1.0  -0.5816
  O  O131  1  0.844000  0.291120  0.642800  1.0  -0.5038
  O  O132  1  0.958200  0.220840  0.588900  1.0  -0.6035
  O  O133  1  0.196000  0.854140  0.219400  1.0  -0.7256
  O  O134  1  0.277000  0.766310  0.232500  1.0  -0.5809
  O  O135  1  0.656000  0.791120  0.857200  1.0  -0.5052
  O  O136  1  0.541800  0.720840  0.911100  1.0  -0.6037
  O  O137  1  0.696000  0.354140  0.219400  1.0  -0.7256
  O  O138  1  0.777000  0.266310  0.232500  1.0  -0.5809
  O  O139  1  0.156000  0.291120  0.857200  1.0  -0.5052
  O  O140  1  0.041800  0.220840  0.911100  1.0  -0.6037
