# generated using pymatgen
data_Sr3H14(C9O4)4
_symmetry_space_group_name_H-M   'P 1'
_cell_length_a   10.23250000
_cell_length_b   10.45790000
_cell_length_c   11.66500000
_cell_angle_alpha   106.73700000
_cell_angle_beta   108.85600000
_cell_angle_gamma   104.54100000
_symmetry_Int_Tables_number   1
_chemical_formula_structural   Sr3H14(C9O4)4
_chemical_formula_sum   'Sr3 H14 C36 O16'
_cell_volume   1046.50185111
_cell_formula_units_Z   1
loop_
 _symmetry_equiv_pos_site_id
 _symmetry_equiv_pos_as_xyz
  1  'x, y, z'
loop_
 _atom_site_type_symbol
 _atom_site_label
 _atom_site_symmetry_multiplicity
 _atom_site_fract_x
 _atom_site_fract_y
 _atom_site_fract_z
 _atom_site_occupancy
 _atom_site_charge
  Sr  Sr1  1  0.360420  0.094670  0.433990  1.0  1.6352
  Sr  Sr2  1  0.639580  0.905330  0.566010  1.0  1.6364
  Sr  Sr3  1  0.500000  0.500000  0.500000  1.0  1.5905
  H  H4  1  0.641800  0.356900  0.641000  1.0  0.1479
  H  H5  1  0.888800  0.149900  0.474000  1.0  0.1209
  H  H6  1  0.879400  0.523500  0.684300  1.0  0.1183
  H  H7  1  0.253500  0.513700  0.646400  1.0  0.1152
  H  H8  1  0.359900  0.995800  0.742500  1.0  0.1187
  H  H9  1  0.512300  0.372900  0.052700  1.0  0.119
  H  H10  1  0.296600  0.004300  0.066500  1.0  0.128
  H  H11  1  0.358200  0.643100  0.359000  1.0  0.1447
  H  H12  1  0.111200  0.850100  0.526000  1.0  0.1195
  H  H13  1  0.120600  0.476500  0.315700  1.0  0.118
  H  H14  1  0.746500  0.486300  0.353600  1.0  0.1154
  H  H15  1  0.640100  0.004200  0.257500  1.0  0.118
  H  H16  1  0.487700  0.627100  0.947300  1.0  0.117
  H  H17  1  0.703400  0.995700  0.933500  1.0  0.1272
  C  C18  1  0.165800  0.242400  0.490900  1.0  0.7192
  C  C19  1  0.083300  0.320700  0.550100  1.0  -0.1362
  C  C20  1  0.935900  0.248800  0.524300  1.0  0.0073
  C  C21  1  0.859000  0.325100  0.573900  1.0  -0.1532
  C  C22  1  0.931300  0.472200  0.652400  1.0  0.0057
  C  C23  1  0.080900  0.543700  0.683600  1.0  -0.013
  C  C24  1  0.154800  0.466300  0.629100  1.0  -0.0857
  C  C25  1  0.696800  0.253000  0.539800  1.0  0.7109
  C  C26  1  0.158600  0.695900  0.764300  1.0  -0.0437
  C  C27  1  0.230100  0.821300  0.826900  1.0  -0.0555
  C  C28  1  0.312200  0.974500  0.893000  1.0  -0.0133
  C  C29  1  0.370400  0.047100  0.826800  1.0  -0.085
  C  C30  1  0.444000  0.196100  0.886300  1.0  -0.143
  C  C31  1  0.462000  0.273200  0.012800  1.0  0.0294
  C  C32  1  0.404700  0.201500  0.080000  1.0  -0.146
  C  C33  1  0.332300  0.052700  0.020700  1.0  -0.0162
  C  C34  1  0.487200  0.269900  0.805100  1.0  0.687
  C  C35  1  0.416300  0.283700  0.214500  1.0  0.7438
  C  C36  1  0.834200  0.757600  0.509100  1.0  0.7199
  C  C37  1  0.916700  0.679300  0.449900  1.0  -0.1378
  C  C38  1  0.064100  0.751200  0.475700  1.0  0.0056
  C  C39  1  0.141000  0.674900  0.426100  1.0  -0.1567
  C  C40  1  0.068700  0.527800  0.347600  1.0  0.0062
  C  C41  1  0.919100  0.456300  0.316400  1.0  -0.0136
  C  C42  1  0.845200  0.533700  0.370900  1.0  -0.0879
  C  C43  1  0.303200  0.747000  0.460200  1.0  0.713
  C  C44  1  0.841400  0.304100  0.235700  1.0  -0.0449
  C  C45  1  0.769900  0.178700  0.173100  1.0  -0.0535
  C  C46  1  0.687800  0.025500  0.107000  1.0  -0.0134
  C  C47  1  0.629600  0.952900  0.173200  1.0  -0.0849
  C  C48  1  0.556000  0.803900  0.113700  1.0  -0.144
  C  C49  1  0.538000  0.726800  0.987200  1.0  0.0297
  C  C50  1  0.595300  0.798500  0.920000  1.0  -0.1469
  C  C51  1  0.667700  0.947300  0.979300  1.0  -0.0167
  C  C52  1  0.512800  0.730100  0.194900  1.0  0.6861
  C  C53  1  0.583700  0.716300  0.785500  1.0  0.743
  O  O54  1  0.282800  0.318300  0.489400  1.0  -0.7117
  O  O55  1  0.119000  0.108400  0.447900  1.0  -0.6307
  O  O56  1  0.622700  0.331000  0.549500  1.0  -0.7039
  O  O57  1  0.640300  0.117200  0.500400  1.0  -0.7262
  O  O58  1  0.559200  0.411100  0.870400  1.0  -0.5082
  O  O59  1  0.456400  0.207300  0.690100  1.0  -0.6282
  O  O60  1  0.399500  0.216600  0.283900  1.0  -0.7011
  O  O61  1  0.441000  0.415800  0.252000  1.0  -0.6935
  O  O62  1  0.717200  0.681700  0.510600  1.0  -0.7127
  O  O63  1  0.881000  0.891600  0.552100  1.0  -0.631
  O  O64  1  0.377300  0.669000  0.450500  1.0  -0.7028
  O  O65  1  0.359700  0.882800  0.499600  1.0  -0.7267
  O  O66  1  0.440800  0.588900  0.129600  1.0  -0.5073
  O  O67  1  0.543600  0.792700  0.309900  1.0  -0.6284
  O  O68  1  0.600500  0.783400  0.716100  1.0  -0.7002
  O  O69  1  0.559000  0.584200  0.748000  1.0  -0.6924
