# generated using pymatgen
data_Ni3H20(C8O5)2
_symmetry_space_group_name_H-M   'P 1'
_cell_length_a   6.37220000
_cell_length_b   9.99920000
_cell_length_c   11.22340000
_cell_angle_alpha   116.45300000
_cell_angle_beta   96.34090000
_cell_angle_gamma   90.00000000
_symmetry_Int_Tables_number   1
_chemical_formula_structural   Ni3H20(C8O5)2
_chemical_formula_sum   'Ni3 H20 C16 O10'
_cell_volume   635.35706186
_cell_formula_units_Z   1
loop_
 _symmetry_equiv_pos_site_id
 _symmetry_equiv_pos_as_xyz
  1  'x, y, z'
loop_
 _atom_site_type_symbol
 _atom_site_label
 _atom_site_symmetry_multiplicity
 _atom_site_fract_x
 _atom_site_fract_y
 _atom_site_fract_z
 _atom_site_occupancy
 _atom_site_charge
  Ni  Ni1  1  0.500000  0.848820  0.000000  1.0  0.9527
  Ni  Ni2  1  0.500000  0.151180  0.000000  1.0  0.9529
  Ni  Ni3  1  0.000000  0.000000  0.000000  1.0  1.0714
  H  H4  1  0.076600  0.520300  0.658600  1.0  0.1055
  H  H5  1  0.787800  0.556500  0.658000  1.0  0.0924
  H  H6  1  0.796700  0.670400  0.598600  1.0  0.0666
  H  H7  1  0.286400  0.625700  0.532400  1.0  0.0723
  H  H8  1  0.335400  0.506000  0.583800  1.0  0.0859
  H  H9  1  0.923400  0.861700  0.341400  1.0  0.1013
  H  H10  1  0.212200  0.898500  0.342000  1.0  0.0885
  H  H11  1  0.203300  0.071800  0.401400  1.0  0.0712
  H  H12  1  0.713600  0.093300  0.467600  1.0  0.0696
  H  H13  1  0.664600  0.922200  0.416200  1.0  0.0841
  H  H14  1  0.923400  0.479700  0.341400  1.0  0.1053
  H  H15  1  0.212200  0.443500  0.342000  1.0  0.087
  H  H16  1  0.203300  0.329600  0.401400  1.0  0.0646
  H  H17  1  0.713600  0.374300  0.467600  1.0  0.0748
  H  H18  1  0.664600  0.494000  0.416200  1.0  0.0851
  H  H19  1  0.076600  0.138300  0.658600  1.0  0.1007
  H  H20  1  0.787800  0.101500  0.658000  1.0  0.0884
  H  H21  1  0.796700  0.928200  0.598600  1.0  0.0716
  H  H22  1  0.286400  0.906700  0.532400  1.0  0.0693
  H  H23  1  0.335400  0.077800  0.583800  1.0  0.0901
  C  C24  1  0.070300  0.604170  0.635740  1.0  -0.1389
  C  C25  1  0.851900  0.577840  0.593480  1.0  -0.0894
  C  C26  1  0.223800  0.544010  0.543220  1.0  -0.0984
  C  C27  1  0.149700  0.716220  0.777240  1.0  0.6784
  C  C28  1  0.929700  0.968430  0.364260  1.0  -0.1283
  C  C29  1  0.148100  0.984360  0.406520  1.0  -0.0913
  C  C30  1  0.776200  0.000790  0.456780  1.0  -0.0963
  C  C31  1  0.850300  0.938980  0.222760  1.0  0.6751
  C  C32  1  0.929700  0.395830  0.364260  1.0  -0.1374
  C  C33  1  0.148100  0.422160  0.406520  1.0  -0.0917
  C  C34  1  0.776200  0.455990  0.456780  1.0  -0.0977
  C  C35  1  0.850300  0.283780  0.222760  1.0  0.6777
  C  C36  1  0.070300  0.031570  0.635740  1.0  -0.1308
  C  C37  1  0.851900  0.015640  0.593480  1.0  -0.0899
  C  C38  1  0.223800  0.999210  0.543220  1.0  -0.098
  C  C39  1  0.149700  0.061020  0.777240  1.0  0.6746
  O  O40  1  0.345100  0.739590  0.809780  1.0  -0.5834
  O  O41  1  0.011200  0.779860  0.854920  1.0  -0.5998
  O  O42  1  0.654900  0.929810  0.190220  1.0  -0.5841
  O  O43  1  0.988800  0.924940  0.145080  1.0  -0.6036
  O  O44  1  0.654900  0.260410  0.190220  1.0  -0.5836
  O  O45  1  0.988800  0.220140  0.145080  1.0  -0.5936
  O  O46  1  0.345100  0.070190  0.809780  1.0  -0.5843
  O  O47  1  0.011200  0.075060  0.854920  1.0  -0.603
  O  O48  1  0.683000  0.971010  0.942020  1.0  -0.6705
  O  O49  1  0.317000  0.028990  0.057980  1.0  -0.663
