# generated using pymatgen
data_Zn2H25C36N3O7
_symmetry_space_group_name_H-M   'P 1'
_cell_length_a   6.78020000
_cell_length_b   22.02780000
_cell_length_c   24.39920000
_cell_angle_alpha   105.09600000
_cell_angle_beta   90.00000000
_cell_angle_gamma   90.00000000
_symmetry_Int_Tables_number   1
_chemical_formula_structural   Zn2H25C36N3O7
_chemical_formula_sum   'Zn8 H100 C144 N12 O28'
_cell_volume   3518.33641231
_cell_formula_units_Z   4
loop_
 _symmetry_equiv_pos_site_id
 _symmetry_equiv_pos_as_xyz
  1  'x, y, z'
loop_
 _atom_site_type_symbol
 _atom_site_label
 _atom_site_symmetry_multiplicity
 _atom_site_fract_x
 _atom_site_fract_y
 _atom_site_fract_z
 _atom_site_occupancy
 _atom_site_charge
  Zn  Zn1  1  0.529720  0.761240  0.563300  1.0  0.9703
  Zn  Zn2  1  0.525040  0.735080  0.418290  1.0  0.9706
  Zn  Zn3  1  0.029720  0.238760  0.936700  1.0  0.9677
  Zn  Zn4  1  0.025040  0.264920  0.081710  1.0  0.9735
  Zn  Zn5  1  0.470280  0.238760  0.436700  1.0  0.9675
  Zn  Zn6  1  0.474960  0.264920  0.581710  1.0  0.9732
  Zn  Zn7  1  0.970280  0.761240  0.063300  1.0  0.9702
  Zn  Zn8  1  0.974960  0.735080  0.918290  1.0  0.9708
  H  H9  1  0.309100  0.596900  0.607500  1.0  0.1078
  H  H10  1  0.845900  0.633000  0.516200  1.0  0.1052
  H  H11  1  0.084900  0.904800  0.601000  1.0  0.0928
  H  H12  1  0.536700  0.999400  0.557100  1.0  0.0909
  H  H13  1  0.591500  0.808200  0.803900  1.0  0.1135
  H  H14  1  0.614900  0.691200  0.652600  1.0  0.0813
  H  H15  1  0.868700  0.677800  0.710200  1.0  0.1132
  H  H16  1  0.329700  0.823500  0.748300  1.0  0.1096
  H  H17  1  0.173700  0.639200  0.720600  1.0  0.1178
  H  H18  1  0.913100  0.823400  0.606500  1.0  0.0816
  H  H19  1  0.439700  0.624700  0.775300  1.0  0.1006
  H  H20  1  0.172600  0.812800  0.662400  1.0  0.1159
  H  H21  1  0.080100  0.132700  0.518700  1.0  0.112
  H  H22  1  0.752600  0.082800  0.639000  1.0  0.119
  H  H23  1  0.545100  0.166500  0.639500  1.0  0.0885
  H  H24  1  0.876900  0.988700  0.604200  1.0  0.114
  H  H25  1  0.858600  0.211900  0.520800  1.0  0.0836
  H  H26  1  0.325800  0.081400  0.554100  1.0  0.103
  H  H27  1  0.034200  0.417900  0.606600  1.0  0.116
  H  H28  1  0.878800  0.325900  0.608100  1.0  0.0774
  H  H29  1  0.679700  0.548100  0.532500  1.0  0.0983
  H  H30  1  0.140600  0.512400  0.624300  1.0  0.1106
  H  H31  1  0.371300  0.388800  0.569900  1.0  0.0766
  H  H32  1  0.511900  0.484900  0.568400  1.0  0.1119
  H  H33  1  0.540000  0.781000  0.495000  1.0  0.1705
  H  H34  1  0.809100  0.403100  0.892500  1.0  0.1078
  H  H35  1  0.345900  0.367000  0.983800  1.0  0.1054
  H  H36  1  0.584900  0.095200  0.899000  1.0  0.0932
  H  H37  1  0.036700  0.000600  0.942900  1.0  0.0905
  H  H38  1  0.091500  0.191800  0.696100  1.0  0.1135
  H  H39  1  0.114900  0.308800  0.847400  1.0  0.0813
  H  H40  1  0.368700  0.322200  0.789800  1.0  0.1132
  H  H41  1  0.829700  0.176500  0.751700  1.0  0.1102
  H  H42  1  0.673700  0.360800  0.779400  1.0  0.118
  H  H43  1  0.413100  0.176600  0.893500  1.0  0.0815
  H  H44  1  0.939700  0.375300  0.724700  1.0  0.1005
  H  H45  1  0.672600  0.187200  0.837600  1.0  0.1157
  H  H46  1  0.580100  0.867300  0.981300  1.0  0.1124
  H  H47  1  0.252600  0.917200  0.861000  1.0  0.1188
  H  H48  1  0.045100  0.833500  0.860500  1.0  0.0889
  H  H49  1  0.376900  0.011300  0.895800  1.0  0.1138
  H  H50  1  0.358600  0.788100  0.979200  1.0  0.0836
  H  H51  1  0.825800  0.918600  0.945900  1.0  0.103
  H  H52  1  0.534200  0.582100  0.893400  1.0  0.1156
  H  H53  1  0.378800  0.674100  0.891900  1.0  0.0765
  H  H54  1  0.179700  0.451900  0.967500  1.0  0.0985
  H  H55  1  0.640600  0.487600  0.875700  1.0  0.1106
  H  H56  1  0.871300  0.611200  0.930100  1.0  0.0769
  H  H57  1  0.011900  0.515100  0.931600  1.0  0.1111
  H  H58  1  0.040000  0.219000  0.005000  1.0  0.1703
  H  H59  1  0.690900  0.403100  0.392500  1.0  0.1074
  H  H60  1  0.154100  0.367000  0.483800  1.0  0.1055
  H  H61  1  0.915100  0.095200  0.399000  1.0  0.0933
  H  H62  1  0.463300  0.000600  0.442900  1.0  0.0902
  H  H63  1  0.408500  0.191800  0.196100  1.0  0.1131
  H  H64  1  0.385100  0.308800  0.347400  1.0  0.0812
  H  H65  1  0.131300  0.322200  0.289800  1.0  0.113
  H  H66  1  0.670300  0.176500  0.251700  1.0  0.1101
  H  H67  1  0.826300  0.360800  0.279400  1.0  0.1185
  H  H68  1  0.086900  0.176600  0.393500  1.0  0.0816
  H  H69  1  0.560300  0.375300  0.224700  1.0  0.1006
  H  H70  1  0.827400  0.187200  0.337600  1.0  0.116
  H  H71  1  0.919900  0.867300  0.481300  1.0  0.1124
  H  H72  1  0.247400  0.917200  0.361000  1.0  0.1187
  H  H73  1  0.454900  0.833500  0.360500  1.0  0.0889
  H  H74  1  0.123100  0.011300  0.395800  1.0  0.1138
  H  H75  1  0.141400  0.788100  0.479200  1.0  0.0834
  H  H76  1  0.674200  0.918600  0.445900  1.0  0.1029
  H  H77  1  0.965800  0.582100  0.393400  1.0  0.1153
  H  H78  1  0.121200  0.674100  0.391900  1.0  0.0766
  H  H79  1  0.320300  0.451900  0.467500  1.0  0.0985
  H  H80  1  0.859400  0.487600  0.375700  1.0  0.1104
  H  H81  1  0.628700  0.611200  0.430100  1.0  0.0769
  H  H82  1  0.488100  0.515100  0.431600  1.0  0.1111
  H  H83  1  0.460000  0.219000  0.505000  1.0  0.1699
  H  H84  1  0.190900  0.596900  0.107500  1.0  0.1076
  H  H85  1  0.654100  0.633000  0.016200  1.0  0.105
  H  H86  1  0.415100  0.904800  0.101000  1.0  0.0932
  H  H87  1  0.963300  0.999400  0.057100  1.0  0.0907
  H  H88  1  0.908500  0.808200  0.303900  1.0  0.1137
  H  H89  1  0.885100  0.691200  0.152600  1.0  0.0815
  H  H90  1  0.631300  0.677800  0.210200  1.0  0.1129
  H  H91  1  0.170300  0.823500  0.248300  1.0  0.1095
  H  H92  1  0.326300  0.639200  0.220600  1.0  0.1182
  H  H93  1  0.586900  0.823400  0.106500  1.0  0.0817
  H  H94  1  0.060300  0.624700  0.275300  1.0  0.1006
  H  H95  1  0.327400  0.812800  0.162400  1.0  0.116
  H  H96  1  0.419900  0.132700  0.018700  1.0  0.112
  H  H97  1  0.747400  0.082800  0.139000  1.0  0.1192
  H  H98  1  0.954900  0.166500  0.139500  1.0  0.0892
  H  H99  1  0.623100  0.988700  0.104200  1.0  0.1141
  H  H100  1  0.641400  0.211900  0.020800  1.0  0.0836
  H  H101  1  0.174200  0.081400  0.054100  1.0  0.1031
  H  H102  1  0.465800  0.417900  0.106600  1.0  0.1157
  H  H103  1  0.621200  0.325900  0.108100  1.0  0.077
  H  H104  1  0.820300  0.548100  0.032500  1.0  0.0981
  H  H105  1  0.359400  0.512400  0.124300  1.0  0.1103
  H  H106  1  0.128700  0.388800  0.069900  1.0  0.0769
  H  H107  1  0.988100  0.484900  0.068400  1.0  0.1116
  H  H108  1  0.960000  0.781000  0.995000  1.0  0.1703
  C  C109  1  0.466300  0.887900  0.575100  1.0  0.6649
  C  C110  1  0.096300  0.623400  0.559900  1.0  -0.1162
  C  C111  1  0.203400  0.678600  0.548300  1.0  0.6552
  C  C112  1  0.180900  0.587000  0.592100  1.0  -0.092
  C  C113  1  0.906800  0.608100  0.538000  1.0  -0.0677
  C  C114  1  0.332300  0.943100  0.578100  1.0  -0.1046
  C  C115  1  0.700800  0.705400  0.834600  1.0  0.6797
  C  C116  1  0.135500  0.941300  0.592000  1.0  -0.0514
  C  C117  1  0.400800  0.996300  0.565500  1.0  -0.0866
  C  C118  1  0.538700  0.715200  0.796000  1.0  -0.1487
  C  C119  1  0.506500  0.774100  0.787100  1.0  -0.0854
  C  C120  1  0.052200  0.743000  0.692500  1.0  0.0811
  C  C121  1  0.730700  0.716000  0.654300  1.0  0.1688
  C  C122  1  0.881200  0.707800  0.688700  1.0  -0.2072
  C  C123  1  0.221800  0.733100  0.727700  1.0  0.0318
  C  C124  1  0.351200  0.783000  0.753900  1.0  -0.1284
  C  C125  1  0.257800  0.673500  0.737100  1.0  -0.1627
  C  C126  1  0.905200  0.792900  0.627600  1.0  0.1773
  C  C127  1  0.414800  0.665300  0.770000  1.0  -0.0296
  C  C128  1  0.059300  0.787000  0.660800  1.0  -0.1971
  C  C129  1  0.943600  0.097100  0.578800  1.0  0.0918
  C  C130  1  0.970200  0.138000  0.543600  1.0  -0.1974
  C  C131  1  0.779100  0.108900  0.614500  1.0  -0.1973
  C  C132  1  0.654100  0.158900  0.614200  1.0  0.181
  C  C133  1  0.078800  0.044200  0.578600  1.0  0.0541
  C  C134  1  0.010600  0.990900  0.593300  1.0  -0.1607
  C  C135  1  0.837700  0.185500  0.545400  1.0  0.1621
  C  C136  1  0.275300  0.045800  0.564600  1.0  -0.1302
  C  C137  1  0.897000  0.413400  0.598700  1.0  -0.2098
  C  C138  1  0.792500  0.462800  0.585800  1.0  0.0856
  C  C139  1  0.803100  0.358700  0.599900  1.0  0.1705
  C  C140  1  0.892900  0.519800  0.579400  1.0  0.0204
  C  C141  1  0.808400  0.557700  0.547700  1.0  -0.1131
  C  C142  1  0.080500  0.536500  0.601700  1.0  -0.1387
  C  C143  1  0.508000  0.395200  0.577800  1.0  0.1803
  C  C144  1  0.592100  0.452700  0.576200  1.0  -0.1903
  C  C145  1  0.966300  0.112100  0.924900  1.0  0.6643
  C  C146  1  0.596300  0.376600  0.940100  1.0  -0.1167
  C  C147  1  0.703400  0.321400  0.951700  1.0  0.6558
  C  C148  1  0.680900  0.413000  0.907900  1.0  -0.0923
  C  C149  1  0.406800  0.391900  0.962000  1.0  -0.0683
  C  C150  1  0.832300  0.056900  0.921900  1.0  -0.1079
  C  C151  1  0.200800  0.294600  0.665400  1.0  0.6797
  C  C152  1  0.635500  0.058700  0.908000  1.0  -0.0513
  C  C153  1  0.900800  0.003700  0.934500  1.0  -0.0865
  C  C154  1  0.038700  0.284800  0.704000  1.0  -0.1495
  C  C155  1  0.006500  0.225900  0.712900  1.0  -0.085
  C  C156  1  0.552200  0.257000  0.807500  1.0  0.0828
  C  C157  1  0.230700  0.284000  0.845700  1.0  0.1694
  C  C158  1  0.381200  0.292200  0.811300  1.0  -0.2064
  C  C159  1  0.721800  0.266900  0.772300  1.0  0.0319
  C  C160  1  0.851200  0.217000  0.746100  1.0  -0.1274
  C  C161  1  0.757800  0.326500  0.762900  1.0  -0.1632
  C  C162  1  0.405200  0.207100  0.872400  1.0  0.177
  C  C163  1  0.914800  0.334700  0.730000  1.0  -0.0271
  C  C164  1  0.559300  0.213000  0.839200  1.0  -0.1981
  C  C165  1  0.443600  0.902900  0.921200  1.0  0.0911
  C  C166  1  0.470200  0.862000  0.956400  1.0  -0.197
  C  C167  1  0.279100  0.891100  0.885500  1.0  -0.2004
  C  C168  1  0.154100  0.841100  0.885800  1.0  0.1811
  C  C169  1  0.578800  0.955800  0.921400  1.0  0.0535
  C  C170  1  0.510600  0.009100  0.906700  1.0  -0.1595
  C  C171  1  0.337700  0.814500  0.954600  1.0  0.1625
  C  C172  1  0.775300  0.954200  0.935400  1.0  -0.1305
  C  C173  1  0.397000  0.586600  0.901300  1.0  -0.2108
  C  C174  1  0.292500  0.537200  0.914200  1.0  0.0855
  C  C175  1  0.303100  0.641300  0.900100  1.0  0.1706
  C  C176  1  0.392900  0.480200  0.920600  1.0  0.0198
  C  C177  1  0.308400  0.442300  0.952300  1.0  -0.1137
  C  C178  1  0.580500  0.463500  0.898300  1.0  -0.1402
  C  C179  1  0.008000  0.604800  0.922200  1.0  0.1799
  C  C180  1  0.092100  0.547300  0.923800  1.0  -0.1907
  C  C181  1  0.533700  0.112100  0.424900  1.0  0.6634
  C  C182  1  0.903700  0.376600  0.440100  1.0  -0.117
  C  C183  1  0.796600  0.321400  0.451700  1.0  0.6569
  C  C184  1  0.819100  0.413000  0.407900  1.0  -0.091
  C  C185  1  0.093200  0.391900  0.462000  1.0  -0.0695
  C  C186  1  0.667700  0.056900  0.421900  1.0  -0.1078
  C  C187  1  0.299200  0.294600  0.165400  1.0  0.6793
  C  C188  1  0.864500  0.058700  0.408000  1.0  -0.0522
  C  C189  1  0.599200  0.003700  0.434500  1.0  -0.0857
  C  C190  1  0.461300  0.284800  0.204000  1.0  -0.1516
  C  C191  1  0.493500  0.225900  0.212900  1.0  -0.0848
  C  C192  1  0.947800  0.257000  0.307500  1.0  0.083
  C  C193  1  0.269300  0.284000  0.345700  1.0  0.169
  C  C194  1  0.118800  0.292200  0.311300  1.0  -0.2067
  C  C195  1  0.778200  0.266900  0.272300  1.0  0.0323
  C  C196  1  0.648800  0.217000  0.246100  1.0  -0.1271
  C  C197  1  0.742200  0.326500  0.262900  1.0  -0.1635
  C  C198  1  0.094800  0.207100  0.372400  1.0  0.1782
  C  C199  1  0.585200  0.334700  0.230000  1.0  -0.0276
  C  C200  1  0.940700  0.213000  0.339200  1.0  -0.1973
  C  C201  1  0.056400  0.902900  0.421200  1.0  0.0911
  C  C202  1  0.029800  0.862000  0.456400  1.0  -0.1968
  C  C203  1  0.220900  0.891100  0.385500  1.0  -0.2007
  C  C204  1  0.345900  0.841100  0.385800  1.0  0.1807
  C  C205  1  0.921200  0.955800  0.421400  1.0  0.0533
  C  C206  1  0.989400  0.009100  0.406700  1.0  -0.16
  C  C207  1  0.162300  0.814500  0.454600  1.0  0.1635
  C  C208  1  0.724700  0.954200  0.435400  1.0  -0.1294
  C  C209  1  0.103000  0.586600  0.401300  1.0  -0.21
  C  C210  1  0.207500  0.537200  0.414200  1.0  0.0856
  C  C211  1  0.196900  0.641300  0.400100  1.0  0.171
  C  C212  1  0.107100  0.480200  0.420600  1.0  0.0187
  C  C213  1  0.191600  0.442300  0.452300  1.0  -0.1154
  C  C214  1  0.919500  0.463500  0.398300  1.0  -0.1388
  C  C215  1  0.492000  0.604800  0.422200  1.0  0.1788
  C  C216  1  0.407900  0.547300  0.423800  1.0  -0.1908
  C  C217  1  0.033700  0.887900  0.075100  1.0  0.6616
  C  C218  1  0.403700  0.623400  0.059900  1.0  -0.1169
  C  C219  1  0.296600  0.678600  0.048300  1.0  0.6562
  C  C220  1  0.319100  0.587000  0.092100  1.0  -0.0908
  C  C221  1  0.593200  0.608100  0.038000  1.0  -0.069
  C  C222  1  0.167700  0.943100  0.078100  1.0  -0.1046
  C  C223  1  0.799200  0.705400  0.334600  1.0  0.679
  C  C224  1  0.364500  0.941300  0.092000  1.0  -0.0522
  C  C225  1  0.099200  0.996300  0.065500  1.0  -0.0844
  C  C226  1  0.961300  0.715200  0.296000  1.0  -0.1511
  C  C227  1  0.993500  0.774100  0.287100  1.0  -0.0857
  C  C228  1  0.447800  0.743000  0.192500  1.0  0.0816
  C  C229  1  0.769300  0.716000  0.154300  1.0  0.1686
  C  C230  1  0.618800  0.707800  0.188700  1.0  -0.2074
  C  C231  1  0.278200  0.733100  0.227700  1.0  0.0323
  C  C232  1  0.148800  0.783000  0.253900  1.0  -0.1281
  C  C233  1  0.242200  0.673500  0.237100  1.0  -0.1637
  C  C234  1  0.594800  0.792900  0.127600  1.0  0.1782
  C  C235  1  0.085200  0.665300  0.270000  1.0  -0.029
  C  C236  1  0.440700  0.787000  0.160800  1.0  -0.1974
  C  C237  1  0.556400  0.097100  0.078800  1.0  0.092
  C  C238  1  0.529800  0.138000  0.043600  1.0  -0.1974
  C  C239  1  0.720900  0.108900  0.114500  1.0  -0.197
  C  C240  1  0.845900  0.158900  0.114200  1.0  0.1814
  C  C241  1  0.421200  0.044200  0.078600  1.0  0.0534
  C  C242  1  0.489400  0.990900  0.093300  1.0  -0.1597
  C  C243  1  0.662300  0.185500  0.045400  1.0  0.1631
  C  C244  1  0.224700  0.045800  0.064600  1.0  -0.1287
  C  C245  1  0.603000  0.413400  0.098700  1.0  -0.2096
  C  C246  1  0.707500  0.462800  0.085800  1.0  0.0856
  C  C247  1  0.696900  0.358700  0.099900  1.0  0.1704
  C  C248  1  0.607100  0.519800  0.079400  1.0  0.0197
  C  C249  1  0.691600  0.557700  0.047700  1.0  -0.1144
  C  C250  1  0.419500  0.536500  0.101700  1.0  -0.1374
  C  C251  1  0.992000  0.395200  0.077800  1.0  0.1789
  C  C252  1  0.907900  0.452700  0.076200  1.0  -0.1899
  N  N253  1  0.739900  0.757500  0.622920  1.0  -0.363
  N  N254  1  0.680600  0.196700  0.579780  1.0  -0.329
  N  N255  1  0.610800  0.349300  0.590020  1.0  -0.3189
  N  N256  1  0.239900  0.242500  0.877080  1.0  -0.3634
  N  N257  1  0.180600  0.803300  0.920220  1.0  -0.3292
  N  N258  1  0.110800  0.650700  0.909980  1.0  -0.3187
  N  N259  1  0.260100  0.242500  0.377080  1.0  -0.3619
  N  N260  1  0.319400  0.803300  0.420220  1.0  -0.3276
  N  N261  1  0.389200  0.650700  0.409980  1.0  -0.3183
  N  N262  1  0.760100  0.757500  0.122920  1.0  -0.3628
  N  N263  1  0.819400  0.196700  0.079780  1.0  -0.3287
  N  N264  1  0.889200  0.349300  0.090020  1.0  -0.3185
  O  O265  1  0.373400  0.689270  0.571290  1.0  -0.6089
  O  O266  1  0.381000  0.838930  0.581910  1.0  -0.6075
  O  O267  1  0.658500  0.744250  0.489630  1.0  -0.6242
  O  O268  1  0.800900  0.752800  0.860380  1.0  -0.6058
  O  O269  1  0.123300  0.710360  0.519390  1.0  -0.5578
  O  O270  1  0.728000  0.651500  0.840900  1.0  -0.5517
  O  O271  1  0.643800  0.891100  0.565400  1.0  -0.5726
  O  O272  1  0.873400  0.310730  0.928710  1.0  -0.6091
  O  O273  1  0.881000  0.161070  0.918090  1.0  -0.6078
  O  O274  1  0.158500  0.255750  0.010370  1.0  -0.6248
  O  O275  1  0.300900  0.247200  0.639620  1.0  -0.606
  O  O276  1  0.623300  0.289640  0.980610  1.0  -0.5566
  O  O277  1  0.228000  0.348500  0.659100  1.0  -0.5519
  O  O278  1  0.143800  0.108900  0.934600  1.0  -0.5726
  O  O279  1  0.626600  0.310730  0.428710  1.0  -0.6087
  O  O280  1  0.619000  0.161070  0.418090  1.0  -0.607
  O  O281  1  0.341500  0.255750  0.510370  1.0  -0.6243
  O  O282  1  0.199100  0.247200  0.139620  1.0  -0.6045
  O  O283  1  0.876700  0.289640  0.480610  1.0  -0.5564
  O  O284  1  0.272000  0.348500  0.159100  1.0  -0.553
  O  O285  1  0.356200  0.108900  0.434600  1.0  -0.5711
  O  O286  1  0.126600  0.689270  0.071290  1.0  -0.6083
  O  O287  1  0.119000  0.838930  0.081910  1.0  -0.607
  O  O288  1  0.841500  0.744250  0.989630  1.0  -0.6242
  O  O289  1  0.699100  0.752800  0.360380  1.0  -0.6044
  O  O290  1  0.376700  0.710360  0.019390  1.0  -0.5573
  O  O291  1  0.772000  0.651500  0.340900  1.0  -0.552
  O  O292  1  0.856200  0.891100  0.065400  1.0  -0.5718
