# generated using pymatgen
data_ZnH8C13NO4
_symmetry_space_group_name_H-M   'P 1'
_cell_length_a   7.79110000
_cell_length_b   9.29840000
_cell_length_c   10.62840000
_cell_angle_alpha   65.32000000
_cell_angle_beta   86.19900000
_cell_angle_gamma   78.14500000
_symmetry_Int_Tables_number   1
_chemical_formula_structural   ZnH8C13NO4
_chemical_formula_sum   'Zn2 H16 C26 N2 O8'
_cell_volume   684.55078865
_cell_formula_units_Z   2
loop_
 _symmetry_equiv_pos_site_id
 _symmetry_equiv_pos_as_xyz
  1  'x, y, z'
loop_
 _atom_site_type_symbol
 _atom_site_label
 _atom_site_symmetry_multiplicity
 _atom_site_fract_x
 _atom_site_fract_y
 _atom_site_fract_z
 _atom_site_occupancy
 _atom_site_charge
  Zn  Zn1  1  0.364880  0.436750  0.455890  1.0  0.9374
  Zn  Zn2  1  0.635120  0.563250  0.544110  1.0  0.9366
  H  H3  1  0.070200  0.188500  0.572200  1.0  0.104
  H  H4  1  0.718200  0.037700  0.411400  1.0  0.1091
  H  H5  1  0.354800  0.243500  0.288400  1.0  0.0926
  H  H6  1  0.204800  0.269200  0.098900  1.0  0.1097
  H  H7  1  0.299000  0.004000  0.842000  1.0  0.108
  H  H8  1  0.016000  0.592000  0.322000  1.0  0.0918
  H  H9  1  0.653000  0.207000  0.928000  1.0  0.0988
  H  H10  1  0.877000  0.621000  0.125000  1.0  0.1259
  H  H11  1  0.929800  0.811500  0.427800  1.0  0.1037
  H  H12  1  0.281800  0.962300  0.588600  1.0  0.1095
  H  H13  1  0.645200  0.756500  0.711600  1.0  0.0924
  H  H14  1  0.795200  0.730800  0.901100  1.0  0.11
  H  H15  1  0.701000  0.996000  0.158000  1.0  0.1097
  H  H16  1  0.984000  0.408000  0.678000  1.0  0.0913
  H  H17  1  0.347000  0.793000  0.072000  1.0  0.098
  H  H18  1  0.123000  0.379000  0.875000  1.0  0.1254
  C  C19  1  0.438300  0.267200  0.729100  1.0  0.6645
  C  C20  1  0.467600  0.129200  0.870400  1.0  -0.1423
  C  C21  1  0.375800  0.005000  0.909900  1.0  -0.0956
  C  C22  1  0.591700  0.123700  0.961300  1.0  -0.0554
  C  C23  1  0.739800  0.279700  0.479400  1.0  0.6691
  C  C24  1  0.042300  0.112400  0.542800  1.0  -0.0463
  C  C25  1  0.832500  0.022300  0.446900  1.0  -0.0408
  C  C26  1  0.260300  0.332300  0.249000  1.0  0.1536
  C  C27  1  0.175000  0.350300  0.133200  1.0  -0.1882
  C  C28  1  0.045000  0.485100  0.064900  1.0  0.0862
  C  C29  1  0.974100  0.559400  0.147800  1.0  -0.1323
  C  C30  1  0.062200  0.531400  0.266300  1.0  0.1393
  C  C31  1  0.874800  0.135600  0.488800  1.0  -0.1242
  C  C32  1  0.561700  0.732800  0.270900  1.0  0.6632
  C  C33  1  0.532400  0.870800  0.129600  1.0  -0.1426
  C  C34  1  0.624200  0.995000  0.090100  1.0  -0.0932
  C  C35  1  0.408300  0.876300  0.038700  1.0  -0.0548
  C  C36  1  0.260200  0.720300  0.520600  1.0  0.6698
  C  C37  1  0.957700  0.887600  0.457200  1.0  -0.0457
  C  C38  1  0.167500  0.977700  0.553100  1.0  -0.0431
  C  C39  1  0.739700  0.667700  0.751000  1.0  0.1545
  C  C40  1  0.825000  0.649700  0.866800  1.0  -0.1888
  C  C41  1  0.955000  0.514900  0.935100  1.0  0.086
  C  C42  1  0.025900  0.440600  0.852200  1.0  -0.1329
  C  C43  1  0.937800  0.468600  0.733700  1.0  0.1403
  C  C44  1  0.125200  0.864400  0.511200  1.0  -0.1245
  N  N45  1  0.215500  0.434200  0.307100  1.0  -0.3065
  N  N46  1  0.784500  0.565800  0.692900  1.0  -0.3065
  O  O47  1  0.327600  0.266900  0.648700  1.0  -0.5732
  O  O48  1  0.528300  0.373400  0.700800  1.0  -0.621
  O  O49  1  0.584200  0.284200  0.446000  1.0  -0.5884
  O  O50  1  0.789700  0.383800  0.509000  1.0  -0.5758
  O  O51  1  0.672400  0.733100  0.351300  1.0  -0.5731
  O  O52  1  0.471700  0.626600  0.299200  1.0  -0.6213
  O  O53  1  0.415800  0.715800  0.554000  1.0  -0.5888
  O  O54  1  0.210300  0.616200  0.491000  1.0  -0.575
