# generated using pymatgen
data_Al3P3O13
_symmetry_space_group_name_H-M   'P 1'
_cell_length_a   13.57920000
_cell_length_b   10.35110000
_cell_length_c   17.46550000
_cell_angle_alpha   90.00000000
_cell_angle_beta   90.00000000
_cell_angle_gamma   90.00000000
_symmetry_Int_Tables_number   1
_chemical_formula_structural   Al3P3O13
_chemical_formula_sum   'Al24 P24 O104'
_cell_volume   2454.94469143
_cell_formula_units_Z   8
loop_
 _symmetry_equiv_pos_site_id
 _symmetry_equiv_pos_as_xyz
  1  'x, y, z'
loop_
 _atom_site_type_symbol
 _atom_site_label
 _atom_site_symmetry_multiplicity
 _atom_site_fract_x
 _atom_site_fract_y
 _atom_site_fract_z
 _atom_site_occupancy
 _atom_site_charge
  Al  Al1  1  0.560950  0.125500  0.606900  1.0  1.9738
  Al  Al2  1  0.484050  0.173300  0.800270  1.0  1.8573
  Al  Al3  1  0.238530  0.367100  0.694860  1.0  2.04
  Al  Al4  1  0.939050  0.874500  0.106900  1.0  1.9715
  Al  Al5  1  0.015950  0.826700  0.300270  1.0  1.855
  Al  Al6  1  0.261470  0.632900  0.194860  1.0  2.0405
  Al  Al7  1  0.439050  0.625500  0.893100  1.0  1.9708
  Al  Al8  1  0.515950  0.673300  0.699730  1.0  1.8599
  Al  Al9  1  0.761470  0.867100  0.805140  1.0  2.0417
  Al  Al10  1  0.060950  0.374500  0.393100  1.0  1.9732
  Al  Al11  1  0.984050  0.326700  0.199730  1.0  1.8567
  Al  Al12  1  0.738530  0.132900  0.305140  1.0  2.041
  Al  Al13  1  0.439050  0.874500  0.393100  1.0  1.9711
  Al  Al14  1  0.515950  0.826700  0.199730  1.0  1.8571
  Al  Al15  1  0.761470  0.632900  0.305140  1.0  2.0416
  Al  Al16  1  0.060950  0.125500  0.893100  1.0  1.9725
  Al  Al17  1  0.984050  0.173300  0.699730  1.0  1.8593
  Al  Al18  1  0.738530  0.367100  0.805140  1.0  2.041
  Al  Al19  1  0.560950  0.374500  0.106900  1.0  1.9739
  Al  Al20  1  0.484050  0.326700  0.300270  1.0  1.8543
  Al  Al21  1  0.238530  0.132900  0.194860  1.0  2.04
  Al  Al22  1  0.939050  0.625500  0.606900  1.0  1.9717
  Al  Al23  1  0.015950  0.673300  0.800270  1.0  1.8576
  Al  Al24  1  0.261470  0.867100  0.694860  1.0  2.0405
  P  P25  1  0.566980  0.132960  0.422900  1.0  1.9216
  P  P26  1  0.466680  0.373220  0.669330  1.0  1.8849
  P  P27  1  0.753000  0.126370  0.706480  1.0  1.9757
  P  P28  1  0.933020  0.867040  0.922900  1.0  1.9213
  P  P29  1  0.033320  0.626780  0.169330  1.0  1.8854
  P  P30  1  0.747000  0.873630  0.206480  1.0  1.9747
  P  P31  1  0.433020  0.632960  0.077100  1.0  1.9219
  P  P32  1  0.533320  0.873220  0.830670  1.0  1.8858
  P  P33  1  0.247000  0.626370  0.793520  1.0  1.9745
  P  P34  1  0.066980  0.367040  0.577100  1.0  1.9221
  P  P35  1  0.966680  0.126780  0.330670  1.0  1.8861
  P  P36  1  0.253000  0.373630  0.293520  1.0  1.9748
  P  P37  1  0.433020  0.867040  0.577100  1.0  1.9219
  P  P38  1  0.533320  0.626780  0.330670  1.0  1.8861
  P  P39  1  0.247000  0.873630  0.293520  1.0  1.974
  P  P40  1  0.066980  0.132960  0.077100  1.0  1.9223
  P  P41  1  0.966680  0.373220  0.830670  1.0  1.8857
  P  P42  1  0.253000  0.126370  0.793520  1.0  1.9748
  P  P43  1  0.566980  0.367040  0.922900  1.0  1.9213
  P  P44  1  0.466680  0.126780  0.169330  1.0  1.8854
  P  P45  1  0.753000  0.373630  0.206480  1.0  1.9739
  P  P46  1  0.933020  0.632960  0.422900  1.0  1.9213
  P  P47  1  0.033320  0.873220  0.669330  1.0  1.8851
  P  P48  1  0.747000  0.626370  0.706480  1.0  1.9734
  O  O49  1  0.658800  0.088800  0.377700  1.0  -0.9094
  O  O50  1  0.531200  0.260200  0.388800  1.0  -0.8972
  O  O51  1  0.597100  0.153200  0.506100  1.0  -0.8954
  O  O52  1  0.487000  0.030000  0.417100  1.0  -0.9379
  O  O53  1  0.519100  0.289800  0.609100  1.0  -0.829
  O  O54  1  0.494400  0.334300  0.751100  1.0  -0.8125
  O  O55  1  0.356000  0.355600  0.656100  1.0  -0.9976
  O  O56  1  0.495600  0.512900  0.655000  1.0  -0.8829
  O  O57  1  0.853100  0.179600  0.685100  1.0  -0.9621
  O  O58  1  0.762200  0.987000  0.735500  1.0  -0.971
  O  O59  1  0.688800  0.123500  0.634600  1.0  -0.9086
  O  O60  1  0.706100  0.213700  0.768600  1.0  -0.8592
  O  O61  1  0.509800  0.098400  0.706600  1.0  -0.7829
  O  O62  1  0.841200  0.911200  0.877700  1.0  -0.9074
  O  O63  1  0.968800  0.739800  0.888800  1.0  -0.8964
  O  O64  1  0.902900  0.846800  0.006100  1.0  -0.8957
  O  O65  1  0.013000  0.970000  0.917100  1.0  -0.9391
  O  O66  1  0.980900  0.710200  0.109100  1.0  -0.83
  O  O67  1  0.005600  0.665700  0.251100  1.0  -0.8127
  O  O68  1  0.144000  0.644400  0.156100  1.0  -0.9973
  O  O69  1  0.004400  0.487100  0.155000  1.0  -0.8835
  O  O70  1  0.646900  0.820400  0.185100  1.0  -0.9633
  O  O71  1  0.737800  0.013000  0.235500  1.0  -0.9714
  O  O72  1  0.811200  0.876500  0.134600  1.0  -0.9095
  O  O73  1  0.793900  0.786300  0.268600  1.0  -0.8592
  O  O74  1  0.990200  0.901600  0.206600  1.0  -0.7835
  O  O75  1  0.341200  0.588800  0.122300  1.0  -0.9075
  O  O76  1  0.468800  0.760200  0.111200  1.0  -0.8975
  O  O77  1  0.402900  0.653200  0.993900  1.0  -0.8947
  O  O78  1  0.513000  0.530000  0.082900  1.0  -0.9392
  O  O79  1  0.480900  0.789800  0.890900  1.0  -0.8315
  O  O80  1  0.505600  0.834300  0.748900  1.0  -0.8128
  O  O81  1  0.644000  0.855600  0.843900  1.0  -0.9979
  O  O82  1  0.504400  0.012900  0.845000  1.0  -0.8852
  O  O83  1  0.146900  0.679600  0.814900  1.0  -0.9628
  O  O84  1  0.237800  0.487000  0.764500  1.0  -0.9712
  O  O85  1  0.311200  0.623500  0.865400  1.0  -0.911
  O  O86  1  0.293900  0.713700  0.731400  1.0  -0.8586
  O  O87  1  0.490200  0.598400  0.793400  1.0  -0.784
  O  O88  1  0.158800  0.411200  0.622300  1.0  -0.9089
  O  O89  1  0.031200  0.239800  0.611200  1.0  -0.8973
  O  O90  1  0.097100  0.346800  0.493900  1.0  -0.8942
  O  O91  1  0.987000  0.470000  0.582900  1.0  -0.9386
  O  O92  1  0.019100  0.210200  0.390900  1.0  -0.8313
  O  O93  1  0.994400  0.165700  0.248900  1.0  -0.8132
  O  O94  1  0.856000  0.144400  0.343900  1.0  -0.9989
  O  O95  1  0.995600  0.987100  0.345000  1.0  -0.8847
  O  O96  1  0.353100  0.320400  0.314900  1.0  -0.9631
  O  O97  1  0.262200  0.513000  0.264500  1.0  -0.971
  O  O98  1  0.188800  0.376500  0.365400  1.0  -0.9091
  O  O99  1  0.206100  0.286300  0.231400  1.0  -0.8587
  O  O100  1  0.009800  0.401600  0.293400  1.0  -0.7835
  O  O101  1  0.341200  0.911200  0.622300  1.0  -0.9069
  O  O102  1  0.468800  0.739800  0.611200  1.0  -0.8994
  O  O103  1  0.402900  0.846800  0.493900  1.0  -0.8944
  O  O104  1  0.513000  0.970000  0.582900  1.0  -0.9392
  O  O105  1  0.480900  0.710200  0.390900  1.0  -0.8318
  O  O106  1  0.505600  0.665700  0.248900  1.0  -0.8134
  O  O107  1  0.644000  0.644400  0.343900  1.0  -0.9974
  O  O108  1  0.504400  0.487100  0.345000  1.0  -0.8856
  O  O109  1  0.146900  0.820400  0.314900  1.0  -0.9638
  O  O110  1  0.237800  0.013000  0.264500  1.0  -0.9714
  O  O111  1  0.311200  0.876500  0.365400  1.0  -0.9111
  O  O112  1  0.293900  0.786300  0.231400  1.0  -0.8586
  O  O113  1  0.490200  0.901600  0.293400  1.0  -0.7842
  O  O114  1  0.158800  0.088800  0.122300  1.0  -0.9093
  O  O115  1  0.031200  0.260200  0.111200  1.0  -0.9002
  O  O116  1  0.097100  0.153200  0.993900  1.0  -0.8945
  O  O117  1  0.987000  0.030000  0.082900  1.0  -0.9384
  O  O118  1  0.019100  0.289800  0.890900  1.0  -0.8311
  O  O119  1  0.994400  0.334300  0.748900  1.0  -0.8132
  O  O120  1  0.856000  0.355600  0.843900  1.0  -0.9985
  O  O121  1  0.995600  0.512900  0.845000  1.0  -0.8851
  O  O122  1  0.353100  0.179600  0.814900  1.0  -0.9633
  O  O123  1  0.262200  0.987000  0.764500  1.0  -0.9711
  O  O124  1  0.188800  0.123500  0.865400  1.0  -0.9091
  O  O125  1  0.206100  0.213700  0.731400  1.0  -0.8586
  O  O126  1  0.009800  0.098400  0.793400  1.0  -0.7836
  O  O127  1  0.658800  0.411200  0.877700  1.0  -0.9087
  O  O128  1  0.531200  0.239800  0.888800  1.0  -0.9
  O  O129  1  0.597100  0.346800  0.006100  1.0  -0.8951
  O  O130  1  0.487000  0.470000  0.917100  1.0  -0.9381
  O  O131  1  0.519100  0.210200  0.109100  1.0  -0.8293
  O  O132  1  0.494400  0.165700  0.251100  1.0  -0.8133
  O  O133  1  0.356000  0.144400  0.156100  1.0  -0.9979
  O  O134  1  0.495600  0.987100  0.155000  1.0  -0.8835
  O  O135  1  0.853100  0.320400  0.185100  1.0  -0.9626
  O  O136  1  0.762200  0.513000  0.235500  1.0  -0.9711
  O  O137  1  0.688800  0.376500  0.134600  1.0  -0.9085
  O  O138  1  0.706100  0.286300  0.268600  1.0  -0.8593
  O  O139  1  0.509800  0.401600  0.206600  1.0  -0.783
  O  O140  1  0.841200  0.588800  0.377700  1.0  -0.9074
  O  O141  1  0.968800  0.760200  0.388800  1.0  -0.8998
  O  O142  1  0.902900  0.653200  0.506100  1.0  -0.8959
  O  O143  1  0.013000  0.530000  0.417100  1.0  -0.9391
  O  O144  1  0.980900  0.789800  0.609100  1.0  -0.8295
  O  O145  1  0.005600  0.834300  0.751100  1.0  -0.8128
  O  O146  1  0.144000  0.855600  0.656100  1.0  -0.9977
  O  O147  1  0.004400  0.012900  0.655000  1.0  -0.883
  O  O148  1  0.646900  0.679600  0.685100  1.0  -0.9628
  O  O149  1  0.737800  0.487000  0.735500  1.0  -0.9712
  O  O150  1  0.811200  0.623500  0.634600  1.0  -0.9095
  O  O151  1  0.793900  0.713700  0.768600  1.0  -0.8592
  O  O152  1  0.990200  0.598400  0.706600  1.0  -0.7834
