# generated using pymatgen
data_Al3P3HO13
_symmetry_space_group_name_H-M   'P 1'
_cell_length_a   8.68680000
_cell_length_b   17.42800000
_cell_length_c   9.15890000
_cell_angle_alpha   90.00000000
_cell_angle_beta   109.60400000
_cell_angle_gamma   90.00000000
_symmetry_Int_Tables_number   1
_chemical_formula_structural   Al3P3HO13
_chemical_formula_sum   'Al12 P12 H4 O52'
_cell_volume   1306.22287031
_cell_formula_units_Z   4
loop_
 _symmetry_equiv_pos_site_id
 _symmetry_equiv_pos_as_xyz
  1  'x, y, z'
loop_
 _atom_site_type_symbol
 _atom_site_label
 _atom_site_symmetry_multiplicity
 _atom_site_fract_x
 _atom_site_fract_y
 _atom_site_fract_z
 _atom_site_occupancy
 _atom_site_charge
  Al  Al1  1  0.490300  0.831140  0.310300  1.0  1.949
  Al  Al2  1  0.361730  0.888680  0.836160  1.0  1.8414
  Al  Al3  1  0.435340  0.704020  0.702700  1.0  1.792
  Al  Al4  1  0.009700  0.331140  0.189700  1.0  1.9496
  Al  Al5  1  0.138270  0.388680  0.663840  1.0  1.8389
  Al  Al6  1  0.064660  0.204020  0.797300  1.0  1.7924
  Al  Al7  1  0.509700  0.168860  0.689700  1.0  1.9502
  Al  Al8  1  0.638270  0.111320  0.163840  1.0  1.8379
  Al  Al9  1  0.564660  0.295980  0.297300  1.0  1.7944
  Al  Al10  1  0.990300  0.668860  0.810300  1.0  1.9496
  Al  Al11  1  0.861730  0.611320  0.336160  1.0  1.84
  Al  Al12  1  0.935340  0.795980  0.202700  1.0  1.7942
  P  P13  1  0.203730  0.788320  0.027220  1.0  1.9426
  P  P14  1  0.340180  0.070400  0.868200  1.0  1.9847
  P  P15  1  0.252080  0.837690  0.494900  1.0  1.9292
  P  P16  1  0.296270  0.288320  0.472780  1.0  1.9426
  P  P17  1  0.159820  0.570400  0.631800  1.0  1.9927
  P  P18  1  0.247920  0.337690  0.005100  1.0  1.9292
  P  P19  1  0.796270  0.211680  0.972780  1.0  1.9427
  P  P20  1  0.659820  0.929600  0.131800  1.0  1.9922
  P  P21  1  0.747920  0.162310  0.505100  1.0  1.9291
  P  P22  1  0.703730  0.711680  0.527220  1.0  1.9427
  P  P23  1  0.840180  0.429600  0.368200  1.0  1.9849
  P  P24  1  0.752080  0.662310  0.994900  1.0  1.9292
  H  H25  1  0.550000  0.788000  0.898000  1.0  0.3989
  H  H26  1  0.950000  0.288000  0.602000  1.0  0.3974
  H  H27  1  0.450000  0.212000  0.102000  1.0  0.3977
  H  H28  1  0.050000  0.712000  0.398000  1.0  0.3993
  O  O29  1  0.280600  0.988190  0.840000  1.0  -0.8359
  O  O30  1  0.364700  0.773300  0.162100  1.0  -0.9034
  O  O31  1  0.164300  0.716370  0.925500  1.0  -0.9436
  O  O32  1  0.067100  0.805500  0.089300  1.0  -1.0187
  O  O33  1  0.190100  0.121100  0.819500  1.0  -0.9124
  O  O34  1  0.446800  0.088900  0.768000  1.0  -0.953
  O  O35  1  0.266700  0.890740  0.630200  1.0  -0.9141
  O  O36  1  0.273300  0.753760  0.544700  1.0  -0.8439
  O  O37  1  0.458000  0.790100  0.821200  1.0  -0.8629
  O  O38  1  0.085100  0.849040  0.372200  1.0  -0.8157
  O  O39  1  0.225900  0.856200  0.931900  1.0  -0.9548
  O  O40  1  0.440600  0.083200  0.037600  1.0  -0.9072
  O  O41  1  0.382700  0.862800  0.426800  1.0  -0.9739
  O  O42  1  0.219400  0.488190  0.660000  1.0  -0.8355
  O  O43  1  0.135300  0.273300  0.337900  1.0  -0.9039
  O  O44  1  0.335700  0.216370  0.574500  1.0  -0.9451
  O  O45  1  0.432900  0.305500  0.410700  1.0  -1.0184
  O  O46  1  0.309900  0.621100  0.680500  1.0  -0.9125
  O  O47  1  0.053200  0.588900  0.732000  1.0  -0.9549
  O  O48  1  0.233300  0.390740  0.869800  1.0  -0.913
  O  O49  1  0.226700  0.253760  0.955300  1.0  -0.8436
  O  O50  1  0.042000  0.290100  0.678800  1.0  -0.8608
  O  O51  1  0.414900  0.349040  0.127800  1.0  -0.8156
  O  O52  1  0.274100  0.356200  0.568100  1.0  -0.954
  O  O53  1  0.059400  0.583200  0.462400  1.0  -0.9073
  O  O54  1  0.117300  0.362800  0.073200  1.0  -0.9744
  O  O55  1  0.719400  0.011810  0.160000  1.0  -0.8361
  O  O56  1  0.635300  0.226700  0.837900  1.0  -0.9038
  O  O57  1  0.835700  0.283630  0.074500  1.0  -0.9448
  O  O58  1  0.932900  0.194500  0.910700  1.0  -1.021
  O  O59  1  0.809900  0.878900  0.180500  1.0  -0.912
  O  O60  1  0.553200  0.911100  0.232000  1.0  -0.9548
  O  O61  1  0.733300  0.109260  0.369800  1.0  -0.9121
  O  O62  1  0.726700  0.246240  0.455300  1.0  -0.8439
  O  O63  1  0.542000  0.209900  0.178800  1.0  -0.8611
  O  O64  1  0.914900  0.150960  0.627800  1.0  -0.8179
  O  O65  1  0.774100  0.143800  0.068100  1.0  -0.9544
  O  O66  1  0.559400  0.916800  0.962400  1.0  -0.9093
  O  O67  1  0.617300  0.137200  0.573200  1.0  -0.9709
  O  O68  1  0.780600  0.511810  0.340000  1.0  -0.8367
  O  O69  1  0.864700  0.726700  0.662100  1.0  -0.9035
  O  O70  1  0.664300  0.783630  0.425500  1.0  -0.9441
  O  O71  1  0.567100  0.694500  0.589300  1.0  -1.0198
  O  O72  1  0.690100  0.378900  0.319500  1.0  -0.913
  O  O73  1  0.946800  0.411100  0.268000  1.0  -0.9544
  O  O74  1  0.766700  0.609260  0.130200  1.0  -0.9126
  O  O75  1  0.773300  0.746240  0.044700  1.0  -0.8442
  O  O76  1  0.958000  0.709900  0.321200  1.0  -0.8634
  O  O77  1  0.585100  0.650960  0.872200  1.0  -0.8173
  O  O78  1  0.725900  0.643800  0.431900  1.0  -0.9552
  O  O79  1  0.940600  0.416800  0.537600  1.0  -0.9096
  O  O80  1  0.882700  0.637200  0.926800  1.0  -0.9705
