# generated using pymatgen
data_Al3P3O13
_symmetry_space_group_name_H-M   'P 1'
_cell_length_a   13.67800000
_cell_length_b   10.31800000
_cell_length_c   17.35700000
_cell_angle_alpha   90.00000000
_cell_angle_beta   90.00000000
_cell_angle_gamma   90.00000000
_symmetry_Int_Tables_number   1
_chemical_formula_structural   Al3P3O13
_chemical_formula_sum   'Al24 P24 O104'
_cell_volume   2449.58653663
_cell_formula_units_Z   8
loop_
 _symmetry_equiv_pos_site_id
 _symmetry_equiv_pos_as_xyz
  1  'x, y, z'
loop_
 _atom_site_type_symbol
 _atom_site_label
 _atom_site_symmetry_multiplicity
 _atom_site_fract_x
 _atom_site_fract_y
 _atom_site_fract_z
 _atom_site_occupancy
 _atom_site_charge
  Al  Al1  1  0.061490  0.374180  0.393020  1.0  1.9745
  Al  Al2  1  0.982190  0.327600  0.199280  1.0  1.8268
  Al  Al3  1  0.739270  0.129200  0.305030  1.0  2.0266
  Al  Al4  1  0.438510  0.625820  0.893020  1.0  1.9732
  Al  Al5  1  0.517810  0.672400  0.699280  1.0  1.8268
  Al  Al6  1  0.760730  0.870800  0.805030  1.0  2.0289
  Al  Al7  1  0.938510  0.874180  0.106980  1.0  1.9736
  Al  Al8  1  0.017810  0.827600  0.300720  1.0  1.8258
  Al  Al9  1  0.260730  0.629200  0.194970  1.0  2.0282
  Al  Al10  1  0.561490  0.125820  0.606980  1.0  1.9739
  Al  Al11  1  0.482190  0.172400  0.800720  1.0  1.8255
  Al  Al12  1  0.239270  0.370800  0.694970  1.0  2.0255
  Al  Al13  1  0.938510  0.625820  0.606980  1.0  1.973
  Al  Al14  1  0.017810  0.672400  0.800720  1.0  1.8255
  Al  Al15  1  0.260730  0.870800  0.694970  1.0  2.028
  Al  Al16  1  0.561490  0.374180  0.106980  1.0  1.9744
  Al  Al17  1  0.482190  0.327600  0.300720  1.0  1.8257
  Al  Al18  1  0.239270  0.129200  0.194970  1.0  2.0258
  Al  Al19  1  0.061490  0.125820  0.893020  1.0  1.9738
  Al  Al20  1  0.982190  0.172400  0.699280  1.0  1.8268
  Al  Al21  1  0.739270  0.370800  0.805030  1.0  2.0263
  Al  Al22  1  0.438510  0.874180  0.393020  1.0  1.9737
  Al  Al23  1  0.517810  0.827600  0.199280  1.0  1.8269
  Al  Al24  1  0.760730  0.629200  0.305030  1.0  2.0291
  P  P25  1  0.932970  0.631410  0.421900  1.0  2.0202
  P  P26  1  0.964200  0.126160  0.332450  1.0  1.9079
  P  P27  1  0.253180  0.371770  0.294460  1.0  2.0588
  P  P28  1  0.567030  0.368590  0.921900  1.0  2.0203
  P  P29  1  0.535800  0.873840  0.832450  1.0  1.9078
  P  P30  1  0.246820  0.628230  0.794460  1.0  2.0585
  P  P31  1  0.067030  0.131410  0.078100  1.0  2.0218
  P  P32  1  0.035800  0.626160  0.167550  1.0  1.906
  P  P33  1  0.746820  0.871770  0.205540  1.0  2.0574
  P  P34  1  0.432970  0.868590  0.578100  1.0  2.0215
  P  P35  1  0.464200  0.373840  0.667550  1.0  1.9059
  P  P36  1  0.753180  0.128230  0.705540  1.0  2.0583
  P  P37  1  0.067030  0.368590  0.578100  1.0  2.0218
  P  P38  1  0.035800  0.873840  0.667550  1.0  1.9059
  P  P39  1  0.746820  0.628230  0.705540  1.0  2.0541
  P  P40  1  0.432970  0.631410  0.078100  1.0  2.0213
  P  P41  1  0.464200  0.126160  0.167550  1.0  1.906
  P  P42  1  0.753180  0.371770  0.205540  1.0  2.0548
  P  P43  1  0.932970  0.868590  0.921900  1.0  2.0203
  P  P44  1  0.964200  0.373840  0.832450  1.0  1.9077
  P  P45  1  0.253180  0.128230  0.794460  1.0  2.0556
  P  P46  1  0.567030  0.131410  0.421900  1.0  2.0205
  P  P47  1  0.535800  0.626160  0.332450  1.0  1.908
  P  P48  1  0.246820  0.871770  0.294460  1.0  2.0549
  O  O49  1  0.012600  0.403100  0.291700  1.0  -0.7914
  O  O50  1  0.853700  0.135500  0.347500  1.0  -0.958
  O  O51  1  0.012800  0.214100  0.392240  1.0  -0.8813
  O  O52  1  0.353200  0.322600  0.317500  1.0  -0.9852
  O  O53  1  0.188100  0.370300  0.365100  1.0  -0.9417
  O  O54  1  0.842800  0.585400  0.376800  1.0  -0.9205
  O  O55  1  0.012600  0.529600  0.416200  1.0  -0.9791
  O  O56  1  0.902300  0.652300  0.504900  1.0  -0.882
  O  O57  1  0.967500  0.759000  0.388000  1.0  -0.8995
  O  O58  1  0.998400  0.989100  0.347100  1.0  -0.8301
  O  O59  1  0.209400  0.282500  0.231800  1.0  -0.8997
  O  O60  1  0.260300  0.510100  0.264900  1.0  -1.0085
  O  O61  1  0.989000  0.167000  0.249700  1.0  -0.8379
  O  O62  1  0.487400  0.596900  0.791700  1.0  -0.7913
  O  O63  1  0.646300  0.864500  0.847500  1.0  -0.9581
  O  O64  1  0.487200  0.785900  0.892240  1.0  -0.8816
  O  O65  1  0.146800  0.677400  0.817500  1.0  -0.9855
  O  O66  1  0.311900  0.629700  0.865100  1.0  -0.9431
  O  O67  1  0.657200  0.414600  0.876800  1.0  -0.922
  O  O68  1  0.487400  0.470400  0.916200  1.0  -0.9785
  O  O69  1  0.597700  0.347700  0.004900  1.0  -0.8837
  O  O70  1  0.532500  0.241000  0.888000  1.0  -0.8987
  O  O71  1  0.501600  0.010900  0.847100  1.0  -0.83
  O  O72  1  0.290600  0.717500  0.731800  1.0  -0.8995
  O  O73  1  0.239700  0.489900  0.764900  1.0  -1.0094
  O  O74  1  0.511000  0.833000  0.749700  1.0  -0.8376
  O  O75  1  0.987400  0.903100  0.208300  1.0  -0.7891
  O  O76  1  0.146300  0.635500  0.152500  1.0  -0.9556
  O  O77  1  0.987200  0.714100  0.107760  1.0  -0.881
  O  O78  1  0.646800  0.822600  0.182500  1.0  -0.9832
  O  O79  1  0.811900  0.870300  0.134900  1.0  -0.9427
  O  O80  1  0.157200  0.085400  0.123200  1.0  -0.9209
  O  O81  1  0.987400  0.029600  0.083800  1.0  -0.9783
  O  O82  1  0.097700  0.152300  0.995100  1.0  -0.8824
  O  O83  1  0.032500  0.259000  0.112000  1.0  -0.9007
  O  O84  1  0.001600  0.489100  0.152900  1.0  -0.8287
  O  O85  1  0.790600  0.782500  0.268200  1.0  -0.9001
  O  O86  1  0.739700  0.010100  0.235100  1.0  -1.0085
  O  O87  1  0.011000  0.667000  0.250300  1.0  -0.8381
  O  O88  1  0.512600  0.096900  0.708300  1.0  -0.7883
  O  O89  1  0.353700  0.364500  0.652500  1.0  -0.9557
  O  O90  1  0.512800  0.285900  0.607760  1.0  -0.8823
  O  O91  1  0.853200  0.177400  0.682500  1.0  -0.9808
  O  O92  1  0.688100  0.129700  0.634900  1.0  -0.9425
  O  O93  1  0.342800  0.914600  0.623200  1.0  -0.9213
  O  O94  1  0.512600  0.970400  0.583800  1.0  -0.9793
  O  O95  1  0.402300  0.847700  0.495100  1.0  -0.8821
  O  O96  1  0.467500  0.741000  0.612000  1.0  -0.8998
  O  O97  1  0.498400  0.510900  0.652900  1.0  -0.8283
  O  O98  1  0.709400  0.217500  0.768200  1.0  -0.9002
  O  O99  1  0.760300  0.989900  0.735100  1.0  -1.0085
  O  O100  1  0.489000  0.333000  0.750300  1.0  -0.8377
  O  O101  1  0.987400  0.596900  0.708300  1.0  -0.7906
  O  O102  1  0.146300  0.864500  0.652500  1.0  -0.9531
  O  O103  1  0.987200  0.785900  0.607760  1.0  -0.8822
  O  O104  1  0.646800  0.677400  0.682500  1.0  -0.9834
  O  O105  1  0.811900  0.629700  0.634900  1.0  -0.9425
  O  O106  1  0.157200  0.414600  0.623200  1.0  -0.9217
  O  O107  1  0.987400  0.470400  0.583800  1.0  -0.9787
  O  O108  1  0.097700  0.347700  0.495100  1.0  -0.8831
  O  O109  1  0.032500  0.241000  0.612000  1.0  -0.8981
  O  O110  1  0.001600  0.010900  0.652900  1.0  -0.8278
  O  O111  1  0.790600  0.717500  0.768200  1.0  -0.8993
  O  O112  1  0.739700  0.489900  0.735100  1.0  -1.0093
  O  O113  1  0.011000  0.833000  0.750300  1.0  -0.8378
  O  O114  1  0.512600  0.403100  0.208300  1.0  -0.7908
  O  O115  1  0.353700  0.135500  0.152500  1.0  -0.9527
  O  O116  1  0.512800  0.214100  0.107760  1.0  -0.8811
  O  O117  1  0.853200  0.322600  0.182500  1.0  -0.9832
  O  O118  1  0.688100  0.370300  0.134900  1.0  -0.9424
  O  O119  1  0.342800  0.585400  0.123200  1.0  -0.9206
  O  O120  1  0.512600  0.529600  0.083800  1.0  -0.979
  O  O121  1  0.402300  0.652300  0.995100  1.0  -0.8813
  O  O122  1  0.467500  0.759000  0.112000  1.0  -0.8983
  O  O123  1  0.498400  0.989100  0.152900  1.0  -0.829
  O  O124  1  0.709400  0.282500  0.268200  1.0  -0.8995
  O  O125  1  0.760300  0.510100  0.235100  1.0  -1.0083
  O  O126  1  0.489000  0.167000  0.250300  1.0  -0.8381
  O  O127  1  0.012600  0.096900  0.791700  1.0  -0.7889
  O  O128  1  0.853700  0.364500  0.847500  1.0  -0.9559
  O  O129  1  0.012800  0.285900  0.892240  1.0  -0.882
  O  O130  1  0.353200  0.177400  0.817500  1.0  -0.9858
  O  O131  1  0.188100  0.129700  0.865100  1.0  -0.9413
  O  O132  1  0.842800  0.914600  0.876800  1.0  -0.9215
  O  O133  1  0.012600  0.970400  0.916200  1.0  -0.9792
  O  O134  1  0.902300  0.847700  0.004900  1.0  -0.8827
  O  O135  1  0.967500  0.741000  0.888000  1.0  -0.8987
  O  O136  1  0.998400  0.510900  0.847100  1.0  -0.8316
  O  O137  1  0.209400  0.217500  0.731800  1.0  -0.8998
  O  O138  1  0.260300  0.989900  0.764900  1.0  -1.009
  O  O139  1  0.989000  0.333000  0.749700  1.0  -0.8376
  O  O140  1  0.487400  0.903100  0.291700  1.0  -0.7897
  O  O141  1  0.646300  0.635500  0.347500  1.0  -0.9552
  O  O142  1  0.487200  0.714100  0.392240  1.0  -0.8813
  O  O143  1  0.146800  0.822600  0.317500  1.0  -0.9872
  O  O144  1  0.311900  0.870300  0.365100  1.0  -0.943
  O  O145  1  0.657200  0.085400  0.376800  1.0  -0.9214
  O  O146  1  0.487400  0.029600  0.416200  1.0  -0.9782
  O  O147  1  0.597700  0.152300  0.504900  1.0  -0.8831
  O  O148  1  0.532500  0.259000  0.388000  1.0  -0.8998
  O  O149  1  0.501600  0.489100  0.347100  1.0  -0.8317
  O  O150  1  0.290600  0.782500  0.231800  1.0  -0.8997
  O  O151  1  0.239700  0.010100  0.264900  1.0  -1.0089
  O  O152  1  0.511000  0.667000  0.249700  1.0  -0.8379
