# generated using pymatgen
data_CdH8C12(NO2)2
_symmetry_space_group_name_H-M   'P 1'
_cell_length_a   12.18100000
_cell_length_b   15.35400000
_cell_length_c   18.78500000
_cell_angle_alpha   90.00000000
_cell_angle_beta   90.00000000
_cell_angle_gamma   90.00000000
_symmetry_Int_Tables_number   1
_chemical_formula_structural   CdH8C12(NO2)2
_chemical_formula_sum   'Cd8 H64 C96 N16 O32'
_cell_volume   3513.30358509
_cell_formula_units_Z   8
loop_
 _symmetry_equiv_pos_site_id
 _symmetry_equiv_pos_as_xyz
  1  'x, y, z'
loop_
 _atom_site_type_symbol
 _atom_site_label
 _atom_site_symmetry_multiplicity
 _atom_site_fract_x
 _atom_site_fract_y
 _atom_site_fract_z
 _atom_site_occupancy
 _atom_site_charge
  Cd  Cd1  1  0.693020  0.784140  0.184030  1.0  0.9261
  Cd  Cd2  1  0.806980  0.215860  0.684030  1.0  0.9268
  Cd  Cd3  1  0.306980  0.284140  0.315970  1.0  0.9261
  Cd  Cd4  1  0.193020  0.715860  0.815970  1.0  0.9256
  Cd  Cd5  1  0.306980  0.215860  0.815970  1.0  0.9255
  Cd  Cd6  1  0.193020  0.784140  0.315970  1.0  0.9261
  Cd  Cd7  1  0.693020  0.715860  0.684030  1.0  0.9262
  Cd  Cd8  1  0.806980  0.284140  0.184030  1.0  0.9266
  H  H9  1  0.517700  0.705500  0.293600  1.0  0.0744
  H  H10  1  0.420600  0.582100  0.322700  1.0  0.121
  H  H11  1  0.602700  0.449700  0.182600  1.0  0.1292
  H  H12  1  0.693900  0.576300  0.157200  1.0  0.0888
  H  H13  1  0.503300  0.883900  0.095100  1.0  0.0764
  H  H14  1  0.387700  0.873200  0.999700  1.0  0.1217
  H  H15  1  0.544500  0.656700  0.942200  1.0  0.1342
  H  H16  1  0.660900  0.676900  0.036000  1.0  0.0767
  H  H17  1  0.982300  0.294500  0.793600  1.0  0.0746
  H  H18  1  0.079400  0.417900  0.822700  1.0  0.1212
  H  H19  1  0.897300  0.550300  0.682600  1.0  0.1295
  H  H20  1  0.806100  0.423700  0.657200  1.0  0.0892
  H  H21  1  0.996700  0.116100  0.595100  1.0  0.0763
  H  H22  1  0.112300  0.126800  0.499700  1.0  0.1217
  H  H23  1  0.955500  0.343300  0.442200  1.0  0.1347
  H  H24  1  0.839100  0.323100  0.536000  1.0  0.0776
  H  H25  1  0.482300  0.205500  0.206400  1.0  0.0745
  H  H26  1  0.579400  0.082100  0.177300  1.0  0.1209
  H  H27  1  0.397300  0.949700  0.317400  1.0  0.1293
  H  H28  1  0.306100  0.076300  0.342800  1.0  0.0897
  H  H29  1  0.496700  0.383900  0.404900  1.0  0.0763
  H  H30  1  0.612300  0.373200  0.500300  1.0  0.1211
  H  H31  1  0.455500  0.156700  0.557800  1.0  0.1347
  H  H32  1  0.339100  0.176900  0.464000  1.0  0.0771
  H  H33  1  0.017700  0.794500  0.706400  1.0  0.0742
  H  H34  1  0.920600  0.917900  0.677300  1.0  0.121
  H  H35  1  0.102700  0.050300  0.817400  1.0  0.129
  H  H36  1  0.193900  0.923700  0.842800  1.0  0.0892
  H  H37  1  0.003300  0.616100  0.904900  1.0  0.0761
  H  H38  1  0.887700  0.626800  0.000300  1.0  0.1206
  H  H39  1  0.044500  0.843300  0.057800  1.0  0.1343
  H  H40  1  0.160900  0.823100  0.964000  1.0  0.0773
  H  H41  1  0.482300  0.294500  0.706400  1.0  0.0747
  H  H42  1  0.579400  0.417900  0.677300  1.0  0.1208
  H  H43  1  0.397300  0.550300  0.817400  1.0  0.1292
  H  H44  1  0.306100  0.423700  0.842800  1.0  0.089
  H  H45  1  0.496700  0.116100  0.904900  1.0  0.076
  H  H46  1  0.612300  0.126800  0.000300  1.0  0.1207
  H  H47  1  0.455500  0.343300  0.057800  1.0  0.1345
  H  H48  1  0.339100  0.323100  0.964000  1.0  0.0776
  H  H49  1  0.017700  0.705500  0.206400  1.0  0.0748
  H  H50  1  0.920600  0.582100  0.177300  1.0  0.1204
  H  H51  1  0.102700  0.449700  0.317400  1.0  0.1291
  H  H52  1  0.193900  0.576300  0.342800  1.0  0.0892
  H  H53  1  0.003300  0.883900  0.404900  1.0  0.0765
  H  H54  1  0.887700  0.873200  0.500300  1.0  0.1213
  H  H55  1  0.044500  0.656700  0.557800  1.0  0.1346
  H  H56  1  0.160900  0.676900  0.464000  1.0  0.077
  H  H57  1  0.517700  0.794500  0.793600  1.0  0.0747
  H  H58  1  0.420600  0.917900  0.822700  1.0  0.1209
  H  H59  1  0.602700  0.050300  0.682600  1.0  0.1292
  H  H60  1  0.693900  0.923700  0.657200  1.0  0.0882
  H  H61  1  0.503300  0.616100  0.595100  1.0  0.0763
  H  H62  1  0.387700  0.626800  0.499700  1.0  0.1213
  H  H63  1  0.544500  0.843300  0.442200  1.0  0.1343
  H  H64  1  0.660900  0.823100  0.536000  1.0  0.0774
  H  H65  1  0.982300  0.205500  0.293600  1.0  0.0749
  H  H66  1  0.079400  0.082100  0.322700  1.0  0.1211
  H  H67  1  0.897300  0.949700  0.182600  1.0  0.1292
  H  H68  1  0.806100  0.076300  0.157200  1.0  0.0885
  H  H69  1  0.996700  0.383900  0.095100  1.0  0.0763
  H  H70  1  0.112300  0.373200  0.999700  1.0  0.1215
  H  H71  1  0.955500  0.156700  0.942200  1.0  0.1344
  H  H72  1  0.839100  0.176900  0.036000  1.0  0.077
  C  C73  1  0.534400  0.653600  0.270400  1.0  0.1667
  C  C74  1  0.475400  0.579700  0.288200  1.0  -0.1498
  C  C75  1  0.499100  0.503000  0.254300  1.0  -0.022
  C  C76  1  0.583200  0.501300  0.205200  1.0  -0.1357
  C  C77  1  0.637500  0.577500  0.190500  1.0  0.1631
  C  C78  1  0.435400  0.421800  0.272800  1.0  0.6134
  C  C79  1  0.511500  0.837400  0.063900  1.0  0.1704
  C  C80  1  0.441200  0.830900  0.006900  1.0  -0.1648
  C  C81  1  0.449700  0.762400  0.960800  1.0  0.0019
  C  C82  1  0.534400  0.703800  0.972700  1.0  -0.1563
  C  C83  1  0.603000  0.715600  0.029600  1.0  0.1616
  C  C84  1  0.366200  0.747600  0.903700  1.0  0.6133
  C  C85  1  0.965600  0.346400  0.770400  1.0  0.1681
  C  C86  1  0.024600  0.420300  0.788200  1.0  -0.1503
  C  C87  1  0.000900  0.497000  0.754300  1.0  -0.0225
  C  C88  1  0.916800  0.498700  0.705200  1.0  -0.1349
  C  C89  1  0.862500  0.422500  0.690500  1.0  0.1634
  C  C90  1  0.064600  0.578200  0.772800  1.0  0.6119
  C  C91  1  0.988500  0.162600  0.563900  1.0  0.1708
  C  C92  1  0.058800  0.169100  0.506900  1.0  -0.164
  C  C93  1  0.050300  0.237600  0.460800  1.0  0.0018
  C  C94  1  0.965600  0.296200  0.472700  1.0  -0.1558
  C  C95  1  0.897000  0.284400  0.529600  1.0  0.1616
  C  C96  1  0.133800  0.252400  0.403700  1.0  0.6144
  C  C97  1  0.465600  0.153600  0.229600  1.0  0.1676
  C  C98  1  0.524600  0.079700  0.211800  1.0  -0.1503
  C  C99  1  0.500900  0.003000  0.245700  1.0  -0.0184
  C  C100  1  0.416800  0.001300  0.294800  1.0  -0.136
  C  C101  1  0.362500  0.077500  0.309500  1.0  0.1633
  C  C102  1  0.564600  0.921800  0.227200  1.0  0.6116
  C  C103  1  0.488500  0.337400  0.436100  1.0  0.1702
  C  C104  1  0.558800  0.330900  0.493100  1.0  -0.1628
  C  C105  1  0.550300  0.262400  0.539200  1.0  0.002
  C  C106  1  0.465600  0.203800  0.527300  1.0  -0.1558
  C  C107  1  0.397000  0.215600  0.470400  1.0  0.1621
  C  C108  1  0.633800  0.247600  0.596300  1.0  0.6141
  C  C109  1  0.034400  0.846400  0.729600  1.0  0.1672
  C  C110  1  0.975400  0.920300  0.711800  1.0  -0.15
  C  C111  1  0.999100  0.997000  0.745700  1.0  -0.0262
  C  C112  1  0.083200  0.998700  0.794800  1.0  -0.1357
  C  C113  1  0.137500  0.922500  0.809500  1.0  0.1628
  C  C114  1  0.935400  0.078200  0.727200  1.0  0.6117
  C  C115  1  0.011500  0.662600  0.936100  1.0  0.1703
  C  C116  1  0.941200  0.669100  0.993100  1.0  -0.1624
  C  C117  1  0.949700  0.737600  0.039200  1.0  0.0015
  C  C118  1  0.034400  0.796200  0.027300  1.0  -0.1567
  C  C119  1  0.103000  0.784400  0.970400  1.0  0.162
  C  C120  1  0.866200  0.752400  0.096300  1.0  0.6135
  C  C121  1  0.465600  0.346400  0.729600  1.0  0.1678
  C  C122  1  0.524600  0.420300  0.711800  1.0  -0.1503
  C  C123  1  0.500900  0.497000  0.745700  1.0  -0.023
  C  C124  1  0.416800  0.498700  0.794800  1.0  -0.1356
  C  C125  1  0.362500  0.422500  0.809500  1.0  0.1632
  C  C126  1  0.564600  0.578200  0.727200  1.0  0.611
  C  C127  1  0.488500  0.162600  0.936100  1.0  0.1698
  C  C128  1  0.558800  0.169100  0.993100  1.0  -0.1626
  C  C129  1  0.550300  0.237600  0.039200  1.0  0.0018
  C  C130  1  0.465600  0.296200  0.027300  1.0  -0.1566
  C  C131  1  0.397000  0.284400  0.970400  1.0  0.1621
  C  C132  1  0.633800  0.252400  0.096300  1.0  0.6143
  C  C133  1  0.034400  0.653600  0.229600  1.0  0.1672
  C  C134  1  0.975400  0.579700  0.211800  1.0  -0.1501
  C  C135  1  0.999100  0.503000  0.245700  1.0  -0.0221
  C  C136  1  0.083200  0.501300  0.294800  1.0  -0.1356
  C  C137  1  0.137500  0.577500  0.309500  1.0  0.1629
  C  C138  1  0.935400  0.421800  0.227200  1.0  0.6123
  C  C139  1  0.011500  0.837400  0.436100  1.0  0.1706
  C  C140  1  0.941200  0.830900  0.493100  1.0  -0.1632
  C  C141  1  0.949700  0.762400  0.539200  1.0  0.0018
  C  C142  1  0.034400  0.703800  0.527300  1.0  -0.1562
  C  C143  1  0.103000  0.715600  0.470400  1.0  0.162
  C  C144  1  0.866200  0.747600  0.596300  1.0  0.6135
  C  C145  1  0.534400  0.846400  0.770400  1.0  0.1672
  C  C146  1  0.475400  0.920300  0.788200  1.0  -0.1498
  C  C147  1  0.499100  0.997000  0.754300  1.0  -0.0257
  C  C148  1  0.583200  0.998700  0.705200  1.0  -0.1357
  C  C149  1  0.637500  0.922500  0.690500  1.0  0.1632
  C  C150  1  0.435400  0.078200  0.772800  1.0  0.6126
  C  C151  1  0.511500  0.662600  0.563900  1.0  0.1712
  C  C152  1  0.441200  0.669100  0.506900  1.0  -0.1636
  C  C153  1  0.449700  0.737600  0.460800  1.0  0.0019
  C  C154  1  0.534400  0.796200  0.472700  1.0  -0.1563
  C  C155  1  0.603000  0.784400  0.529600  1.0  0.1617
  C  C156  1  0.366200  0.752400  0.403700  1.0  0.6136
  C  C157  1  0.965600  0.153600  0.270400  1.0  0.1674
  C  C158  1  0.024600  0.079700  0.288200  1.0  -0.1502
  C  C159  1  0.000900  0.003000  0.254300  1.0  -0.0183
  C  C160  1  0.916800  0.001300  0.205200  1.0  -0.1354
  C  C161  1  0.862500  0.077500  0.190500  1.0  0.1633
  C  C162  1  0.064600  0.921800  0.272800  1.0  0.6127
  C  C163  1  0.988500  0.337400  0.063900  1.0  0.1702
  C  C164  1  0.058800  0.330900  0.006900  1.0  -0.1645
  C  C165  1  0.050300  0.262400  0.960800  1.0  0.002
  C  C166  1  0.965600  0.203800  0.972700  1.0  -0.1555
  C  C167  1  0.897000  0.215600  0.029600  1.0  0.1615
  C  C168  1  0.133800  0.247600  0.903700  1.0  0.6138
  N  N169  1  0.613400  0.654100  0.221900  1.0  -0.3645
  N  N170  1  0.590600  0.780000  0.076000  1.0  -0.3403
  N  N171  1  0.886600  0.345900  0.721900  1.0  -0.3641
  N  N172  1  0.909400  0.220000  0.576000  1.0  -0.3408
  N  N173  1  0.386600  0.154100  0.278100  1.0  -0.3643
  N  N174  1  0.409400  0.280000  0.424000  1.0  -0.3403
  N  N175  1  0.113400  0.845900  0.778100  1.0  -0.3635
  N  N176  1  0.090600  0.720000  0.924000  1.0  -0.3405
  N  N177  1  0.386600  0.345900  0.778100  1.0  -0.3643
  N  N178  1  0.409400  0.220000  0.924000  1.0  -0.3408
  N  N179  1  0.113400  0.654100  0.278100  1.0  -0.3647
  N  N180  1  0.090600  0.780000  0.424000  1.0  -0.3401
  N  N181  1  0.613400  0.845900  0.721900  1.0  -0.3633
  N  N182  1  0.590600  0.720000  0.576000  1.0  -0.3402
  N  N183  1  0.886600  0.154100  0.221900  1.0  -0.364
  N  N184  1  0.909400  0.280000  0.076000  1.0  -0.341
  O  O185  1  0.473600  0.348900  0.257400  1.0  -0.5956
  O  O186  1  0.345800  0.431700  0.305300  1.0  -0.5686
  O  O187  1  0.350400  0.671200  0.882600  1.0  -0.5676
  O  O188  1  0.312000  0.811400  0.883300  1.0  -0.5734
  O  O189  1  0.026400  0.651100  0.757400  1.0  -0.5977
  O  O190  1  0.154200  0.568300  0.805300  1.0  -0.5683
  O  O191  1  0.149600  0.328800  0.382600  1.0  -0.5692
  O  O192  1  0.188000  0.188600  0.383300  1.0  -0.5731
  O  O193  1  0.526400  0.848900  0.242600  1.0  -0.597
  O  O194  1  0.654200  0.931700  0.194700  1.0  -0.5682
  O  O195  1  0.649600  0.171200  0.617400  1.0  -0.568
  O  O196  1  0.688000  0.311400  0.616700  1.0  -0.5743
  O  O197  1  0.973600  0.151100  0.742600  1.0  -0.5952
  O  O198  1  0.845800  0.068300  0.694700  1.0  -0.569
  O  O199  1  0.850400  0.828800  0.117400  1.0  -0.5693
  O  O200  1  0.812000  0.688600  0.116700  1.0  -0.5739
  O  O201  1  0.526400  0.651100  0.742600  1.0  -0.598
  O  O202  1  0.654200  0.568300  0.694700  1.0  -0.5683
  O  O203  1  0.649600  0.328800  0.117400  1.0  -0.57
  O  O204  1  0.688000  0.188600  0.116700  1.0  -0.5747
  O  O205  1  0.973600  0.348900  0.242600  1.0  -0.5958
  O  O206  1  0.845800  0.431700  0.194700  1.0  -0.5687
  O  O207  1  0.850400  0.671200  0.617400  1.0  -0.568
  O  O208  1  0.812000  0.811400  0.616700  1.0  -0.5753
  O  O209  1  0.473600  0.151100  0.757400  1.0  -0.5949
  O  O210  1  0.345800  0.068300  0.805300  1.0  -0.5688
  O  O211  1  0.350400  0.828800  0.382600  1.0  -0.5688
  O  O212  1  0.312000  0.688600  0.383300  1.0  -0.5737
  O  O213  1  0.026400  0.848900  0.257400  1.0  -0.5969
  O  O214  1  0.154200  0.931700  0.305300  1.0  -0.5682
  O  O215  1  0.149600  0.171200  0.882600  1.0  -0.5676
  O  O216  1  0.188000  0.311400  0.883300  1.0  -0.574
