# generated using pymatgen
data_Ga3P4H4(O3F)4
_symmetry_space_group_name_H-M   'P 1'
_cell_length_a   12.74100000
_cell_length_b   12.06800000
_cell_length_c   11.98800000
_cell_angle_alpha   90.00000000
_cell_angle_beta   94.90200000
_cell_angle_gamma   90.00000000
_symmetry_Int_Tables_number   1
_chemical_formula_structural   Ga3P4H4(O3F)4
_chemical_formula_sum   'Ga12 P16 H16 O48 F16'
_cell_volume   1836.51350525
_cell_formula_units_Z   4
loop_
 _symmetry_equiv_pos_site_id
 _symmetry_equiv_pos_as_xyz
  1  'x, y, z'
loop_
 _atom_site_type_symbol
 _atom_site_label
 _atom_site_symmetry_multiplicity
 _atom_site_fract_x
 _atom_site_fract_y
 _atom_site_fract_z
 _atom_site_occupancy
 _atom_site_charge
  Ga  Ga1  1  0.246720  0.959670  0.206020  1.0  1.6321
  Ga  Ga2  1  0.746720  0.459670  0.206020  1.0  1.6321
  Ga  Ga3  1  0.753280  0.959670  0.293980  1.0  1.6302
  Ga  Ga4  1  0.253280  0.459670  0.293980  1.0  1.6302
  Ga  Ga5  1  0.753280  0.040330  0.793980  1.0  1.6304
  Ga  Ga6  1  0.253280  0.540330  0.793980  1.0  1.6304
  Ga  Ga7  1  0.246720  0.040330  0.706020  1.0  1.632
  Ga  Ga8  1  0.746720  0.540330  0.706020  1.0  1.632
  Ga  Ga9  1  0.000000  0.088960  0.250000  1.0  1.6621
  Ga  Ga10  1  0.500000  0.588960  0.250000  1.0  1.6621
  Ga  Ga11  1  0.000000  0.911040  0.750000  1.0  1.6626
  Ga  Ga12  1  0.500000  0.411040  0.750000  1.0  1.6626
  P  P13  1  0.202150  0.223840  0.177580  1.0  1.5974
  P  P14  1  0.172710  0.020160  0.446090  1.0  1.588
  P  P15  1  0.702150  0.723840  0.177580  1.0  1.5974
  P  P16  1  0.672710  0.520160  0.446090  1.0  1.588
  P  P17  1  0.797850  0.223840  0.322420  1.0  1.598
  P  P18  1  0.827290  0.020160  0.053910  1.0  1.589
  P  P19  1  0.297850  0.723840  0.322420  1.0  1.598
  P  P20  1  0.327290  0.520160  0.053910  1.0  1.589
  P  P21  1  0.797850  0.776160  0.822420  1.0  1.598
  P  P22  1  0.827290  0.979840  0.553910  1.0  1.5867
  P  P23  1  0.297850  0.276160  0.822420  1.0  1.598
  P  P24  1  0.327290  0.479840  0.553910  1.0  1.5867
  P  P25  1  0.202150  0.776160  0.677580  1.0  1.5976
  P  P26  1  0.172710  0.979840  0.946090  1.0  1.5853
  P  P27  1  0.702150  0.276160  0.677580  1.0  1.5976
  P  P28  1  0.672710  0.479840  0.946090  1.0  1.5853
  H  H29  1  0.138000  0.923000  0.480000  1.0  -0.0889
  H  H30  1  0.201000  0.276000  0.079000  1.0  -0.0869
  H  H31  1  0.638000  0.423000  0.480000  1.0  -0.0889
  H  H32  1  0.701000  0.776000  0.079000  1.0  -0.0869
  H  H33  1  0.862000  0.923000  0.020000  1.0  -0.0886
  H  H34  1  0.799000  0.276000  0.421000  1.0  -0.0913
  H  H35  1  0.362000  0.423000  0.020000  1.0  -0.0886
  H  H36  1  0.299000  0.776000  0.421000  1.0  -0.0913
  H  H37  1  0.862000  0.077000  0.520000  1.0  -0.0881
  H  H38  1  0.799000  0.724000  0.921000  1.0  -0.0906
  H  H39  1  0.362000  0.577000  0.520000  1.0  -0.0881
  H  H40  1  0.299000  0.224000  0.921000  1.0  -0.0906
  H  H41  1  0.138000  0.077000  0.980000  1.0  -0.0883
  H  H42  1  0.201000  0.724000  0.579000  1.0  -0.0864
  H  H43  1  0.638000  0.577000  0.980000  1.0  -0.0883
  H  H44  1  0.701000  0.224000  0.579000  1.0  -0.0864
  O  O45  1  0.264000  0.117400  0.168700  1.0  -0.7793
  O  O46  1  0.224400  0.080600  0.547600  1.0  -0.7209
  O  O47  1  0.254300  0.994300  0.364700  1.0  -0.7696
  O  O48  1  0.079500  0.086800  0.394900  1.0  -0.797
  O  O49  1  0.087600  0.204400  0.193000  1.0  -0.7624
  O  O50  1  0.258100  0.301200  0.263600  1.0  -0.7523
  O  O51  1  0.764000  0.617400  0.168700  1.0  -0.7793
  O  O52  1  0.724400  0.580600  0.547600  1.0  -0.7209
  O  O53  1  0.754300  0.494300  0.364700  1.0  -0.7696
  O  O54  1  0.579500  0.586800  0.394900  1.0  -0.797
  O  O55  1  0.587600  0.704400  0.193000  1.0  -0.7624
  O  O56  1  0.758100  0.801200  0.263600  1.0  -0.7523
  O  O57  1  0.736000  0.117400  0.331300  1.0  -0.779
  O  O58  1  0.775600  0.080600  0.952400  1.0  -0.7213
  O  O59  1  0.745700  0.994300  0.135300  1.0  -0.769
  O  O60  1  0.920500  0.086800  0.105100  1.0  -0.7965
  O  O61  1  0.912400  0.204400  0.307000  1.0  -0.7615
  O  O62  1  0.741900  0.301200  0.236400  1.0  -0.7515
  O  O63  1  0.236000  0.617400  0.331300  1.0  -0.779
  O  O64  1  0.275600  0.580600  0.952400  1.0  -0.7213
  O  O65  1  0.245700  0.494300  0.135300  1.0  -0.769
  O  O66  1  0.420500  0.586800  0.105100  1.0  -0.7965
  O  O67  1  0.412400  0.704400  0.307000  1.0  -0.7615
  O  O68  1  0.241900  0.801200  0.236400  1.0  -0.7515
  O  O69  1  0.736000  0.882600  0.831300  1.0  -0.7794
  O  O70  1  0.775600  0.919400  0.452400  1.0  -0.7211
  O  O71  1  0.745700  0.005700  0.635300  1.0  -0.7691
  O  O72  1  0.920500  0.913200  0.605100  1.0  -0.8
  O  O73  1  0.912400  0.795600  0.807000  1.0  -0.7607
  O  O74  1  0.741900  0.698800  0.736400  1.0  -0.7507
  O  O75  1  0.236000  0.382600  0.831300  1.0  -0.7794
  O  O76  1  0.275600  0.419400  0.452400  1.0  -0.7211
  O  O77  1  0.245700  0.505700  0.635300  1.0  -0.7691
  O  O78  1  0.420500  0.413200  0.605100  1.0  -0.8
  O  O79  1  0.412400  0.295600  0.807000  1.0  -0.7607
  O  O80  1  0.241900  0.198800  0.736400  1.0  -0.7507
  O  O81  1  0.264000  0.882600  0.668700  1.0  -0.7794
  O  O82  1  0.224400  0.919400  0.047600  1.0  -0.7204
  O  O83  1  0.254300  0.005700  0.864700  1.0  -0.7701
  O  O84  1  0.079500  0.913200  0.894900  1.0  -0.7986
  O  O85  1  0.087600  0.795600  0.693000  1.0  -0.7611
  O  O86  1  0.258100  0.698800  0.763600  1.0  -0.752
  O  O87  1  0.764000  0.382600  0.668700  1.0  -0.7794
  O  O88  1  0.724400  0.419400  0.047600  1.0  -0.7204
  O  O89  1  0.754300  0.505700  0.864700  1.0  -0.7701
  O  O90  1  0.579500  0.413200  0.894900  1.0  -0.7986
  O  O91  1  0.587600  0.295600  0.693000  1.0  -0.7611
  O  O92  1  0.758100  0.198800  0.763600  1.0  -0.752
  F  F93  1  0.092500  0.972800  0.202600  1.0  -0.4985
  F  F94  1  0.393400  0.953800  0.205600  1.0  -0.3903
  F  F95  1  0.592500  0.472800  0.202600  1.0  -0.4985
  F  F96  1  0.893400  0.453800  0.205600  1.0  -0.3903
  F  F97  1  0.907500  0.972800  0.297400  1.0  -0.4987
  F  F98  1  0.606600  0.953800  0.294400  1.0  -0.3875
  F  F99  1  0.407500  0.472800  0.297400  1.0  -0.4987
  F  F100  1  0.106600  0.453800  0.294400  1.0  -0.3875
  F  F101  1  0.907500  0.027200  0.797400  1.0  -0.4999
  F  F102  1  0.606600  0.046200  0.794400  1.0  -0.3899
  F  F103  1  0.407500  0.527200  0.797400  1.0  -0.4999
  F  F104  1  0.106600  0.546200  0.794400  1.0  -0.3899
  F  F105  1  0.092500  0.027200  0.702600  1.0  -0.4996
  F  F106  1  0.393400  0.046200  0.705600  1.0  -0.3934
  F  F107  1  0.592500  0.527200  0.702600  1.0  -0.4996
  F  F108  1  0.893400  0.546200  0.705600  1.0  -0.3934
