# generated using pymatgen
data_Cu2H8C12N2O5
_symmetry_space_group_name_H-M   'P 1'
_cell_length_a   12.38900000
_cell_length_b   13.25900000
_cell_length_c   14.14600000
_cell_angle_alpha   90.00000000
_cell_angle_beta   90.00000000
_cell_angle_gamma   112.67600000
_symmetry_Int_Tables_number   1
_chemical_formula_structural   Cu2H8C12N2O5
_chemical_formula_sum   'Cu8 H32 C48 N8 O20'
_cell_volume   2144.08024922
_cell_formula_units_Z   4
loop_
 _symmetry_equiv_pos_site_id
 _symmetry_equiv_pos_as_xyz
  1  'x, y, z'
loop_
 _atom_site_type_symbol
 _atom_site_label
 _atom_site_symmetry_multiplicity
 _atom_site_fract_x
 _atom_site_fract_y
 _atom_site_fract_z
 _atom_site_occupancy
 _atom_site_charge
  Cu  Cu1  1  0.164660  0.421590  0.592620  1.0  0.7089
  Cu  Cu2  1  0.526290  0.092910  0.931840  1.0  0.9967
  Cu  Cu3  1  0.335340  0.078410  0.092620  1.0  0.7075
  Cu  Cu4  1  0.973710  0.407090  0.431840  1.0  0.9968
  Cu  Cu5  1  0.835340  0.578410  0.407380  1.0  0.7076
  Cu  Cu6  1  0.473710  0.907090  0.068160  1.0  0.9964
  Cu  Cu7  1  0.664660  0.921590  0.907380  1.0  0.7084
  Cu  Cu8  1  0.026290  0.592910  0.568160  1.0  0.9962
  H  H9  1  0.566700  0.076300  0.730100  1.0  0.089
  H  H10  1  0.706100  0.148900  0.617500  1.0  0.1202
  H  H11  1  0.915500  0.338900  0.816400  1.0  0.1196
  H  H12  1  0.769900  0.258900  0.925300  1.0  0.0831
  H  H13  1  0.313200  0.297000  0.600300  1.0  0.0845
  H  H14  1  0.387100  0.208900  0.705500  1.0  0.1236
  H  H15  1  0.217700  0.295200  0.910700  1.0  0.1184
  H  H16  1  0.146800  0.377100  0.798700  1.0  0.0789
  H  H17  1  0.933300  0.423700  0.230100  1.0  0.0893
  H  H18  1  0.793900  0.351100  0.117500  1.0  0.1198
  H  H19  1  0.584500  0.161100  0.316400  1.0  0.1196
  H  H20  1  0.730100  0.241100  0.425300  1.0  0.0835
  H  H21  1  0.186800  0.203000  0.100300  1.0  0.0849
  H  H22  1  0.112900  0.291100  0.205500  1.0  0.1237
  H  H23  1  0.282300  0.204800  0.410700  1.0  0.1181
  H  H24  1  0.353200  0.122900  0.298700  1.0  0.0789
  H  H25  1  0.433300  0.923700  0.269900  1.0  0.089
  H  H26  1  0.293900  0.851100  0.382500  1.0  0.1204
  H  H27  1  0.084500  0.661100  0.183600  1.0  0.1197
  H  H28  1  0.230100  0.741100  0.074700  1.0  0.0836
  H  H29  1  0.686800  0.703000  0.399700  1.0  0.0848
  H  H30  1  0.612900  0.791100  0.294500  1.0  0.1237
  H  H31  1  0.782300  0.704800  0.089300  1.0  0.1185
  H  H32  1  0.853200  0.622900  0.201300  1.0  0.0782
  H  H33  1  0.066700  0.576300  0.769900  1.0  0.0892
  H  H34  1  0.206100  0.648900  0.882500  1.0  0.1209
  H  H35  1  0.415500  0.838900  0.683600  1.0  0.1199
  H  H36  1  0.269900  0.758900  0.574700  1.0  0.0834
  H  H37  1  0.813200  0.797000  0.899700  1.0  0.0845
  H  H38  1  0.887100  0.708900  0.794500  1.0  0.1236
  H  H39  1  0.717700  0.795200  0.589300  1.0  0.1187
  H  H40  1  0.646800  0.877100  0.701300  1.0  0.0786
  C  C41  1  0.638200  0.129900  0.747400  1.0  0.1461
  C  C42  1  0.720800  0.173400  0.679600  1.0  -0.149
  C  C43  1  0.825600  0.253400  0.703600  1.0  -0.007
  C  C44  1  0.844600  0.285500  0.797500  1.0  -0.1554
  C  C45  1  0.756600  0.237000  0.862500  1.0  0.1673
  C  C46  1  0.919900  0.305200  0.629440  1.0  0.669
  C  C47  1  0.292600  0.295400  0.663700  1.0  0.1583
  C  C48  1  0.338700  0.243100  0.726600  1.0  -0.1505
  C  C49  1  0.311800  0.242300  0.820800  1.0  -0.0391
  C  C50  1  0.238100  0.293800  0.847600  1.0  -0.1479
  C  C51  1  0.195800  0.342600  0.779800  1.0  0.1656
  C  C52  1  0.361700  0.189700  0.893900  1.0  0.6917
  C  C53  1  0.861800  0.370100  0.247400  1.0  0.1452
  C  C54  1  0.779200  0.326600  0.179600  1.0  -0.15
  C  C55  1  0.674400  0.246600  0.203600  1.0  -0.0083
  C  C56  1  0.655400  0.214500  0.297500  1.0  -0.1548
  C  C57  1  0.743400  0.263000  0.362500  1.0  0.1682
  C  C58  1  0.580100  0.194800  0.129440  1.0  0.67
  C  C59  1  0.207400  0.204600  0.163700  1.0  0.1573
  C  C60  1  0.161300  0.256900  0.226600  1.0  -0.1506
  C  C61  1  0.188200  0.257700  0.320800  1.0  -0.0409
  C  C62  1  0.261900  0.206200  0.347600  1.0  -0.1472
  C  C63  1  0.304200  0.157400  0.279800  1.0  0.1645
  C  C64  1  0.138300  0.310300  0.393900  1.0  0.6924
  C  C65  1  0.361800  0.870100  0.252600  1.0  0.1446
  C  C66  1  0.279200  0.826600  0.320400  1.0  -0.1487
  C  C67  1  0.174400  0.746600  0.296400  1.0  -0.0082
  C  C68  1  0.155400  0.714500  0.202500  1.0  -0.1547
  C  C69  1  0.243400  0.763000  0.137500  1.0  0.1674
  C  C70  1  0.080100  0.694800  0.370560  1.0  0.669
  C  C71  1  0.707400  0.704600  0.336300  1.0  0.1582
  C  C72  1  0.661300  0.756900  0.273400  1.0  -0.1507
  C  C73  1  0.688200  0.757700  0.179200  1.0  -0.0389
  C  C74  1  0.761900  0.706200  0.152400  1.0  -0.1499
  C  C75  1  0.804200  0.657400  0.220200  1.0  0.1644
  C  C76  1  0.638300  0.810300  0.106100  1.0  0.6924
  C  C77  1  0.138200  0.629900  0.752600  1.0  0.146
  C  C78  1  0.220800  0.673400  0.820400  1.0  -0.1481
  C  C79  1  0.325600  0.753400  0.796400  1.0  -0.0089
  C  C80  1  0.344600  0.785500  0.702500  1.0  -0.1552
  C  C81  1  0.256600  0.737000  0.637500  1.0  0.1674
  C  C82  1  0.419900  0.805200  0.870560  1.0  0.6681
  C  C83  1  0.792600  0.795400  0.836300  1.0  0.16
  C  C84  1  0.838700  0.743100  0.773400  1.0  -0.1499
  C  C85  1  0.811800  0.742300  0.679200  1.0  -0.0384
  C  C86  1  0.738100  0.793800  0.652400  1.0  -0.1493
  C  C87  1  0.695800  0.842600  0.720200  1.0  0.1652
  C  C88  1  0.861700  0.689700  0.606100  1.0  0.6917
  N  N89  1  0.655300  0.161360  0.839540  1.0  -0.3331
  N  N90  1  0.221000  0.343300  0.688160  1.0  -0.334
  N  N91  1  0.844700  0.338640  0.339540  1.0  -0.3347
  N  N92  1  0.279000  0.156700  0.188160  1.0  -0.3328
  N  N93  1  0.344700  0.838640  0.160460  1.0  -0.3348
  N  N94  1  0.779000  0.656700  0.311840  1.0  -0.3311
  N  N95  1  0.155300  0.661360  0.660460  1.0  -0.3329
  N  N96  1  0.721000  0.843300  0.811840  1.0  -0.3336
  O  O97  1  0.016640  0.376840  0.661590  1.0  -0.6205
  O  O98  1  0.898590  0.280790  0.546330  1.0  -0.5842
  O  O99  1  0.334200  0.190250  0.977580  1.0  -0.5864
  O  O100  1  0.430770  0.148260  0.859720  1.0  -0.6001
  O  O101  1  0.108590  0.506980  0.506530  1.0  -0.8136
  O  O102  1  0.483360  0.123160  0.161590  1.0  -0.6206
  O  O103  1  0.601410  0.219210  0.046330  1.0  -0.5829
  O  O104  1  0.165800  0.309750  0.477580  1.0  -0.5857
  O  O105  1  0.069230  0.351740  0.359720  1.0  -0.599
  O  O106  1  0.391410  0.993020  0.006530  1.0  -0.813
  O  O107  1  0.983360  0.623160  0.338410  1.0  -0.6203
  O  O108  1  0.101410  0.719210  0.453670  1.0  -0.5841
  O  O109  1  0.665800  0.809750  0.022420  1.0  -0.5854
  O  O110  1  0.569230  0.851740  0.140280  1.0  -0.5998
  O  O111  1  0.891410  0.493020  0.493470  1.0  -0.8124
  O  O112  1  0.516640  0.876840  0.838410  1.0  -0.6204
  O  O113  1  0.398590  0.780790  0.953670  1.0  -0.5844
  O  O114  1  0.834200  0.690250  0.522420  1.0  -0.5853
  O  O115  1  0.930770  0.648260  0.640280  1.0  -0.6002
  O  O116  1  0.608590  0.006980  0.993470  1.0  -0.8133
