# generated using pymatgen
data_ZnH18(C13N5)2
_symmetry_space_group_name_H-M   'P 1'
_cell_length_a   12.38040000
_cell_length_b   12.38040000
_cell_length_c   46.50500000
_cell_angle_alpha   90.00000000
_cell_angle_beta   90.00000000
_cell_angle_gamma   90.00000000
_symmetry_Int_Tables_number   1
_chemical_formula_structural   ZnH18(C13N5)2
_chemical_formula_sum   'Zn8 H144 C208 N80'
_cell_volume   7128.02151496
_cell_formula_units_Z   8
loop_
 _symmetry_equiv_pos_site_id
 _symmetry_equiv_pos_as_xyz
  1  'x, y, z'
loop_
 _atom_site_type_symbol
 _atom_site_label
 _atom_site_symmetry_multiplicity
 _atom_site_fract_x
 _atom_site_fract_y
 _atom_site_fract_z
 _atom_site_occupancy
 _atom_site_charge
  Zn  Zn1  1  0.185180  0.814820  0.250000  1.0  0.6827
  Zn  Zn2  1  0.814820  0.185180  0.750000  1.0  0.683
  Zn  Zn3  1  0.685180  0.685180  0.500000  1.0  0.6827
  Zn  Zn4  1  0.314820  0.314820  0.000000  1.0  0.6828
  Zn  Zn5  1  0.743610  0.256390  0.250000  1.0  0.6899
  Zn  Zn6  1  0.256390  0.743610  0.750000  1.0  0.6888
  Zn  Zn7  1  0.243610  0.243610  0.500000  1.0  0.6891
  Zn  Zn8  1  0.756390  0.756390  0.000000  1.0  0.6896
  H  H9  1  0.008000  0.750400  0.294700  1.0  0.0876
  H  H10  1  0.917400  0.822100  0.334000  1.0  0.1202
  H  H11  1  0.043200  0.118300  0.314500  1.0  0.1117
  H  H12  1  0.128000  0.035000  0.274600  1.0  0.0742
  H  H13  1  0.871800  0.248200  0.383600  1.0  0.1096
  H  H14  1  0.843000  0.788300  0.402600  1.0  0.0987
  H  H15  1  0.784300  0.677800  0.439700  1.0  0.1027
  H  H16  1  0.721600  0.932700  0.488300  1.0  0.0699
  H  H17  1  0.780200  0.049400  0.453300  1.0  0.1185
  H  H18  1  0.992000  0.249600  0.794700  1.0  0.0875
  H  H19  1  0.082600  0.177900  0.834000  1.0  0.1203
  H  H20  1  0.956800  0.881700  0.814500  1.0  0.1123
  H  H21  1  0.872000  0.965000  0.774600  1.0  0.074
  H  H22  1  0.128200  0.751800  0.883600  1.0  0.1088
  H  H23  1  0.157000  0.211700  0.902600  1.0  0.0985
  H  H24  1  0.215700  0.322200  0.939700  1.0  0.1025
  H  H25  1  0.278400  0.067300  0.988300  1.0  0.0698
  H  H26  1  0.219800  0.950600  0.953300  1.0  0.1189
  H  H27  1  0.749600  0.508000  0.544700  1.0  0.0878
  H  H28  1  0.677900  0.417400  0.584000  1.0  0.1207
  H  H29  1  0.381700  0.543200  0.564500  1.0  0.1122
  H  H30  1  0.465000  0.628000  0.524600  1.0  0.0735
  H  H31  1  0.251800  0.371800  0.633600  1.0  0.1073
  H  H32  1  0.711700  0.343000  0.652600  1.0  0.098
  H  H33  1  0.822200  0.284300  0.689700  1.0  0.1037
  H  H34  1  0.567300  0.221600  0.738300  1.0  0.0697
  H  H35  1  0.450600  0.280200  0.703300  1.0  0.1179
  H  H36  1  0.250400  0.492000  0.044700  1.0  0.0881
  H  H37  1  0.322100  0.582600  0.084000  1.0  0.1208
  H  H38  1  0.618300  0.456800  0.064500  1.0  0.1115
  H  H39  1  0.535000  0.372000  0.024600  1.0  0.073
  H  H40  1  0.748200  0.628200  0.133600  1.0  0.1066
  H  H41  1  0.288300  0.657000  0.152600  1.0  0.0979
  H  H42  1  0.177800  0.715700  0.189700  1.0  0.1048
  H  H43  1  0.432700  0.778400  0.238300  1.0  0.0688
  H  H44  1  0.549400  0.719800  0.203300  1.0  0.1177
  H  H45  1  0.492000  0.250400  0.955300  1.0  0.0873
  H  H46  1  0.582600  0.322100  0.916000  1.0  0.1208
  H  H47  1  0.456800  0.618300  0.935500  1.0  0.1115
  H  H48  1  0.372000  0.535000  0.975400  1.0  0.0742
  H  H49  1  0.628200  0.748200  0.866400  1.0  0.1089
  H  H50  1  0.657000  0.288300  0.847400  1.0  0.0982
  H  H51  1  0.715700  0.177800  0.810300  1.0  0.1021
  H  H52  1  0.778400  0.432700  0.761700  1.0  0.0701
  H  H53  1  0.719800  0.549400  0.796700  1.0  0.1186
  H  H54  1  0.508000  0.749600  0.455300  1.0  0.0875
  H  H55  1  0.417400  0.677900  0.416000  1.0  0.1205
  H  H56  1  0.543200  0.381700  0.435500  1.0  0.1117
  H  H57  1  0.628000  0.465000  0.475400  1.0  0.0729
  H  H58  1  0.371800  0.251800  0.366400  1.0  0.1096
  H  H59  1  0.343000  0.711700  0.347400  1.0  0.098
  H  H60  1  0.284300  0.822200  0.310300  1.0  0.1018
  H  H61  1  0.221600  0.567300  0.261700  1.0  0.0702
  H  H62  1  0.280200  0.450600  0.296700  1.0  0.1187
  H  H63  1  0.750400  0.008000  0.705300  1.0  0.0875
  H  H64  1  0.822100  0.917400  0.666000  1.0  0.1207
  H  H65  1  0.118300  0.043200  0.685500  1.0  0.1121
  H  H66  1  0.035000  0.128000  0.725400  1.0  0.0723
  H  H67  1  0.248200  0.871800  0.616400  1.0  0.1071
  H  H68  1  0.788300  0.843000  0.597400  1.0  0.0974
  H  H69  1  0.677800  0.784300  0.560300  1.0  0.1049
  H  H70  1  0.932700  0.721600  0.511700  1.0  0.0699
  H  H71  1  0.049400  0.780200  0.546700  1.0  0.1181
  H  H72  1  0.249600  0.992000  0.205300  1.0  0.0882
  H  H73  1  0.177900  0.082600  0.166000  1.0  0.1214
  H  H74  1  0.881700  0.956800  0.185500  1.0  0.112
  H  H75  1  0.965000  0.872000  0.225400  1.0  0.0735
  H  H76  1  0.751800  0.128200  0.116400  1.0  0.1069
  H  H77  1  0.211700  0.157000  0.097400  1.0  0.0973
  H  H78  1  0.322200  0.215700  0.060300  1.0  0.1029
  H  H79  1  0.067300  0.278400  0.011700  1.0  0.0698
  H  H80  1  0.950600  0.219800  0.046700  1.0  0.1182
  H  H81  1  0.913000  0.217900  0.294200  1.0  0.0766
  H  H82  1  0.017000  0.303200  0.328800  1.0  0.119
  H  H83  1  0.910600  0.589500  0.297600  1.0  0.1134
  H  H84  1  0.808700  0.490500  0.263300  1.0  0.0779
  H  H85  1  0.098900  0.739300  0.362400  1.0  0.0194
  H  H86  1  0.125200  0.287800  0.393500  1.0  0.1033
  H  H87  1  0.168200  0.196600  0.435600  1.0  0.0705
  H  H88  1  0.195800  0.465900  0.477900  1.0  0.0661
  H  H89  1  0.166400  0.570200  0.436600  1.0  0.1218
  H  H90  1  0.087000  0.782100  0.794200  1.0  0.0765
  H  H91  1  0.983000  0.696800  0.828800  1.0  0.1187
  H  H92  1  0.089400  0.410500  0.797600  1.0  0.113
  H  H93  1  0.191300  0.509500  0.763300  1.0  0.0772
  H  H94  1  0.901100  0.260700  0.862400  1.0  0.0199
  H  H95  1  0.874800  0.712200  0.893500  1.0  0.1038
  H  H96  1  0.831800  0.803400  0.935600  1.0  0.0701
  H  H97  1  0.804200  0.534100  0.977900  1.0  0.0666
  H  H98  1  0.833600  0.429800  0.936600  1.0  0.1213
  H  H99  1  0.282100  0.413000  0.544200  1.0  0.0761
  H  H100  1  0.196800  0.517000  0.578800  1.0  0.119
  H  H101  1  0.910500  0.410600  0.547600  1.0  0.1159
  H  H102  1  0.009500  0.308700  0.513300  1.0  0.0767
  H  H103  1  0.760700  0.598900  0.612400  1.0  0.0173
  H  H104  1  0.212200  0.625200  0.643500  1.0  0.1031
  H  H105  1  0.303400  0.668200  0.685600  1.0  0.0723
  H  H106  1  0.034100  0.695800  0.727900  1.0  0.0658
  H  H107  1  0.929800  0.666400  0.686600  1.0  0.1205
  H  H108  1  0.717900  0.587000  0.044200  1.0  0.0755
  H  H109  1  0.803200  0.483000  0.078800  1.0  0.119
  H  H110  1  0.089500  0.589400  0.047600  1.0  0.1146
  H  H111  1  0.990500  0.691300  0.013300  1.0  0.0774
  H  H112  1  0.239300  0.401100  0.112400  1.0  0.0185
  H  H113  1  0.787800  0.374800  0.143500  1.0  0.1034
  H  H114  1  0.696600  0.331800  0.185600  1.0  0.0718
  H  H115  1  0.965900  0.304200  0.227900  1.0  0.0661
  H  H116  1  0.070200  0.333600  0.186600  1.0  0.1207
  H  H117  1  0.587000  0.717900  0.955800  1.0  0.0756
  H  H118  1  0.483000  0.803200  0.921200  1.0  0.119
  H  H119  1  0.589400  0.089500  0.952400  1.0  0.1123
  H  H120  1  0.691300  0.990500  0.986700  1.0  0.0775
  H  H121  1  0.401100  0.239300  0.887600  1.0  0.0194
  H  H122  1  0.374800  0.787800  0.856500  1.0  0.104
  H  H123  1  0.331800  0.696600  0.814400  1.0  0.0711
  H  H124  1  0.304200  0.965900  0.772100  1.0  0.0664
  H  H125  1  0.333600  0.070200  0.813400  1.0  0.1224
  H  H126  1  0.413000  0.282100  0.455800  1.0  0.0753
  H  H127  1  0.517000  0.196800  0.421200  1.0  0.1189
  H  H128  1  0.410600  0.910500  0.452400  1.0  0.1132
  H  H129  1  0.308700  0.009500  0.486700  1.0  0.0776
  H  H130  1  0.598900  0.760700  0.387600  1.0  0.0208
  H  H131  1  0.625200  0.212200  0.356500  1.0  0.1039
  H  H132  1  0.668200  0.303400  0.314400  1.0  0.07
  H  H133  1  0.695800  0.034100  0.272100  1.0  0.0668
  H  H134  1  0.666400  0.929800  0.313400  1.0  0.1216
  H  H135  1  0.217900  0.913000  0.705800  1.0  0.0752
  H  H136  1  0.303200  0.017000  0.671200  1.0  0.1192
  H  H137  1  0.589500  0.910600  0.702400  1.0  0.1137
  H  H138  1  0.490500  0.808700  0.736700  1.0  0.0765
  H  H139  1  0.739300  0.098900  0.637600  1.0  0.02
  H  H140  1  0.287800  0.125200  0.606500  1.0  0.1044
  H  H141  1  0.196600  0.168200  0.564400  1.0  0.0717
  H  H142  1  0.465900  0.195800  0.522100  1.0  0.0665
  H  H143  1  0.570200  0.166400  0.563400  1.0  0.1212
  H  H144  1  0.782100  0.087000  0.205800  1.0  0.0751
  H  H145  1  0.696800  0.983000  0.171200  1.0  0.1192
  H  H146  1  0.410500  0.089400  0.202400  1.0  0.1161
  H  H147  1  0.509500  0.191300  0.236700  1.0  0.0772
  H  H148  1  0.260700  0.901100  0.137600  1.0  0.0181
  H  H149  1  0.712200  0.874800  0.106500  1.0  0.103
  H  H150  1  0.803400  0.831800  0.064400  1.0  0.0723
  H  H151  1  0.534100  0.804200  0.022100  1.0  0.066
  H  H152  1  0.429800  0.833600  0.063400  1.0  0.1208
  C  C153  1  0.016400  0.826200  0.299000  1.0  0.1499
  C  C154  1  0.963500  0.866900  0.322800  1.0  -0.1799
  C  C155  1  0.977800  0.975600  0.329500  1.0  -0.0961
  C  C156  1  0.037200  0.040200  0.311100  1.0  -0.1412
  C  C157  1  0.086700  0.990400  0.287600  1.0  0.1475
  C  C158  1  0.929300  0.023800  0.355900  1.0  0.3346
  C  C159  1  0.880100  0.170600  0.382000  1.0  0.3235
  C  C160  1  0.854700  0.005400  0.400100  1.0  0.3367
  C  C161  1  0.820600  0.931700  0.423700  1.0  -0.0432
  C  C162  1  0.819700  0.820000  0.420200  1.0  -0.0853
  C  C163  1  0.783200  0.752800  0.442600  1.0  0.1219
  C  C164  1  0.747400  0.903200  0.470500  1.0  0.1455
  C  C165  1  0.781500  0.972700  0.450100  1.0  -0.162
  C  C166  1  0.983600  0.173800  0.799000  1.0  0.1493
  C  C167  1  0.036500  0.133100  0.822800  1.0  -0.1806
  C  C168  1  0.022200  0.024400  0.829500  1.0  -0.0965
  C  C169  1  0.962800  0.959800  0.811100  1.0  -0.1397
  C  C170  1  0.913300  0.009600  0.787600  1.0  0.1476
  C  C171  1  0.070700  0.976200  0.855900  1.0  0.3358
  C  C172  1  0.119900  0.829400  0.882000  1.0  0.3234
  C  C173  1  0.145300  0.994600  0.900100  1.0  0.3378
  C  C174  1  0.179400  0.068300  0.923700  1.0  -0.0434
  C  C175  1  0.180300  0.180000  0.920200  1.0  -0.0839
  C  C176  1  0.216800  0.247200  0.942600  1.0  0.1228
  C  C177  1  0.252600  0.096800  0.970500  1.0  0.1444
  C  C178  1  0.218500  0.027300  0.950100  1.0  -0.1628
  C  C179  1  0.673800  0.516400  0.549000  1.0  0.1486
  C  C180  1  0.633100  0.463500  0.572800  1.0  -0.1796
  C  C181  1  0.524400  0.477800  0.579500  1.0  -0.0952
  C  C182  1  0.459800  0.537200  0.561100  1.0  -0.1454
  C  C183  1  0.509600  0.586700  0.537600  1.0  0.148
  C  C184  1  0.476200  0.429300  0.605900  1.0  0.3337
  C  C185  1  0.329400  0.380100  0.632000  1.0  0.3262
  C  C186  1  0.494600  0.354700  0.650100  1.0  0.3354
  C  C187  1  0.568300  0.320600  0.673700  1.0  -0.0402
  C  C188  1  0.680000  0.319700  0.670200  1.0  -0.0863
  C  C189  1  0.747200  0.283200  0.692600  1.0  0.1219
  C  C190  1  0.596800  0.247400  0.720500  1.0  0.146
  C  C191  1  0.527300  0.281500  0.700100  1.0  -0.1605
  C  C192  1  0.326200  0.483600  0.049000  1.0  0.15
  C  C193  1  0.366900  0.536500  0.072800  1.0  -0.181
  C  C194  1  0.475600  0.522200  0.079500  1.0  -0.0963
  C  C195  1  0.540200  0.462800  0.061100  1.0  -0.1439
  C  C196  1  0.490400  0.413300  0.037600  1.0  0.1474
  C  C197  1  0.523800  0.570700  0.105900  1.0  0.3335
  C  C198  1  0.670600  0.619900  0.132000  1.0  0.3267
  C  C199  1  0.505400  0.645300  0.150100  1.0  0.3355
  C  C200  1  0.431700  0.679400  0.173700  1.0  -0.042
  C  C201  1  0.320000  0.680300  0.170200  1.0  -0.0862
  C  C202  1  0.252800  0.716800  0.192600  1.0  0.1215
  C  C203  1  0.403200  0.752600  0.220500  1.0  0.145
  C  C204  1  0.472700  0.718500  0.200100  1.0  -0.1602
  C  C205  1  0.483600  0.326200  0.951000  1.0  0.1497
  C  C206  1  0.536500  0.366900  0.927200  1.0  -0.1802
  C  C207  1  0.522200  0.475600  0.920500  1.0  -0.0957
  C  C208  1  0.462800  0.540200  0.938900  1.0  -0.1404
  C  C209  1  0.413300  0.490400  0.962400  1.0  0.1475
  C  C210  1  0.570700  0.523800  0.894100  1.0  0.3361
  C  C211  1  0.619900  0.670600  0.868000  1.0  0.3251
  C  C212  1  0.645300  0.505400  0.849900  1.0  0.3378
  C  C213  1  0.679400  0.431700  0.826300  1.0  -0.0432
  C  C214  1  0.680300  0.320000  0.829800  1.0  -0.084
  C  C215  1  0.716800  0.252800  0.807400  1.0  0.1223
  C  C216  1  0.752600  0.403200  0.779500  1.0  0.1455
  C  C217  1  0.718500  0.472700  0.799900  1.0  -0.1623
  C  C218  1  0.516400  0.673800  0.451000  1.0  0.15
  C  C219  1  0.463500  0.633100  0.427200  1.0  -0.1803
  C  C220  1  0.477800  0.524400  0.420500  1.0  -0.0945
  C  C221  1  0.537200  0.459800  0.438900  1.0  -0.1405
  C  C222  1  0.586700  0.509600  0.462400  1.0  0.1486
  C  C223  1  0.429300  0.476200  0.394100  1.0  0.335
  C  C224  1  0.380100  0.329400  0.368000  1.0  0.3241
  C  C225  1  0.354700  0.494600  0.349900  1.0  0.3363
  C  C226  1  0.320600  0.568300  0.326300  1.0  -0.0432
  C  C227  1  0.319700  0.680000  0.329800  1.0  -0.0849
  C  C228  1  0.283200  0.747200  0.307400  1.0  0.1228
  C  C229  1  0.247400  0.596800  0.279500  1.0  0.1446
  C  C230  1  0.281500  0.527300  0.299900  1.0  -0.1641
  C  C231  1  0.826200  0.016400  0.701000  1.0  0.1508
  C  C232  1  0.866900  0.963500  0.677200  1.0  -0.1799
  C  C233  1  0.975600  0.977800  0.670500  1.0  -0.0946
  C  C234  1  0.040200  0.037200  0.688900  1.0  -0.1434
  C  C235  1  0.990400  0.086700  0.712400  1.0  0.1478
  C  C236  1  0.023800  0.929300  0.644100  1.0  0.3345
  C  C237  1  0.170600  0.880100  0.618000  1.0  0.327
  C  C238  1  0.005400  0.854700  0.599900  1.0  0.3361
  C  C239  1  0.931700  0.820600  0.576300  1.0  -0.0407
  C  C240  1  0.820000  0.819700  0.579800  1.0  -0.0862
  C  C241  1  0.752800  0.783200  0.557400  1.0  0.1208
  C  C242  1  0.903200  0.747400  0.529500  1.0  0.1451
  C  C243  1  0.972700  0.781500  0.549900  1.0  -0.1606
  C  C244  1  0.173800  0.983600  0.201000  1.0  0.1502
  C  C245  1  0.133100  0.036500  0.177200  1.0  -0.1807
  C  C246  1  0.024400  0.022200  0.170500  1.0  -0.0943
  C  C247  1  0.959800  0.962800  0.188900  1.0  -0.1435
  C  C248  1  0.009600  0.913300  0.212400  1.0  0.1487
  C  C249  1  0.976200  0.070700  0.144100  1.0  0.3336
  C  C250  1  0.829400  0.119900  0.118000  1.0  0.327
  C  C251  1  0.994600  0.145300  0.099900  1.0  0.3348
  C  C252  1  0.068300  0.179400  0.076300  1.0  -0.0421
  C  C253  1  0.180000  0.180300  0.079800  1.0  -0.087
  C  C254  1  0.247200  0.216800  0.057400  1.0  0.1214
  C  C255  1  0.096800  0.252600  0.029500  1.0  0.1465
  C  C256  1  0.027300  0.218500  0.049900  1.0  -0.1592
  C  C257  1  0.911800  0.293900  0.295300  1.0  0.1509
  C  C258  1  0.975100  0.343300  0.315700  1.0  -0.1845
  C  C259  1  0.973100  0.454200  0.317200  1.0  -0.1172
  C  C260  1  0.911900  0.513100  0.297500  1.0  -0.1408
  C  C261  1  0.850700  0.452800  0.277200  1.0  0.1364
  C  C262  1  0.031200  0.511600  0.341200  1.0  0.3218
  C  C263  1  0.087500  0.661600  0.362600  1.0  0.3225
  C  C264  1  0.109200  0.504400  0.384800  1.0  0.3046
  C  C265  1  0.139600  0.440100  0.410500  1.0  -0.0804
  C  C266  1  0.142800  0.327000  0.410400  1.0  -0.1054
  C  C267  1  0.166800  0.272500  0.435700  1.0  0.1437
  C  C268  1  0.185900  0.429400  0.460100  1.0  0.1623
  C  C269  1  0.164100  0.493100  0.436000  1.0  -0.1578
  C  C270  1  0.088200  0.706100  0.795300  1.0  0.1499
  C  C271  1  0.024900  0.656700  0.815700  1.0  -0.1839
  C  C272  1  0.026900  0.545800  0.817200  1.0  -0.1173
  C  C273  1  0.088100  0.486900  0.797500  1.0  -0.1394
  C  C274  1  0.149300  0.547200  0.777200  1.0  0.1365
  C  C275  1  0.968800  0.488400  0.841200  1.0  0.3208
  C  C276  1  0.912500  0.338400  0.862600  1.0  0.3217
  C  C277  1  0.890800  0.495600  0.884800  1.0  0.3023
  C  C278  1  0.860400  0.559900  0.910500  1.0  -0.0806
  C  C279  1  0.857200  0.673000  0.910400  1.0  -0.1046
  C  C280  1  0.833200  0.727500  0.935700  1.0  0.1438
  C  C281  1  0.814100  0.570600  0.960100  1.0  0.163
  C  C282  1  0.835900  0.506900  0.936000  1.0  -0.1573
  C  C283  1  0.206100  0.411800  0.545300  1.0  0.1466
  C  C284  1  0.156700  0.475100  0.565700  1.0  -0.1811
  C  C285  1  0.045800  0.473100  0.567200  1.0  -0.1174
  C  C286  1  0.986900  0.411900  0.547500  1.0  -0.1411
  C  C287  1  0.047200  0.350700  0.527200  1.0  0.1352
  C  C288  1  0.988400  0.531200  0.591200  1.0  0.3202
  C  C289  1  0.838400  0.587500  0.612600  1.0  0.322
  C  C290  1  0.995600  0.609200  0.634800  1.0  0.301
  C  C291  1  0.059900  0.639600  0.660500  1.0  -0.0804
  C  C292  1  0.173000  0.642800  0.660400  1.0  -0.1026
  C  C293  1  0.227500  0.666800  0.685700  1.0  0.144
  C  C294  1  0.070600  0.685900  0.710100  1.0  0.1628
  C  C295  1  0.006900  0.664100  0.686000  1.0  -0.1519
  C  C296  1  0.793900  0.588200  0.045300  1.0  0.1497
  C  C297  1  0.843300  0.524900  0.065700  1.0  -0.1809
  C  C298  1  0.954200  0.526900  0.067200  1.0  -0.1181
  C  C299  1  0.013100  0.588100  0.047500  1.0  -0.1411
  C  C300  1  0.952800  0.649300  0.027200  1.0  0.1364
  C  C301  1  0.011600  0.468800  0.091200  1.0  0.3202
  C  C302  1  0.161600  0.412500  0.112600  1.0  0.3235
  C  C303  1  0.004400  0.390800  0.134800  1.0  0.3022
  C  C304  1  0.940100  0.360400  0.160500  1.0  -0.0799
  C  C305  1  0.827000  0.357200  0.160400  1.0  -0.1025
  C  C306  1  0.772500  0.333200  0.185700  1.0  0.1449
  C  C307  1  0.929400  0.314100  0.210100  1.0  0.1625
  C  C308  1  0.993100  0.335900  0.186000  1.0  -0.1522
  C  C309  1  0.588200  0.793900  0.954700  1.0  0.1499
  C  C310  1  0.524900  0.843300  0.934300  1.0  -0.1846
  C  C311  1  0.526900  0.954200  0.932800  1.0  -0.1176
  C  C312  1  0.588100  0.013100  0.952500  1.0  -0.1403
  C  C313  1  0.649300  0.952800  0.972800  1.0  0.1364
  C  C314  1  0.468800  0.011600  0.908800  1.0  0.3215
  C  C315  1  0.412500  0.161600  0.887400  1.0  0.3225
  C  C316  1  0.390800  0.004400  0.865200  1.0  0.302
  C  C317  1  0.360400  0.940100  0.839500  1.0  -0.0803
  C  C318  1  0.357200  0.827000  0.839600  1.0  -0.1039
  C  C319  1  0.333200  0.772500  0.814300  1.0  0.1443
  C  C320  1  0.314100  0.929400  0.789900  1.0  0.1625
  C  C321  1  0.335900  0.993100  0.814000  1.0  -0.1597
  C  C322  1  0.411800  0.206100  0.454700  1.0  0.1509
  C  C323  1  0.475100  0.156700  0.434300  1.0  -0.1844
  C  C324  1  0.473100  0.045800  0.432800  1.0  -0.1177
  C  C325  1  0.411900  0.986900  0.452500  1.0  -0.1381
  C  C326  1  0.350700  0.047200  0.472800  1.0  0.1353
  C  C327  1  0.531200  0.988400  0.408800  1.0  0.3228
  C  C328  1  0.587500  0.838400  0.387400  1.0  0.3208
  C  C329  1  0.609200  0.995600  0.365200  1.0  0.3042
  C  C330  1  0.639600  0.059900  0.339500  1.0  -0.0793
  C  C331  1  0.642800  0.173000  0.339600  1.0  -0.1055
  C  C332  1  0.666800  0.227500  0.314300  1.0  0.1444
  C  C333  1  0.685900  0.070600  0.289900  1.0  0.1621
  C  C334  1  0.664100  0.006900  0.314000  1.0  -0.1585
  C  C335  1  0.293900  0.911800  0.704700  1.0  0.1495
  C  C336  1  0.343300  0.975100  0.684300  1.0  -0.1805
  C  C337  1  0.454200  0.973100  0.682800  1.0  -0.1184
  C  C338  1  0.513100  0.911900  0.702500  1.0  -0.1407
  C  C339  1  0.452800  0.850700  0.722800  1.0  0.1364
  C  C340  1  0.511600  0.031200  0.658800  1.0  0.3212
  C  C341  1  0.661600  0.087500  0.637400  1.0  0.3223
  C  C342  1  0.504400  0.109200  0.615200  1.0  0.3006
  C  C343  1  0.440100  0.139600  0.589500  1.0  -0.0799
  C  C344  1  0.327000  0.142800  0.589600  1.0  -0.1025
  C  C345  1  0.272500  0.166800  0.564300  1.0  0.1452
  C  C346  1  0.429400  0.185900  0.539900  1.0  0.1626
  C  C347  1  0.493100  0.164100  0.564000  1.0  -0.1537
  C  C348  1  0.706100  0.088200  0.204700  1.0  0.1471
  C  C349  1  0.656700  0.024900  0.184300  1.0  -0.1818
  C  C350  1  0.545800  0.026900  0.182800  1.0  -0.1178
  C  C351  1  0.486900  0.088100  0.202500  1.0  -0.1406
  C  C352  1  0.547200  0.149300  0.222800  1.0  0.1347
  C  C353  1  0.488400  0.968800  0.158800  1.0  0.3212
  C  C354  1  0.338400  0.912500  0.137400  1.0  0.3208
  C  C355  1  0.495600  0.890800  0.115200  1.0  0.3015
  C  C356  1  0.559900  0.860400  0.089500  1.0  -0.0799
  C  C357  1  0.673000  0.857200  0.089600  1.0  -0.1017
  C  C358  1  0.727500  0.833200  0.064300  1.0  0.1448
  C  C359  1  0.570600  0.814100  0.039900  1.0  0.162
  C  C360  1  0.506900  0.835900  0.064000  1.0  -0.1541
  N  N361  1  0.079000  0.885400  0.281800  1.0  -0.3244
  N  N362  1  0.895100  0.955100  0.376590  1.0  -0.4766
  N  N363  1  0.925600  0.131200  0.357700  1.0  -0.4443
  N  N364  1  0.846700  0.111300  0.404400  1.0  -0.4234
  N  N365  1  0.746900  0.795200  0.467770  1.0  -0.3457
  N  N366  1  0.921000  0.114600  0.781800  1.0  -0.3241
  N  N367  1  0.104900  0.044900  0.876590  1.0  -0.4798
  N  N368  1  0.074400  0.868800  0.857700  1.0  -0.4441
  N  N369  1  0.153300  0.888700  0.904400  1.0  -0.4219
  N  N370  1  0.253100  0.204800  0.967770  1.0  -0.3467
  N  N371  1  0.614600  0.579000  0.531800  1.0  -0.326
  N  N372  1  0.544900  0.395100  0.626590  1.0  -0.4808
  N  N373  1  0.368800  0.425600  0.607700  1.0  -0.4432
  N  N374  1  0.388700  0.346700  0.654400  1.0  -0.4198
  N  N375  1  0.704800  0.246900  0.717770  1.0  -0.3441
  N  N376  1  0.385400  0.421000  0.031800  1.0  -0.3278
  N  N377  1  0.455100  0.604900  0.126590  1.0  -0.4833
  N  N378  1  0.631200  0.574400  0.107700  1.0  -0.4432
  N  N379  1  0.611300  0.653300  0.154400  1.0  -0.4202
  N  N380  1  0.295200  0.753100  0.217770  1.0  -0.3446
  N  N381  1  0.421000  0.385400  0.968200  1.0  -0.3236
  N  N382  1  0.604900  0.455100  0.873410  1.0  -0.4777
  N  N383  1  0.574400  0.631200  0.892300  1.0  -0.4465
  N  N384  1  0.653300  0.611300  0.845600  1.0  -0.426
  N  N385  1  0.753100  0.295200  0.782230  1.0  -0.3483
  N  N386  1  0.579000  0.614600  0.468200  1.0  -0.3224
  N  N387  1  0.395100  0.544900  0.373410  1.0  -0.4785
  N  N388  1  0.425600  0.368800  0.392300  1.0  -0.4447
  N  N389  1  0.346700  0.388700  0.345600  1.0  -0.4271
  N  N390  1  0.246900  0.704800  0.282230  1.0  -0.347
  N  N391  1  0.885400  0.079000  0.718200  1.0  -0.3256
  N  N392  1  0.955100  0.895100  0.623410  1.0  -0.4824
  N  N393  1  0.131200  0.925600  0.642300  1.0  -0.4449
  N  N394  1  0.111300  0.846700  0.595600  1.0  -0.424
  N  N395  1  0.795200  0.746900  0.532230  1.0  -0.3468
  N  N396  1  0.114600  0.921000  0.218200  1.0  -0.3254
  N  N397  1  0.044900  0.104900  0.123410  1.0  -0.4817
  N  N398  1  0.868800  0.074400  0.142300  1.0  -0.4455
  N  N399  1  0.888700  0.153300  0.095600  1.0  -0.422
  N  N400  1  0.204800  0.253100  0.032230  1.0  -0.3448
  N  N401  1  0.851800  0.346600  0.276100  1.0  -0.3133
  N  N402  1  0.065600  0.448400  0.362560  1.0  -0.4527
  N  N403  1  0.039800  0.619600  0.340000  1.0  -0.4137
  N  N404  1  0.122100  0.612000  0.385900  1.0  -0.4198
  N  N405  1  0.188800  0.322700  0.460640  1.0  -0.3398
  N  N406  1  0.148200  0.653400  0.776100  1.0  -0.3125
  N  N407  1  0.934400  0.551600  0.862560  1.0  -0.4527
  N  N408  1  0.960200  0.380400  0.840000  1.0  -0.4138
  N  N409  1  0.877900  0.388000  0.885900  1.0  -0.4158
  N  N410  1  0.811200  0.677300  0.960640  1.0  -0.341
  N  N411  1  0.153400  0.351800  0.526100  1.0  -0.3118
  N  N412  1  0.051600  0.565600  0.612560  1.0  -0.4529
  N  N413  1  0.880400  0.539800  0.590000  1.0  -0.4172
  N  N414  1  0.888000  0.622100  0.635900  1.0  -0.4112
  N  N415  1  0.177300  0.688800  0.710640  1.0  -0.3413
  N  N416  1  0.846600  0.648200  0.026100  1.0  -0.3126
  N  N417  1  0.948400  0.434400  0.112560  1.0  -0.4541
  N  N418  1  0.119600  0.460200  0.090000  1.0  -0.4159
  N  N419  1  0.112000  0.377900  0.135900  1.0  -0.4131
  N  N420  1  0.822700  0.311200  0.210640  1.0  -0.3405
  N  N421  1  0.648200  0.846600  0.973900  1.0  -0.3121
  N  N422  1  0.434400  0.948400  0.887440  1.0  -0.4528
  N  N423  1  0.460200  0.119600  0.910000  1.0  -0.4135
  N  N424  1  0.377900  0.112000  0.864100  1.0  -0.4185
  N  N425  1  0.311200  0.822700  0.789360  1.0  -0.3448
  N  N426  1  0.351800  0.153400  0.473900  1.0  -0.3108
  N  N427  1  0.565600  0.051600  0.387440  1.0  -0.4524
  N  N428  1  0.539800  0.880400  0.410000  1.0  -0.414
  N  N429  1  0.622100  0.888000  0.364100  1.0  -0.4168
  N  N430  1  0.688800  0.177300  0.289360  1.0  -0.3439
  N  N431  1  0.346600  0.851800  0.723900  1.0  -0.3118
  N  N432  1  0.448400  0.065600  0.637440  1.0  -0.4542
  N  N433  1  0.619600  0.039800  0.660000  1.0  -0.416
  N  N434  1  0.612000  0.122100  0.614100  1.0  -0.4138
  N  N435  1  0.322700  0.188800  0.539360  1.0  -0.3451
  N  N436  1  0.653400  0.148200  0.223900  1.0  -0.3108
  N  N437  1  0.551600  0.934400  0.137440  1.0  -0.453
  N  N438  1  0.380400  0.960200  0.160000  1.0  -0.4162
  N  N439  1  0.388000  0.877900  0.114100  1.0  -0.4116
  N  N440  1  0.677300  0.811200  0.039360  1.0  -0.3444
