# generated using pymatgen
data_Zn3H24C54(N7O6)2
_symmetry_space_group_name_H-M   'P 1'
_cell_length_a   29.49700000
_cell_length_b   29.49700000
_cell_length_c   29.49700000
_cell_angle_alpha   90.00000000
_cell_angle_beta   90.00000000
_cell_angle_gamma   90.00000000
_symmetry_Int_Tables_number   1
_chemical_formula_structural   Zn3H24C54(N7O6)2
_chemical_formula_sum   'Zn12 H96 C216 N56 O48'
_cell_volume   25664.54354647
_cell_formula_units_Z   4
loop_
 _symmetry_equiv_pos_site_id
 _symmetry_equiv_pos_as_xyz
  1  'x, y, z'
loop_
 _atom_site_type_symbol
 _atom_site_label
 _atom_site_symmetry_multiplicity
 _atom_site_fract_x
 _atom_site_fract_y
 _atom_site_fract_z
 _atom_site_occupancy
 _atom_site_charge
  Zn  Zn1  1  0.555060  0.055060  0.444940  1.0  0.9526
  Zn  Zn2  1  0.944940  0.944940  0.944940  1.0  0.9622
  Zn  Zn3  1  0.444940  0.555060  0.055060  1.0  0.959
  Zn  Zn4  1  0.055060  0.444940  0.555060  1.0  0.9543
  Zn  Zn5  1  0.805060  0.805060  0.805060  1.0  0.9349
  Zn  Zn6  1  0.694940  0.194940  0.305060  1.0  0.9628
  Zn  Zn7  1  0.305060  0.694940  0.194940  1.0  0.9593
  Zn  Zn8  1  0.194940  0.305060  0.694940  1.0  0.9599
  Zn  Zn9  1  0.625000  0.125000  0.375000  1.0  0.3651
  Zn  Zn10  1  0.875000  0.875000  0.875000  1.0  0.3651
  Zn  Zn11  1  0.375000  0.625000  0.125000  1.0  0.3651
  Zn  Zn12  1  0.125000  0.375000  0.625000  1.0  0.3651
  H  H13  1  0.449300  0.159000  0.444900  1.0  0.1124
  H  H14  1  0.397200  0.215100  0.424100  1.0  0.1147
  H  H15  1  0.468000  0.236600  0.307400  1.0  0.1294
  H  H16  1  0.514100  0.180500  0.327000  1.0  0.0921
  H  H17  1  0.050700  0.841000  0.944900  1.0  0.1132
  H  H18  1  0.102800  0.784900  0.924100  1.0  0.1148
  H  H19  1  0.032000  0.763400  0.807400  1.0  0.131
  H  H20  1  0.985900  0.819500  0.827000  1.0  0.0926
  H  H21  1  0.550700  0.659000  0.055100  1.0  0.1127
  H  H22  1  0.602800  0.715100  0.075900  1.0  0.1149
  H  H23  1  0.532000  0.736600  0.192600  1.0  0.1297
  H  H24  1  0.485900  0.680500  0.173000  1.0  0.0917
  H  H25  1  0.949300  0.341000  0.555100  1.0  0.1134
  H  H26  1  0.897200  0.284900  0.575900  1.0  0.1151
  H  H27  1  0.968000  0.263400  0.692600  1.0  0.1258
  H  H28  1  0.014100  0.319500  0.673000  1.0  0.0933
  H  H29  1  0.444900  0.449300  0.159000  1.0  0.1129
  H  H30  1  0.424100  0.397200  0.215100  1.0  0.1153
  H  H31  1  0.307400  0.468000  0.236600  1.0  0.131
  H  H32  1  0.327000  0.514100  0.180500  1.0  0.0911
  H  H33  1  0.944900  0.050700  0.841000  1.0  0.1145
  H  H34  1  0.924100  0.102800  0.784900  1.0  0.1161
  H  H35  1  0.807400  0.032000  0.763400  1.0  0.1318
  H  H36  1  0.827000  0.985900  0.819500  1.0  0.0907
  H  H37  1  0.055100  0.550700  0.659000  1.0  0.1138
  H  H38  1  0.075900  0.602800  0.715100  1.0  0.1166
  H  H39  1  0.192600  0.532000  0.736600  1.0  0.1307
  H  H40  1  0.173000  0.485900  0.680500  1.0  0.0918
  H  H41  1  0.555100  0.949300  0.341000  1.0  0.1156
  H  H42  1  0.575900  0.897200  0.284900  1.0  0.1155
  H  H43  1  0.692600  0.968000  0.263400  1.0  0.1268
  H  H44  1  0.673000  0.014100  0.319500  1.0  0.0913
  H  H45  1  0.159000  0.444900  0.449300  1.0  0.1136
  H  H46  1  0.215100  0.424100  0.397200  1.0  0.1147
  H  H47  1  0.236600  0.307400  0.468000  1.0  0.1291
  H  H48  1  0.180500  0.327000  0.514100  1.0  0.0914
  H  H49  1  0.841000  0.944900  0.050700  1.0  0.1145
  H  H50  1  0.784900  0.924100  0.102800  1.0  0.1164
  H  H51  1  0.763400  0.807400  0.032000  1.0  0.13
  H  H52  1  0.819500  0.827000  0.985900  1.0  0.0924
  H  H53  1  0.659000  0.055100  0.550700  1.0  0.1136
  H  H54  1  0.715100  0.075900  0.602800  1.0  0.1152
  H  H55  1  0.736600  0.192600  0.532000  1.0  0.1295
  H  H56  1  0.680500  0.173000  0.485900  1.0  0.0927
  H  H57  1  0.341000  0.555100  0.949300  1.0  0.1156
  H  H58  1  0.284900  0.575900  0.897200  1.0  0.1153
  H  H59  1  0.263400  0.692600  0.968000  1.0  0.1256
  H  H60  1  0.319500  0.673000  0.014100  1.0  0.0914
  H  H61  1  0.909000  0.699300  0.805100  1.0  0.114
  H  H62  1  0.965100  0.647200  0.825900  1.0  0.1138
  H  H63  1  0.986600  0.718000  0.942600  1.0  0.1316
  H  H64  1  0.930500  0.764100  0.923000  1.0  0.093
  H  H65  1  0.591000  0.300700  0.305100  1.0  0.1144
  H  H66  1  0.534900  0.352800  0.325900  1.0  0.1149
  H  H67  1  0.513400  0.282000  0.442600  1.0  0.1301
  H  H68  1  0.569500  0.235900  0.423000  1.0  0.0928
  H  H69  1  0.409000  0.800700  0.194900  1.0  0.1137
  H  H70  1  0.465100  0.852800  0.174100  1.0  0.1147
  H  H71  1  0.486600  0.782000  0.057400  1.0  0.1317
  H  H72  1  0.430500  0.735900  0.077000  1.0  0.0923
  H  H73  1  0.091000  0.199300  0.694900  1.0  0.1129
  H  H74  1  0.034900  0.147200  0.674100  1.0  0.1166
  H  H75  1  0.013400  0.218000  0.557400  1.0  0.1267
  H  H76  1  0.069500  0.264100  0.577000  1.0  0.0924
  H  H77  1  0.199300  0.694900  0.091000  1.0  0.1129
  H  H78  1  0.147200  0.674100  0.034900  1.0  0.1188
  H  H79  1  0.218000  0.557400  0.013400  1.0  0.1246
  H  H80  1  0.264100  0.577000  0.069500  1.0  0.0917
  H  H81  1  0.800700  0.194900  0.409000  1.0  0.1142
  H  H82  1  0.852800  0.174100  0.465100  1.0  0.117
  H  H83  1  0.782000  0.057400  0.486600  1.0  0.1297
  H  H84  1  0.735900  0.077000  0.430500  1.0  0.0911
  H  H85  1  0.300700  0.305100  0.591000  1.0  0.1145
  H  H86  1  0.352800  0.325900  0.534900  1.0  0.1158
  H  H87  1  0.282000  0.442600  0.513400  1.0  0.1293
  H  H88  1  0.235900  0.423000  0.569500  1.0  0.0911
  H  H89  1  0.699300  0.805100  0.909000  1.0  0.1139
  H  H90  1  0.647200  0.825900  0.965100  1.0  0.1158
  H  H91  1  0.718000  0.942600  0.986600  1.0  0.129
  H  H92  1  0.764100  0.923000  0.930500  1.0  0.092
  H  H93  1  0.194900  0.409000  0.800700  1.0  0.1143
  H  H94  1  0.174100  0.465100  0.852800  1.0  0.1151
  H  H95  1  0.057400  0.486600  0.782000  1.0  0.1319
  H  H96  1  0.077000  0.430500  0.735900  1.0  0.091
  H  H97  1  0.694900  0.091000  0.199300  1.0  0.1149
  H  H98  1  0.674100  0.034900  0.147200  1.0  0.1175
  H  H99  1  0.557400  0.013400  0.218000  1.0  0.1278
  H  H100  1  0.577000  0.069500  0.264100  1.0  0.0909
  H  H101  1  0.805100  0.909000  0.699300  1.0  0.1158
  H  H102  1  0.825900  0.965100  0.647200  1.0  0.1153
  H  H103  1  0.942600  0.986600  0.718000  1.0  0.1313
  H  H104  1  0.923000  0.930500  0.764100  1.0  0.0913
  H  H105  1  0.305100  0.591000  0.300700  1.0  0.1154
  H  H106  1  0.325900  0.534900  0.352800  1.0  0.1157
  H  H107  1  0.442600  0.513400  0.282000  1.0  0.1308
  H  H108  1  0.423000  0.569500  0.235900  1.0  0.0917
  C  C109  1  0.487700  0.162800  0.386800  1.0  -0.0965
  C  C110  1  0.452200  0.174200  0.417400  1.0  -0.0352
  C  C111  1  0.421900  0.208500  0.405700  1.0  0.0851
  C  C112  1  0.429800  0.234600  0.362600  1.0  -0.1678
  C  C113  1  0.463700  0.221900  0.334900  1.0  -0.104
  C  C114  1  0.490900  0.188000  0.346900  1.0  -0.0408
  C  C115  1  0.523100  0.127700  0.396500  1.0  0.6149
  C  C116  1  0.395800  0.276400  0.355500  1.0  0.1721
  C  C117  1  0.335100  0.316100  0.375100  1.0  0.3488
  C  C118  1  0.012300  0.837200  0.886800  1.0  -0.0915
  C  C119  1  0.047800  0.825800  0.917400  1.0  -0.0336
  C  C120  1  0.078100  0.791500  0.905700  1.0  0.0963
  C  C121  1  0.070200  0.765400  0.862600  1.0  -0.1698
  C  C122  1  0.036300  0.778100  0.834900  1.0  -0.1058
  C  C123  1  0.009100  0.812000  0.846900  1.0  -0.0396
  C  C124  1  0.976900  0.872300  0.896500  1.0  0.615
  C  C125  1  0.104200  0.723600  0.855500  1.0  0.1796
  C  C126  1  0.164900  0.683900  0.875100  1.0  0.3448
  C  C127  1  0.512300  0.662800  0.113200  1.0  -0.0943
  C  C128  1  0.547800  0.674200  0.082600  1.0  -0.0383
  C  C129  1  0.578100  0.708500  0.094300  1.0  0.0888
  C  C130  1  0.570200  0.734600  0.137400  1.0  -0.1641
  C  C131  1  0.536300  0.721900  0.165100  1.0  -0.1074
  C  C132  1  0.509100  0.688000  0.153100  1.0  -0.0389
  C  C133  1  0.476900  0.627700  0.103500  1.0  0.6136
  C  C134  1  0.604200  0.776400  0.144500  1.0  0.1868
  C  C135  1  0.664900  0.816100  0.124900  1.0  0.3476
  C  C136  1  0.987700  0.337200  0.613200  1.0  -0.0954
  C  C137  1  0.952200  0.325800  0.582600  1.0  -0.0377
  C  C138  1  0.921900  0.291500  0.594300  1.0  0.0874
  C  C139  1  0.929800  0.265400  0.637400  1.0  -0.165
  C  C140  1  0.963700  0.278100  0.665100  1.0  -0.1073
  C  C141  1  0.990900  0.312000  0.653100  1.0  -0.0426
  C  C142  1  0.023100  0.372300  0.603500  1.0  0.6141
  C  C143  1  0.895800  0.223600  0.644500  1.0  0.187
  C  C144  1  0.835100  0.183900  0.624900  1.0  0.3438
  C  C145  1  0.386800  0.487700  0.162800  1.0  -0.092
  C  C146  1  0.417400  0.452200  0.174200  1.0  -0.0399
  C  C147  1  0.405700  0.421900  0.208500  1.0  0.0946
  C  C148  1  0.362600  0.429800  0.234600  1.0  -0.167
  C  C149  1  0.334900  0.463700  0.221900  1.0  -0.1011
  C  C150  1  0.346900  0.490900  0.188000  1.0  -0.0415
  C  C151  1  0.396500  0.523100  0.127700  1.0  0.6153
  C  C152  1  0.355500  0.395800  0.276400  1.0  0.1714
  C  C153  1  0.375100  0.335100  0.316100  1.0  0.3502
  C  C154  1  0.886800  0.012300  0.837200  1.0  -0.0883
  C  C155  1  0.917400  0.047800  0.825800  1.0  -0.0372
  C  C156  1  0.905700  0.078100  0.791500  1.0  0.1019
  C  C157  1  0.862600  0.070200  0.765400  1.0  -0.1703
  C  C158  1  0.834900  0.036300  0.778100  1.0  -0.1042
  C  C159  1  0.846900  0.009100  0.812000  1.0  -0.0413
  C  C160  1  0.896500  0.976900  0.872300  1.0  0.6165
  C  C161  1  0.855500  0.104200  0.723600  1.0  0.1765
  C  C162  1  0.875100  0.164900  0.683900  1.0  0.3477
  C  C163  1  0.113200  0.512300  0.662800  1.0  -0.0919
  C  C164  1  0.082600  0.547800  0.674200  1.0  -0.0409
  C  C165  1  0.094300  0.578100  0.708500  1.0  0.0922
  C  C166  1  0.137400  0.570200  0.734600  1.0  -0.167
  C  C167  1  0.165100  0.536300  0.721900  1.0  -0.1018
  C  C168  1  0.153100  0.509100  0.688000  1.0  -0.0398
  C  C169  1  0.103500  0.476900  0.627700  1.0  0.6176
  C  C170  1  0.144500  0.604200  0.776400  1.0  0.1884
  C  C171  1  0.124900  0.664900  0.816100  1.0  0.3457
  C  C172  1  0.613200  0.987700  0.337200  1.0  -0.094
  C  C173  1  0.582600  0.952200  0.325800  1.0  -0.0395
  C  C174  1  0.594300  0.921900  0.291500  1.0  0.0927
  C  C175  1  0.637400  0.929800  0.265400  1.0  -0.1667
  C  C176  1  0.665100  0.963700  0.278100  1.0  -0.1038
  C  C177  1  0.653100  0.990900  0.312000  1.0  -0.0392
  C  C178  1  0.603500  0.023100  0.372300  1.0  0.6161
  C  C179  1  0.644500  0.895800  0.223600  1.0  0.1872
  C  C180  1  0.624900  0.835100  0.183900  1.0  0.3484
  C  C181  1  0.162800  0.386800  0.487700  1.0  -0.0927
  C  C182  1  0.174200  0.417400  0.452200  1.0  -0.0366
  C  C183  1  0.208500  0.405700  0.421900  1.0  0.0936
  C  C184  1  0.234600  0.362600  0.429800  1.0  -0.1677
  C  C185  1  0.221900  0.334900  0.463700  1.0  -0.1047
  C  C186  1  0.188000  0.346900  0.490900  1.0  -0.0413
  C  C187  1  0.127700  0.396500  0.523100  1.0  0.6154
  C  C188  1  0.276400  0.355500  0.395800  1.0  0.1704
  C  C189  1  0.316100  0.375100  0.335100  1.0  0.3463
  C  C190  1  0.837200  0.886800  0.012300  1.0  -0.0913
  C  C191  1  0.825800  0.917400  0.047800  1.0  -0.0355
  C  C192  1  0.791500  0.905700  0.078100  1.0  0.1019
  C  C193  1  0.765400  0.862600  0.070200  1.0  -0.1715
  C  C194  1  0.778100  0.834900  0.036300  1.0  -0.1056
  C  C195  1  0.812000  0.846900  0.009100  1.0  -0.04
  C  C196  1  0.872300  0.896500  0.976900  1.0  0.6148
  C  C197  1  0.723600  0.855500  0.104200  1.0  0.1785
  C  C198  1  0.683900  0.875100  0.164900  1.0  0.3464
  C  C199  1  0.662800  0.113200  0.512300  1.0  -0.0936
  C  C200  1  0.674200  0.082600  0.547800  1.0  -0.0352
  C  C201  1  0.708500  0.094300  0.578100  1.0  0.0946
  C  C202  1  0.734600  0.137400  0.570200  1.0  -0.1659
  C  C203  1  0.721900  0.165100  0.536300  1.0  -0.1056
  C  C204  1  0.688000  0.153100  0.509100  1.0  -0.0394
  C  C205  1  0.627700  0.103500  0.476900  1.0  0.6147
  C  C206  1  0.776400  0.144500  0.604200  1.0  0.1867
  C  C207  1  0.816100  0.124900  0.664900  1.0  0.3423
  C  C208  1  0.337200  0.613200  0.987700  1.0  -0.0923
  C  C209  1  0.325800  0.582600  0.952200  1.0  -0.0379
  C  C210  1  0.291500  0.594300  0.921900  1.0  0.0949
  C  C211  1  0.265400  0.637400  0.929800  1.0  -0.168
  C  C212  1  0.278100  0.665100  0.963700  1.0  -0.1054
  C  C213  1  0.312000  0.653100  0.990900  1.0  -0.04
  C  C214  1  0.372300  0.603500  0.023100  1.0  0.6156
  C  C215  1  0.223600  0.644500  0.895800  1.0  0.187
  C  C216  1  0.183900  0.624900  0.835100  1.0  0.3447
  C  C217  1  0.912800  0.737700  0.863200  1.0  -0.0976
  C  C218  1  0.924200  0.702200  0.832600  1.0  -0.0355
  C  C219  1  0.958500  0.671900  0.844300  1.0  0.0965
  C  C220  1  0.984600  0.679800  0.887400  1.0  -0.1659
  C  C221  1  0.971900  0.713700  0.915100  1.0  -0.107
  C  C222  1  0.938000  0.740900  0.903100  1.0  -0.0395
  C  C223  1  0.877700  0.773100  0.853500  1.0  0.6135
  C  C224  1  0.026400  0.645800  0.894500  1.0  0.1753
  C  C225  1  0.066100  0.585100  0.874900  1.0  0.3484
  C  C226  1  0.587200  0.262300  0.363200  1.0  -0.0949
  C  C227  1  0.575800  0.297800  0.332600  1.0  -0.0369
  C  C228  1  0.541500  0.328100  0.344300  1.0  0.0959
  C  C229  1  0.515400  0.320200  0.387400  1.0  -0.1647
  C  C230  1  0.528100  0.286300  0.415100  1.0  -0.1072
  C  C231  1  0.562000  0.259100  0.403100  1.0  -0.039
  C  C232  1  0.622300  0.226900  0.353500  1.0  0.6146
  C  C233  1  0.473600  0.354200  0.394500  1.0  0.1854
  C  C234  1  0.433900  0.414900  0.374900  1.0  0.3442
  C  C235  1  0.412800  0.762300  0.136800  1.0  -0.0954
  C  C236  1  0.424200  0.797800  0.167400  1.0  -0.0336
  C  C237  1  0.458500  0.828100  0.155700  1.0  0.093
  C  C238  1  0.484600  0.820200  0.112600  1.0  -0.1649
  C  C239  1  0.471900  0.786300  0.084900  1.0  -0.104
  C  C240  1  0.438000  0.759100  0.096900  1.0  -0.0391
  C  C241  1  0.377700  0.726900  0.146500  1.0  0.6154
  C  C242  1  0.526400  0.854200  0.105500  1.0  0.1715
  C  C243  1  0.566100  0.914900  0.125100  1.0  0.341
  C  C244  1  0.087200  0.237700  0.636800  1.0  -0.0963
  C  C245  1  0.075800  0.202200  0.667400  1.0  -0.0372
  C  C246  1  0.041500  0.171900  0.655700  1.0  0.0946
  C  C247  1  0.015400  0.179800  0.612600  1.0  -0.1683
  C  C248  1  0.028100  0.213700  0.584900  1.0  -0.1048
  C  C249  1  0.062000  0.240900  0.596900  1.0  -0.0385
  C  C250  1  0.122300  0.273100  0.646500  1.0  0.6145
  C  C251  1  0.973600  0.145800  0.605500  1.0  0.1736
  C  C252  1  0.933900  0.085100  0.625100  1.0  0.3525
  C  C253  1  0.237700  0.636800  0.087200  1.0  -0.0943
  C  C254  1  0.202200  0.667400  0.075800  1.0  -0.0355
  C  C255  1  0.171900  0.655700  0.041500  1.0  0.0885
  C  C256  1  0.179800  0.612600  0.015400  1.0  -0.1674
  C  C257  1  0.213700  0.584900  0.028100  1.0  -0.1042
  C  C258  1  0.240900  0.596900  0.062000  1.0  -0.0444
  C  C259  1  0.273100  0.646500  0.122300  1.0  0.616
  C  C260  1  0.145800  0.605500  0.973600  1.0  0.1731
  C  C261  1  0.085100  0.625100  0.933900  1.0  0.3569
  C  C262  1  0.762300  0.136800  0.412800  1.0  -0.0921
  C  C263  1  0.797800  0.167400  0.424200  1.0  -0.0379
  C  C264  1  0.828100  0.155700  0.458500  1.0  0.0922
  C  C265  1  0.820200  0.112600  0.484600  1.0  -0.1666
  C  C266  1  0.786300  0.084900  0.471900  1.0  -0.1032
  C  C267  1  0.759100  0.096900  0.438000  1.0  -0.0413
  C  C268  1  0.726900  0.146500  0.377700  1.0  0.617
  C  C269  1  0.854200  0.105500  0.526400  1.0  0.1707
  C  C270  1  0.914900  0.125100  0.566100  1.0  0.3494
  C  C271  1  0.262300  0.363200  0.587200  1.0  -0.0925
  C  C272  1  0.297800  0.332600  0.575800  1.0  -0.0372
  C  C273  1  0.328100  0.344300  0.541500  1.0  0.0901
  C  C274  1  0.320200  0.387400  0.515400  1.0  -0.1649
  C  C275  1  0.286300  0.415100  0.528100  1.0  -0.1051
  C  C276  1  0.259100  0.403100  0.562000  1.0  -0.0397
  C  C277  1  0.226900  0.353500  0.622300  1.0  0.6178
  C  C278  1  0.354200  0.394500  0.473600  1.0  0.1869
  C  C279  1  0.414900  0.374900  0.433900  1.0  0.3497
  C  C280  1  0.737700  0.863200  0.912800  1.0  -0.0938
  C  C281  1  0.702200  0.832600  0.924200  1.0  -0.0372
  C  C282  1  0.671900  0.844300  0.958500  1.0  0.0905
  C  C283  1  0.679800  0.887400  0.984600  1.0  -0.1675
  C  C284  1  0.713700  0.915100  0.971900  1.0  -0.1034
  C  C285  1  0.740900  0.903100  0.938000  1.0  -0.0411
  C  C286  1  0.773100  0.853500  0.877700  1.0  0.6172
  C  C287  1  0.645800  0.894500  0.026400  1.0  0.1771
  C  C288  1  0.585100  0.874900  0.066100  1.0  0.3541
  C  C289  1  0.136800  0.412800  0.762300  1.0  -0.0932
  C  C290  1  0.167400  0.424200  0.797800  1.0  -0.039
  C  C291  1  0.155700  0.458500  0.828100  1.0  0.0887
  C  C292  1  0.112600  0.484600  0.820200  1.0  -0.168
  C  C293  1  0.084900  0.471900  0.786300  1.0  -0.1042
  C  C294  1  0.096900  0.438000  0.759100  1.0  -0.0399
  C  C295  1  0.146500  0.377700  0.726900  1.0  0.6141
  C  C296  1  0.105500  0.526400  0.854200  1.0  0.17
  C  C297  1  0.125100  0.566100  0.914900  1.0  0.346
  C  C298  1  0.636800  0.087200  0.237700  1.0  -0.0912
  C  C299  1  0.667400  0.075800  0.202200  1.0  -0.0391
  C  C300  1  0.655700  0.041500  0.171900  1.0  0.09
  C  C301  1  0.612600  0.015400  0.179800  1.0  -0.1678
  C  C302  1  0.584900  0.028100  0.213700  1.0  -0.1026
  C  C303  1  0.596900  0.062000  0.240900  1.0  -0.0412
  C  C304  1  0.646500  0.122300  0.273100  1.0  0.6142
  C  C305  1  0.605500  0.973600  0.145800  1.0  0.175
  C  C306  1  0.625100  0.933900  0.085100  1.0  0.3535
  C  C307  1  0.863200  0.912800  0.737700  1.0  -0.0922
  C  C308  1  0.832600  0.924200  0.702200  1.0  -0.0401
  C  C309  1  0.844300  0.958500  0.671900  1.0  0.0889
  C  C310  1  0.887400  0.984600  0.679800  1.0  -0.1684
  C  C311  1  0.915100  0.971900  0.713700  1.0  -0.103
  C  C312  1  0.903100  0.938000  0.740900  1.0  -0.0389
  C  C313  1  0.853500  0.877700  0.773100  1.0  0.6155
  C  C314  1  0.894500  0.026400  0.645800  1.0  0.1768
  C  C315  1  0.874900  0.066100  0.585100  1.0  0.3515
  C  C316  1  0.363200  0.587200  0.262300  1.0  -0.0916
  C  C317  1  0.332600  0.575800  0.297800  1.0  -0.0402
  C  C318  1  0.344300  0.541500  0.328100  1.0  0.0872
  C  C319  1  0.387400  0.515400  0.320200  1.0  -0.1649
  C  C320  1  0.415100  0.528100  0.286300  1.0  -0.1056
  C  C321  1  0.403100  0.562000  0.259100  1.0  -0.0399
  C  C322  1  0.353500  0.622300  0.226900  1.0  0.6145
  C  C323  1  0.394500  0.473600  0.354200  1.0  0.1877
  C  C324  1  0.374900  0.433900  0.414900  1.0  0.3432
  N  N325  1  0.361500  0.279500  0.385700  1.0  -0.2183
  N  N326  1  0.405390  0.300200  0.320400  1.0  -0.1764
  N  N327  1  0.138500  0.720500  0.885700  1.0  -0.2185
  N  N328  1  0.094610  0.699800  0.820400  1.0  -0.1801
  N  N329  1  0.638500  0.779500  0.114300  1.0  -0.2248
  N  N330  1  0.594610  0.800200  0.179600  1.0  -0.174
  N  N331  1  0.861500  0.220500  0.614300  1.0  -0.2268
  N  N332  1  0.905390  0.199800  0.679600  1.0  -0.1765
  N  N333  1  0.385700  0.361500  0.279500  1.0  -0.2256
  N  N334  1  0.320400  0.405390  0.300200  1.0  -0.1748
  N  N335  1  0.885700  0.138500  0.720500  1.0  -0.2214
  N  N336  1  0.820400  0.094610  0.699800  1.0  -0.1795
  N  N337  1  0.114300  0.638500  0.779500  1.0  -0.2272
  N  N338  1  0.179600  0.594610  0.800200  1.0  -0.178
  N  N339  1  0.614300  0.861500  0.220500  1.0  -0.2253
  N  N340  1  0.679600  0.905390  0.199800  1.0  -0.178
  N  N341  1  0.279500  0.385700  0.361500  1.0  -0.218
  N  N342  1  0.300200  0.320400  0.405390  1.0  -0.1747
  N  N343  1  0.720500  0.885700  0.138500  1.0  -0.2212
  N  N344  1  0.699800  0.820400  0.094610  1.0  -0.1774
  N  N345  1  0.779500  0.114300  0.638500  1.0  -0.2235
  N  N346  1  0.800200  0.179600  0.594610  1.0  -0.1756
  N  N347  1  0.220500  0.614300  0.861500  1.0  -0.2272
  N  N348  1  0.199800  0.679600  0.905390  1.0  -0.1759
  N  N349  1  0.029500  0.611500  0.864300  1.0  -0.2216
  N  N350  1  0.050200  0.655390  0.929600  1.0  -0.1737
  N  N351  1  0.470500  0.388500  0.364300  1.0  -0.2297
  N  N352  1  0.449800  0.344610  0.429600  1.0  -0.1747
  N  N353  1  0.529500  0.888500  0.135700  1.0  -0.2179
  N  N354  1  0.550200  0.844610  0.070400  1.0  -0.1753
  N  N355  1  0.970500  0.111500  0.635700  1.0  -0.2228
  N  N356  1  0.949800  0.155390  0.570400  1.0  -0.1775
  N  N357  1  0.111500  0.635700  0.970500  1.0  -0.216
  N  N358  1  0.155390  0.570400  0.949800  1.0  -0.1745
  N  N359  1  0.888500  0.135700  0.529500  1.0  -0.2227
  N  N360  1  0.844610  0.070400  0.550200  1.0  -0.1738
  N  N361  1  0.388500  0.364300  0.470500  1.0  -0.2261
  N  N362  1  0.344610  0.429600  0.449800  1.0  -0.173
  N  N363  1  0.611500  0.864300  0.029500  1.0  -0.2199
  N  N364  1  0.655390  0.929600  0.050200  1.0  -0.1739
  N  N365  1  0.135700  0.529500  0.888500  1.0  -0.2192
  N  N366  1  0.070400  0.550200  0.844610  1.0  -0.1745
  N  N367  1  0.635700  0.970500  0.111500  1.0  -0.2186
  N  N368  1  0.570400  0.949800  0.155390  1.0  -0.1763
  N  N369  1  0.864300  0.029500  0.611500  1.0  -0.2138
  N  N370  1  0.929600  0.050200  0.655390  1.0  -0.1751
  N  N371  1  0.364300  0.470500  0.388500  1.0  -0.2223
  N  N372  1  0.429600  0.449800  0.344610  1.0  -0.1776
  N  N373  1  0.342430  0.342430  0.342430  1.0  0.0923
  N  N374  1  0.157570  0.657570  0.842430  1.0  0.0917
  N  N375  1  0.657570  0.842430  0.157570  1.0  0.0943
  N  N376  1  0.842430  0.157570  0.657570  1.0  0.0926
  N  N377  1  0.092430  0.592430  0.907570  1.0  0.0927
  N  N378  1  0.407570  0.407570  0.407570  1.0  0.0928
  N  N379  1  0.592430  0.907570  0.092430  1.0  0.0911
  N  N380  1  0.907570  0.092430  0.592430  1.0  0.0914
  O  O381  1  0.515730  0.103940  0.431130  1.0  -0.594
  O  O382  1  0.562350  0.126180  0.370870  1.0  -0.662
  O  O383  1  0.984270  0.896060  0.931130  1.0  -0.5917
  O  O384  1  0.937650  0.873820  0.870870  1.0  -0.6612
  O  O385  1  0.484270  0.603940  0.068870  1.0  -0.5936
  O  O386  1  0.437650  0.626180  0.129130  1.0  -0.6656
  O  O387  1  0.015730  0.396060  0.568870  1.0  -0.5938
  O  O388  1  0.062350  0.373820  0.629130  1.0  -0.6648
  O  O389  1  0.431130  0.515730  0.103940  1.0  -0.5941
  O  O390  1  0.370870  0.562350  0.126180  1.0  -0.6606
  O  O391  1  0.931130  0.984270  0.896060  1.0  -0.5921
  O  O392  1  0.870870  0.937650  0.873820  1.0  -0.6612
  O  O393  1  0.068870  0.484270  0.603940  1.0  -0.5929
  O  O394  1  0.129130  0.437650  0.626180  1.0  -0.6599
  O  O395  1  0.568870  0.015730  0.396060  1.0  -0.5949
  O  O396  1  0.629130  0.062350  0.373820  1.0  -0.6603
  O  O397  1  0.103940  0.431130  0.515730  1.0  -0.5918
  O  O398  1  0.126180  0.370870  0.562350  1.0  -0.6628
  O  O399  1  0.896060  0.931130  0.984270  1.0  -0.591
  O  O400  1  0.873820  0.870870  0.937650  1.0  -0.6614
  O  O401  1  0.603940  0.068870  0.484270  1.0  -0.5927
  O  O402  1  0.626180  0.129130  0.437650  1.0  -0.6617
  O  O403  1  0.396060  0.568870  0.015730  1.0  -0.5932
  O  O404  1  0.373820  0.629130  0.062350  1.0  -0.6645
  O  O405  1  0.853940  0.765730  0.818870  1.0  -0.5928
  O  O406  1  0.876180  0.812350  0.879130  1.0  -0.6644
  O  O407  1  0.646060  0.234270  0.318870  1.0  -0.5941
  O  O408  1  0.623820  0.187650  0.379130  1.0  -0.6654
  O  O409  1  0.353940  0.734270  0.181130  1.0  -0.5903
  O  O410  1  0.376180  0.687650  0.120870  1.0  -0.6606
  O  O411  1  0.146060  0.265730  0.681130  1.0  -0.5956
  O  O412  1  0.123820  0.312350  0.620870  1.0  -0.6614
  O  O413  1  0.265730  0.681130  0.146060  1.0  -0.5926
  O  O414  1  0.312350  0.620870  0.123820  1.0  -0.6609
  O  O415  1  0.734270  0.181130  0.353940  1.0  -0.5939
  O  O416  1  0.687650  0.120870  0.376180  1.0  -0.6619
  O  O417  1  0.234270  0.318870  0.646060  1.0  -0.5943
  O  O418  1  0.187650  0.379130  0.623820  1.0  -0.6629
  O  O419  1  0.765730  0.818870  0.853940  1.0  -0.5938
  O  O420  1  0.812350  0.879130  0.876180  1.0  -0.662
  O  O421  1  0.181130  0.353940  0.734270  1.0  -0.5923
  O  O422  1  0.120870  0.376180  0.687650  1.0  -0.6619
  O  O423  1  0.681130  0.146060  0.265730  1.0  -0.5934
  O  O424  1  0.620870  0.123820  0.312350  1.0  -0.6627
  O  O425  1  0.818870  0.853940  0.765730  1.0  -0.5915
  O  O426  1  0.879130  0.876180  0.812350  1.0  -0.6624
  O  O427  1  0.318870  0.646060  0.234270  1.0  -0.5896
  O  O428  1  0.379130  0.623820  0.187650  1.0  -0.6601
