# generated using pymatgen
data_U5(PO4)4
_symmetry_space_group_name_H-M   'P 1'
_cell_length_a   9.44420000
_cell_length_b   15.44900000
_cell_length_c   9.57190000
_cell_angle_alpha   90.00000000
_cell_angle_beta   93.26800000
_cell_angle_gamma   90.00000000
_symmetry_Int_Tables_number   1
_chemical_formula_structural   U5(PO4)4
_chemical_formula_sum   'U10 P8 O32'
_cell_volume   1394.30210050
_cell_formula_units_Z   2
loop_
 _symmetry_equiv_pos_site_id
 _symmetry_equiv_pos_as_xyz
  1  'x, y, z'
loop_
 _atom_site_type_symbol
 _atom_site_label
 _atom_site_symmetry_multiplicity
 _atom_site_fract_x
 _atom_site_fract_y
 _atom_site_fract_z
 _atom_site_occupancy
 _atom_site_charge
  U  U1  1  0.450780  0.229630  0.198320  1.0  1.7877
  U  U2  1  0.950780  0.729630  0.698320  1.0  1.7877
  U  U3  1  0.549220  0.229630  0.801680  1.0  1.7888
  U  U4  1  0.049220  0.729630  0.301680  1.0  1.7888
  U  U5  1  0.549220  0.770370  0.801680  1.0  1.7886
  U  U6  1  0.049220  0.270370  0.301680  1.0  1.7886
  U  U7  1  0.450780  0.770370  0.198320  1.0  1.7875
  U  U8  1  0.950780  0.270370  0.698320  1.0  1.7875
  U  U9  1  0.000000  0.000000  0.000000  1.0  1.8404
  U  U10  1  0.500000  0.500000  0.500000  1.0  1.8404
  P  P11  1  0.203000  0.201400  0.968300  1.0  1.5448
  P  P12  1  0.703000  0.701400  0.468300  1.0  1.5448
  P  P13  1  0.797000  0.201400  0.031700  1.0  1.5476
  P  P14  1  0.297000  0.701400  0.531700  1.0  1.5476
  P  P15  1  0.797000  0.798600  0.031700  1.0  1.5478
  P  P16  1  0.297000  0.298600  0.531700  1.0  1.5478
  P  P17  1  0.203000  0.798600  0.968300  1.0  1.5449
  P  P18  1  0.703000  0.298600  0.468300  1.0  1.5449
  O  O19  1  0.364500  0.201100  0.949300  1.0  -0.9715
  O  O20  1  0.196100  0.231100  0.117600  1.0  -0.9778
  O  O21  1  0.124800  0.264700  0.864800  1.0  -0.9051
  O  O22  1  0.147600  0.109200  0.946400  1.0  -0.9396
  O  O23  1  0.864500  0.701100  0.449300  1.0  -0.9715
  O  O24  1  0.696100  0.731100  0.617600  1.0  -0.9778
  O  O25  1  0.624800  0.764700  0.364800  1.0  -0.9055
  O  O26  1  0.647600  0.609200  0.446400  1.0  -0.9396
  O  O27  1  0.635500  0.201100  0.050700  1.0  -0.9726
  O  O28  1  0.803900  0.231100  0.882400  1.0  -0.9758
  O  O29  1  0.875200  0.264700  0.135200  1.0  -0.9057
  O  O30  1  0.852400  0.109200  0.053600  1.0  -0.9398
  O  O31  1  0.135500  0.701100  0.550700  1.0  -0.9726
  O  O32  1  0.303900  0.731100  0.382400  1.0  -0.9758
  O  O33  1  0.375200  0.764700  0.635200  1.0  -0.9061
  O  O34  1  0.352400  0.609200  0.553600  1.0  -0.9398
  O  O35  1  0.635500  0.798900  0.050700  1.0  -0.9729
  O  O36  1  0.803900  0.768900  0.882400  1.0  -0.9762
  O  O37  1  0.875200  0.735300  0.135200  1.0  -0.905
  O  O38  1  0.852400  0.890800  0.053600  1.0  -0.9412
  O  O39  1  0.135500  0.298900  0.550700  1.0  -0.9729
  O  O40  1  0.303900  0.268900  0.382400  1.0  -0.9762
  O  O41  1  0.375200  0.235300  0.635200  1.0  -0.9046
  O  O42  1  0.352400  0.390800  0.553600  1.0  -0.9412
  O  O43  1  0.364500  0.798900  0.949300  1.0  -0.9715
  O  O44  1  0.196100  0.768900  0.117600  1.0  -0.9775
  O  O45  1  0.124800  0.735300  0.864800  1.0  -0.9035
  O  O46  1  0.147600  0.890800  0.946400  1.0  -0.9421
  O  O47  1  0.864500  0.298900  0.449300  1.0  -0.9715
  O  O48  1  0.696100  0.268900  0.617600  1.0  -0.9775
  O  O49  1  0.624800  0.235300  0.364800  1.0  -0.9037
  O  O50  1  0.647600  0.390800  0.446400  1.0  -0.9421
