# generated using pymatgen
data_Co2H3(C3N4)3
_symmetry_space_group_name_H-M   'P 1'
_cell_length_a   18.64000000
_cell_length_b   18.64000000
_cell_length_c   18.64000000
_cell_angle_alpha   90.00000000
_cell_angle_beta   90.00000000
_cell_angle_gamma   90.00000000
_symmetry_Int_Tables_number   1
_chemical_formula_structural   Co2H3(C3N4)3
_chemical_formula_sum   'Co8 H12 C36 N48'
_cell_volume   6476.46054400
_cell_formula_units_Z   4
loop_
 _symmetry_equiv_pos_site_id
 _symmetry_equiv_pos_as_xyz
  1  'x, y, z'
loop_
 _atom_site_type_symbol
 _atom_site_label
 _atom_site_symmetry_multiplicity
 _atom_site_fract_x
 _atom_site_fract_y
 _atom_site_fract_z
 _atom_site_occupancy
 _atom_site_charge
  Co  Co1  1  0.066720  0.933280  0.433280  1.0  0.7118
  Co  Co2  1  0.433280  0.066720  0.933280  1.0  0.7106
  Co  Co3  1  0.933280  0.433280  0.066720  1.0  0.7126
  Co  Co4  1  0.566720  0.566720  0.566720  1.0  0.7014
  Co  Co5  1  0.183280  0.816720  0.316720  1.0  0.7057
  Co  Co6  1  0.316720  0.183280  0.816720  1.0  0.7059
  Co  Co7  1  0.683280  0.683280  0.683280  1.0  0.7182
  Co  Co8  1  0.816720  0.316720  0.183280  1.0  0.705
  H  H9  1  0.961800  0.625000  0.288200  1.0  0.1029
  H  H10  1  0.538200  0.375000  0.788200  1.0  0.104
  H  H11  1  0.038200  0.125000  0.211800  1.0  0.1033
  H  H12  1  0.461800  0.875000  0.711800  1.0  0.1034
  H  H13  1  0.288200  0.961800  0.625000  1.0  0.1029
  H  H14  1  0.788200  0.538200  0.375000  1.0  0.1033
  H  H15  1  0.211800  0.038200  0.125000  1.0  0.1023
  H  H16  1  0.711800  0.461800  0.875000  1.0  0.1026
  H  H17  1  0.625000  0.288200  0.961800  1.0  0.103
  H  H18  1  0.375000  0.788200  0.538200  1.0  0.1035
  H  H19  1  0.125000  0.211800  0.038200  1.0  0.1024
  H  H20  1  0.875000  0.711800  0.461800  1.0  0.1034
  C  C21  1  0.927450  0.677450  0.375000  1.0  -0.0376
  C  C22  1  0.983670  0.733670  0.375000  1.0  0.3737
  C  C23  1  0.572550  0.322550  0.875000  1.0  -0.0317
  C  C24  1  0.516330  0.266330  0.875000  1.0  0.374
  C  C25  1  0.072550  0.177450  0.125000  1.0  -0.0412
  C  C26  1  0.016330  0.233670  0.125000  1.0  0.3735
  C  C27  1  0.427450  0.822550  0.625000  1.0  -0.0382
  C  C28  1  0.483670  0.766330  0.625000  1.0  0.3741
  C  C29  1  0.375000  0.927450  0.677450  1.0  -0.0397
  C  C30  1  0.375000  0.983670  0.733670  1.0  0.3738
  C  C31  1  0.875000  0.572550  0.322550  1.0  -0.0319
  C  C32  1  0.875000  0.516330  0.266330  1.0  0.3747
  C  C33  1  0.125000  0.072550  0.177450  1.0  -0.0412
  C  C34  1  0.125000  0.016330  0.233670  1.0  0.3743
  C  C35  1  0.625000  0.427450  0.822550  1.0  -0.0403
  C  C36  1  0.625000  0.483670  0.766330  1.0  0.3741
  C  C37  1  0.677450  0.375000  0.927450  1.0  -0.0386
  C  C38  1  0.733670  0.375000  0.983670  1.0  0.374
  C  C39  1  0.322550  0.875000  0.572550  1.0  -0.0321
  C  C40  1  0.266330  0.875000  0.516330  1.0  0.3742
  C  C41  1  0.177450  0.125000  0.072550  1.0  -0.04
  C  C42  1  0.233670  0.125000  0.016330  1.0  0.3744
  C  C43  1  0.822550  0.625000  0.427450  1.0  -0.0407
  C  C44  1  0.766330  0.625000  0.483670  1.0  0.3741
  C  C45  1  0.926500  0.625000  0.323500  1.0  -0.0522
  C  C46  1  0.573500  0.375000  0.823500  1.0  -0.0559
  C  C47  1  0.073500  0.125000  0.176500  1.0  -0.0552
  C  C48  1  0.426500  0.875000  0.676500  1.0  -0.0532
  C  C49  1  0.323500  0.926500  0.625000  1.0  -0.0513
  C  C50  1  0.823500  0.573500  0.375000  1.0  -0.0501
  C  C51  1  0.176500  0.073500  0.125000  1.0  -0.0575
  C  C52  1  0.676500  0.426500  0.875000  1.0  -0.053
  C  C53  1  0.625000  0.323500  0.926500  1.0  -0.0519
  C  C54  1  0.375000  0.823500  0.573500  1.0  -0.0563
  C  C55  1  0.125000  0.176500  0.073500  1.0  -0.0588
  C  C56  1  0.875000  0.676500  0.426500  1.0  -0.0534
  N  N57  1  0.038550  0.829390  0.396790  1.0  -0.0878
  N  N58  1  0.978080  0.794490  0.412630  1.0  -0.3376
  N  N59  1  0.461450  0.170610  0.896790  1.0  -0.0873
  N  N60  1  0.521920  0.205510  0.912630  1.0  -0.3394
  N  N61  1  0.961450  0.329390  0.103210  1.0  -0.0872
  N  N62  1  0.021920  0.294490  0.087370  1.0  -0.3411
  N  N63  1  0.538550  0.670610  0.603210  1.0  -0.0867
  N  N64  1  0.478080  0.705510  0.587370  1.0  -0.345
  N  N65  1  0.396790  0.038550  0.829390  1.0  -0.0867
  N  N66  1  0.412630  0.978080  0.794490  1.0  -0.3378
  N  N67  1  0.896790  0.461450  0.170610  1.0  -0.0871
  N  N68  1  0.912630  0.521920  0.205510  1.0  -0.3399
  N  N69  1  0.103210  0.961450  0.329390  1.0  -0.0871
  N  N70  1  0.087370  0.021920  0.294490  1.0  -0.3417
  N  N71  1  0.603210  0.538550  0.670610  1.0  -0.0867
  N  N72  1  0.587370  0.478080  0.705510  1.0  -0.3437
  N  N73  1  0.829390  0.396790  0.038550  1.0  -0.0865
  N  N74  1  0.794490  0.412630  0.978080  1.0  -0.3399
  N  N75  1  0.170610  0.896790  0.461450  1.0  -0.0867
  N  N76  1  0.205510  0.912630  0.521920  1.0  -0.3399
  N  N77  1  0.329390  0.103210  0.961450  1.0  -0.0866
  N  N78  1  0.294490  0.087370  0.021920  1.0  -0.3404
  N  N79  1  0.670610  0.603210  0.538550  1.0  -0.0872
  N  N80  1  0.705510  0.587370  0.478080  1.0  -0.3456
  N  N81  1  0.079390  0.788550  0.353210  1.0  -0.0864
  N  N82  1  0.044490  0.728080  0.337370  1.0  -0.344
  N  N83  1  0.420610  0.211450  0.853210  1.0  -0.0867
  N  N84  1  0.455510  0.271920  0.837370  1.0  -0.3404
  N  N85  1  0.579390  0.711450  0.646790  1.0  -0.087
  N  N86  1  0.544490  0.771920  0.662630  1.0  -0.3417
  N  N87  1  0.920610  0.288550  0.146790  1.0  -0.0866
  N  N88  1  0.955510  0.228080  0.162630  1.0  -0.3454
  N  N89  1  0.288550  0.146790  0.920610  1.0  -0.0879
  N  N90  1  0.228080  0.162630  0.955510  1.0  -0.3451
  N  N91  1  0.711450  0.646790  0.579390  1.0  -0.0889
  N  N92  1  0.771920  0.662630  0.544490  1.0  -0.3413
  N  N93  1  0.211450  0.853210  0.420610  1.0  -0.089
  N  N94  1  0.271920  0.837370  0.455510  1.0  -0.3392
  N  N95  1  0.788550  0.353210  0.079390  1.0  -0.0876
  N  N96  1  0.728080  0.337370  0.044490  1.0  -0.3435
  N  N97  1  0.646790  0.579390  0.711450  1.0  -0.0864
  N  N98  1  0.662630  0.544490  0.771920  1.0  -0.3426
  N  N99  1  0.146790  0.920610  0.288550  1.0  -0.0858
  N  N100  1  0.162630  0.955510  0.228080  1.0  -0.341
  N  N101  1  0.353210  0.079390  0.788550  1.0  -0.0859
  N  N102  1  0.337370  0.044490  0.728080  1.0  -0.3446
  N  N103  1  0.853210  0.420610  0.211450  1.0  -0.0857
  N  N104  1  0.837370  0.455510  0.271920  1.0  -0.3465
