# generated using pymatgen
data_Co3H16(C9O7)2
_symmetry_space_group_name_H-M   'P 1'
_cell_length_a   7.79900000
_cell_length_b   9.21200000
_cell_length_c   10.78400000
_cell_angle_alpha   107.59500000
_cell_angle_beta   92.87700000
_cell_angle_gamma   110.24800000
_symmetry_Int_Tables_number   1
_chemical_formula_structural   Co3H16(C9O7)2
_chemical_formula_sum   'Co3 H16 C18 O14'
_cell_volume   682.42552266
_cell_formula_units_Z   1
loop_
 _symmetry_equiv_pos_site_id
 _symmetry_equiv_pos_as_xyz
  1  'x, y, z'
loop_
 _atom_site_type_symbol
 _atom_site_label
 _atom_site_symmetry_multiplicity
 _atom_site_fract_x
 _atom_site_fract_y
 _atom_site_fract_z
 _atom_site_occupancy
 _atom_site_charge
  Co  Co1  1  0.348480  0.859160  0.870490  1.0  1.1331
  Co  Co2  1  0.651520  0.140840  0.129510  1.0  1.1368
  Co  Co3  1  0.000000  0.000000  0.000000  1.0  0.8189
  H  H4  1  0.676500  0.018400  0.588300  1.0  0.1351
  H  H5  1  0.878000  0.145800  0.643000  1.0  0.1407
  H  H6  1  0.823500  0.478000  0.569300  1.0  0.141
  H  H7  1  0.968700  0.428100  0.631100  1.0  0.1401
  H  H8  1  0.935100  0.392200  0.862200  1.0  0.1329
  H  H9  1  0.761300  0.407300  0.920000  1.0  0.1406
  H  H10  1  0.156600  0.003600  0.784100  1.0  0.3946
  H  H11  1  0.303300  0.136600  0.904200  1.0  0.3318
  H  H12  1  0.323500  0.981600  0.411700  1.0  0.1361
  H  H13  1  0.122000  0.854200  0.357000  1.0  0.1398
  H  H14  1  0.176500  0.522000  0.430700  1.0  0.1407
  H  H15  1  0.031300  0.571900  0.368900  1.0  0.1399
  H  H16  1  0.064900  0.607800  0.137800  1.0  0.1359
  H  H17  1  0.238700  0.592700  0.080000  1.0  0.1387
  H  H18  1  0.843400  0.996400  0.215900  1.0  0.395
  H  H19  1  0.696700  0.863400  0.095800  1.0  0.3665
  C  C20  1  0.698400  0.188000  0.768700  1.0  -0.0834
  C  C21  1  0.750900  0.131400  0.632800  1.0  -0.167
  C  C22  1  0.718300  0.233200  0.552000  1.0  -0.0617
  C  C23  1  0.842300  0.415700  0.621000  1.0  -0.1729
  C  C24  1  0.791700  0.478500  0.757600  1.0  -0.0873
  C  C25  1  0.807900  0.373900  0.840900  1.0  -0.1876
  C  C26  1  0.740100  0.100600  0.858100  1.0  0.7248
  C  C27  1  0.749000  0.174100  0.410600  1.0  0.7028
  C  C28  1  0.923200  0.655700  0.831900  1.0  0.7229
  C  C29  1  0.301600  0.812000  0.231300  1.0  -0.0828
  C  C30  1  0.249100  0.868600  0.367200  1.0  -0.1664
  C  C31  1  0.281700  0.766800  0.448000  1.0  -0.0612
  C  C32  1  0.157700  0.584300  0.379000  1.0  -0.173
  C  C33  1  0.208300  0.521500  0.242400  1.0  -0.0874
  C  C34  1  0.192100  0.626100  0.159100  1.0  -0.1872
  C  C35  1  0.259900  0.899400  0.141900  1.0  0.7237
  C  C36  1  0.251000  0.825900  0.589400  1.0  0.7028
  C  C37  1  0.076800  0.344300  0.168100  1.0  0.7226
  O  O38  1  0.895900  0.092800  0.870500  1.0  -0.5466
  O  O39  1  0.615600  0.047000  0.923800  1.0  -0.7275
  O  O40  1  0.869500  0.113900  0.383500  1.0  -0.5752
  O  O41  1  0.648100  0.191100  0.325400  1.0  -0.6075
  O  O42  1  0.853900  0.762200  0.878500  1.0  -0.5819
  O  O43  1  0.093200  0.682000  0.846700  1.0  -0.6263
  O  O44  1  0.213900  0.027000  0.871500  1.0  -0.8497
  O  O45  1  0.104100  0.907200  0.129500  1.0  -0.5465
  O  O46  1  0.384400  0.953000  0.076200  1.0  -0.7257
  O  O47  1  0.130500  0.886100  0.616500  1.0  -0.5736
  O  O48  1  0.351900  0.808900  0.674600  1.0  -0.6075
  O  O49  1  0.146100  0.237800  0.121500  1.0  -0.579
  O  O50  1  0.906800  0.318000  0.153300  1.0  -0.6254
  O  O51  1  0.786100  0.973000  0.128500  1.0  -0.8471
