# generated using pymatgen
data_Ni3H16(C9O7)2
_symmetry_space_group_name_H-M   'P 1'
_cell_length_a   7.69400000
_cell_length_b   9.21000000
_cell_length_c   10.76400000
_cell_angle_alpha   108.59800000
_cell_angle_beta   92.30000000
_cell_angle_gamma   109.81400000
_symmetry_Int_Tables_number   1
_chemical_formula_structural   Ni3H16(C9O7)2
_chemical_formula_sum   'Ni3 H16 C18 O14'
_cell_volume   670.66116888
_cell_formula_units_Z   1
loop_
 _symmetry_equiv_pos_site_id
 _symmetry_equiv_pos_as_xyz
  1  'x, y, z'
loop_
 _atom_site_type_symbol
 _atom_site_label
 _atom_site_symmetry_multiplicity
 _atom_site_fract_x
 _atom_site_fract_y
 _atom_site_fract_z
 _atom_site_occupancy
 _atom_site_charge
  Ni  Ni1  1  0.850270  0.865850  0.872170  1.0  0.9848
  Ni  Ni2  1  0.149730  0.134150  0.127830  1.0  0.9865
  Ni  Ni3  1  0.500000  0.000000  0.000000  1.0  0.9023
  H  H4  1  0.617100  0.858100  0.361000  1.0  0.1472
  H  H5  1  0.820100  0.986000  0.414600  1.0  0.1549
  H  H6  1  0.526300  0.578300  0.373300  1.0  0.1463
  H  H7  1  0.672800  0.527700  0.434100  1.0  0.1599
  H  H8  1  0.726200  0.588700  0.077900  1.0  0.155
  H  H9  1  0.555500  0.609900  0.142400  1.0  0.1345
  H  H10  1  0.804600  0.138800  0.917100  1.0  0.2746
  H  H11  1  0.661000  0.009000  0.792800  1.0  0.3173
  H  H12  1  0.382900  0.141900  0.639000  1.0  0.148
  H  H13  1  0.179900  0.014000  0.585400  1.0  0.1564
  H  H14  1  0.473700  0.421700  0.626700  1.0  0.148
  H  H15  1  0.327200  0.472300  0.565900  1.0  0.1598
  H  H16  1  0.273800  0.411300  0.922100  1.0  0.1564
  H  H17  1  0.444500  0.390100  0.857600  1.0  0.1327
  H  H18  1  0.195400  0.861200  0.082900  1.0  0.2808
  H  H19  1  0.339000  0.991000  0.207200  1.0  0.3185
  C  C20  1  0.759900  0.898600  0.141200  1.0  0.7002
  C  C21  1  0.799100  0.810900  0.231900  1.0  -0.0444
  C  C22  1  0.745500  0.872200  0.370300  1.0  -0.1601
  C  C23  1  0.780800  0.772500  0.450500  1.0  -0.0705
  C  C24  1  0.653900  0.588800  0.381800  1.0  -0.1865
  C  C25  1  0.703100  0.521400  0.242900  1.0  -0.0747
  C  C26  1  0.683600  0.625100  0.159600  1.0  -0.1872
  C  C27  1  0.752800  0.834500  0.594600  1.0  0.7203
  C  C28  1  0.566200  0.343600  0.168900  1.0  0.686
  C  C29  1  0.240100  0.101400  0.858800  1.0  0.7017
  C  C30  1  0.200900  0.189100  0.768100  1.0  -0.0457
  C  C31  1  0.254500  0.127800  0.629700  1.0  -0.1613
  C  C32  1  0.219200  0.227500  0.549500  1.0  -0.0701
  C  C33  1  0.346100  0.411200  0.618200  1.0  -0.1856
  C  C34  1  0.296900  0.478600  0.757100  1.0  -0.0746
  C  C35  1  0.316400  0.374900  0.840400  1.0  -0.1875
  C  C36  1  0.247200  0.165500  0.405400  1.0  0.7202
  C  C37  1  0.433800  0.656400  0.831100  1.0  0.6872
  O  O38  1  0.605100  0.910000  0.127200  1.0  -0.5399
  O  O39  1  0.890800  0.948300  0.076300  1.0  -0.6627
  O  O40  1  0.715000  0.029100  0.880200  1.0  -0.839
  O  O41  1  0.396500  0.317300  0.155500  1.0  -0.5774
  O  O42  1  0.639500  0.235300  0.125200  1.0  -0.5674
  O  O43  1  0.636700  0.899700  0.625700  1.0  -0.5629
  O  O44  1  0.852700  0.810900  0.676200  1.0  -0.564
  O  O45  1  0.394900  0.090000  0.872800  1.0  -0.5414
  O  O46  1  0.109200  0.051700  0.923700  1.0  -0.6623
  O  O47  1  0.285000  0.970900  0.119800  1.0  -0.8387
  O  O48  1  0.603500  0.682700  0.844500  1.0  -0.5775
  O  O49  1  0.360500  0.764700  0.874800  1.0  -0.5678
  O  O50  1  0.363300  0.100300  0.374300  1.0  -0.565
  O  O51  1  0.147300  0.189100  0.323800  1.0  -0.565
