# generated using pymatgen
data_Co4H12C3NO6
_symmetry_space_group_name_H-M   'P 1'
_cell_length_a   8.30300000
_cell_length_b   8.30300000
_cell_length_c   20.33400000
_cell_angle_alpha   90.00000000
_cell_angle_beta   90.00000000
_cell_angle_gamma   120.00000000
_symmetry_Int_Tables_number   1
_chemical_formula_structural   Co4H12C3NO6
_chemical_formula_sum   'Co16 H48 C12 N4 O24'
_cell_volume   1214.01352958
_cell_formula_units_Z   4
loop_
 _symmetry_equiv_pos_site_id
 _symmetry_equiv_pos_as_xyz
  1  'x, y, z'
loop_
 _atom_site_type_symbol
 _atom_site_label
 _atom_site_symmetry_multiplicity
 _atom_site_fract_x
 _atom_site_fract_y
 _atom_site_fract_z
 _atom_site_occupancy
 _atom_site_charge
  Co  Co1  1  0.422240  0.285320  0.000660  1.0  0.7225
  Co  Co2  1  0.863080  0.577760  0.000660  1.0  0.7231
  Co  Co3  1  0.714680  0.136920  0.000660  1.0  0.7254
  Co  Co4  1  0.136920  0.714680  0.499340  1.0  0.7228
  Co  Co5  1  0.285320  0.422240  0.499340  1.0  0.7245
  Co  Co6  1  0.577760  0.863080  0.499340  1.0  0.7254
  Co  Co7  1  0.577760  0.714680  0.999340  1.0  0.7251
  Co  Co8  1  0.136920  0.422240  0.999340  1.0  0.7247
  Co  Co9  1  0.285320  0.863080  0.999340  1.0  0.7243
  Co  Co10  1  0.863080  0.285320  0.500660  1.0  0.7248
  Co  Co11  1  0.714680  0.577760  0.500660  1.0  0.7234
  Co  Co12  1  0.422240  0.136920  0.500660  1.0  0.7241
  Co  Co13  1  0.000000  0.000000  0.084720  1.0  0.8519
  Co  Co14  1  0.000000  0.000000  0.415280  1.0  0.8527
  Co  Co15  1  0.000000  0.000000  0.915280  1.0  0.8527
  Co  Co16  1  0.000000  0.000000  0.584720  1.0  0.8519
  H  H17  1  0.305000  0.085000  0.090000  1.0  0.3638
  H  H18  1  0.477300  0.102800  0.903400  1.0  0.3455
  H  H19  1  0.151100  0.873500  0.206600  1.0  0.0662
  H  H20  1  0.942500  0.730400  0.189900  1.0  0.0521
  H  H21  1  0.780000  0.695000  0.090000  1.0  0.364
  H  H22  1  0.625500  0.522700  0.903400  1.0  0.3451
  H  H23  1  0.722400  0.848900  0.206600  1.0  0.0667
  H  H24  1  0.787900  0.057500  0.189900  1.0  0.0618
  H  H25  1  0.915000  0.220000  0.090000  1.0  0.3638
  H  H26  1  0.897200  0.374500  0.903400  1.0  0.3451
  H  H27  1  0.126500  0.277600  0.206600  1.0  0.0679
  H  H28  1  0.269600  0.212100  0.189900  1.0  0.0582
  H  H29  1  0.220000  0.915000  0.410000  1.0  0.3632
  H  H30  1  0.374500  0.897200  0.596600  1.0  0.3449
  H  H31  1  0.277600  0.126500  0.293400  1.0  0.0664
  H  H32  1  0.212100  0.269600  0.310100  1.0  0.0554
  H  H33  1  0.085000  0.305000  0.410000  1.0  0.3633
  H  H34  1  0.102800  0.477300  0.596600  1.0  0.3443
  H  H35  1  0.873500  0.151100  0.293400  1.0  0.0693
  H  H36  1  0.730400  0.942500  0.310100  1.0  0.0612
  H  H37  1  0.695000  0.780000  0.410000  1.0  0.364
  H  H38  1  0.522700  0.625500  0.596600  1.0  0.3446
  H  H39  1  0.848900  0.722400  0.293400  1.0  0.0677
  H  H40  1  0.057500  0.787900  0.310100  1.0  0.0593
  H  H41  1  0.695000  0.915000  0.910000  1.0  0.3637
  H  H42  1  0.522700  0.897200  0.096600  1.0  0.3444
  H  H43  1  0.848900  0.126500  0.793400  1.0  0.0685
  H  H44  1  0.057500  0.269600  0.810100  1.0  0.0558
  H  H45  1  0.220000  0.305000  0.910000  1.0  0.3634
  H  H46  1  0.374500  0.477300  0.096600  1.0  0.345
  H  H47  1  0.277600  0.151100  0.793400  1.0  0.0676
  H  H48  1  0.212100  0.942500  0.810100  1.0  0.0598
  H  H49  1  0.085000  0.780000  0.910000  1.0  0.3634
  H  H50  1  0.102800  0.625500  0.096600  1.0  0.345
  H  H51  1  0.873500  0.722400  0.793400  1.0  0.0668
  H  H52  1  0.730400  0.787900  0.810100  1.0  0.0609
  H  H53  1  0.780000  0.085000  0.590000  1.0  0.3641
  H  H54  1  0.625500  0.102800  0.403400  1.0  0.345
  H  H55  1  0.722400  0.873500  0.706600  1.0  0.067
  H  H56  1  0.787900  0.730400  0.689900  1.0  0.0529
  H  H57  1  0.915000  0.695000  0.590000  1.0  0.3643
  H  H58  1  0.897200  0.522700  0.403400  1.0  0.3459
  H  H59  1  0.126500  0.848900  0.706600  1.0  0.0667
  H  H60  1  0.269600  0.057500  0.689900  1.0  0.0597
  H  H61  1  0.305000  0.220000  0.590000  1.0  0.364
  H  H62  1  0.477300  0.374500  0.403400  1.0  0.3454
  H  H63  1  0.151100  0.277600  0.706600  1.0  0.0691
  H  H64  1  0.942500  0.212100  0.689900  1.0  0.0588
  C  C65  1  0.023800  0.845300  0.212900  1.0  0.0019
  C  C66  1  0.821500  0.976200  0.212900  1.0  0.0049
  C  C67  1  0.154700  0.178500  0.212900  1.0  0.0027
  C  C68  1  0.178500  0.154700  0.287100  1.0  0.0036
  C  C69  1  0.845300  0.023800  0.287100  1.0  0.0055
  C  C70  1  0.976200  0.821500  0.287100  1.0  0.0036
  C  C71  1  0.976200  0.154700  0.787100  1.0  0.0016
  C  C72  1  0.178500  0.023800  0.787100  1.0  0.0062
  C  C73  1  0.845300  0.821500  0.787100  1.0  0.0041
  C  C74  1  0.821500  0.845300  0.712900  1.0  0.0022
  C  C75  1  0.154700  0.976200  0.712900  1.0  0.0045
  C  C76  1  0.023800  0.178500  0.712900  1.0  0.0037
  N  N77  1  0.000000  0.000000  0.185500  1.0  -0.2817
  N  N78  1  0.000000  0.000000  0.314500  1.0  -0.2839
  N  N79  1  0.000000  0.000000  0.814500  1.0  -0.2839
  N  N80  1  0.000000  0.000000  0.685500  1.0  -0.2817
  O  O81  1  0.249900  0.053500  0.059500  1.0  -0.837
  O  O82  1  0.477100  0.101600  0.952620  1.0  -0.9168
  O  O83  1  0.803600  0.750100  0.059500  1.0  -0.8361
  O  O84  1  0.624500  0.522900  0.952620  1.0  -0.9165
  O  O85  1  0.946500  0.196400  0.059500  1.0  -0.8361
  O  O86  1  0.898400  0.375500  0.952620  1.0  -0.9175
  O  O87  1  0.196400  0.946500  0.440500  1.0  -0.8355
  O  O88  1  0.375500  0.898400  0.547380  1.0  -0.9157
  O  O89  1  0.053500  0.249900  0.440500  1.0  -0.8342
  O  O90  1  0.101600  0.477100  0.547380  1.0  -0.9158
  O  O91  1  0.750100  0.803600  0.440500  1.0  -0.8341
  O  O92  1  0.522900  0.624500  0.547380  1.0  -0.9163
  O  O93  1  0.750100  0.946500  0.940500  1.0  -0.8353
  O  O94  1  0.522900  0.898400  0.047380  1.0  -0.9168
  O  O95  1  0.196400  0.249900  0.940500  1.0  -0.8343
  O  O96  1  0.375500  0.477100  0.047380  1.0  -0.9153
  O  O97  1  0.053500  0.803600  0.940500  1.0  -0.8347
  O  O98  1  0.101600  0.624500  0.047380  1.0  -0.9154
  O  O99  1  0.803600  0.053500  0.559500  1.0  -0.8372
  O  O100  1  0.624500  0.101600  0.452620  1.0  -0.9181
  O  O101  1  0.946500  0.750100  0.559500  1.0  -0.8359
  O  O102  1  0.898400  0.522900  0.452620  1.0  -0.9159
  O  O103  1  0.249900  0.196400  0.559500  1.0  -0.8361
  O  O104  1  0.477100  0.375500  0.452620  1.0  -0.9166
