# generated using pymatgen
data_YbH9(C2O)6
_symmetry_space_group_name_H-M   'P 1'
_cell_length_a   6.04400000
_cell_length_b   10.78000000
_cell_length_c   11.48600000
_cell_angle_alpha   68.71000000
_cell_angle_beta   75.01000000
_cell_angle_gamma   87.61000000
_symmetry_Int_Tables_number   1
_chemical_formula_structural   YbH9(C2O)6
_chemical_formula_sum   'Yb2 H18 C24 O12'
_cell_volume   672.42785268
_cell_formula_units_Z   2
loop_
 _symmetry_equiv_pos_site_id
 _symmetry_equiv_pos_as_xyz
  1  'x, y, z'
loop_
 _atom_site_type_symbol
 _atom_site_label
 _atom_site_symmetry_multiplicity
 _atom_site_fract_x
 _atom_site_fract_y
 _atom_site_fract_z
 _atom_site_occupancy
 _atom_site_charge
  Yb  Yb1  1  0.739080  0.877730  0.544790  1.0  1.5254
  Yb  Yb2  1  0.260920  0.122270  0.455210  1.0  1.5214
  H  H3  1  0.231500  0.970500  0.010900  1.0  0.1173
  H  H4  1  0.301700  0.623500  0.285500  1.0  0.1257
  H  H5  1  0.142400  0.624300  0.968600  1.0  0.1229
  H  H6  1  0.105800  0.975100  0.830200  1.0  0.1321
  H  H7  1  0.010100  0.839000  0.829700  1.0  0.1423
  H  H8  1  0.380600  0.978600  0.180000  1.0  0.1352
  H  H9  1  0.454000  0.844000  0.276600  1.0  0.1443
  H  H10  1  0.365600  0.430300  0.225800  1.0  0.1544
  H  H11  1  0.276700  0.424200  0.108500  1.0  0.1613
  H  H12  1  0.768500  0.029500  0.989100  1.0  0.1176
  H  H13  1  0.698300  0.376500  0.714500  1.0  0.1252
  H  H14  1  0.857600  0.375700  0.031400  1.0  0.123
  H  H15  1  0.894200  0.024900  0.169800  1.0  0.1301
  H  H16  1  0.989900  0.161000  0.170300  1.0  0.1408
  H  H17  1  0.619400  0.021400  0.820000  1.0  0.1355
  H  H18  1  0.546000  0.156000  0.723400  1.0  0.1443
  H  H19  1  0.634400  0.569700  0.774200  1.0  0.1521
  H  H20  1  0.723300  0.575800  0.891500  1.0  0.1609
  C  C21  1  0.182000  0.808100  0.970600  1.0  0.1708
  C  C22  1  0.229000  0.875800  0.043000  1.0  -0.2338
  C  C23  1  0.273000  0.809700  0.160400  1.0  0.1691
  C  C24  1  0.271000  0.671300  0.204200  1.0  -0.1799
  C  C25  1  0.226000  0.602800  0.133700  1.0  0.1582
  C  C26  1  0.178000  0.671800  0.017300  1.0  -0.1866
  C  C27  1  0.142000  0.882400  0.838700  1.0  -0.3647
  C  C28  1  0.352000  0.883800  0.733000  1.0  0.767
  C  C29  1  0.328000  0.885700  0.238100  1.0  -0.386
  C  C30  1  0.121000  0.886800  0.344500  1.0  0.7739
  C  C31  1  0.238000  0.453400  0.183400  1.0  -0.4062
  C  C32  1  0.026000  0.376900  0.276500  1.0  0.7574
  C  C33  1  0.818000  0.191900  0.029400  1.0  0.1701
  C  C34  1  0.771000  0.124200  0.957000  1.0  -0.2323
  C  C35  1  0.727000  0.190300  0.839600  1.0  0.1677
  C  C36  1  0.729000  0.328700  0.795800  1.0  -0.1839
  C  C37  1  0.774000  0.397200  0.866300  1.0  0.1578
  C  C38  1  0.822000  0.328200  0.982700  1.0  -0.1853
  C  C39  1  0.858000  0.117600  0.161300  1.0  -0.3636
  C  C40  1  0.648000  0.116200  0.267000  1.0  0.7643
  C  C41  1  0.672000  0.114300  0.761900  1.0  -0.3869
  C  C42  1  0.879000  0.113200  0.655500  1.0  0.7783
  C  C43  1  0.762000  0.546600  0.816600  1.0  -0.4089
  C  C44  1  0.974000  0.623100  0.723500  1.0  0.7539
  O  O45  1  0.510200  0.811100  0.754700  1.0  -0.599
  O  O46  1  0.363100  0.961200  0.618100  1.0  -0.7327
  O  O47  1  0.126000  0.964300  0.403700  1.0  -0.7225
  O  O48  1  0.945000  0.815400  0.375400  1.0  -0.6095
  O  O49  1  0.051000  0.260600  0.352500  1.0  -0.6293
  O  O50  1  0.835000  0.420400  0.274800  1.0  -0.4972
  O  O51  1  0.489800  0.188900  0.245300  1.0  -0.5965
  O  O52  1  0.636900  0.038800  0.381900  1.0  -0.7348
  O  O53  1  0.874000  0.035700  0.596300  1.0  -0.7218
  O  O54  1  0.055000  0.184600  0.624600  1.0  -0.6059
  O  O55  1  0.949000  0.739400  0.647500  1.0  -0.6272
  O  O56  1  0.165000  0.579600  0.725200  1.0  -0.506
