# generated using pymatgen
data_TbH9(C2O)6
_symmetry_space_group_name_H-M   'P 1'
_cell_length_a   7.67300000
_cell_length_b   9.66100000
_cell_length_c   10.53300000
_cell_angle_alpha   106.54000000
_cell_angle_beta   105.28000000
_cell_angle_gamma   100.62000000
_symmetry_Int_Tables_number   1
_chemical_formula_structural   TbH9(C2O)6
_chemical_formula_sum   'Tb2 H18 C24 O12'
_cell_volume   693.06013815
_cell_formula_units_Z   2
loop_
 _symmetry_equiv_pos_site_id
 _symmetry_equiv_pos_as_xyz
  1  'x, y, z'
loop_
 _atom_site_type_symbol
 _atom_site_label
 _atom_site_symmetry_multiplicity
 _atom_site_fract_x
 _atom_site_fract_y
 _atom_site_fract_z
 _atom_site_occupancy
 _atom_site_charge
  Tb  Tb1  1  0.753270  0.967640  0.548870  1.0  2.3057
  Tb  Tb2  1  0.246730  0.032360  0.451130  1.0  2.3072
  H  H3  1  0.453000  0.375000  0.344500  1.0  0.1106
  H  H4  1  0.462800  0.198200  0.950500  1.0  0.1138
  H  H5  1  0.184100  0.510200  0.036600  1.0  0.1079
  H  H6  1  0.151900  0.601900  0.264200  1.0  0.1362
  H  H7  1  0.224900  0.527700  0.378700  1.0  0.1382
  H  H8  1  0.632600  0.123800  0.120400  1.0  0.1529
  H  H9  1  0.735900  0.262600  0.264300  1.0  0.152
  H  H10  1  0.229100  0.432200  0.809700  1.0  0.1295
  H  H11  1  0.362000  0.325100  0.783800  1.0  0.1262
  H  H12  1  0.547000  0.625000  0.655500  1.0  0.1117
  H  H13  1  0.537200  0.801800  0.049500  1.0  0.1141
  H  H14  1  0.815900  0.489800  0.963400  1.0  0.1063
  H  H15  1  0.848100  0.398100  0.735800  1.0  0.1367
  H  H16  1  0.775100  0.472300  0.621300  1.0  0.139
  H  H17  1  0.367400  0.876200  0.879600  1.0  0.1529
  H  H18  1  0.264100  0.737400  0.735700  1.0  0.1527
  H  H19  1  0.770900  0.567800  0.190300  1.0  0.1301
  H  H20  1  0.638000  0.674900  0.216200  1.0  0.1258
  C  C21  1  0.309100  0.458900  0.206000  1.0  0.0937
  C  C22  1  0.418900  0.369900  0.249400  1.0  -0.1942
  C  C23  1  0.478600  0.273900  0.155100  1.0  0.1407
  C  C24  1  0.423800  0.264600  0.015800  1.0  -0.2328
  C  C25  1  0.311400  0.352000  0.970000  1.0  0.1285
  C  C26  1  0.257700  0.449000  0.066300  1.0  -0.2148
  C  C27  1  0.261000  0.573300  0.313000  1.0  -0.3806
  C  C28  1  0.426100  0.713000  0.395400  1.0  0.7977
  C  C29  1  0.613100  0.188700  0.204000  1.0  -0.3991
  C  C30  1  0.556300  0.090800  0.284500  1.0  0.7629
  C  C31  1  0.255300  0.337900  0.817800  1.0  -0.3726
  C  C32  1  0.084500  0.207700  0.725100  1.0  0.7923
  C  C33  1  0.690900  0.541100  0.794000  1.0  0.0922
  C  C34  1  0.581100  0.630100  0.750600  1.0  -0.1918
  C  C35  1  0.521400  0.726100  0.844900  1.0  0.1405
  C  C36  1  0.576200  0.735400  0.984200  1.0  -0.238
  C  C37  1  0.688600  0.648000  0.030000  1.0  0.1255
  C  C38  1  0.742300  0.551000  0.933700  1.0  -0.209
  C  C39  1  0.739000  0.426700  0.687000  1.0  -0.38
  C  C40  1  0.573900  0.287000  0.604600  1.0  0.7982
  C  C41  1  0.386900  0.811300  0.796000  1.0  -0.4009
  C  C42  1  0.443700  0.909200  0.715500  1.0  0.7614
  C  C43  1  0.744700  0.662100  0.182200  1.0  -0.3733
  C  C44  1  0.915500  0.792300  0.274900  1.0  0.7932
  O  O45  1  0.587900  0.701500  0.443100  1.0  -0.6626
  O  O46  1  0.401000  0.843000  0.416400  1.0  -0.8093
  O  O47  1  0.393700  0.066900  0.289200  1.0  -0.7054
  O  O48  1  0.684200  0.039500  0.343000  1.0  -0.7284
  O  O49  1  0.065200  0.138700  0.596300  1.0  -0.85
  O  O50  1  0.957100  0.169100  0.772000  1.0  -0.6407
  O  O51  1  0.412100  0.298500  0.556900  1.0  -0.6668
  O  O52  1  0.599000  0.157000  0.583600  1.0  -0.8086
  O  O53  1  0.606300  0.933100  0.710800  1.0  -0.7013
  O  O54  1  0.315800  0.960500  0.657000  1.0  -0.7273
  O  O55  1  0.934800  0.861300  0.403700  1.0  -0.85
  O  O56  1  0.042900  0.830900  0.228000  1.0  -0.6386
