# generated using pymatgen
data_EuH9(C2O)6
_symmetry_space_group_name_H-M   'P 1'
_cell_length_a   7.72700000
_cell_length_b   9.70500000
_cell_length_c   10.58000000
_cell_angle_alpha   106.61000000
_cell_angle_beta   105.28000000
_cell_angle_gamma   100.69000000
_symmetry_Int_Tables_number   1
_chemical_formula_structural   EuH9(C2O)6
_chemical_formula_sum   'Eu2 H18 C24 O12'
_cell_volume   703.61587077
_cell_formula_units_Z   2
loop_
 _symmetry_equiv_pos_site_id
 _symmetry_equiv_pos_as_xyz
  1  'x, y, z'
loop_
 _atom_site_type_symbol
 _atom_site_label
 _atom_site_symmetry_multiplicity
 _atom_site_fract_x
 _atom_site_fract_y
 _atom_site_fract_z
 _atom_site_occupancy
 _atom_site_charge
  Eu  Eu1  1  0.753450  0.968110  0.549300  1.0  2.1865
  Eu  Eu2  1  0.246550  0.031890  0.450700  1.0  2.1862
  H  H3  1  0.451300  0.374500  0.343500  1.0  0.1149
  H  H4  1  0.462000  0.198100  0.952000  1.0  0.1149
  H  H5  1  0.186200  0.509600  0.037000  1.0  0.1156
  H  H6  1  0.154600  0.602200  0.261800  1.0  0.1385
  H  H7  1  0.224300  0.528700  0.376500  1.0  0.1449
  H  H8  1  0.632000  0.126100  0.121200  1.0  0.1554
  H  H9  1  0.733900  0.264800  0.264500  1.0  0.1536
  H  H10  1  0.362900  0.323000  0.784000  1.0  0.1327
  H  H11  1  0.232900  0.431000  0.810500  1.0  0.1398
  H  H12  1  0.548700  0.625500  0.656500  1.0  0.1167
  H  H13  1  0.538000  0.801900  0.048000  1.0  0.1153
  H  H14  1  0.813800  0.490400  0.963000  1.0  0.1146
  H  H15  1  0.845400  0.397800  0.738200  1.0  0.1384
  H  H16  1  0.775700  0.471300  0.623500  1.0  0.1451
  H  H17  1  0.368000  0.873900  0.878800  1.0  0.1552
  H  H18  1  0.266100  0.735200  0.735500  1.0  0.1548
  H  H19  1  0.637100  0.677000  0.216000  1.0  0.1322
  H  H20  1  0.767100  0.569000  0.189500  1.0  0.141
  C  C21  1  0.309800  0.458700  0.205900  1.0  0.1158
  C  C22  1  0.418000  0.369700  0.248900  1.0  -0.1757
  C  C23  1  0.477800  0.274100  0.155400  1.0  0.1369
  C  C24  1  0.423400  0.264700  0.016700  1.0  -0.2242
  C  C25  1  0.313500  0.350700  0.970300  1.0  0.1632
  C  C26  1  0.259100  0.448700  0.066800  1.0  -0.232
  C  C27  1  0.262000  0.573500  0.311300  1.0  -0.3724
  C  C28  1  0.425600  0.712000  0.393900  1.0  0.7996
  C  C29  1  0.612200  0.190400  0.204400  1.0  -0.4093
  C  C30  1  0.557600  0.093000  0.284700  1.0  0.7851
  C  C31  1  0.257500  0.336700  0.818200  1.0  -0.3632
  C  C32  1  0.086900  0.208300  0.726200  1.0  0.7996
  C  C33  1  0.690200  0.541300  0.794100  1.0  0.1157
  C  C34  1  0.582000  0.630300  0.751100  1.0  -0.1728
  C  C35  1  0.522200  0.725900  0.844600  1.0  0.137
  C  C36  1  0.576600  0.735300  0.983300  1.0  -0.2298
  C  C37  1  0.686500  0.649300  0.029700  1.0  0.1622
  C  C38  1  0.740900  0.551300  0.933200  1.0  -0.228
  C  C39  1  0.738000  0.426500  0.688700  1.0  -0.3711
  C  C40  1  0.574400  0.288000  0.606100  1.0  0.7996
  C  C41  1  0.387800  0.809600  0.795600  1.0  -0.4112
  C  C42  1  0.442400  0.907000  0.715300  1.0  0.7842
  C  C43  1  0.742500  0.663300  0.181800  1.0  -0.3638
  C  C44  1  0.913100  0.791700  0.273800  1.0  0.7988
  O  O45  1  0.586400  0.699700  0.443100  1.0  -0.6669
  O  O46  1  0.402500  0.842800  0.414600  1.0  -0.8298
  O  O47  1  0.684800  0.041800  0.342400  1.0  -0.7274
  O  O48  1  0.394700  0.066700  0.288000  1.0  -0.7059
  O  O49  1  0.960000  0.170800  0.773300  1.0  -0.635
  O  O50  1  0.067100  0.139400  0.597700  1.0  -0.8551
  O  O51  1  0.413600  0.300300  0.556900  1.0  -0.669
  O  O52  1  0.597500  0.157200  0.585400  1.0  -0.831
  O  O53  1  0.315200  0.958200  0.657600  1.0  -0.7272
  O  O54  1  0.605300  0.933300  0.712000  1.0  -0.7032
  O  O55  1  0.040000  0.829200  0.226700  1.0  -0.6353
  O  O56  1  0.932900  0.860600  0.402300  1.0  -0.8546
