# generated using pymatgen
data_NdH9(C2O)6
_symmetry_space_group_name_H-M   'P 1'
_cell_length_a   8.47350000
_cell_length_b   10.88360000
_cell_length_c   11.13010000
_cell_angle_alpha   64.33300000
_cell_angle_beta   80.33000000
_cell_angle_gamma   73.76000000
_symmetry_Int_Tables_number   1
_chemical_formula_structural   NdH9(C2O)6
_chemical_formula_sum   'Nd2 H18 C24 O12'
_cell_volume   886.94237177
_cell_formula_units_Z   2
loop_
 _symmetry_equiv_pos_site_id
 _symmetry_equiv_pos_as_xyz
  1  'x, y, z'
loop_
 _atom_site_type_symbol
 _atom_site_label
 _atom_site_symmetry_multiplicity
 _atom_site_fract_x
 _atom_site_fract_y
 _atom_site_fract_z
 _atom_site_occupancy
 _atom_site_charge
  Nd  Nd1  1  0.251740  0.996820  0.497310  1.0  2.289
  Nd  Nd2  1  0.748260  0.003180  0.502690  1.0  2.2897
  H  H3  1  0.250400  0.051200  0.976700  1.0  0.122
  H  H4  1  0.241400  0.433000  0.675800  1.0  0.1171
  H  H5  1  0.904800  0.391900  0.985600  1.0  0.1158
  H  H6  1  0.983100  0.030700  0.125100  1.0  0.1527
  H  H7  1  0.876500  0.168100  0.144200  1.0  0.1346
  H  H8  1  0.468000  0.242200  0.682900  1.0  0.1468
  H  H9  1  0.488700  0.096300  0.811100  1.0  0.1491
  H  H10  1  0.938200  0.624100  0.828700  1.0  0.1327
  H  H11  1  0.071400  0.641400  0.706100  1.0  0.1298
  H  H12  1  0.749600  0.948800  0.023300  1.0  0.1217
  H  H13  1  0.758600  0.567000  0.324200  1.0  0.1176
  H  H14  1  0.095200  0.608100  0.014400  1.0  0.1166
  H  H15  1  0.016900  0.969300  0.874900  1.0  0.1498
  H  H16  1  0.123500  0.831900  0.855800  1.0  0.1344
  H  H17  1  0.532000  0.757800  0.317100  1.0  0.1484
  H  H18  1  0.511300  0.903700  0.188900  1.0  0.1492
  H  H19  1  0.061800  0.375900  0.171300  1.0  0.1325
  H  H20  1  0.928600  0.358600  0.293900  1.0  0.1339
  C  C21  1  0.066100  0.207300  0.001600  1.0  0.1498
  C  C22  1  0.202100  0.148800  0.937200  1.0  -0.2276
  C  C23  1  0.266900  0.233000  0.815600  1.0  0.1583
  C  C24  1  0.196300  0.375700  0.758800  1.0  -0.2152
  C  C25  1  0.061800  0.436300  0.820300  1.0  0.182
  C  C26  1  0.997000  0.351400  0.942300  1.0  -0.2225
  C  C27  1  0.990200  0.116900  0.131600  1.0  -0.3927
  C  C28  1  0.082900  0.075600  0.252500  1.0  0.8011
  C  C29  1  0.410300  0.168600  0.744400  1.0  -0.4146
  C  C30  1  0.362300  0.102300  0.665200  1.0  0.8362
  C  C31  1  0.984100  0.591500  0.756800  1.0  -0.3885
  C  C32  1  0.848600  0.632700  0.663700  1.0  0.7827
  C  C33  1  0.933900  0.792700  0.998400  1.0  0.1492
  C  C34  1  0.797900  0.851200  0.062800  1.0  -0.2335
  C  C35  1  0.733100  0.767000  0.184400  1.0  0.1578
  C  C36  1  0.803700  0.624300  0.241200  1.0  -0.2172
  C  C37  1  0.938200  0.563700  0.179700  1.0  0.1826
  C  C38  1  0.003000  0.648600  0.057700  1.0  -0.2171
  C  C39  1  0.009800  0.883100  0.868400  1.0  -0.3927
  C  C40  1  0.917100  0.924400  0.747500  1.0  0.8026
  C  C41  1  0.589700  0.831400  0.255600  1.0  -0.4137
  C  C42  1  0.637700  0.897700  0.334800  1.0  0.8335
  C  C43  1  0.015900  0.408500  0.243200  1.0  -0.3889
  C  C44  1  0.151400  0.367300  0.336300  1.0  0.784
  O  O45  1  0.003200  0.048500  0.367000  1.0  -0.9308
  O  O46  1  0.238000  0.059200  0.248100  1.0  -0.6587
  O  O47  1  0.217300  0.090200  0.674200  1.0  -0.6439
  O  O48  1  0.469600  0.062600  0.587000  1.0  -0.9055
  O  O49  1  0.778400  0.759300  0.615300  1.0  -0.7898
  O  O50  1  0.811100  0.540900  0.643000  1.0  -0.6108
  O  O51  1  0.996800  0.951500  0.633000  1.0  -0.9289
  O  O52  1  0.762000  0.940800  0.751900  1.0  -0.6578
  O  O53  1  0.782700  0.909800  0.325800  1.0  -0.6448
  O  O54  1  0.530400  0.937400  0.413000  1.0  -0.9006
  O  O55  1  0.221600  0.240700  0.384700  1.0  -0.7908
  O  O56  1  0.188900  0.459100  0.357000  1.0  -0.6164
