# generated using pymatgen
data_SmH9(C2O)6
_symmetry_space_group_name_H-M   'P 1'
_cell_length_a   8.43100000
_cell_length_b   10.84100000
_cell_length_c   11.11400000
_cell_angle_alpha   64.43000000
_cell_angle_beta   80.44000000
_cell_angle_gamma   73.82000000
_symmetry_Int_Tables_number   1
_chemical_formula_structural   SmH9(C2O)6
_chemical_formula_sum   'Sm2 H18 C24 O12'
_cell_volume   878.80739114
_cell_formula_units_Z   2
loop_
 _symmetry_equiv_pos_site_id
 _symmetry_equiv_pos_as_xyz
  1  'x, y, z'
loop_
 _atom_site_type_symbol
 _atom_site_label
 _atom_site_symmetry_multiplicity
 _atom_site_fract_x
 _atom_site_fract_y
 _atom_site_fract_z
 _atom_site_occupancy
 _atom_site_charge
  Sm  Sm1  1  0.748620  0.003710  0.002230  1.0  2.3218
  Sm  Sm2  1  0.251380  0.996290  0.997770  1.0  2.309
  H  H3  1  0.750800  0.953800  0.518800  1.0  0.1307
  H  H4  1  0.097600  0.606200  0.520300  1.0  0.1207
  H  H5  1  0.762700  0.569400  0.824100  1.0  0.1106
  H  H6  1  0.527500  0.762000  0.815800  1.0  0.1531
  H  H7  1  0.508900  0.908400  0.688000  1.0  0.1497
  H  H8  1  0.022900  0.964400  0.375600  1.0  0.1462
  H  H9  1  0.118900  0.825600  0.352000  1.0  0.1256
  H  H10  1  0.067200  0.373700  0.675000  1.0  0.134
  H  H11  1  0.930500  0.354400  0.795400  1.0  0.1356
  H  H12  1  0.249200  0.046200  0.481200  1.0  0.1314
  H  H13  1  0.902400  0.393800  0.479700  1.0  0.1203
  H  H14  1  0.237300  0.430600  0.175900  1.0  0.1092
  H  H15  1  0.472500  0.238000  0.184200  1.0  0.1531
  H  H16  1  0.491100  0.091600  0.312000  1.0  0.1494
  H  H17  1  0.977100  0.035600  0.624400  1.0  0.1466
  H  H18  1  0.881100  0.174400  0.648000  1.0  0.1257
  H  H19  1  0.932800  0.626300  0.325000  1.0  0.1329
  H  H20  1  0.069500  0.645600  0.204600  1.0  0.1373
  C  C21  1  0.731000  0.768000  0.682800  1.0  0.1374
  C  C22  1  0.797000  0.855500  0.559100  1.0  -0.2174
  C  C23  1  0.932000  0.791000  0.499200  1.0  0.1008
  C  C24  1  0.002000  0.647000  0.561000  1.0  -0.2154
  C  C25  1  0.934000  0.561000  0.680600  1.0  0.1567
  C  C26  1  0.805000  0.625000  0.739000  1.0  -0.1887
  C  C27  1  0.587000  0.835000  0.755000  1.0  -0.3906
  C  C28  1  0.636000  0.899000  0.833700  1.0  0.8426
  C  C29  1  0.009000  0.879000  0.370000  1.0  -0.2704
  C  C30  1  0.887500  0.923000  0.253000  1.0  0.5684
  C  C31  1  0.017000  0.406000  0.746000  1.0  -0.3713
  C  C32  1  0.149000  0.367000  0.841000  1.0  0.8245
  C  C33  1  0.269000  0.232000  0.317200  1.0  0.137
  C  C34  1  0.203000  0.144500  0.440900  1.0  -0.2158
  C  C35  1  0.068000  0.209000  0.500800  1.0  0.1004
  C  C36  1  0.998000  0.353000  0.439000  1.0  -0.2193
  C  C37  1  0.066000  0.439000  0.319400  1.0  0.1551
  C  C38  1  0.195000  0.375000  0.261000  1.0  -0.1856
  C  C39  1  0.413000  0.165000  0.245000  1.0  -0.3904
  C  C40  1  0.364000  0.101000  0.166300  1.0  0.8352
  C  C41  1  0.991000  0.121000  0.630000  1.0  -0.269
  C  C42  1  0.112500  0.077000  0.747000  1.0  0.5697
  C  C43  1  0.983000  0.594000  0.254000  1.0  -0.3716
  C  C44  1  0.851000  0.633000  0.159000  1.0  0.8224
  O  O45  1  0.528300  0.938800  0.914000  1.0  -0.8548
  O  O46  1  0.780000  0.913100  0.823900  1.0  -0.6393
  O  O47  1  0.707300  0.990500  0.227700  1.0  -0.6876
  O  O48  1  0.000900  0.948800  0.131100  1.0  -0.9045
  O  O49  1  0.215000  0.237200  0.888500  1.0  -0.8169
  O  O50  1  0.183000  0.458000  0.861000  1.0  -0.5808
  O  O51  1  0.471700  0.061200  0.086000  1.0  -0.8659
  O  O52  1  0.220000  0.086900  0.176100  1.0  -0.6394
  O  O53  1  0.292700  0.009500  0.772300  1.0  -0.707
  O  O54  1  0.999100  0.051200  0.868900  1.0  -0.9035
  O  O55  1  0.785000  0.762800  0.111500  1.0  -0.8149
  O  O56  1  0.817000  0.542000  0.139000  1.0  -0.573
