# generated using pymatgen
data_U3P4H8C4O23
_symmetry_space_group_name_H-M   'P 1'
_cell_length_a   9.52210000
_cell_length_b   12.90650000
_cell_length_c   12.90650000
_cell_angle_alpha   92.02070000
_cell_angle_beta   90.00000000
_cell_angle_gamma   90.00000000
_symmetry_Int_Tables_number   1
_chemical_formula_structural   U3P4H8C4O23
_chemical_formula_sum   'U6 P8 H16 C8 O46'
_cell_volume   1585.18356478
_cell_formula_units_Z   2
loop_
 _symmetry_equiv_pos_site_id
 _symmetry_equiv_pos_as_xyz
  1  'x, y, z'
loop_
 _atom_site_type_symbol
 _atom_site_label
 _atom_site_symmetry_multiplicity
 _atom_site_fract_x
 _atom_site_fract_y
 _atom_site_fract_z
 _atom_site_occupancy
 _atom_site_charge
  U  U1  1  0.121360  0.400940  0.819260  1.0  2.7628
  U  U2  1  0.621360  0.599060  0.180740  1.0  2.763
  U  U3  1  0.621360  0.180740  0.599060  1.0  2.7635
  U  U4  1  0.121360  0.819260  0.400940  1.0  2.7642
  U  U5  1  0.295070  0.293040  0.293040  1.0  2.7578
  U  U6  1  0.795070  0.706960  0.706960  1.0  2.7574
  P  P7  1  0.248800  0.571580  0.270320  1.0  1.5878
  P  P8  1  0.316000  0.463550  0.069790  1.0  1.6229
  P  P9  1  0.748800  0.428420  0.729680  1.0  1.5877
  P  P10  1  0.816000  0.536450  0.930210  1.0  1.6238
  P  P11  1  0.748800  0.729680  0.428420  1.0  1.5878
  P  P12  1  0.816000  0.930210  0.536450  1.0  1.6208
  P  P13  1  0.248800  0.270320  0.571580  1.0  1.5883
  P  P14  1  0.316000  0.069790  0.463550  1.0  1.6234
  H  H15  1  0.150000  0.713000  0.127000  1.0  0.1423
  H  H16  1  0.300000  0.684000  0.074000  1.0  0.1413
  H  H17  1  0.150000  0.656000  0.018000  1.0  0.1464
  H  H18  1  0.031100  0.506600  0.073000  1.0  0.4039
  H  H19  1  0.650000  0.287000  0.873000  1.0  0.142
  H  H20  1  0.800000  0.316000  0.926000  1.0  0.1409
  H  H21  1  0.650000  0.344000  0.982000  1.0  0.1471
  H  H22  1  0.531100  0.493400  0.927000  1.0  0.403
  H  H23  1  0.650000  0.873000  0.287000  1.0  0.1423
  H  H24  1  0.800000  0.926000  0.316000  1.0  0.1422
  H  H25  1  0.650000  0.982000  0.344000  1.0  0.1492
  H  H26  1  0.531100  0.927000  0.493400  1.0  0.4022
  H  H27  1  0.150000  0.127000  0.713000  1.0  0.1443
  H  H28  1  0.300000  0.074000  0.684000  1.0  0.1421
  H  H29  1  0.150000  0.018000  0.656000  1.0  0.1472
  H  H30  1  0.031100  0.073000  0.506600  1.0  0.4015
  C  C31  1  0.198200  0.558500  0.134500  1.0  -0.3819
  C  C32  1  0.199800  0.662100  0.083500  1.0  -0.2634
  C  C33  1  0.698200  0.441500  0.865500  1.0  -0.3819
  C  C34  1  0.699800  0.337900  0.916500  1.0  -0.262
  C  C35  1  0.698200  0.865500  0.441500  1.0  -0.3817
  C  C36  1  0.699800  0.916500  0.337900  1.0  -0.2608
  C  C37  1  0.198200  0.134500  0.558500  1.0  -0.3811
  C  C38  1  0.199800  0.083500  0.662100  1.0  -0.2618
  O  O39  1  0.166000  0.520600  0.765600  1.0  -0.613
  O  O40  1  0.257100  0.443900  0.963100  1.0  -0.8603
  O  O41  1  0.157400  0.655500  0.321300  1.0  -0.8461
  O  O42  1  0.228700  0.467900  0.319300  1.0  -0.8221
  O  O43  1  0.079100  0.279200  0.870200  1.0  -0.6542
  O  O44  1  0.368200  0.340200  0.804200  1.0  -0.1293
  O  O45  1  0.460700  0.515400  0.064400  1.0  -0.8732
  O  O46  1  0.320200  0.365700  0.133700  1.0  -0.8827
  O  O47  1  0.401600  0.603600  0.269000  1.0  -0.8207
  O  O48  1  0.057600  0.514900  0.133300  1.0  -0.3578
  O  O49  1  0.666000  0.479400  0.234400  1.0  -0.611
  O  O50  1  0.757100  0.556100  0.036900  1.0  -0.8616
  O  O51  1  0.657400  0.344500  0.678700  1.0  -0.8455
  O  O52  1  0.728700  0.532100  0.680700  1.0  -0.82
  O  O53  1  0.579100  0.720800  0.129800  1.0  -0.6529
  O  O54  1  0.868200  0.659800  0.195800  1.0  -0.1292
  O  O55  1  0.960700  0.484600  0.935600  1.0  -0.8727
  O  O56  1  0.820200  0.634300  0.866300  1.0  -0.8757
  O  O57  1  0.901600  0.396400  0.731000  1.0  -0.8215
  O  O58  1  0.557600  0.485100  0.866700  1.0  -0.3654
  O  O59  1  0.666000  0.234400  0.479400  1.0  -0.6173
  O  O60  1  0.757100  0.036900  0.556100  1.0  -0.8612
  O  O61  1  0.657400  0.678700  0.344500  1.0  -0.8324
  O  O62  1  0.728700  0.680700  0.532100  1.0  -0.8238
  O  O63  1  0.579100  0.129800  0.720800  1.0  -0.6533
  O  O64  1  0.868200  0.195800  0.659800  1.0  -0.1288
  O  O65  1  0.960700  0.935600  0.484600  1.0  -0.8733
  O  O66  1  0.820200  0.866300  0.634300  1.0  -0.8741
  O  O67  1  0.901600  0.731000  0.396400  1.0  -0.8172
  O  O68  1  0.557600  0.866700  0.485100  1.0  -0.3544
  O  O69  1  0.166000  0.765600  0.520600  1.0  -0.6134
  O  O70  1  0.257100  0.963100  0.443900  1.0  -0.8609
  O  O71  1  0.157400  0.321300  0.655500  1.0  -0.8486
  O  O72  1  0.228700  0.319300  0.467900  1.0  -0.8242
  O  O73  1  0.079100  0.870200  0.279200  1.0  -0.6547
  O  O74  1  0.368200  0.804200  0.340200  1.0  -0.1291
  O  O75  1  0.460700  0.064400  0.515400  1.0  -0.8732
  O  O76  1  0.320200  0.133700  0.365700  1.0  -0.8746
  O  O77  1  0.401600  0.269000  0.603600  1.0  -0.8213
  O  O78  1  0.057600  0.133300  0.514900  1.0  -0.3553
  O  O79  1  0.123000  0.259300  0.259300  1.0  -0.5923
  O  O80  1  0.385000  0.162300  0.162300  1.0  -0.185
  O  O81  1  0.470900  0.325100  0.325100  1.0  -0.6051
  O  O82  1  0.623000  0.740700  0.740700  1.0  -0.5905
  O  O83  1  0.885000  0.837700  0.837700  1.0  -0.1904
  O  O84  1  0.970900  0.674900  0.674900  1.0  -0.6053
