# generated using pymatgen
data_U3P4H8(C2O7)2
_symmetry_space_group_name_H-M   'P 1'
_cell_length_a   9.51150000
_cell_length_b   12.92000000
_cell_length_c   12.92000000
_cell_angle_alpha   91.98190000
_cell_angle_beta   90.00000000
_cell_angle_gamma   90.00000000
_symmetry_Int_Tables_number   1
_chemical_formula_structural   U3P4H8(C2O7)2
_chemical_formula_sum   'U6 P8 H16 C8 O28'
_cell_volume   1586.77068250
_cell_formula_units_Z   2
loop_
 _symmetry_equiv_pos_site_id
 _symmetry_equiv_pos_as_xyz
  1  'x, y, z'
loop_
 _atom_site_type_symbol
 _atom_site_label
 _atom_site_symmetry_multiplicity
 _atom_site_fract_x
 _atom_site_fract_y
 _atom_site_fract_z
 _atom_site_occupancy
 _atom_site_charge
  U  U1  1  0.777060  0.680400  0.099180  1.0  1.7368
  U  U2  1  0.277060  0.319600  0.900820  1.0  1.737
  U  U3  1  0.277060  0.900820  0.319600  1.0  1.7367
  U  U4  1  0.777060  0.099180  0.680400  1.0  1.7378
  U  U5  1  0.948120  0.206130  0.206130  1.0  1.7928
  U  U6  1  0.448120  0.793870  0.793870  1.0  1.8051
  P  P7  1  0.904300  0.229890  0.927810  1.0  1.5921
  P  P8  1  0.970600  0.430290  0.036190  1.0  1.6177
  P  P9  1  0.404300  0.770110  0.072190  1.0  1.5911
  P  P10  1  0.470600  0.569710  0.963810  1.0  1.6198
  P  P11  1  0.404300  0.072190  0.770110  1.0  1.5914
  P  P12  1  0.470600  0.963810  0.569710  1.0  1.6187
  P  P13  1  0.904300  0.927810  0.229890  1.0  1.592
  P  P14  1  0.970600  0.036190  0.430290  1.0  1.6157
  H  H15  1  0.952500  0.419200  0.812200  1.0  0.0784
  H  H16  1  0.796700  0.385600  0.790200  1.0  0.1032
  H  H17  1  0.828200  0.490300  0.850700  1.0  0.1131
  H  H18  1  0.690600  0.429300  0.997300  1.0  0.3809
  H  H19  1  0.452500  0.580800  0.187800  1.0  0.0792
  H  H20  1  0.296700  0.614400  0.209800  1.0  0.1065
  H  H21  1  0.328200  0.509700  0.149300  1.0  0.1112
  H  H22  1  0.190600  0.570700  0.002700  1.0  0.3807
  H  H23  1  0.452500  0.187800  0.580800  1.0  0.0794
  H  H24  1  0.296700  0.209800  0.614400  1.0  0.1026
  H  H25  1  0.328200  0.149300  0.509700  1.0  0.1102
  H  H26  1  0.190600  0.002700  0.570700  1.0  0.3801
  H  H27  1  0.952500  0.812200  0.419200  1.0  0.0791
  H  H28  1  0.796700  0.790200  0.385600  1.0  0.1043
  H  H29  1  0.828200  0.850700  0.490300  1.0  0.1117
  H  H30  1  0.690600  0.997300  0.429300  1.0  0.3793
  C  C31  1  0.855000  0.364400  0.940400  1.0  -0.4036
  C  C32  1  0.858400  0.420000  0.839200  1.0  -0.2058
  C  C33  1  0.355000  0.635600  0.059600  1.0  -0.4029
  C  C34  1  0.358400  0.580000  0.160800  1.0  -0.2042
  C  C35  1  0.355000  0.059600  0.635600  1.0  -0.4048
  C  C36  1  0.358400  0.160800  0.580000  1.0  -0.2115
  C  C37  1  0.855000  0.940400  0.364400  1.0  -0.4038
  C  C38  1  0.858400  0.839200  0.420000  1.0  -0.2035
  O  O39  1  0.909700  0.535600  0.057400  1.0  -0.8744
  O  O40  1  0.813600  0.177900  0.845100  1.0  -0.8739
  O  O41  1  0.885600  0.178300  0.031900  1.0  -0.874
  O  O42  1  0.114500  0.435800  0.983600  1.0  -0.865
  O  O43  1  0.972100  0.366500  0.135100  1.0  -0.9335
  O  O44  1  0.058500  0.233100  0.895100  1.0  -0.9312
  O  O45  1  0.711500  0.368900  0.983100  1.0  -0.5252
  O  O46  1  0.409700  0.464400  0.942600  1.0  -0.8766
  O  O47  1  0.313600  0.822100  0.154900  1.0  -0.8742
  O  O48  1  0.385600  0.821700  0.968100  1.0  -0.8728
  O  O49  1  0.614500  0.564200  0.016400  1.0  -0.8657
  O  O50  1  0.472100  0.633500  0.864900  1.0  -0.9779
  O  O51  1  0.558500  0.766900  0.104900  1.0  -0.9304
  O  O52  1  0.211500  0.631100  0.016900  1.0  -0.5267
  O  O53  1  0.409700  0.942600  0.464400  1.0  -0.8785
  O  O54  1  0.313600  0.154900  0.822100  1.0  -0.8722
  O  O55  1  0.385600  0.968100  0.821700  1.0  -0.872
  O  O56  1  0.614500  0.016400  0.564200  1.0  -0.8652
  O  O57  1  0.472100  0.864900  0.633500  1.0  -0.9775
  O  O58  1  0.558500  0.104900  0.766900  1.0  -0.9287
  O  O59  1  0.211500  0.016900  0.631100  1.0  -0.5276
  O  O60  1  0.909700  0.057400  0.535600  1.0  -0.8745
  O  O61  1  0.813600  0.845100  0.177900  1.0  -0.874
  O  O62  1  0.885600  0.031900  0.178300  1.0  -0.8725
  O  O63  1  0.114500  0.983600  0.435800  1.0  -0.8657
  O  O64  1  0.972100  0.135100  0.366500  1.0  -0.9782
  O  O65  1  0.058500  0.895100  0.233100  1.0  -0.9301
  O  O66  1  0.711500  0.983100  0.368900  1.0  -0.5261
