# generated using pymatgen
data_U3AgP4H8C4O25
_symmetry_space_group_name_H-M   'P 1'
_cell_length_a   9.49260000
_cell_length_b   12.93570000
_cell_length_c   12.93570000
_cell_angle_alpha   92.37390000
_cell_angle_beta   90.00000000
_cell_angle_gamma   90.00000000
_symmetry_Int_Tables_number   1
_chemical_formula_structural   U3AgP4H8C4O25
_chemical_formula_sum   'U6 Ag2 P8 H16 C8 O50'
_cell_volume   1587.05574058
_cell_formula_units_Z   2
loop_
 _symmetry_equiv_pos_site_id
 _symmetry_equiv_pos_as_xyz
  1  'x, y, z'
loop_
 _atom_site_type_symbol
 _atom_site_label
 _atom_site_symmetry_multiplicity
 _atom_site_fract_x
 _atom_site_fract_y
 _atom_site_fract_z
 _atom_site_occupancy
 _atom_site_charge
  U  U1  1  0.264630  0.318130  0.902490  1.0  2.7778
  U  U2  1  0.764630  0.681870  0.097510  1.0  2.7779
  U  U3  1  0.764630  0.097510  0.681870  1.0  2.7773
  U  U4  1  0.264630  0.902490  0.318130  1.0  2.7769
  U  U5  1  0.095100  0.791090  0.791090  1.0  2.8999
  U  U6  1  0.595100  0.208910  0.208910  1.0  2.9006
  Ag  Ag7  1  0.083000  0.003400  0.003400  1.0  0.4704
  Ag  Ag8  1  0.583000  0.996600  0.996600  1.0  0.4697
  P  P9  1  0.139000  0.070000  0.770800  1.0  1.5932
  P  P10  1  0.071600  0.962300  0.570100  1.0  1.5865
  P  P11  1  0.639000  0.930000  0.229200  1.0  1.5925
  P  P12  1  0.571600  0.037700  0.429900  1.0  1.5854
  P  P13  1  0.639000  0.229200  0.930000  1.0  1.5912
  P  P14  1  0.571600  0.429900  0.037700  1.0  1.5859
  P  P15  1  0.139000  0.770800  0.070000  1.0  1.5903
  P  P16  1  0.071600  0.570100  0.962300  1.0  1.5857
  H  H17  1  0.089800  0.188100  0.588100  1.0  0.1799
  H  H18  1  0.215300  0.153900  0.515700  1.0  0.1731
  H  H19  1  0.245500  0.208300  0.623900  1.0  0.1836
  H  H20  1  0.333400  0.965200  0.588400  1.0  0.5097
  H  H21  1  0.589800  0.811900  0.411900  1.0  0.1807
  H  H22  1  0.715300  0.846100  0.484300  1.0  0.1748
  H  H23  1  0.745500  0.791700  0.376100  1.0  0.1841
  H  H24  1  0.833400  0.034800  0.411600  1.0  0.5109
  H  H25  1  0.589800  0.411900  0.811900  1.0  0.1779
  H  H26  1  0.715300  0.484300  0.846100  1.0  0.1775
  H  H27  1  0.745500  0.376100  0.791700  1.0  0.1839
  H  H28  1  0.833400  0.411600  0.034800  1.0  0.5114
  H  H29  1  0.089800  0.588100  0.188100  1.0  0.1808
  H  H30  1  0.215300  0.515700  0.153900  1.0  0.1753
  H  H31  1  0.245500  0.623900  0.208300  1.0  0.1843
  H  H32  1  0.333400  0.588400  0.965200  1.0  0.5121
  C  C33  1  0.187200  0.057100  0.634900  1.0  -0.2561
  C  C34  1  0.184200  0.161400  0.586200  1.0  -0.2759
  C  C35  1  0.687200  0.942900  0.365100  1.0  -0.2568
  C  C36  1  0.684200  0.838600  0.413800  1.0  -0.2753
  C  C37  1  0.687200  0.365100  0.942900  1.0  -0.2563
  C  C38  1  0.684200  0.413800  0.838600  1.0  -0.2731
  C  C39  1  0.187200  0.634900  0.057100  1.0  -0.2572
  C  C40  1  0.184200  0.586200  0.161400  1.0  -0.2755
  O  O41  1  0.308100  0.368400  0.781200  1.0  -0.6068
  O  O42  1  0.019100  0.301400  0.840400  1.0  -0.1791
  O  O43  1  0.228800  0.153600  0.821200  1.0  -0.8684
  O  O44  1  0.159900  0.965900  0.819100  1.0  -0.9396
  O  O45  1  0.926200  0.013900  0.566300  1.0  -0.7708
  O  O46  1  0.067600  0.865600  0.632400  1.0  -0.8805
  O  O47  1  0.984000  0.100300  0.769900  1.0  -0.8642
  O  O48  1  0.216700  0.266600  0.023200  1.0  -0.5462
  O  O49  1  0.131600  0.941800  0.464200  1.0  -0.8437
  O  O50  1  0.330600  0.014000  0.631000  1.0  -0.5184
  O  O51  1  0.808100  0.631600  0.218800  1.0  -0.6022
  O  O52  1  0.519100  0.698600  0.159600  1.0  -0.1792
  O  O53  1  0.728800  0.846400  0.178800  1.0  -0.8681
  O  O54  1  0.659900  0.034100  0.180900  1.0  -0.9384
  O  O55  1  0.426200  0.986100  0.433700  1.0  -0.7699
  O  O56  1  0.567600  0.134400  0.367600  1.0  -0.88
  O  O57  1  0.484000  0.899700  0.230100  1.0  -0.8639
  O  O58  1  0.716700  0.733400  0.976800  1.0  -0.5475
  O  O59  1  0.631600  0.058200  0.535800  1.0  -0.8428
  O  O60  1  0.830600  0.986000  0.369000  1.0  -0.5193
  O  O61  1  0.808100  0.218800  0.631600  1.0  -0.6026
  O  O62  1  0.519100  0.159600  0.698600  1.0  -0.1786
  O  O63  1  0.728800  0.178800  0.846400  1.0  -0.8655
  O  O64  1  0.659900  0.180900  0.034100  1.0  -0.9413
  O  O65  1  0.426200  0.433700  0.986100  1.0  -0.7708
  O  O66  1  0.567600  0.367600  0.134400  1.0  -0.8727
  O  O67  1  0.484000  0.230100  0.899700  1.0  -0.8625
  O  O68  1  0.716700  0.976800  0.733400  1.0  -0.5448
  O  O69  1  0.631600  0.535800  0.058200  1.0  -0.8413
  O  O70  1  0.830600  0.369000  0.986000  1.0  -0.5179
  O  O71  1  0.308100  0.781200  0.368400  1.0  -0.6028
  O  O72  1  0.019100  0.840400  0.301400  1.0  -0.1788
  O  O73  1  0.228800  0.821200  0.153600  1.0  -0.8669
  O  O74  1  0.159900  0.819100  0.965900  1.0  -0.9416
  O  O75  1  0.926200  0.566300  0.013900  1.0  -0.7701
  O  O76  1  0.067600  0.632400  0.865600  1.0  -0.8748
  O  O77  1  0.984000  0.769900  0.100300  1.0  -0.863
  O  O78  1  0.216700  0.023200  0.266600  1.0  -0.5412
  O  O79  1  0.131600  0.464200  0.941800  1.0  -0.8419
  O  O80  1  0.330600  0.631000  0.014000  1.0  -0.5166
  O  O81  1  0.922000  0.819100  0.819100  1.0  -0.5177
  O  O82  1  0.018000  0.658700  0.658700  1.0  -0.1498
  O  O83  1  0.276100  0.759000  0.759000  1.0  -0.4563
  O  O84  1  0.172000  0.115200  0.115200  1.0  -0.5784
  O  O85  1  0.317000  0.024100  0.024100  1.0  -0.6026
  O  O86  1  0.422000  0.180900  0.180900  1.0  -0.5189
  O  O87  1  0.518000  0.341300  0.341300  1.0  -0.1534
  O  O88  1  0.776100  0.241000  0.241000  1.0  -0.4545
  O  O89  1  0.672000  0.884800  0.884800  1.0  -0.5768
  O  O90  1  0.817000  0.975900  0.975900  1.0  -0.6017
