# generated using pymatgen
data_CsU3P4H8C4O23
_symmetry_space_group_name_H-M   'P 1'
_cell_length_a   9.53300000
_cell_length_b   12.92390000
_cell_length_c   12.92390000
_cell_angle_alpha   92.44570000
_cell_angle_beta   90.00000000
_cell_angle_gamma   90.00000000
_symmetry_Int_Tables_number   1
_chemical_formula_structural   CsU3P4H8C4O23
_chemical_formula_sum   'Cs2 U6 P8 H16 C8 O46'
_cell_volume   1590.81983336
_cell_formula_units_Z   2
loop_
 _symmetry_equiv_pos_site_id
 _symmetry_equiv_pos_as_xyz
  1  'x, y, z'
loop_
 _atom_site_type_symbol
 _atom_site_label
 _atom_site_symmetry_multiplicity
 _atom_site_fract_x
 _atom_site_fract_y
 _atom_site_fract_z
 _atom_site_occupancy
 _atom_site_charge
  Cs  Cs1  1  0.066600  0.014700  0.014700  1.0  0.9051
  Cs  Cs2  1  0.566600  0.985300  0.985300  1.0  0.9051
  U  U3  1  0.142820  0.902290  0.318550  1.0  2.8893
  U  U4  1  0.642820  0.097710  0.681450  1.0  2.8899
  U  U5  1  0.642820  0.681450  0.097710  1.0  2.8892
  U  U6  1  0.142820  0.318550  0.902290  1.0  2.8893
  U  U7  1  0.315200  0.792560  0.792560  1.0  2.7768
  U  U8  1  0.815200  0.207440  0.207440  1.0  2.7775
  P  P9  1  0.270700  0.070600  0.771600  1.0  1.5621
  P  P10  1  0.336600  0.962800  0.570400  1.0  1.5646
  P  P11  1  0.770700  0.929400  0.228400  1.0  1.5608
  P  P12  1  0.836600  0.037200  0.429600  1.0  1.5637
  P  P13  1  0.770700  0.228400  0.929400  1.0  1.5592
  P  P14  1  0.836600  0.429600  0.037200  1.0  1.565
  P  P15  1  0.270700  0.771600  0.070600  1.0  1.5609
  P  P16  1  0.336600  0.570400  0.962800  1.0  1.5659
  H  H17  1  0.314000  0.190500  0.587100  1.0  0.1619
  H  H18  1  0.192000  0.151900  0.513900  1.0  0.1634
  H  H19  1  0.157500  0.208400  0.620600  1.0  0.1638
  H  H20  1  0.055200  0.004700  0.572700  1.0  0.4305
  H  H21  1  0.814000  0.809500  0.412900  1.0  0.1608
  H  H22  1  0.692000  0.848100  0.486100  1.0  0.1644
  H  H23  1  0.657500  0.791600  0.379400  1.0  0.1636
  H  H24  1  0.555200  0.995300  0.427300  1.0  0.4299
  H  H25  1  0.814000  0.412900  0.809500  1.0  0.1614
  H  H26  1  0.692000  0.486100  0.848100  1.0  0.1644
  H  H27  1  0.657500  0.379400  0.791600  1.0  0.1632
  H  H28  1  0.555200  0.427300  0.995300  1.0  0.4291
  H  H29  1  0.314000  0.587100  0.190500  1.0  0.1614
  H  H30  1  0.192000  0.513900  0.151900  1.0  0.1634
  H  H31  1  0.157500  0.620600  0.208400  1.0  0.1636
  H  H32  1  0.055200  0.572700  0.004700  1.0  0.4286
  C  C33  1  0.220900  0.058600  0.636200  1.0  -0.355
  C  C34  1  0.221100  0.161800  0.584800  1.0  -0.3064
  C  C35  1  0.720900  0.941400  0.363800  1.0  -0.3548
  C  C36  1  0.721100  0.838200  0.415200  1.0  -0.3049
  C  C37  1  0.720900  0.363800  0.941400  1.0  -0.355
  C  C38  1  0.721100  0.415200  0.838200  1.0  -0.3031
  C  C39  1  0.220900  0.636200  0.058600  1.0  -0.3544
  C  C40  1  0.221100  0.584800  0.161800  1.0  -0.3032
  O  O41  1  0.189100  0.021900  0.267500  1.0  -0.743
  O  O42  1  0.275500  0.941400  0.464600  1.0  -0.8566
  O  O43  1  0.180200  0.153300  0.826100  1.0  -0.9426
  O  O44  1  0.250400  0.966300  0.819700  1.0  -0.9395
  O  O45  1  0.101800  0.779000  0.367800  1.0  -0.6163
  O  O46  1  0.391200  0.841300  0.303300  1.0  -0.1768
  O  O47  1  0.483700  0.014900  0.565100  1.0  -0.801
  O  O48  1  0.340800  0.865300  0.630700  1.0  -0.8872
  O  O49  1  0.424800  0.102300  0.770100  1.0  -0.9087
  O  O50  1  0.079000  0.015800  0.633000  1.0  -0.4848
  O  O51  1  0.689100  0.978100  0.732500  1.0  -0.7437
  O  O52  1  0.775500  0.058600  0.535400  1.0  -0.8595
  O  O53  1  0.680200  0.846700  0.173900  1.0  -0.9419
  O  O54  1  0.750400  0.033700  0.180300  1.0  -0.9338
  O  O55  1  0.601800  0.221000  0.632200  1.0  -0.616
  O  O56  1  0.891200  0.158700  0.696700  1.0  -0.1762
  O  O57  1  0.983700  0.985100  0.434900  1.0  -0.8015
  O  O58  1  0.840800  0.134700  0.369300  1.0  -0.8864
  O  O59  1  0.924800  0.897700  0.229900  1.0  -0.9076
  O  O60  1  0.579000  0.984200  0.367000  1.0  -0.4881
  O  O61  1  0.689100  0.732500  0.978100  1.0  -0.7473
  O  O62  1  0.775500  0.535400  0.058600  1.0  -0.8583
  O  O63  1  0.680200  0.173900  0.846700  1.0  -0.9368
  O  O64  1  0.750400  0.180300  0.033700  1.0  -0.9367
  O  O65  1  0.601800  0.632200  0.221000  1.0  -0.615
  O  O66  1  0.891200  0.696700  0.158700  1.0  -0.1763
  O  O67  1  0.983700  0.434900  0.985100  1.0  -0.8018
  O  O68  1  0.840800  0.369300  0.134700  1.0  -0.8793
  O  O69  1  0.924800  0.229900  0.897700  1.0  -0.908
  O  O70  1  0.579000  0.367000  0.984200  1.0  -0.4817
  O  O71  1  0.189100  0.267500  0.021900  1.0  -0.7462
  O  O72  1  0.275500  0.464600  0.941400  1.0  -0.8555
  O  O73  1  0.180200  0.826100  0.153300  1.0  -0.9434
  O  O74  1  0.250400  0.819700  0.966300  1.0  -0.9355
  O  O75  1  0.101800  0.367800  0.779000  1.0  -0.6164
  O  O76  1  0.391200  0.303300  0.841300  1.0  -0.1766
  O  O77  1  0.483700  0.565100  0.014900  1.0  -0.8017
  O  O78  1  0.340800  0.630700  0.865300  1.0  -0.8835
  O  O79  1  0.424800  0.770100  0.102300  1.0  -0.9095
  O  O80  1  0.079000  0.633000  0.015800  1.0  -0.482
  O  O81  1  0.144000  0.756900  0.756900  1.0  -0.5758
  O  O82  1  0.404000  0.660600  0.660600  1.0  -0.1913
  O  O83  1  0.496100  0.824200  0.824200  1.0  -0.7624
  O  O84  1  0.644000  0.243100  0.243100  1.0  -0.5733
  O  O85  1  0.904000  0.339400  0.339400  1.0  -0.1943
  O  O86  1  0.996100  0.175800  0.175800  1.0  -0.7618
