# generated using pymatgen
data_U3P4H8(C2O7)2
_symmetry_space_group_name_H-M   'P 1'
_cell_length_a   9.61640000
_cell_length_b   18.57420000
_cell_length_c   18.08890000
_cell_angle_alpha   90.00000000
_cell_angle_beta   91.28000000
_cell_angle_gamma   90.00000000
_symmetry_Int_Tables_number   1
_chemical_formula_structural   U3P4H8(C2O7)2
_chemical_formula_sum   'U12 P16 H32 C16 O56'
_cell_volume   3230.17767497
_cell_formula_units_Z   4
loop_
 _symmetry_equiv_pos_site_id
 _symmetry_equiv_pos_as_xyz
  1  'x, y, z'
loop_
 _atom_site_type_symbol
 _atom_site_label
 _atom_site_symmetry_multiplicity
 _atom_site_fract_x
 _atom_site_fract_y
 _atom_site_fract_z
 _atom_site_occupancy
 _atom_site_charge
  U  U1  1  0.469570  0.198200  0.708200  1.0  1.6996
  U  U2  1  0.972160  0.264790  0.989710  1.0  1.806
  U  U3  1  0.252640  0.462690  0.874800  1.0  1.3282
  U  U4  1  0.530430  0.698200  0.791800  1.0  1.6942
  U  U5  1  0.027840  0.764790  0.510290  1.0  1.8053
  U  U6  1  0.747360  0.962690  0.625200  1.0  1.3276
  U  U7  1  0.530430  0.801800  0.291800  1.0  1.6931
  U  U8  1  0.027840  0.735210  0.010290  1.0  1.8053
  U  U9  1  0.747360  0.537310  0.125200  1.0  1.3284
  U  U10  1  0.469570  0.301800  0.208200  1.0  1.699
  U  U11  1  0.972160  0.235210  0.489710  1.0  1.8062
  U  U12  1  0.252640  0.037310  0.374800  1.0  1.3293
  P  P13  1  0.835800  0.154000  0.664000  1.0  1.549
  P  P14  1  0.781400  0.168900  0.829100  1.0  1.4599
  P  P15  1  0.267800  0.265200  0.868000  1.0  1.5491
  P  P16  1  0.343200  0.331600  0.012700  1.0  1.4934
  P  P17  1  0.164200  0.654000  0.836000  1.0  1.5494
  P  P18  1  0.218600  0.668900  0.670900  1.0  1.4571
  P  P19  1  0.732200  0.765200  0.632000  1.0  1.5519
  P  P20  1  0.656800  0.831600  0.487300  1.0  1.4915
  P  P21  1  0.164200  0.846000  0.336000  1.0  1.5488
  P  P22  1  0.218600  0.831100  0.170900  1.0  1.4567
  P  P23  1  0.732200  0.734800  0.132000  1.0  1.5523
  P  P24  1  0.656800  0.668400  0.987300  1.0  1.4908
  P  P25  1  0.835800  0.346000  0.164000  1.0  1.5477
  P  P26  1  0.781400  0.331100  0.329100  1.0  1.4578
  P  P27  1  0.267800  0.234800  0.368000  1.0  1.5495
  P  P28  1  0.343200  0.168400  0.512700  1.0  1.493
  H  H29  1  0.961600  0.288800  0.706900  1.0  0.1279
  H  H30  1  0.941500  0.295100  0.792400  1.0  0.1381
  H  H31  1  0.811700  0.295500  0.738500  1.0  0.1289
  H  H32  1  0.454600  0.183600  0.021600  1.0  0.1458
  H  H33  1  0.297900  0.175300  0.997400  1.0  0.1276
  H  H34  1  0.415300  0.151000  0.944000  1.0  0.1324
  H  H35  1  0.551000  0.254000  0.887800  1.0  0.3806
  H  H36  1  0.086000  0.180900  0.739100  1.0  0.4186
  H  H37  1  0.038400  0.788800  0.793100  1.0  0.1283
  H  H38  1  0.058500  0.795100  0.707600  1.0  0.1384
  H  H39  1  0.188300  0.795500  0.761500  1.0  0.1133
  H  H40  1  0.545400  0.683600  0.478400  1.0  0.1454
  H  H41  1  0.702100  0.675300  0.502600  1.0  0.1119
  H  H42  1  0.584700  0.651000  0.556000  1.0  0.1328
  H  H43  1  0.449000  0.754000  0.612200  1.0  0.3808
  H  H44  1  0.914000  0.680900  0.760900  1.0  0.4198
  H  H45  1  0.038400  0.711200  0.293100  1.0  0.1281
  H  H46  1  0.058500  0.704900  0.207600  1.0  0.1392
  H  H47  1  0.188300  0.704500  0.261500  1.0  0.1126
  H  H48  1  0.545400  0.816400  0.978400  1.0  0.1449
  H  H49  1  0.702100  0.824700  0.002600  1.0  0.1118
  H  H50  1  0.584700  0.849000  0.056000  1.0  0.1321
  H  H51  1  0.449000  0.746000  0.112200  1.0  0.3816
  H  H52  1  0.914000  0.819100  0.260900  1.0  0.4202
  H  H53  1  0.961600  0.211200  0.206900  1.0  0.1275
  H  H54  1  0.941500  0.204900  0.292400  1.0  0.1389
  H  H55  1  0.811700  0.204500  0.238500  1.0  0.1285
  H  H56  1  0.454600  0.316400  0.521600  1.0  0.1452
  H  H57  1  0.297900  0.324700  0.497400  1.0  0.1274
  H  H58  1  0.415300  0.349000  0.444000  1.0  0.1327
  H  H59  1  0.551000  0.246000  0.387800  1.0  0.3806
  H  H60  1  0.086000  0.319100  0.239100  1.0  0.4193
  C  C61  1  0.893700  0.191300  0.753000  1.0  -0.3331
  C  C62  1  0.903000  0.276000  0.747100  1.0  -0.2738
  C  C63  1  0.391900  0.263200  0.945700  1.0  -0.3209
  C  C64  1  0.390000  0.185800  0.980600  1.0  -0.3
  C  C65  1  0.106300  0.691300  0.747000  1.0  -0.3325
  C  C66  1  0.097000  0.776000  0.752900  1.0  -0.2753
  C  C67  1  0.608100  0.763200  0.554300  1.0  -0.3218
  C  C68  1  0.610000  0.685800  0.519400  1.0  -0.3003
  C  C69  1  0.106300  0.808700  0.247000  1.0  -0.3338
  C  C70  1  0.097000  0.724000  0.252900  1.0  -0.2701
  C  C71  1  0.608100  0.736800  0.054300  1.0  -0.3228
  C  C72  1  0.610000  0.814200  0.019400  1.0  -0.3014
  C  C73  1  0.893700  0.308700  0.253000  1.0  -0.3341
  C  C74  1  0.903000  0.224000  0.247100  1.0  -0.27
  C  C75  1  0.391900  0.236800  0.445700  1.0  -0.3221
  C  C76  1  0.390000  0.314200  0.480600  1.0  -0.302
  O  O77  1  0.333400  0.218700  0.809300  1.0  -0.8802
  O  O78  1  0.434600  0.321400  0.081100  1.0  -0.9072
  O  O79  1  0.188800  0.318600  0.027700  1.0  -0.9005
  O  O80  1  0.132300  0.232500  0.895200  1.0  -0.8692
  O  O81  1  0.844200  0.200900  0.898800  1.0  -0.9262
  O  O82  1  0.248800  0.342900  0.844600  1.0  -0.935
  O  O83  1  0.371400  0.405300  0.976900  1.0  -0.7656
  O  O84  1  0.836200  0.073500  0.669700  1.0  -0.8654
  O  O85  1  0.785000  0.085200  0.833300  1.0  -0.5524
  O  O86  1  0.528400  0.282000  0.920600  1.0  -0.5054
  O  O87  1  0.689000  0.183800  0.652200  1.0  -0.9185
  O  O88  1  0.637500  0.199100  0.809100  1.0  -0.7944
  O  O89  1  0.934800  0.181200  0.606400  1.0  -0.899
  O  O90  1  0.031800  0.164500  0.769100  1.0  -0.5189
  O  O91  1  0.666667  0.718700  0.690700  1.0  -0.8819
  O  O92  1  0.565400  0.821400  0.418900  1.0  -0.9086
  O  O93  1  0.811200  0.818600  0.472300  1.0  -0.9001
  O  O94  1  0.867700  0.732500  0.604800  1.0  -0.8706
  O  O95  1  0.155800  0.700900  0.601200  1.0  -0.9302
  O  O96  1  0.751200  0.842900  0.655400  1.0  -0.9304
  O  O97  1  0.628600  0.905300  0.523100  1.0  -0.7645
  O  O98  1  0.163800  0.573500  0.830300  1.0  -0.8654
  O  O99  1  0.215000  0.585200  0.666667  1.0  -0.5521
  O  O100  1  0.471600  0.782000  0.579400  1.0  -0.5041
  O  O101  1  0.311000  0.683800  0.847800  1.0  -0.9186
  O  O102  1  0.362500  0.699100  0.690900  1.0  -0.7938
  O  O103  1  0.065200  0.681200  0.893600  1.0  -0.898
  O  O104  1  0.968200  0.664500  0.730900  1.0  -0.5175
  O  O105  1  0.666667  0.781300  0.190700  1.0  -0.8829
  O  O106  1  0.565400  0.678600  0.918900  1.0  -0.9076
  O  O107  1  0.811200  0.681400  0.972300  1.0  -0.9002
  O  O108  1  0.867700  0.767500  0.104800  1.0  -0.8697
  O  O109  1  0.155800  0.799100  0.101200  1.0  -0.9302
  O  O110  1  0.751200  0.657100  0.155400  1.0  -0.9318
  O  O111  1  0.628600  0.594700  0.023100  1.0  -0.7628
  O  O112  1  0.163800  0.926500  0.330300  1.0  -0.8672
  O  O113  1  0.215000  0.914800  0.166700  1.0  -0.555
  O  O114  1  0.471600  0.718000  0.079400  1.0  -0.5038
  O  O115  1  0.311000  0.816200  0.347800  1.0  -0.9178
  O  O116  1  0.362500  0.800900  0.190900  1.0  -0.7941
  O  O117  1  0.065200  0.818800  0.393600  1.0  -0.8981
  O  O118  1  0.968200  0.835500  0.230900  1.0  -0.5169
  O  O119  1  0.333400  0.281300  0.309300  1.0  -0.883
  O  O120  1  0.434600  0.178600  0.581100  1.0  -0.9066
  O  O121  1  0.188800  0.181400  0.527700  1.0  -0.899
  O  O122  1  0.132300  0.267500  0.395200  1.0  -0.8684
  O  O123  1  0.844200  0.299100  0.398800  1.0  -0.9264
  O  O124  1  0.248800  0.157100  0.344600  1.0  -0.9328
  O  O125  1  0.371400  0.094700  0.476900  1.0  -0.7628
  O  O126  1  0.836200  0.426500  0.169700  1.0  -0.8681
  O  O127  1  0.785000  0.414800  0.333333  1.0  -0.5538
  O  O128  1  0.528400  0.218000  0.420600  1.0  -0.5057
  O  O129  1  0.689000  0.316200  0.152200  1.0  -0.9174
  O  O130  1  0.637500  0.300900  0.309100  1.0  -0.7948
  O  O131  1  0.934800  0.318800  0.106400  1.0  -0.8995
  O  O132  1  0.031800  0.335500  0.269100  1.0  -0.5173
