# generated using pymatgen
data_ZnH15C16N7O4
_symmetry_space_group_name_H-M   'P 1'
_cell_length_a   9.41700000
_cell_length_b   13.12800000
_cell_length_c   15.91300000
_cell_angle_alpha   90.00000000
_cell_angle_beta   90.00000000
_cell_angle_gamma   90.00000000
_symmetry_Int_Tables_number   1
_chemical_formula_structural   ZnH15C16N7O4
_chemical_formula_sum   'Zn4 H60 C64 N28 O16'
_cell_volume   1967.26652129
_cell_formula_units_Z   4
loop_
 _symmetry_equiv_pos_site_id
 _symmetry_equiv_pos_as_xyz
  1  'x, y, z'
loop_
 _atom_site_type_symbol
 _atom_site_label
 _atom_site_symmetry_multiplicity
 _atom_site_fract_x
 _atom_site_fract_y
 _atom_site_fract_z
 _atom_site_occupancy
 _atom_site_charge
  Zn  Zn1  1  0.768530  0.669940  0.801000  1.0  0.8846
  Zn  Zn2  1  0.731470  0.169940  0.699000  1.0  0.8846
  Zn  Zn3  1  0.231470  0.330060  0.199000  1.0  0.8844
  Zn  Zn4  1  0.268530  0.830060  0.301000  1.0  0.8845
  H  H5  1  0.504300  0.696700  0.029300  1.0  0.0964
  H  H6  1  0.117600  0.608100  0.109800  1.0  0.111
  H  H7  1  0.269200  0.514700  0.887200  1.0  0.1121
  H  H8  1  0.746900  0.372800  0.609800  1.0  0.0818
  H  H9  1  0.823100  0.750400  0.977400  1.0  0.1239
  H  H10  1  0.026700  0.546900  0.722800  1.0  0.1129
  H  H11  1  0.911700  0.415400  0.486300  1.0  0.0784
  H  H12  1  0.074700  0.416500  0.467000  1.0  0.086
  H  H13  1  0.126100  0.428400  0.608300  1.0  0.0904
  H  H14  1  0.030800  0.332200  0.592100  1.0  0.0904
  H  H15  1  0.106600  0.730700  0.801600  1.0  0.0968
  H  H16  1  0.994000  0.833400  0.092700  1.0  0.1121
  H  H17  1  0.139100  0.874000  0.057600  1.0  0.1014
  H  H18  1  0.984300  0.007400  0.084400  1.0  0.087
  H  H19  1  0.873000  0.960200  0.023000  1.0  0.0612
  H  H20  1  0.995700  0.196700  0.470700  1.0  0.0975
  H  H21  1  0.382400  0.108100  0.390200  1.0  0.1115
  H  H22  1  0.230800  0.014700  0.612800  1.0  0.1122
  H  H23  1  0.753100  0.872800  0.890200  1.0  0.0801
  H  H24  1  0.676900  0.250400  0.522600  1.0  0.1236
  H  H25  1  0.473300  0.046900  0.777200  1.0  0.1131
  H  H26  1  0.588300  0.915400  0.013700  1.0  0.0794
  H  H27  1  0.425300  0.916500  0.033000  1.0  0.0864
  H  H28  1  0.373900  0.928400  0.891700  1.0  0.0901
  H  H29  1  0.469200  0.832200  0.907900  1.0  0.0911
  H  H30  1  0.393400  0.230700  0.698400  1.0  0.0973
  H  H31  1  0.506000  0.333400  0.407300  1.0  0.1126
  H  H32  1  0.360900  0.374000  0.442400  1.0  0.0982
  H  H33  1  0.515700  0.507400  0.415600  1.0  0.0868
  H  H34  1  0.627000  0.460200  0.477000  1.0  0.0634
  H  H35  1  0.495700  0.303300  0.970700  1.0  0.0975
  H  H36  1  0.882400  0.391900  0.890200  1.0  0.112
  H  H37  1  0.730800  0.485300  0.112800  1.0  0.1124
  H  H38  1  0.253100  0.627200  0.390200  1.0  0.0807
  H  H39  1  0.176900  0.249600  0.022600  1.0  0.124
  H  H40  1  0.973300  0.453100  0.277200  1.0  0.1131
  H  H41  1  0.088300  0.584600  0.513700  1.0  0.0792
  H  H42  1  0.925300  0.583500  0.533000  1.0  0.0859
  H  H43  1  0.873900  0.571600  0.391700  1.0  0.0897
  H  H44  1  0.969200  0.667800  0.407900  1.0  0.0906
  H  H45  1  0.893400  0.269300  0.198400  1.0  0.097
  H  H46  1  0.006000  0.166600  0.907300  1.0  0.113
  H  H47  1  0.860900  0.126000  0.942400  1.0  0.0987
  H  H48  1  0.015700  0.992600  0.915600  1.0  0.0865
  H  H49  1  0.127000  0.039800  0.977000  1.0  0.0629
  H  H50  1  0.004300  0.803300  0.529300  1.0  0.0961
  H  H51  1  0.617600  0.891900  0.609800  1.0  0.1114
  H  H52  1  0.769200  0.985300  0.387200  1.0  0.1123
  H  H53  1  0.246900  0.127200  0.109800  1.0  0.0825
  H  H54  1  0.323100  0.749600  0.477400  1.0  0.1236
  H  H55  1  0.526700  0.953100  0.222800  1.0  0.1129
  H  H56  1  0.411700  0.084600  0.986300  1.0  0.0793
  H  H57  1  0.574700  0.083500  0.967000  1.0  0.0861
  H  H58  1  0.626100  0.071600  0.108300  1.0  0.0899
  H  H59  1  0.530800  0.167800  0.092100  1.0  0.0897
  H  H60  1  0.606600  0.769300  0.301600  1.0  0.0967
  H  H61  1  0.494000  0.666667  0.592700  1.0  0.1096
  H  H62  1  0.639100  0.626000  0.557600  1.0  0.1007
  H  H63  1  0.484300  0.492600  0.584400  1.0  0.0874
  H  H64  1  0.373000  0.539800  0.523000  1.0  0.061
  C  C65  1  0.420300  0.661300  0.019700  1.0  -0.002
  C  C66  1  0.514100  0.613100  0.877400  1.0  0.6832
  C  C67  1  0.311800  0.663300  0.081600  1.0  -0.128
  C  C68  1  0.404000  0.608300  0.946300  1.0  -0.1384
  C  C69  1  0.333100  0.724300  0.159500  1.0  0.6579
  C  C70  1  0.189100  0.608400  0.069400  1.0  -0.0851
  C  C71  1  0.174900  0.553900  0.995600  1.0  0.1495
  C  C72  1  0.281100  0.553200  0.935700  1.0  -0.0874
  C  C73  1  0.788000  0.419600  0.646400  1.0  0.121
  C  C74  1  0.906700  0.756500  0.946700  1.0  0.1412
  C  C75  1  0.940900  0.516200  0.708800  1.0  0.1355
  C  C76  1  0.002200  0.443000  0.504400  1.0  -0.1707
  C  C77  1  0.032200  0.406100  0.591300  1.0  -0.0283
  C  C78  1  0.062500  0.747000  0.852100  1.0  0.2937
  C  C79  1  0.038900  0.866500  0.045100  1.0  -0.06
  C  C80  1  0.974000  0.969700  0.032400  1.0  -0.1492
  C  C81  1  0.079700  0.161300  0.480300  1.0  -0.0012
  C  C82  1  0.985900  0.113100  0.622600  1.0  0.6823
  C  C83  1  0.188200  0.163300  0.418400  1.0  -0.128
  C  C84  1  0.096000  0.108300  0.553700  1.0  -0.1374
  C  C85  1  0.166900  0.224300  0.340500  1.0  0.6572
  C  C86  1  0.310900  0.108400  0.430600  1.0  -0.0848
  C  C87  1  0.325100  0.053900  0.504400  1.0  0.1498
  C  C88  1  0.218900  0.053200  0.564300  1.0  -0.0868
  C  C89  1  0.712000  0.919600  0.853600  1.0  0.1226
  C  C90  1  0.593300  0.256500  0.553300  1.0  0.1399
  C  C91  1  0.559100  0.016200  0.791200  1.0  0.1359
  C  C92  1  0.497800  0.943000  0.995600  1.0  -0.1703
  C  C93  1  0.467800  0.906100  0.908700  1.0  -0.0287
  C  C94  1  0.437500  0.247000  0.647900  1.0  0.2964
  C  C95  1  0.461100  0.366500  0.454900  1.0  -0.0607
  C  C96  1  0.526000  0.469700  0.467600  1.0  -0.1493
  C  C97  1  0.579700  0.338700  0.980300  1.0  -0.002
  C  C98  1  0.485900  0.386900  0.122600  1.0  0.682
  C  C99  1  0.688200  0.336700  0.918400  1.0  -0.1283
  C  C100  1  0.596000  0.391700  0.053700  1.0  -0.1372
  C  C101  1  0.666900  0.275700  0.840500  1.0  0.6573
  C  C102  1  0.810900  0.391600  0.930600  1.0  -0.085
  C  C103  1  0.825100  0.446100  0.004400  1.0  0.1492
  C  C104  1  0.718900  0.446800  0.064300  1.0  -0.0872
  C  C105  1  0.212000  0.580400  0.353600  1.0  0.1219
  C  C106  1  0.093300  0.243500  0.053300  1.0  0.1411
  C  C107  1  0.059100  0.483800  0.291200  1.0  0.1357
  C  C108  1  0.997800  0.557000  0.495600  1.0  -0.1709
  C  C109  1  0.967800  0.593900  0.408700  1.0  -0.0286
  C  C110  1  0.937500  0.253000  0.147900  1.0  0.296
  C  C111  1  0.961100  0.133500  0.954900  1.0  -0.0596
  C  C112  1  0.026000  0.030300  0.967600  1.0  -0.149
  C  C113  1  0.920300  0.838700  0.519700  1.0  -0.0026
  C  C114  1  0.014100  0.886900  0.377400  1.0  0.6833
  C  C115  1  0.811800  0.836700  0.581600  1.0  -0.1281
  C  C116  1  0.904000  0.891700  0.446300  1.0  -0.1383
  C  C117  1  0.833100  0.775700  0.659500  1.0  0.6578
  C  C118  1  0.689100  0.891600  0.569400  1.0  -0.0856
  C  C119  1  0.674900  0.946100  0.495600  1.0  0.1491
  C  C120  1  0.781100  0.946800  0.435700  1.0  -0.0869
  C  C121  1  0.288000  0.080400  0.146400  1.0  0.1206
  C  C122  1  0.406700  0.743500  0.446700  1.0  0.1414
  C  C123  1  0.440900  0.983800  0.208800  1.0  0.1356
  C  C124  1  0.502200  0.057000  0.004400  1.0  -0.1704
  C  C125  1  0.532200  0.093900  0.091300  1.0  -0.0295
  C  C126  1  0.562500  0.753000  0.352100  1.0  0.293
  C  C127  1  0.538900  0.633500  0.545100  1.0  -0.0586
  C  C128  1  0.474000  0.530300  0.532400  1.0  -0.15
  N  N129  1  0.723800  0.474300  0.704200  1.0  -0.2375
  N  N130  1  0.928900  0.719100  0.871400  1.0  -0.4203
  N  N131  1  0.022100  0.804200  0.971700  1.0  0.1758
  N  N132  1  0.816200  0.537700  0.744500  1.0  -0.2253
  N  N133  1  0.052000  0.493700  0.976900  1.0  -0.1749
  N  N134  1  0.925400  0.445700  0.651300  1.0  0.0275
  N  N135  1  0.123300  0.798800  0.911000  1.0  -0.3698
  N  N136  1  0.776200  0.974300  0.795800  1.0  -0.2369
  N  N137  1  0.571100  0.219100  0.628600  1.0  -0.4193
  N  N138  1  0.477900  0.304200  0.528300  1.0  0.1756
  N  N139  1  0.683800  0.037700  0.755500  1.0  -0.2256
  N  N140  1  0.448000  0.993700  0.523100  1.0  -0.1731
  N  N141  1  0.574600  0.945700  0.848700  1.0  0.0248
  N  N142  1  0.376700  0.298800  0.589000  1.0  -0.3705
  N  N143  1  0.276200  0.525700  0.295800  1.0  -0.2371
  N  N144  1  0.071100  0.280900  0.128600  1.0  -0.4201
  N  N145  1  0.977900  0.195800  0.028300  1.0  0.1758
  N  N146  1  0.183800  0.462300  0.255500  1.0  -0.2256
  N  N147  1  0.948000  0.506300  0.023100  1.0  -0.1739
  N  N148  1  0.074600  0.554300  0.348700  1.0  0.0256
  N  N149  1  0.876700  0.201200  0.089000  1.0  -0.3709
  N  N150  1  0.223800  0.025700  0.204200  1.0  -0.2373
  N  N151  1  0.428900  0.780900  0.371400  1.0  -0.4196
  N  N152  1  0.522100  0.695800  0.471700  1.0  0.176
  N  N153  1  0.316200  0.962300  0.244500  1.0  -0.2249
  N  N154  1  0.552000  0.006300  0.476900  1.0  -0.1738
  N  N155  1  0.425400  0.054300  0.151300  1.0  0.0265
  N  N156  1  0.623300  0.701200  0.411000  1.0  -0.3701
  O  O157  1  0.625600  0.662700  0.891500  1.0  -0.6309
  O  O158  1  0.222900  0.740900  0.206000  1.0  -0.6233
  O  O159  1  0.451400  0.758100  0.174700  1.0  -0.5964
  O  O160  1  0.492500  0.572700  0.809600  1.0  -0.5871
  O  O161  1  0.874400  0.162700  0.608500  1.0  -0.6313
  O  O162  1  0.277100  0.240900  0.294000  1.0  -0.6233
  O  O163  1  0.048600  0.258100  0.325300  1.0  -0.5948
  O  O164  1  0.007500  0.072700  0.690400  1.0  -0.5846
  O  O165  1  0.374400  0.337300  0.108500  1.0  -0.6315
  O  O166  1  0.777100  0.259100  0.794000  1.0  -0.6232
  O  O167  1  0.548600  0.241900  0.825300  1.0  -0.5948
  O  O168  1  0.507500  0.427300  0.190400  1.0  -0.5842
  O  O169  1  0.125600  0.837300  0.391500  1.0  -0.6311
  O  O170  1  0.722900  0.759100  0.706000  1.0  -0.6231
  O  O171  1  0.951400  0.741900  0.674700  1.0  -0.5962
  O  O172  1  0.992500  0.927300  0.309600  1.0  -0.5861
