# generated using pymatgen
data_PrH12C12NO6
_symmetry_space_group_name_H-M   'P 1'
_cell_length_a   7.79650000
_cell_length_b   9.57430000
_cell_length_c   11.46400000
_cell_angle_alpha   91.93000000
_cell_angle_beta   105.87000000
_cell_angle_gamma   103.38000000
_symmetry_Int_Tables_number   1
_chemical_formula_structural   PrH12C12NO6
_chemical_formula_sum   'Pr2 H24 C24 N2 O12'
_cell_volume   796.47278476
_cell_formula_units_Z   2
loop_
 _symmetry_equiv_pos_site_id
 _symmetry_equiv_pos_as_xyz
  1  'x, y, z'
loop_
 _atom_site_type_symbol
 _atom_site_label
 _atom_site_symmetry_multiplicity
 _atom_site_fract_x
 _atom_site_fract_y
 _atom_site_fract_z
 _atom_site_occupancy
 _atom_site_charge
  Pr  Pr1  1  0.713660  0.420100  0.482200  1.0  2.1972
  Pr  Pr2  1  0.286340  0.579900  0.517800  1.0  2.1984
  H  H3  1  0.949800  0.260700  0.312000  1.0  0.064
  H  H4  1  0.017900  0.057600  0.247900  1.0  0.1242
  H  H5  1  0.892800  0.836600  0.307100  1.0  0.1019
  H  H6  1  0.647800  0.042900  0.496200  1.0  0.0764
  H  H7  1  0.267800  0.411000  0.809200  1.0  0.1163
  H  H8  1  0.208500  0.545500  0.850200  1.0  0.1161
  H  H9  1  0.004600  0.388600  0.939800  1.0  0.0703
  H  H10  1  0.087100  0.262000  0.908700  1.0  0.0727
  H  H11  1  0.307600  0.515500  0.060900  1.0  0.0727
  H  H12  1  0.376500  0.378600  0.037700  1.0  0.0712
  H  H13  1  0.174400  0.245800  0.139500  1.0  0.1142
  H  H14  1  0.120000  0.388000  0.168800  1.0  0.105
  H  H15  1  0.050200  0.739300  0.688000  1.0  0.0622
  H  H16  1  0.982100  0.942400  0.752100  1.0  0.1237
  H  H17  1  0.107200  0.163400  0.692900  1.0  0.1012
  H  H18  1  0.352200  0.957100  0.503800  1.0  0.0764
  H  H19  1  0.732200  0.589000  0.190800  1.0  0.122
  H  H20  1  0.791500  0.454500  0.149800  1.0  0.1183
  H  H21  1  0.995400  0.611400  0.060200  1.0  0.0696
  H  H22  1  0.912900  0.738000  0.091300  1.0  0.0744
  H  H23  1  0.692400  0.484500  0.939100  1.0  0.0735
  H  H24  1  0.623500  0.621400  0.962300  1.0  0.0697
  H  H25  1  0.825600  0.754200  0.860500  1.0  0.1136
  H  H26  1  0.880000  0.612000  0.831200  1.0  0.1057
  C  C27  1  0.900900  0.173300  0.337800  1.0  0.1988
  C  C28  1  0.941000  0.051700  0.297900  1.0  -0.1937
  C  C29  1  0.866200  0.920300  0.332700  1.0  0.0486
  C  C30  1  0.751600  0.914900  0.406000  1.0  -0.2422
  C  C31  1  0.722200  0.045300  0.444800  1.0  0.2321
  C  C32  1  0.662100  0.774300  0.442900  1.0  0.7329
  C  C33  1  0.013700  0.419700  0.706300  1.0  0.7462
  C  C34  1  0.165700  0.442800  0.824400  1.0  -0.3488
  C  C35  1  0.114300  0.365600  0.928700  1.0  -0.0799
  C  C36  1  0.271300  0.411000  0.046600  1.0  -0.0895
  C  C37  1  0.219100  0.349900  0.156000  1.0  -0.3154
  C  C38  1  0.380500  0.386800  0.270500  1.0  0.7868
  C  C39  1  0.099100  0.826700  0.662200  1.0  0.1985
  C  C40  1  0.059000  0.948300  0.702100  1.0  -0.1915
  C  C41  1  0.133800  0.079700  0.667300  1.0  0.0543
  C  C42  1  0.248400  0.085100  0.594000  1.0  -0.2415
  C  C43  1  0.277800  0.954700  0.555200  1.0  0.231
  C  C44  1  0.337900  0.225700  0.557100  1.0  0.7155
  C  C45  1  0.986300  0.580300  0.293700  1.0  0.7454
  C  C46  1  0.834300  0.557200  0.175600  1.0  -0.3516
  C  C47  1  0.885700  0.634400  0.071300  1.0  -0.0801
  C  C48  1  0.728700  0.589000  0.953400  1.0  -0.0909
  C  C49  1  0.780900  0.650100  0.844000  1.0  -0.3162
  C  C50  1  0.619500  0.613200  0.729500  1.0  0.7881
  N  N51  1  0.795000  0.172800  0.412000  1.0  -0.4655
  N  N52  1  0.205000  0.827200  0.588000  1.0  -0.4626
  O  O53  1  0.040700  0.502700  0.623200  1.0  -0.8019
  O  O54  1  0.865000  0.327600  0.686500  1.0  -0.6286
  O  O55  1  0.368100  0.452000  0.364800  1.0  -0.828
  O  O56  1  0.524600  0.351200  0.269500  1.0  -0.6556
  O  O57  1  0.526700  0.770500  0.483100  1.0  -0.699
  O  O58  1  0.728900  0.668700  0.429200  1.0  -0.6971
  O  O59  1  0.959300  0.497300  0.376800  1.0  -0.8038
  O  O60  1  0.135000  0.672400  0.313500  1.0  -0.6273
  O  O61  1  0.631900  0.548000  0.635200  1.0  -0.8282
  O  O62  1  0.475400  0.648800  0.730500  1.0  -0.6564
  O  O63  1  0.473300  0.229500  0.516900  1.0  -0.6991
  O  O64  1  0.271100  0.331300  0.570800  1.0  -0.6945
