# generated using pymatgen
data_PrH2C8NO6
_symmetry_space_group_name_H-M   'P 1'
_cell_length_a   6.79810000
_cell_length_b   11.97800000
_cell_length_c   13.51500000
_cell_angle_alpha   90.00000000
_cell_angle_beta   100.17400000
_cell_angle_gamma   90.00000000
_symmetry_Int_Tables_number   1
_chemical_formula_structural   PrH2C8NO6
_chemical_formula_sum   'Pr4 H8 C32 N4 O24'
_cell_volume   1083.19025375
_cell_formula_units_Z   4
loop_
 _symmetry_equiv_pos_site_id
 _symmetry_equiv_pos_as_xyz
  1  'x, y, z'
loop_
 _atom_site_type_symbol
 _atom_site_label
 _atom_site_symmetry_multiplicity
 _atom_site_fract_x
 _atom_site_fract_y
 _atom_site_fract_z
 _atom_site_occupancy
 _atom_site_charge
  Pr  Pr1  1  0.556280  0.670140  0.756510  1.0  2.1885
  Pr  Pr2  1  0.443720  0.170140  0.743490  1.0  2.1886
  Pr  Pr3  1  0.443720  0.329860  0.243490  1.0  2.1885
  Pr  Pr4  1  0.556280  0.829860  0.256510  1.0  2.1885
  H  H5  1  0.301000  0.935900  0.460600  1.0  0.1231
  H  H6  1  0.962000  0.802600  0.645200  1.0  0.1204
  H  H7  1  0.699000  0.435900  0.039400  1.0  0.1234
  H  H8  1  0.038000  0.302600  0.854800  1.0  0.1208
  H  H9  1  0.699000  0.064100  0.539400  1.0  0.1232
  H  H10  1  0.038000  0.197400  0.354800  1.0  0.1194
  H  H11  1  0.301000  0.564100  0.960600  1.0  0.1233
  H  H12  1  0.962000  0.697400  0.145200  1.0  0.1195
  C  C13  1  0.624000  0.766100  0.505300  1.0  0.7248
  C  C14  1  0.829000  0.810600  0.499300  1.0  0.1225
  C  C15  1  0.031000  0.878500  0.392100  1.0  0.1216
  C  C16  1  0.046000  0.895700  0.283600  1.0  0.7195
  C  C17  1  0.183000  0.902600  0.471600  1.0  -0.0519
  C  C18  1  0.156000  0.876200  0.567300  1.0  -0.0703
  C  C19  1  0.317000  0.900400  0.657000  1.0  0.7306
  C  C20  1  0.979000  0.825800  0.581600  1.0  -0.0423
  C  C21  1  0.376000  0.266100  0.994700  1.0  0.7242
  C  C22  1  0.171000  0.310600  0.000700  1.0  0.1225
  C  C23  1  0.969000  0.378500  0.107900  1.0  0.1201
  C  C24  1  0.954000  0.395700  0.216400  1.0  0.7198
  C  C25  1  0.817000  0.402600  0.028400  1.0  -0.0516
  C  C26  1  0.844000  0.376200  0.932700  1.0  -0.0708
  C  C27  1  0.683000  0.400400  0.843000  1.0  0.7296
  C  C28  1  0.021000  0.325800  0.918400  1.0  -0.0435
  C  C29  1  0.376000  0.233900  0.494700  1.0  0.7237
  C  C30  1  0.171000  0.189400  0.500700  1.0  0.1225
  C  C31  1  0.969000  0.121500  0.607900  1.0  0.1205
  C  C32  1  0.954000  0.104300  0.716400  1.0  0.7201
  C  C33  1  0.817000  0.097400  0.528400  1.0  -0.0516
  C  C34  1  0.844000  0.123800  0.432700  1.0  -0.0711
  C  C35  1  0.683000  0.099600  0.343000  1.0  0.7294
  C  C36  1  0.021000  0.174200  0.418400  1.0  -0.0442
  C  C37  1  0.624000  0.733900  0.005300  1.0  0.7241
  C  C38  1  0.829000  0.689400  0.999300  1.0  0.1224
  C  C39  1  0.031000  0.621500  0.892100  1.0  0.1218
  C  C40  1  0.046000  0.604300  0.783600  1.0  0.72
  C  C41  1  0.183000  0.597400  0.971600  1.0  -0.0512
  C  C42  1  0.156000  0.623800  0.067300  1.0  -0.0705
  C  C43  1  0.317000  0.599600  0.157000  1.0  0.7301
  C  C44  1  0.979000  0.674200  0.081600  1.0  -0.0433
  N  N45  1  0.855000  0.836400  0.405900  1.0  -0.4813
  N  N46  1  0.145000  0.336400  0.094100  1.0  -0.4815
  N  N47  1  0.145000  0.163600  0.594100  1.0  -0.4815
  N  N48  1  0.855000  0.663600  0.905900  1.0  -0.4802
  O  O49  1  0.582800  0.742900  0.589500  1.0  -0.7529
  O  O50  1  0.504800  0.755900  0.422900  1.0  -0.6643
  O  O51  1  0.883700  0.899500  0.221700  1.0  -0.6881
  O  O52  1  0.216900  0.906000  0.261200  1.0  -0.709
  O  O53  1  0.421100  0.986700  0.654700  1.0  -0.6919
  O  O54  1  0.335000  0.832100  0.728400  1.0  -0.6982
  O  O55  1  0.417200  0.242900  0.910500  1.0  -0.7528
  O  O56  1  0.495200  0.255900  0.077100  1.0  -0.6631
  O  O57  1  0.116300  0.399500  0.278300  1.0  -0.6882
  O  O58  1  0.783100  0.406000  0.238800  1.0  -0.7078
  O  O59  1  0.578900  0.486700  0.845300  1.0  -0.6918
  O  O60  1  0.665000  0.332100  0.771600  1.0  -0.6994
  O  O61  1  0.417200  0.257100  0.410500  1.0  -0.7529
  O  O62  1  0.495200  0.244100  0.577100  1.0  -0.6634
  O  O63  1  0.116300  0.100500  0.778300  1.0  -0.687
  O  O64  1  0.783100  0.094000  0.738800  1.0  -0.7074
  O  O65  1  0.578900  0.013300  0.345300  1.0  -0.6916
  O  O66  1  0.665000  0.167900  0.271600  1.0  -0.6988
  O  O67  1  0.582800  0.757100  0.089500  1.0  -0.7528
  O  O68  1  0.504800  0.744100  0.922900  1.0  -0.6632
  O  O69  1  0.883700  0.600500  0.721700  1.0  -0.6874
  O  O70  1  0.216900  0.594000  0.761200  1.0  -0.7089
  O  O71  1  0.421100  0.513300  0.154700  1.0  -0.6913
  O  O72  1  0.335000  0.667900  0.228400  1.0  -0.698
