# generated using pymatgen
data_ZnH8C13NO4
_symmetry_space_group_name_H-M   'P 1'
_cell_length_a   10.88000000
_cell_length_b   10.91800000
_cell_length_c   14.12200000
_cell_angle_alpha   89.33500000
_cell_angle_beta   89.17100000
_cell_angle_gamma   78.38000000
_symmetry_Int_Tables_number   1
_chemical_formula_structural   ZnH8C13NO4
_chemical_formula_sum   'Zn4 H32 C52 N4 O16'
_cell_volume   1642.90437447
_cell_formula_units_Z   4
loop_
 _symmetry_equiv_pos_site_id
 _symmetry_equiv_pos_as_xyz
  1  'x, y, z'
loop_
 _atom_site_type_symbol
 _atom_site_label
 _atom_site_symmetry_multiplicity
 _atom_site_fract_x
 _atom_site_fract_y
 _atom_site_fract_z
 _atom_site_occupancy
 _atom_site_charge
  Zn  Zn1  1  0.726990  0.337220  0.802260  1.0  0.9185
  Zn  Zn2  1  0.730700  0.340330  0.592580  1.0  0.922
  Zn  Zn3  1  0.273010  0.662780  0.197740  1.0  0.9184
  Zn  Zn4  1  0.269300  0.659670  0.407420  1.0  0.9225
  H  H5  1  0.788600  0.724700  0.568700  1.0  0.1005
  H  H6  1  0.812800  0.932500  0.575400  1.0  0.1111
  H  H7  1  0.692900  0.954700  0.842100  1.0  0.1146
  H  H8  1  0.676200  0.748300  0.841800  1.0  0.1022
  H  H9  1  0.333400  0.370800  0.552300  1.0  0.095
  H  H10  1  0.117500  0.368600  0.551100  1.0  0.1155
  H  H11  1  0.125500  0.307000  0.839000  1.0  0.1218
  H  H12  1  0.340400  0.314500  0.838000  1.0  0.1031
  H  H13  1  0.916000  0.313500  0.429600  1.0  0.0873
  H  H14  1  0.921200  0.309300  0.266800  1.0  0.129
  H  H15  1  0.541800  0.356000  0.270900  1.0  0.1199
  H  H16  1  0.550900  0.350000  0.435700  1.0  0.0844
  H  H17  1  0.892300  0.198400  0.119400  1.0  0.1357
  H  H18  1  0.881000  0.216100  0.954300  1.0  0.0784
  H  H19  1  0.571200  0.465800  0.964700  1.0  0.0931
  H  H20  1  0.571400  0.458300  0.129300  1.0  0.107
  H  H21  1  0.211400  0.275300  0.431300  1.0  0.1004
  H  H22  1  0.187200  0.067500  0.424600  1.0  0.1112
  H  H23  1  0.307100  0.045300  0.157900  1.0  0.1151
  H  H24  1  0.323800  0.251700  0.158200  1.0  0.1022
  H  H25  1  0.666667  0.629200  0.447700  1.0  0.0947
  H  H26  1  0.882500  0.631400  0.448900  1.0  0.1162
  H  H27  1  0.874500  0.693000  0.161000  1.0  0.1222
  H  H28  1  0.659600  0.685500  0.162000  1.0  0.1037
  H  H29  1  0.084000  0.686500  0.570400  1.0  0.0869
  H  H30  1  0.078800  0.690700  0.733200  1.0  0.1288
  H  H31  1  0.458200  0.644000  0.729100  1.0  0.1198
  H  H32  1  0.449100  0.650000  0.564300  1.0  0.0842
  H  H33  1  0.107700  0.801600  0.880600  1.0  0.1364
  H  H34  1  0.119000  0.783900  0.045700  1.0  0.0795
  H  H35  1  0.428800  0.534200  0.035300  1.0  0.0931
  H  H36  1  0.428600  0.541700  0.870700  1.0  0.1073
  C  C37  1  0.713000  0.577800  0.700400  1.0  0.6832
  C  C38  1  0.724800  0.712100  0.700900  1.0  -0.1256
  C  C39  1  0.767000  0.770000  0.625500  1.0  -0.062
  C  C40  1  0.778000  0.896000  0.628400  1.0  -0.0755
  C  C41  1  0.742200  0.963200  0.704000  1.0  -0.0886
  C  C42  1  0.709000  0.908000  0.785500  1.0  -0.0861
  C  C43  1  0.700000  0.786000  0.785200  1.0  -0.0758
  C  C44  1  0.747200  0.100200  0.703600  1.0  0.6972
  C  C45  1  0.492700  0.349800  0.695600  1.0  0.6595
  C  C46  1  0.356100  0.347200  0.694200  1.0  -0.1157
  C  C47  1  0.290700  0.359800  0.610000  1.0  -0.0393
  C  C48  1  0.162600  0.356600  0.608700  1.0  -0.1143
  C  C49  1  0.102300  0.335300  0.694200  1.0  -0.1163
  C  C50  1  0.167500  0.320300  0.781500  1.0  -0.0741
  C  C51  1  0.294700  0.325500  0.780600  1.0  -0.0546
  C  C52  1  0.965400  0.330800  0.694100  1.0  0.6749
  C  C53  1  0.839300  0.321700  0.396600  1.0  0.1713
  C  C54  1  0.843000  0.320000  0.299700  1.0  -0.198
  C  C55  1  0.730900  0.334300  0.249200  1.0  0.1118
  C  C56  1  0.620400  0.346400  0.301600  1.0  -0.1955
  C  C57  1  0.626700  0.344200  0.400300  1.0  0.1833
  C  C58  1  0.730900  0.333500  0.144400  1.0  0.1038
  C  C59  1  0.825600  0.255100  0.090100  1.0  -0.2018
  C  C60  1  0.816100  0.265500  0.991100  1.0  0.1728
  C  C61  1  0.636600  0.410400  0.996400  1.0  0.1128
  C  C62  1  0.638100  0.407000  0.095300  1.0  -0.1864
  C  C63  1  0.287000  0.422200  0.299600  1.0  0.6831
  C  C64  1  0.275200  0.287900  0.299100  1.0  -0.1248
  C  C65  1  0.233000  0.230000  0.374500  1.0  -0.0598
  C  C66  1  0.222000  0.104000  0.371600  1.0  -0.0759
  C  C67  1  0.257800  0.036800  0.296000  1.0  -0.0884
  C  C68  1  0.291000  0.092000  0.214500  1.0  -0.0835
  C  C69  1  0.300000  0.214000  0.214800  1.0  -0.0746
  C  C70  1  0.252800  0.899800  0.296400  1.0  0.6967
  C  C71  1  0.507300  0.650200  0.304400  1.0  0.6587
  C  C72  1  0.643900  0.652800  0.305800  1.0  -0.119
  C  C73  1  0.709300  0.640200  0.390000  1.0  -0.0404
  C  C74  1  0.837400  0.643400  0.391300  1.0  -0.1207
  C  C75  1  0.897700  0.664700  0.305800  1.0  -0.1149
  C  C76  1  0.832500  0.679700  0.218500  1.0  -0.0738
  C  C77  1  0.705300  0.674500  0.219400  1.0  -0.056
  C  C78  1  0.034600  0.669200  0.305900  1.0  0.6747
  C  C79  1  0.160700  0.678300  0.603400  1.0  0.1726
  C  C80  1  0.157000  0.680000  0.700300  1.0  -0.1986
  C  C81  1  0.269100  0.665700  0.750800  1.0  0.1102
  C  C82  1  0.379600  0.653600  0.698400  1.0  -0.195
  C  C83  1  0.373300  0.655800  0.599700  1.0  0.1835
  C  C84  1  0.269100  0.666500  0.855600  1.0  0.1027
  C  C85  1  0.174400  0.744900  0.909900  1.0  -0.2036
  C  C86  1  0.183900  0.734500  0.008900  1.0  0.1748
  C  C87  1  0.363400  0.589600  0.003600  1.0  0.1206
  C  C88  1  0.361900  0.593000  0.904700  1.0  -0.1866
  N  N89  1  0.732200  0.334400  0.446800  1.0  -0.2971
  N  N90  1  0.725900  0.336900  0.946200  1.0  -0.2862
  N  N91  1  0.267800  0.665600  0.553200  1.0  -0.2975
  N  N92  1  0.274100  0.663100  0.053800  1.0  -0.2865
  O  O93  1  0.708500  0.523200  0.778500  1.0  -0.6099
  O  O94  1  0.708700  0.528100  0.621600  1.0  -0.5822
  O  O95  1  0.750300  0.154100  0.625400  1.0  -0.6011
  O  O96  1  0.749000  0.150400  0.781600  1.0  -0.602
  O  O97  1  0.543300  0.349900  0.774600  1.0  -0.5807
  O  O98  1  0.545600  0.353200  0.614300  1.0  -0.5707
  O  O99  1  0.914700  0.328800  0.613100  1.0  -0.5826
  O  O100  1  0.911000  0.324100  0.773500  1.0  -0.5884
  O  O101  1  0.291500  0.476800  0.221500  1.0  -0.6111
  O  O102  1  0.291300  0.471900  0.378400  1.0  -0.583
  O  O103  1  0.249700  0.845900  0.374600  1.0  -0.6019
  O  O104  1  0.251000  0.849600  0.218400  1.0  -0.603
  O  O105  1  0.456700  0.650100  0.225400  1.0  -0.5802
  O  O106  1  0.454400  0.646800  0.385700  1.0  -0.5702
  O  O107  1  0.085300  0.671200  0.386900  1.0  -0.5825
  O  O108  1  0.089000  0.675900  0.226500  1.0  -0.5878
