# generated using pymatgen
data_CoH2(CO2)2
_symmetry_space_group_name_H-M   'P 1'
_cell_length_a   9.96030000
_cell_length_b   11.36120000
_cell_length_c   14.80010000
_cell_angle_alpha   91.52700000
_cell_angle_beta   90.00000000
_cell_angle_gamma   90.00000000
_symmetry_Int_Tables_number   1
_chemical_formula_structural   CoH2(CO2)2
_chemical_formula_sum   'Co12 H24 C24 O48'
_cell_volume   1674.19877404
_cell_formula_units_Z   12
loop_
 _symmetry_equiv_pos_site_id
 _symmetry_equiv_pos_as_xyz
  1  'x, y, z'
loop_
 _atom_site_type_symbol
 _atom_site_label
 _atom_site_symmetry_multiplicity
 _atom_site_fract_x
 _atom_site_fract_y
 _atom_site_fract_z
 _atom_site_occupancy
 _atom_site_charge
  Co  Co1  1  0.927150  0.743800  0.866340  1.0  1.1205
  Co  Co2  1  0.121290  0.759430  0.694850  1.0  1.097
  Co  Co3  1  0.427150  0.756200  0.633660  1.0  1.1204
  Co  Co4  1  0.621290  0.740570  0.805150  1.0  1.0969
  Co  Co5  1  0.072850  0.256200  0.133660  1.0  1.1203
  Co  Co6  1  0.878710  0.240570  0.305150  1.0  1.0966
  Co  Co7  1  0.572850  0.243800  0.366340  1.0  1.1202
  Co  Co8  1  0.378710  0.259430  0.194850  1.0  1.0966
  Co  Co9  1  0.000000  0.500000  0.000000  1.0  1.1444
  Co  Co10  1  0.500000  0.000000  0.500000  1.0  1.1444
  Co  Co11  1  0.000000  0.000000  0.000000  1.0  1.1131
  Co  Co12  1  0.500000  0.500000  0.500000  1.0  1.1131
  H  H13  1  0.772400  0.649300  0.631300  1.0  0.0018
  H  H14  1  0.204400  0.523000  0.778700  1.0  -0.0055
  H  H15  1  0.056300  0.020000  0.743300  1.0  0.0055
  H  H16  1  0.624900  0.942600  0.949600  1.0  0.0028
  H  H17  1  0.211100  0.996800  0.525600  1.0  0.0023
  H  H18  1  0.154800  0.802700  0.071200  1.0  -0.0022
  H  H19  1  0.272400  0.850700  0.868700  1.0  0.0018
  H  H20  1  0.704400  0.977000  0.721300  1.0  -0.0056
  H  H21  1  0.556300  0.480000  0.756700  1.0  0.0061
  H  H22  1  0.124900  0.557400  0.550400  1.0  0.0028
  H  H23  1  0.711100  0.503200  0.974400  1.0  0.0015
  H  H24  1  0.654800  0.697300  0.428800  1.0  -0.0025
  H  H25  1  0.227600  0.350700  0.368700  1.0  0.0012
  H  H26  1  0.795600  0.477000  0.221300  1.0  -0.0048
  H  H27  1  0.943700  0.980000  0.256700  1.0  0.0061
  H  H28  1  0.375100  0.057400  0.050400  1.0  0.0026
  H  H29  1  0.788900  0.003200  0.474400  1.0  0.0014
  H  H30  1  0.845200  0.197300  0.928800  1.0  -0.0028
  H  H31  1  0.727600  0.149300  0.131300  1.0  0.0013
  H  H32  1  0.295600  0.023000  0.278700  1.0  -0.0055
  H  H33  1  0.443700  0.520000  0.243300  1.0  0.0056
  H  H34  1  0.875100  0.442600  0.449600  1.0  0.0028
  H  H35  1  0.288900  0.496800  0.025600  1.0  0.0021
  H  H36  1  0.345200  0.302700  0.571200  1.0  -0.0025
  C  C37  1  0.840600  0.676800  0.669300  1.0  0.6907
  C  C38  1  0.141600  0.549700  0.821000  1.0  0.69
  C  C39  1  0.028700  0.980700  0.794400  1.0  0.69
  C  C40  1  0.715900  0.925200  0.944800  1.0  0.6945
  C  C41  1  0.229300  0.934100  0.562800  1.0  0.6987
  C  C42  1  0.100400  0.758000  0.032500  1.0  0.7091
  C  C43  1  0.340600  0.823200  0.830700  1.0  0.6905
  C  C44  1  0.641600  0.950300  0.679000  1.0  0.6899
  C  C45  1  0.528700  0.519300  0.705600  1.0  0.69
  C  C46  1  0.215900  0.574800  0.555200  1.0  0.6951
  C  C47  1  0.729300  0.565900  0.937200  1.0  0.6993
  C  C48  1  0.600400  0.742000  0.467500  1.0  0.7077
  C  C49  1  0.159400  0.323200  0.330700  1.0  0.6913
  C  C50  1  0.858400  0.450300  0.179000  1.0  0.6891
  C  C51  1  0.971300  0.019300  0.205600  1.0  0.6894
  C  C52  1  0.284100  0.074800  0.055200  1.0  0.6942
  C  C53  1  0.770700  0.065900  0.437200  1.0  0.6986
  C  C54  1  0.899600  0.242000  0.967500  1.0  0.7084
  C  C55  1  0.659400  0.176800  0.169300  1.0  0.6913
  C  C56  1  0.358400  0.049700  0.321000  1.0  0.6897
  C  C57  1  0.471300  0.480700  0.294400  1.0  0.6904
  C  C58  1  0.784100  0.425200  0.444800  1.0  0.6932
  C  C59  1  0.270700  0.434100  0.062800  1.0  0.6979
  C  C60  1  0.399600  0.258000  0.532500  1.0  0.7095
  O  O61  1  0.810400  0.694600  0.752090  1.0  -0.6649
  O  O62  1  0.951900  0.692600  0.634300  1.0  -0.5796
  O  O63  1  0.089400  0.649300  0.807590  1.0  -0.6821
  O  O64  1  0.118100  0.484600  0.884200  1.0  -0.5813
  O  O65  1  0.017000  0.869700  0.786180  1.0  -0.666
  O  O66  1  0.007600  0.041400  0.862500  1.0  -0.5772
  O  O67  1  0.749400  0.844600  0.887940  1.0  -0.6737
  O  O68  1  0.793600  0.982900  0.994500  1.0  -0.5842
  O  O69  1  0.133400  0.893100  0.603470  1.0  -0.5838
  O  O70  1  0.351500  0.899800  0.565930  1.0  -0.6713
  O  O71  1  0.026700  0.814500  0.977050  1.0  -0.6653
  O  O72  1  0.105700  0.650900  0.039000  1.0  -0.5924
  O  O73  1  0.310400  0.805400  0.747910  1.0  -0.6651
  O  O74  1  0.451900  0.807400  0.865700  1.0  -0.5795
  O  O75  1  0.589400  0.850700  0.692410  1.0  -0.6822
  O  O76  1  0.618100  0.015400  0.615800  1.0  -0.5807
  O  O77  1  0.517000  0.630300  0.713820  1.0  -0.6653
  O  O78  1  0.507600  0.458600  0.637500  1.0  -0.5772
  O  O79  1  0.249400  0.655400  0.612060  1.0  -0.6739
  O  O80  1  0.293600  0.517100  0.505500  1.0  -0.5842
  O  O81  1  0.633400  0.606900  0.896530  1.0  -0.5835
  O  O82  1  0.851500  0.600200  0.934070  1.0  -0.6712
  O  O83  1  0.526700  0.685500  0.522950  1.0  -0.6663
  O  O84  1  0.605700  0.849100  0.461000  1.0  -0.5927
  O  O85  1  0.189600  0.305400  0.247910  1.0  -0.6653
  O  O86  1  0.048100  0.307400  0.365700  1.0  -0.5796
  O  O87  1  0.910600  0.350700  0.192410  1.0  -0.6819
  O  O88  1  0.881900  0.515400  0.115800  1.0  -0.5807
  O  O89  1  0.983000  0.130300  0.213820  1.0  -0.665
  O  O90  1  0.992400  0.958600  0.137500  1.0  -0.5774
  O  O91  1  0.250600  0.155400  0.112060  1.0  -0.6738
  O  O92  1  0.206400  0.017100  0.005500  1.0  -0.5845
  O  O93  1  0.866600  0.106900  0.396530  1.0  -0.5843
  O  O94  1  0.648500  0.100200  0.434070  1.0  -0.6721
  O  O95  1  0.973300  0.185500  0.022950  1.0  -0.6666
  O  O96  1  0.894300  0.349100  0.961000  1.0  -0.5918
  O  O97  1  0.689600  0.194600  0.252090  1.0  -0.665
  O  O98  1  0.548100  0.192600  0.134300  1.0  -0.5794
  O  O99  1  0.410600  0.149300  0.307590  1.0  -0.6818
  O  O100  1  0.381900  0.984600  0.384200  1.0  -0.5811
  O  O101  1  0.483000  0.369700  0.286180  1.0  -0.6658
  O  O102  1  0.492400  0.541400  0.362500  1.0  -0.5772
  O  O103  1  0.750600  0.344600  0.387940  1.0  -0.6726
  O  O104  1  0.706400  0.482900  0.494500  1.0  -0.5847
  O  O105  1  0.366600  0.393100  0.103470  1.0  -0.5843
  O  O106  1  0.148500  0.399800  0.065930  1.0  -0.6723
  O  O107  1  0.473300  0.314500  0.477050  1.0  -0.6657
  O  O108  1  0.394300  0.150900  0.539000  1.0  -0.592
