# generated using pymatgen
data_CoH2(CO2)2
_symmetry_space_group_name_H-M   'P 1'
_cell_length_a   9.82600000
_cell_length_b   11.25500000
_cell_length_c   14.54700000
_cell_angle_alpha   91.34600000
_cell_angle_beta   90.00000000
_cell_angle_gamma   90.00000000
_symmetry_Int_Tables_number   1
_chemical_formula_structural   CoH2(CO2)2
_chemical_formula_sum   'Co12 H24 C24 O48'
_cell_volume   1608.33253605
_cell_formula_units_Z   12
loop_
 _symmetry_equiv_pos_site_id
 _symmetry_equiv_pos_as_xyz
  1  'x, y, z'
loop_
 _atom_site_type_symbol
 _atom_site_label
 _atom_site_symmetry_multiplicity
 _atom_site_fract_x
 _atom_site_fract_y
 _atom_site_fract_z
 _atom_site_occupancy
 _atom_site_charge
  Co  Co1  1  0.919620  0.755990  0.132690  1.0  1.1211
  Co  Co2  1  0.108810  0.740230  0.310630  1.0  1.0927
  Co  Co3  1  0.419620  0.744010  0.367310  1.0  1.1213
  Co  Co4  1  0.608810  0.759770  0.189370  1.0  1.0939
  Co  Co5  1  0.080380  0.244010  0.867310  1.0  1.1212
  Co  Co6  1  0.891190  0.259770  0.689370  1.0  1.0925
  Co  Co7  1  0.580380  0.255990  0.632690  1.0  1.1212
  Co  Co8  1  0.391190  0.240230  0.810630  1.0  1.0935
  Co  Co9  1  0.000000  0.500000  0.000000  1.0  1.1291
  Co  Co10  1  0.500000  0.000000  0.500000  1.0  1.1291
  Co  Co11  1  0.000000  0.000000  0.000000  1.0  1.139
  Co  Co12  1  0.500000  0.500000  0.500000  1.0  1.139
  H  H13  1  0.756700  0.859900  0.365800  1.0  -0.0065
  H  H14  1  0.188400  0.981700  0.231300  1.0  -0.0038
  H  H15  1  0.202300  0.509200  0.488300  1.0  0.0036
  H  H16  1  0.618400  0.561600  0.037500  1.0  0.0053
  H  H17  1  0.172500  0.697300  0.938200  1.0  0.0029
  H  H18  1  0.973100  0.525500  0.735000  1.0  0.0078
  H  H19  1  0.256700  0.640100  0.134200  1.0  -0.0066
  H  H20  1  0.688400  0.518300  0.268700  1.0  -0.0027
  H  H21  1  0.702300  0.990800  0.011700  1.0  0.0038
  H  H22  1  0.118400  0.938400  0.462500  1.0  0.0051
  H  H23  1  0.672500  0.802700  0.561800  1.0  0.0034
  H  H24  1  0.473100  0.974500  0.765000  1.0  0.0085
  H  H25  1  0.243300  0.140100  0.634200  1.0  -0.0066
  H  H26  1  0.811600  0.018300  0.768700  1.0  -0.0035
  H  H27  1  0.797700  0.490800  0.511700  1.0  0.0044
  H  H28  1  0.381600  0.438400  0.962500  1.0  0.0052
  H  H29  1  0.827500  0.302700  0.061800  1.0  0.0034
  H  H30  1  0.026900  0.474500  0.265000  1.0  0.0084
  H  H31  1  0.743300  0.359900  0.865800  1.0  -0.0065
  H  H32  1  0.311600  0.481700  0.731300  1.0  -0.0037
  H  H33  1  0.297700  0.009200  0.988300  1.0  0.0039
  H  H34  1  0.881600  0.061600  0.537500  1.0  0.0051
  H  H35  1  0.327500  0.197300  0.438200  1.0  0.003
  H  H36  1  0.526900  0.025500  0.235000  1.0  0.0076
  C  C37  1  0.827100  0.831000  0.328900  1.0  0.6986
  C  C38  1  0.129900  0.954000  0.185300  1.0  0.7036
  C  C39  1  0.219700  0.570100  0.447800  1.0  0.6958
  C  C40  1  0.710500  0.577200  0.046200  1.0  0.6993
  C  C41  1  0.110700  0.741800  0.973000  1.0  0.713
  C  C42  1  0.991500  0.484200  0.788200  1.0  0.6939
  C  C43  1  0.327100  0.669000  0.171100  1.0  0.6979
  C  C44  1  0.629900  0.546000  0.314700  1.0  0.7037
  C  C45  1  0.719700  0.929900  0.052200  1.0  0.6953
  C  C46  1  0.210500  0.922800  0.453800  1.0  0.6996
  C  C47  1  0.610700  0.758200  0.527000  1.0  0.7133
  C  C48  1  0.491500  0.015800  0.711800  1.0  0.6939
  C  C49  1  0.172900  0.169000  0.671100  1.0  0.6975
  C  C50  1  0.870100  0.046000  0.814700  1.0  0.7038
  C  C51  1  0.780300  0.429900  0.552200  1.0  0.6957
  C  C52  1  0.289500  0.422800  0.953800  1.0  0.6993
  C  C53  1  0.889300  0.258200  0.027000  1.0  0.7122
  C  C54  1  0.008500  0.515800  0.211800  1.0  0.6945
  C  C55  1  0.672900  0.331000  0.828900  1.0  0.6986
  C  C56  1  0.370100  0.454000  0.685300  1.0  0.7031
  C  C57  1  0.280300  0.070100  0.947800  1.0  0.6963
  C  C58  1  0.789500  0.077200  0.546200  1.0  0.6993
  C  C59  1  0.389300  0.241800  0.473000  1.0  0.7127
  C  C60  1  0.508500  0.984200  0.288200  1.0  0.6945
  O  O61  1  0.799100  0.810900  0.245100  1.0  -0.659
  O  O62  1  0.938500  0.816300  0.367000  1.0  -0.588
  O  O63  1  0.082700  0.850300  0.194980  1.0  -0.684
  O  O64  1  0.107600  0.021900  0.122800  1.0  -0.5757
  O  O65  1  0.120400  0.611600  0.407500  1.0  -0.59
  O  O66  1  0.344200  0.602300  0.439650  1.0  -0.6646
  O  O67  1  0.741700  0.653100  0.108620  1.0  -0.6719
  O  O68  1  0.791600  0.521900  0.995700  1.0  -0.5789
  O  O69  1  0.029800  0.684800  0.024150  1.0  -0.684
  O  O70  1  0.114600  0.850700  0.965500  1.0  -0.6021
  O  O71  1  0.997400  0.371500  0.781040  1.0  -0.6759
  O  O72  1  0.008100  0.543600  0.860000  1.0  -0.589
  O  O73  1  0.299100  0.689100  0.254900  1.0  -0.6587
  O  O74  1  0.438500  0.683700  0.133000  1.0  -0.5881
  O  O75  1  0.582700  0.649700  0.305020  1.0  -0.6833
  O  O76  1  0.607600  0.478100  0.377200  1.0  -0.5764
  O  O77  1  0.620400  0.888400  0.092500  1.0  -0.5898
  O  O78  1  0.844200  0.897700  0.060350  1.0  -0.6644
  O  O79  1  0.241700  0.846900  0.391380  1.0  -0.6723
  O  O80  1  0.291600  0.978100  0.504300  1.0  -0.5787
  O  O81  1  0.529800  0.815200  0.475850  1.0  -0.6835
  O  O82  1  0.614600  0.649300  0.534500  1.0  -0.6016
  O  O83  1  0.497400  0.128500  0.718960  1.0  -0.6757
  O  O84  1  0.508100  0.956400  0.640000  1.0  -0.5888
  O  O85  1  0.200900  0.189100  0.754900  1.0  -0.6586
  O  O86  1  0.061500  0.183700  0.633000  1.0  -0.5884
  O  O87  1  0.917300  0.149700  0.805020  1.0  -0.6828
  O  O88  1  0.892400  0.978100  0.877200  1.0  -0.5764
  O  O89  1  0.879600  0.388400  0.592500  1.0  -0.5897
  O  O90  1  0.655800  0.397700  0.560350  1.0  -0.6642
  O  O91  1  0.258300  0.346900  0.891380  1.0  -0.6727
  O  O92  1  0.208400  0.478100  0.004300  1.0  -0.5795
  O  O93  1  0.970200  0.315200  0.975850  1.0  -0.6835
  O  O94  1  0.885400  0.149300  0.034500  1.0  -0.6014
  O  O95  1  0.002600  0.628500  0.218960  1.0  -0.6761
  O  O96  1  0.991900  0.456400  0.140000  1.0  -0.5885
  O  O97  1  0.700900  0.310900  0.745100  1.0  -0.6591
  O  O98  1  0.561500  0.316300  0.867000  1.0  -0.5885
  O  O99  1  0.417300  0.350300  0.694980  1.0  -0.6838
  O  O100  1  0.392400  0.521900  0.622800  1.0  -0.576
  O  O101  1  0.379600  0.111600  0.907500  1.0  -0.5899
  O  O102  1  0.155800  0.102300  0.939650  1.0  -0.6645
  O  O103  1  0.758300  0.153100  0.608620  1.0  -0.6731
  O  O104  1  0.708400  0.021900  0.495700  1.0  -0.5795
  O  O105  1  0.470200  0.184800  0.524150  1.0  -0.6838
  O  O106  1  0.385400  0.350700  0.465500  1.0  -0.6012
  O  O107  1  0.502600  0.871500  0.281040  1.0  -0.6761
  O  O108  1  0.491900  0.043600  0.360000  1.0  -0.5888
