# generated using pymatgen
data_CoH2(CO2)2
_symmetry_space_group_name_H-M   'P 1'
_cell_length_a   9.93500000
_cell_length_b   11.32300000
_cell_length_c   14.70800000
_cell_angle_alpha   91.17100000
_cell_angle_beta   90.00000000
_cell_angle_gamma   90.00000000
_symmetry_Int_Tables_number   1
_chemical_formula_structural   CoH2(CO2)2
_chemical_formula_sum   'Co12 H24 C24 O48'
_cell_volume   1654.21627911
_cell_formula_units_Z   12
loop_
 _symmetry_equiv_pos_site_id
 _symmetry_equiv_pos_as_xyz
  1  'x, y, z'
loop_
 _atom_site_type_symbol
 _atom_site_label
 _atom_site_symmetry_multiplicity
 _atom_site_fract_x
 _atom_site_fract_y
 _atom_site_fract_z
 _atom_site_occupancy
 _atom_site_charge
  Co  Co1  1  0.926040  0.255650  0.633630  1.0  1.1114
  Co  Co2  1  0.120250  0.240170  0.805860  1.0  1.0959
  Co  Co3  1  0.426040  0.244350  0.866370  1.0  1.1113
  Co  Co4  1  0.620250  0.259830  0.694140  1.0  1.0955
  Co  Co5  1  0.073960  0.744350  0.366370  1.0  1.1113
  Co  Co6  1  0.879750  0.759830  0.194140  1.0  1.0955
  Co  Co7  1  0.573960  0.755650  0.133630  1.0  1.1112
  Co  Co8  1  0.379750  0.740170  0.305860  1.0  1.0959
  Co  Co9  1  0.000000  0.000000  0.500000  1.0  1.1366
  Co  Co10  1  0.500000  0.500000  0.000000  1.0  1.1366
  Co  Co11  1  0.000000  0.500000  0.500000  1.0  1.1418
  Co  Co12  1  0.500000  0.000000  0.000000  1.0  1.1418
  H  H13  1  0.772300  0.351300  0.869300  1.0  -0.0059
  H  H14  1  0.626400  0.055800  0.552600  1.0  0.0031
  H  H15  1  0.057000  0.978200  0.757200  1.0  0.0065
  H  H16  1  0.204600  0.475200  0.721200  1.0  -0.0056
  H  H17  1  0.212300  0.004200  0.977300  1.0  0.0034
  H  H18  1  0.150500  0.197700  0.426900  1.0  -0.0028
  H  H19  1  0.272300  0.148700  0.630700  1.0  -0.0057
  H  H20  1  0.126400  0.444200  0.947400  1.0  0.0033
  H  H21  1  0.557000  0.521800  0.742800  1.0  0.0055
  H  H22  1  0.704600  0.024800  0.778800  1.0  -0.0055
  H  H23  1  0.712300  0.495800  0.522700  1.0  0.0037
  H  H24  1  0.650500  0.302300  0.073100  1.0  -0.0025
  H  H25  1  0.227700  0.648700  0.130700  1.0  -0.0057
  H  H26  1  0.373600  0.944200  0.447400  1.0  0.0036
  H  H27  1  0.943000  0.021800  0.242800  1.0  0.0055
  H  H28  1  0.795400  0.524800  0.278800  1.0  -0.0056
  H  H29  1  0.787700  0.995800  0.022700  1.0  0.004
  H  H30  1  0.849500  0.802300  0.573100  1.0  -0.0029
  H  H31  1  0.727700  0.851300  0.369300  1.0  -0.006
  H  H32  1  0.873600  0.555800  0.052600  1.0  0.0035
  H  H33  1  0.443000  0.478200  0.257200  1.0  0.0062
  H  H34  1  0.295400  0.975200  0.221200  1.0  -0.0056
  H  H35  1  0.287700  0.504200  0.477300  1.0  0.0036
  H  H36  1  0.349500  0.697700  0.926900  1.0  -0.0029
  C  C37  1  0.840400  0.323800  0.831000  1.0  0.6976
  C  C38  1  0.717600  0.073500  0.557000  1.0  0.7006
  C  C39  1  0.029700  0.018700  0.706000  1.0  0.6952
  C  C40  1  0.140500  0.449400  0.679200  1.0  0.7051
  C  C41  1  0.230200  0.066800  0.939100  1.0  0.7098
  C  C42  1  0.097600  0.242300  0.467000  1.0  0.7177
  C  C43  1  0.340400  0.176200  0.669000  1.0  0.698
  C  C44  1  0.217600  0.426500  0.943000  1.0  0.7006
  C  C45  1  0.529700  0.481300  0.794000  1.0  0.6952
  C  C46  1  0.640500  0.050600  0.820800  1.0  0.7058
  C  C47  1  0.730200  0.433200  0.560900  1.0  0.7107
  C  C48  1  0.597600  0.257700  0.033000  1.0  0.718
  C  C49  1  0.159600  0.676200  0.169000  1.0  0.6981
  C  C50  1  0.282400  0.926500  0.443000  1.0  0.6996
  C  C51  1  0.970300  0.981300  0.294000  1.0  0.6953
  C  C52  1  0.859500  0.550600  0.320800  1.0  0.7055
  C  C53  1  0.769800  0.933200  0.060900  1.0  0.7094
  C  C54  1  0.902400  0.757700  0.533000  1.0  0.7178
  C  C55  1  0.659600  0.823800  0.331000  1.0  0.6979
  C  C56  1  0.782400  0.573500  0.057000  1.0  0.7001
  C  C57  1  0.470300  0.518700  0.206000  1.0  0.6953
  C  C58  1  0.359500  0.949400  0.179200  1.0  0.7041
  C  C59  1  0.269800  0.566800  0.439100  1.0  0.7088
  C  C60  1  0.402400  0.742300  0.967000  1.0  0.7179
  O  O61  1  0.951500  0.308600  0.865600  1.0  -0.5728
  O  O62  1  0.809400  0.305700  0.748100  1.0  -0.6696
  O  O63  1  0.749800  0.154300  0.612300  1.0  -0.6771
  O  O64  1  0.794600  0.014800  0.507600  1.0  -0.5947
  O  O65  1  0.016200  0.129400  0.715100  1.0  -0.6735
  O  O66  1  0.010600  0.959600  0.636700  1.0  -0.5888
  O  O67  1  0.088400  0.350000  0.693100  1.0  -0.6819
  O  O68  1  0.116100  0.515700  0.616800  1.0  -0.5827
  O  O69  1  0.133300  0.108200  0.897700  1.0  -0.594
  O  O70  1  0.350600  0.100800  0.934700  1.0  -0.6572
  O  O71  1  0.104500  0.349500  0.460500  1.0  -0.599
  O  O72  1  0.026200  0.185000  0.522300  1.0  -0.6794
  O  O73  1  0.451500  0.191400  0.634400  1.0  -0.5732
  O  O74  1  0.309400  0.194300  0.751900  1.0  -0.6697
  O  O75  1  0.249800  0.345700  0.887700  1.0  -0.6757
  O  O76  1  0.294600  0.485200  0.992400  1.0  -0.5944
  O  O77  1  0.516200  0.370600  0.784900  1.0  -0.6735
  O  O78  1  0.510600  0.540400  0.863300  1.0  -0.5892
  O  O79  1  0.588400  0.150000  0.806900  1.0  -0.6817
  O  O80  1  0.616100  0.984300  0.883200  1.0  -0.583
  O  O81  1  0.633300  0.391800  0.602300  1.0  -0.5944
  O  O82  1  0.850600  0.399200  0.565300  1.0  -0.657
  O  O83  1  0.604500  0.150500  0.039500  1.0  -0.5986
  O  O84  1  0.526200  0.315000  0.977700  1.0  -0.6791
  O  O85  1  0.048500  0.691400  0.134400  1.0  -0.5733
  O  O86  1  0.190600  0.694300  0.251900  1.0  -0.6701
  O  O87  1  0.250200  0.845700  0.387700  1.0  -0.6748
  O  O88  1  0.205400  0.985200  0.492400  1.0  -0.5955
  O  O89  1  0.983800  0.870600  0.284900  1.0  -0.6736
  O  O90  1  0.989400  0.040400  0.363300  1.0  -0.5889
  O  O91  1  0.911600  0.650000  0.306900  1.0  -0.6818
  O  O92  1  0.883900  0.484300  0.383200  1.0  -0.5826
  O  O93  1  0.866700  0.891800  0.102300  1.0  -0.5955
  O  O94  1  0.649400  0.899200  0.065300  1.0  -0.6577
  O  O95  1  0.895500  0.650500  0.539500  1.0  -0.5985
  O  O96  1  0.973800  0.815000  0.477700  1.0  -0.6794
  O  O97  1  0.548500  0.808600  0.365600  1.0  -0.5734
  O  O98  1  0.690600  0.805700  0.248100  1.0  -0.6701
  O  O99  1  0.750200  0.654300  0.112300  1.0  -0.6756
  O  O100  1  0.705400  0.514800  0.007600  1.0  -0.5955
  O  O101  1  0.483800  0.629400  0.215100  1.0  -0.6733
  O  O102  1  0.489400  0.459600  0.136700  1.0  -0.5886
  O  O103  1  0.411600  0.850000  0.193100  1.0  -0.682
  O  O104  1  0.383900  0.015700  0.116800  1.0  -0.5827
  O  O105  1  0.366700  0.608200  0.397700  1.0  -0.5951
  O  O106  1  0.149400  0.600800  0.434700  1.0  -0.6581
  O  O107  1  0.395500  0.849500  0.960500  1.0  -0.5982
  O  O108  1  0.473800  0.685000  0.022300  1.0  -0.6796
