# generated using pymatgen
data_Cu2H37C50(NO)8
_symmetry_space_group_name_H-M   'P 1'
_cell_length_a   8.99500000
_cell_length_b   23.48500000
_cell_length_c   23.48500000
_cell_angle_alpha   90.00000000
_cell_angle_beta   90.00000000
_cell_angle_gamma   90.00000000
_symmetry_Int_Tables_number   1
_chemical_formula_structural   Cu2H37C50(NO)8
_chemical_formula_sum   'Cu4 H74 C100 N16 O16'
_cell_volume   4961.14929887
_cell_formula_units_Z   2
loop_
 _symmetry_equiv_pos_site_id
 _symmetry_equiv_pos_as_xyz
  1  'x, y, z'
loop_
 _atom_site_type_symbol
 _atom_site_label
 _atom_site_symmetry_multiplicity
 _atom_site_fract_x
 _atom_site_fract_y
 _atom_site_fract_z
 _atom_site_occupancy
 _atom_site_charge
  Cu  Cu1  1  0.500000  0.176640  0.176640  1.0  0.4071
  Cu  Cu2  1  0.500000  0.823360  0.823360  1.0  0.4072
  Cu  Cu3  1  0.000000  0.323360  0.676640  1.0  0.3984
  Cu  Cu4  1  0.000000  0.676640  0.323360  1.0  0.3983
  H  H5  1  0.180920  0.175460  0.149400  1.0  0.0358
  H  H6  1  0.017550  0.152190  0.065460  1.0  0.0492
  H  H7  1  0.144290  0.140750  0.966960  1.0  0.0525
  H  H8  1  0.573420  0.151830  0.057190  1.0  0.0307
  H  H9  1  0.261680  0.129230  0.897250  1.0  0.1102
  H  H10  1  0.037950  0.216740  0.603680  1.0  0.0515
  H  H11  1  0.196360  0.129070  0.612460  1.0  0.0556
  H  H12  1  0.338520  0.109070  0.703720  1.0  0.0853
  H  H13  1  0.172640  0.270690  0.769540  1.0  0.0386
  H  H14  1  0.453430  0.093650  0.775510  1.0  0.0967
  H  H15  1  0.180920  0.824540  0.850600  1.0  0.0356
  H  H16  1  0.017550  0.847810  0.934540  1.0  0.0493
  H  H17  1  0.144290  0.859250  0.033040  1.0  0.0525
  H  H18  1  0.573420  0.848170  0.942810  1.0  0.031
  H  H19  1  0.261680  0.870770  0.102750  1.0  0.1118
  H  H20  1  0.037950  0.783260  0.396320  1.0  0.0518
  H  H21  1  0.196360  0.870930  0.387540  1.0  0.0558
  H  H22  1  0.338520  0.890930  0.296280  1.0  0.0857
  H  H23  1  0.172640  0.729310  0.230460  1.0  0.0383
  H  H24  1  0.453430  0.906350  0.224490  1.0  0.0977
  H  H25  1  0.680920  0.350600  0.675460  1.0  0.0442
  H  H26  1  0.517550  0.434540  0.652190  1.0  0.0641
  H  H27  1  0.644290  0.533040  0.640750  1.0  0.0549
  H  H28  1  0.073420  0.442810  0.651830  1.0  0.0336
  H  H29  1  0.761680  0.602750  0.629230  1.0  0.1154
  H  H30  1  0.537950  0.896320  0.716740  1.0  0.0524
  H  H31  1  0.696360  0.887540  0.629070  1.0  0.0533
  H  H32  1  0.838520  0.796280  0.609070  1.0  0.0786
  H  H33  1  0.672640  0.730460  0.770690  1.0  0.0358
  H  H34  1  0.953430  0.724490  0.593650  1.0  0.0973
  H  H35  1  0.680920  0.649400  0.324540  1.0  0.0433
  H  H36  1  0.517550  0.565460  0.347810  1.0  0.0643
  H  H37  1  0.644290  0.466960  0.359250  1.0  0.0551
  H  H38  1  0.073420  0.557190  0.348170  1.0  0.0334
  H  H39  1  0.761680  0.397250  0.370770  1.0  0.115
  H  H40  1  0.537950  0.103680  0.283260  1.0  0.0509
  H  H41  1  0.696360  0.112460  0.370930  1.0  0.0538
  H  H42  1  0.838520  0.203720  0.390930  1.0  0.0818
  H  H43  1  0.672640  0.269540  0.229310  1.0  0.0363
  H  H44  1  0.953430  0.275510  0.406350  1.0  0.0974
  H  H45  1  0.926580  0.348170  0.557190  1.0  0.0312
  H  H46  1  0.238320  0.370770  0.397250  1.0  0.0411
  H  H47  1  0.462050  0.283260  0.103680  1.0  0.0511
  H  H48  1  0.303640  0.370930  0.112460  1.0  0.053
  H  H49  1  0.161480  0.390930  0.203720  1.0  0.087
  H  H50  1  0.327360  0.229310  0.269540  1.0  0.0344
  H  H51  1  0.046570  0.406350  0.275510  1.0  0.0955
  H  H52  1  0.926580  0.651830  0.442810  1.0  0.0312
  H  H53  1  0.238320  0.629230  0.602750  1.0  0.0403
  H  H54  1  0.462050  0.716740  0.896320  1.0  0.0506
  H  H55  1  0.303640  0.629070  0.887540  1.0  0.0514
  H  H56  1  0.161480  0.609070  0.796280  1.0  0.0842
  H  H57  1  0.327360  0.770690  0.730460  1.0  0.034
  H  H58  1  0.046570  0.593650  0.724490  1.0  0.0956
  H  H59  1  0.819080  0.149400  0.175460  1.0  0.0358
  H  H60  1  0.982450  0.065460  0.152190  1.0  0.0499
  H  H61  1  0.855710  0.966960  0.140750  1.0  0.0539
  H  H62  1  0.426580  0.057190  0.151830  1.0  0.0302
  H  H63  1  0.738320  0.897250  0.129230  1.0  0.111
  H  H64  1  0.962050  0.603680  0.216740  1.0  0.0534
  H  H65  1  0.803640  0.612460  0.129070  1.0  0.0527
  H  H66  1  0.661480  0.703720  0.109070  1.0  0.0835
  H  H67  1  0.827360  0.769540  0.270690  1.0  0.0365
  H  H68  1  0.546570  0.775510  0.093650  1.0  0.0963
  H  H69  1  0.819080  0.850600  0.824540  1.0  0.0358
  H  H70  1  0.982450  0.934540  0.847810  1.0  0.0498
  H  H71  1  0.855710  0.033040  0.859250  1.0  0.0539
  H  H72  1  0.426580  0.942810  0.848170  1.0  0.0305
  H  H73  1  0.738320  0.102750  0.870770  1.0  0.1111
  H  H74  1  0.962050  0.396320  0.783260  1.0  0.053
  H  H75  1  0.803640  0.387540  0.870930  1.0  0.0537
  H  H76  1  0.661480  0.296280  0.890930  1.0  0.0837
  H  H77  1  0.827360  0.230460  0.729310  1.0  0.036
  H  H78  1  0.546570  0.224490  0.906350  1.0  0.0974
  C  C79  1  0.232800  0.164100  0.106590  1.0  0.1004
  C  C80  1  0.143400  0.154200  0.060110  1.0  -0.1726
  C  C81  1  0.213800  0.146900  0.007080  1.0  -0.113
  C  C82  1  0.373300  0.147450  0.005260  1.0  0.1416
  C  C83  1  0.446800  0.153510  0.055990  1.0  0.1197
  C  C84  1  0.384200  0.135980  0.907680  1.0  0.2429
  C  C85  1  0.106100  0.209200  0.643900  1.0  0.1055
  C  C86  1  0.190000  0.160700  0.649200  1.0  -0.1623
  C  C87  1  0.268900  0.149450  0.699830  1.0  -0.1176
  C  C88  1  0.260100  0.186090  0.741580  1.0  0.1308
  C  C89  1  0.176900  0.237700  0.733970  1.0  0.2958
  C  C90  1  0.427000  0.132980  0.802090  1.0  0.1456
  C  C91  1  0.232800  0.835900  0.893410  1.0  0.0989
  C  C92  1  0.143400  0.845800  0.939890  1.0  -0.1738
  C  C93  1  0.213800  0.853100  0.992920  1.0  -0.1128
  C  C94  1  0.373300  0.852550  0.994740  1.0  0.1422
  C  C95  1  0.446800  0.846490  0.944010  1.0  0.1192
  C  C96  1  0.384200  0.864020  0.092320  1.0  0.2442
  C  C97  1  0.106100  0.790800  0.356100  1.0  0.1053
  C  C98  1  0.190000  0.839300  0.350800  1.0  -0.1614
  C  C99  1  0.268900  0.850550  0.300170  1.0  -0.1159
  C  C100  1  0.260100  0.813910  0.258420  1.0  0.1324
  C  C101  1  0.176900  0.762300  0.266030  1.0  0.2962
  C  C102  1  0.427000  0.867020  0.197910  1.0  0.1447
  C  C103  1  0.732800  0.393410  0.664100  1.0  0.0759
  C  C104  1  0.643400  0.439890  0.654200  1.0  -0.1742
  C  C105  1  0.713800  0.492920  0.646900  1.0  -0.1233
  C  C106  1  0.873300  0.494740  0.647450  1.0  0.142
  C  C107  1  0.946800  0.444010  0.653510  1.0  0.1192
  C  C108  1  0.884200  0.592320  0.635980  1.0  0.2444
  C  C109  1  0.606100  0.856100  0.709200  1.0  0.0963
  C  C110  1  0.690000  0.850800  0.660700  1.0  -0.1363
  C  C111  1  0.768900  0.800170  0.649450  1.0  -0.1156
  C  C112  1  0.760100  0.758420  0.686090  1.0  0.1275
  C  C113  1  0.676900  0.766030  0.737700  1.0  0.3263
  C  C114  1  0.927000  0.697910  0.632980  1.0  0.1423
  C  C115  1  0.732800  0.606590  0.335900  1.0  0.0756
  C  C116  1  0.643400  0.560110  0.345800  1.0  -0.175
  C  C117  1  0.713800  0.507080  0.353100  1.0  -0.1239
  C  C118  1  0.873300  0.505260  0.352550  1.0  0.1418
  C  C119  1  0.946800  0.555990  0.346490  1.0  0.1196
  C  C120  1  0.884200  0.407680  0.364020  1.0  0.2445
  C  C121  1  0.606100  0.143900  0.290800  1.0  0.0953
  C  C122  1  0.690000  0.149200  0.339300  1.0  -0.1357
  C  C123  1  0.768900  0.199830  0.350550  1.0  -0.1125
  C  C124  1  0.760100  0.241580  0.313910  1.0  0.1283
  C  C125  1  0.676900  0.233970  0.262300  1.0  0.3247
  C  C126  1  0.927000  0.302090  0.367020  1.0  0.142
  C  C127  1  0.267200  0.335900  0.606590  1.0  0.1029
  C  C128  1  0.356600  0.345800  0.560110  1.0  -0.0855
  C  C129  1  0.286200  0.353100  0.507080  1.0  -0.1024
  C  C130  1  0.126700  0.352550  0.505260  1.0  0.1336
  C  C131  1  0.053200  0.346490  0.555990  1.0  0.1063
  C  C132  1  0.115800  0.364020  0.407680  1.0  0.2379
  C  C133  1  0.393900  0.290800  0.143900  1.0  0.1029
  C  C134  1  0.310000  0.339300  0.149200  1.0  -0.1494
  C  C135  1  0.231100  0.350550  0.199830  1.0  -0.1173
  C  C136  1  0.239900  0.313910  0.241580  1.0  0.1249
  C  C137  1  0.323100  0.262300  0.233970  1.0  0.3276
  C  C138  1  0.073000  0.367020  0.302090  1.0  0.1432
  C  C139  1  0.267200  0.664100  0.393410  1.0  0.105
  C  C140  1  0.356600  0.654200  0.439890  1.0  -0.0847
  C  C141  1  0.286200  0.646900  0.492920  1.0  -0.0996
  C  C142  1  0.126700  0.647450  0.494740  1.0  0.1334
  C  C143  1  0.053200  0.653510  0.444010  1.0  0.1059
  C  C144  1  0.115800  0.635980  0.592320  1.0  0.2374
  C  C145  1  0.393900  0.709200  0.856100  1.0  0.1024
  C  C146  1  0.310000  0.660700  0.850800  1.0  -0.1486
  C  C147  1  0.231100  0.649450  0.800170  1.0  -0.1158
  C  C148  1  0.239900  0.686090  0.758420  1.0  0.1257
  C  C149  1  0.323100  0.737700  0.766030  1.0  0.3264
  C  C150  1  0.073000  0.632980  0.697910  1.0  0.1426
  C  C151  1  0.767200  0.106590  0.164100  1.0  0.0938
  C  C152  1  0.856600  0.060110  0.154200  1.0  -0.1731
  C  C153  1  0.786200  0.007080  0.146900  1.0  -0.1131
  C  C154  1  0.626700  0.005260  0.147450  1.0  0.1419
  C  C155  1  0.553200  0.055990  0.153510  1.0  0.12
  C  C156  1  0.615800  0.907680  0.135980  1.0  0.2464
  C  C157  1  0.893900  0.643900  0.209200  1.0  0.0949
  C  C158  1  0.810000  0.649200  0.160700  1.0  -0.1484
  C  C159  1  0.731100  0.699830  0.149450  1.0  -0.1113
  C  C160  1  0.739900  0.741580  0.186090  1.0  0.1231
  C  C161  1  0.823100  0.733970  0.237700  1.0  0.3238
  C  C162  1  0.573000  0.802090  0.132980  1.0  0.1452
  C  C163  1  0.767200  0.893410  0.835900  1.0  0.0948
  C  C164  1  0.856600  0.939890  0.845800  1.0  -0.1728
  C  C165  1  0.786200  0.992920  0.853100  1.0  -0.1135
  C  C166  1  0.626700  0.994740  0.852550  1.0  0.142
  C  C167  1  0.553200  0.944010  0.846490  1.0  0.1201
  C  C168  1  0.615800  0.092320  0.864020  1.0  0.2468
  C  C169  1  0.893900  0.356100  0.790800  1.0  0.0956
  C  C170  1  0.810000  0.350800  0.839300  1.0  -0.1462
  C  C171  1  0.731100  0.300170  0.850550  1.0  -0.111
  C  C172  1  0.739900  0.258420  0.813910  1.0  0.1227
  C  C173  1  0.823100  0.266030  0.762300  1.0  0.3241
  C  C174  1  0.573000  0.197910  0.867020  1.0  0.1439
  C  C175  1  0.500000  0.141190  0.858810  1.0  -0.1519
  C  C176  1  0.500000  0.858810  0.141190  1.0  -0.1519
  C  C177  1  0.000000  0.641190  0.641190  1.0  -0.1544
  C  C178  1  0.000000  0.358810  0.358810  1.0  -0.1543
  N  N179  1  0.378900  0.161570  0.106240  1.0  -0.3284
  N  N180  1  0.106100  0.248040  0.687700  1.0  -0.3753
  N  N181  1  0.378900  0.838430  0.893760  1.0  -0.3282
  N  N182  1  0.106100  0.751960  0.312300  1.0  -0.3754
  N  N183  1  0.878900  0.393760  0.661570  1.0  -0.3226
  N  N184  1  0.606100  0.812300  0.748040  1.0  -0.3871
  N  N185  1  0.878900  0.606240  0.338430  1.0  -0.3226
  N  N186  1  0.606100  0.187700  0.251960  1.0  -0.3863
  N  N187  1  0.121100  0.338430  0.606240  1.0  -0.2878
  N  N188  1  0.393900  0.251960  0.187700  1.0  -0.3866
  N  N189  1  0.121100  0.661570  0.393760  1.0  -0.2886
  N  N190  1  0.393900  0.748040  0.812300  1.0  -0.3869
  N  N191  1  0.621100  0.106240  0.161570  1.0  -0.3268
  N  N192  1  0.893900  0.687700  0.248040  1.0  -0.3825
  N  N193  1  0.621100  0.893760  0.838430  1.0  -0.3277
  N  N194  1  0.893900  0.312300  0.751960  1.0  -0.3819
  O  O195  1  0.456000  0.140830  0.958700  1.0  -0.3548
  O  O196  1  0.328900  0.182730  0.793560  1.0  -0.3829
  O  O197  1  0.456000  0.859170  0.041300  1.0  -0.3554
  O  O198  1  0.328900  0.817270  0.206440  1.0  -0.3814
  O  O199  1  0.956000  0.541300  0.640830  1.0  -0.3529
  O  O200  1  0.828900  0.706440  0.682730  1.0  -0.3825
  O  O201  1  0.956000  0.458700  0.359170  1.0  -0.3524
  O  O202  1  0.828900  0.293560  0.317270  1.0  -0.3827
  O  O203  1  0.044000  0.359170  0.458700  1.0  -0.3547
  O  O204  1  0.171100  0.317270  0.293560  1.0  -0.383
  O  O205  1  0.044000  0.640830  0.541300  1.0  -0.3561
  O  O206  1  0.171100  0.682730  0.706440  1.0  -0.3842
  O  O207  1  0.544000  0.958700  0.140830  1.0  -0.3539
  O  O208  1  0.671100  0.793560  0.182730  1.0  -0.3845
  O  O209  1  0.544000  0.041300  0.859170  1.0  -0.3539
  O  O210  1  0.671100  0.206440  0.817270  1.0  -0.3841
