# generated using pymatgen
data_MnCr(CO2)6
_symmetry_space_group_name_H-M   'P 1'
_cell_length_a   21.01000000
_cell_length_b   15.98800000
_cell_length_c   21.96300000
_cell_angle_alpha   90.00000000
_cell_angle_beta   90.33900000
_cell_angle_gamma   90.00000000
_symmetry_Int_Tables_number   1
_chemical_formula_structural   MnCr(CO2)6
_chemical_formula_sum   'Mn8 Cr8 C48 O96'
_cell_volume   7377.41563619
_cell_formula_units_Z   8
loop_
 _symmetry_equiv_pos_site_id
 _symmetry_equiv_pos_as_xyz
  1  'x, y, z'
loop_
 _atom_site_type_symbol
 _atom_site_label
 _atom_site_symmetry_multiplicity
 _atom_site_fract_x
 _atom_site_fract_y
 _atom_site_fract_z
 _atom_site_occupancy
 _atom_site_charge
  Mn  Mn1  1  0.868830  0.515400  0.244680  1.0  1.0204
  Mn  Mn2  1  0.258690  0.751200  0.126130  1.0  1.118
  Mn  Mn3  1  0.631170  0.015400  0.255320  1.0  1.0204
  Mn  Mn4  1  0.241310  0.251200  0.373870  1.0  1.1187
  Mn  Mn5  1  0.131170  0.484600  0.755320  1.0  1.0207
  Mn  Mn6  1  0.741310  0.248800  0.873870  1.0  1.1193
  Mn  Mn7  1  0.368830  0.984600  0.744680  1.0  1.0207
  Mn  Mn8  1  0.758690  0.748800  0.626130  1.0  1.1185
  Cr  Cr9  1  0.126660  0.506700  0.247890  1.0  1.6232
  Cr  Cr10  1  0.752730  0.761920  0.377220  1.0  1.5138
  Cr  Cr11  1  0.373340  0.006700  0.252110  1.0  1.6171
  Cr  Cr12  1  0.747270  0.261920  0.122780  1.0  1.5129
  Cr  Cr13  1  0.873340  0.493300  0.752110  1.0  1.6171
  Cr  Cr14  1  0.247270  0.238080  0.622780  1.0  1.5127
  Cr  Cr15  1  0.626660  0.993300  0.747890  1.0  1.6232
  Cr  Cr16  1  0.252730  0.738080  0.877220  1.0  1.514
  C  C17  1  0.173500  0.654900  0.211600  1.0  0.5632
  C  C18  1  0.212600  0.592700  0.175900  1.0  0.5592
  C  C19  1  0.160200  0.352000  0.286000  1.0  0.5318
  C  C20  1  0.198400  0.413800  0.326600  1.0  0.5999
  C  C21  1  0.001000  0.514000  0.279100  1.0  0.6096
  C  C22  1  0.997200  0.520300  0.212500  1.0  0.5079
  C  C23  1  0.786400  0.601100  0.332000  1.0  0.5359
  C  C24  1  0.826500  0.680000  0.291500  1.0  0.5548
  C  C25  1  0.790300  0.417300  0.162300  1.0  0.5679
  C  C26  1  0.825000  0.355800  0.199000  1.0  0.6419
  C  C27  1  0.287700  0.742100  0.995100  1.0  0.6293
  C  C28  1  0.220100  0.741300  0.997900  1.0  0.5881
  C  C29  1  0.326500  0.154900  0.288400  1.0  0.565
  C  C30  1  0.287400  0.092700  0.324100  1.0  0.5596
  C  C31  1  0.339800  0.852000  0.214000  1.0  0.5325
  C  C32  1  0.301600  0.913800  0.173400  1.0  0.5987
  C  C33  1  0.499000  0.014000  0.220900  1.0  0.6088
  C  C34  1  0.502800  0.020300  0.287500  1.0  0.5075
  C  C35  1  0.713600  0.101100  0.168000  1.0  0.5353
  C  C36  1  0.673500  0.180000  0.208500  1.0  0.5545
  C  C37  1  0.709700  0.917300  0.337700  1.0  0.567
  C  C38  1  0.675000  0.855800  0.301000  1.0  0.6427
  C  C39  1  0.212300  0.242100  0.504900  1.0  0.6294
  C  C40  1  0.279900  0.241300  0.502100  1.0  0.5869
  C  C41  1  0.826500  0.345100  0.788400  1.0  0.5658
  C  C42  1  0.787400  0.407300  0.824100  1.0  0.5576
  C  C43  1  0.839800  0.648000  0.714000  1.0  0.5318
  C  C44  1  0.801600  0.586200  0.673400  1.0  0.5975
  C  C45  1  0.999000  0.486000  0.720900  1.0  0.6088
  C  C46  1  0.002800  0.479700  0.787500  1.0  0.5074
  C  C47  1  0.213600  0.398900  0.668000  1.0  0.5373
  C  C48  1  0.173500  0.320000  0.708500  1.0  0.5546
  C  C49  1  0.209700  0.582700  0.837700  1.0  0.5687
  C  C50  1  0.175000  0.644200  0.801000  1.0  0.6415
  C  C51  1  0.712300  0.257900  0.004900  1.0  0.6294
  C  C52  1  0.779900  0.258700  0.002100  1.0  0.5871
  C  C53  1  0.673500  0.845100  0.711600  1.0  0.5667
  C  C54  1  0.712600  0.907300  0.675900  1.0  0.559
  C  C55  1  0.660200  0.148000  0.786000  1.0  0.5317
  C  C56  1  0.698400  0.086200  0.826600  1.0  0.5992
  C  C57  1  0.501000  0.986000  0.779100  1.0  0.6095
  C  C58  1  0.497200  0.979700  0.712500  1.0  0.5077
  C  C59  1  0.286400  0.898900  0.832000  1.0  0.5378
  C  C60  1  0.326500  0.820000  0.791500  1.0  0.5543
  C  C61  1  0.290300  0.082700  0.662300  1.0  0.5684
  C  C62  1  0.325000  0.144200  0.699000  1.0  0.6427
  C  C63  1  0.787700  0.757900  0.495100  1.0  0.6292
  C  C64  1  0.720100  0.758700  0.497900  1.0  0.5881
  O  O65  1  0.193200  0.518100  0.187600  1.0  -0.5255
  O  O66  1  0.135100  0.632300  0.246200  1.0  -0.4502
  O  O67  1  0.185500  0.728300  0.192100  1.0  -0.5786
  O  O68  1  0.254900  0.614100  0.142100  1.0  -0.4617
  O  O69  1  0.130200  0.384300  0.249200  1.0  -0.4522
  O  O70  1  0.191300  0.483000  0.315600  1.0  -0.4746
  O  O71  1  0.167800  0.275500  0.303400  1.0  -0.5626
  O  O72  1  0.238000  0.387400  0.366400  1.0  -0.5443
  O  O73  1  0.055800  0.515300  0.304900  1.0  -0.5198
  O  O74  1  0.058200  0.514100  0.193700  1.0  -0.5379
  O  O75  1  0.947400  0.513300  0.308100  1.0  -0.47
  O  O76  1  0.949100  0.527000  0.181600  1.0  -0.481
  O  O77  1  0.751800  0.636500  0.370900  1.0  -0.5227
  O  O78  1  0.816100  0.752100  0.310800  1.0  -0.5085
  O  O79  1  0.799100  0.534500  0.317300  1.0  -0.4854
  O  O80  1  0.857400  0.655500  0.247200  1.0  -0.5646
  O  O81  1  0.746400  0.382600  0.126900  1.0  -0.4783
  O  O82  1  0.816300  0.279400  0.183800  1.0  -0.5094
  O  O83  1  0.797400  0.496400  0.169500  1.0  -0.4816
  O  O84  1  0.861700  0.376400  0.239300  1.0  -0.5129
  O  O85  1  0.314300  0.744700  0.943900  1.0  -0.4683
  O  O86  1  0.320900  0.740800  0.045600  1.0  -0.5312
  O  O87  1  0.195100  0.740500  0.944200  1.0  -0.5285
  O  O88  1  0.191900  0.746400  0.050000  1.0  -0.5152
  O  O89  1  0.306800  0.018100  0.312400  1.0  -0.5239
  O  O90  1  0.364900  0.132300  0.253800  1.0  -0.4497
  O  O91  1  0.314500  0.228300  0.307900  1.0  -0.5729
  O  O92  1  0.245100  0.114100  0.357900  1.0  -0.4606
  O  O93  1  0.369800  0.884300  0.250800  1.0  -0.4522
  O  O94  1  0.308700  0.983000  0.184400  1.0  -0.4704
  O  O95  1  0.332200  0.775500  0.196600  1.0  -0.5605
  O  O96  1  0.262000  0.887400  0.133600  1.0  -0.542
  O  O97  1  0.444200  0.015300  0.195100  1.0  -0.5208
  O  O98  1  0.441800  0.014100  0.306300  1.0  -0.5392
  O  O99  1  0.552600  0.013300  0.191900  1.0  -0.4703
  O  O100  1  0.550900  0.027000  0.318400  1.0  -0.4791
  O  O101  1  0.748200  0.136500  0.129100  1.0  -0.5276
  O  O102  1  0.683900  0.252100  0.189200  1.0  -0.5103
  O  O103  1  0.700900  0.034500  0.182700  1.0  -0.4861
  O  O104  1  0.642600  0.155500  0.252800  1.0  -0.5673
  O  O105  1  0.753600  0.882600  0.373100  1.0  -0.4822
  O  O106  1  0.683700  0.779400  0.316200  1.0  -0.508
  O  O107  1  0.702600  0.996400  0.330500  1.0  -0.4804
  O  O108  1  0.638300  0.876400  0.260700  1.0  -0.5105
  O  O109  1  0.185700  0.244700  0.556100  1.0  -0.4711
  O  O110  1  0.179100  0.240800  0.454400  1.0  -0.5322
  O  O111  1  0.304900  0.240500  0.555800  1.0  -0.5236
  O  O112  1  0.308100  0.246400  0.450000  1.0  -0.5175
  O  O113  1  0.806800  0.481900  0.812400  1.0  -0.5248
  O  O114  1  0.864900  0.367700  0.753800  1.0  -0.449
  O  O115  1  0.814500  0.271700  0.807900  1.0  -0.5774
  O  O116  1  0.745100  0.385900  0.857900  1.0  -0.4633
  O  O117  1  0.869800  0.615700  0.750800  1.0  -0.4525
  O  O118  1  0.808700  0.517000  0.684400  1.0  -0.4735
  O  O119  1  0.832200  0.724500  0.696600  1.0  -0.5626
  O  O120  1  0.762000  0.612600  0.633600  1.0  -0.5462
  O  O121  1  0.944200  0.484700  0.695100  1.0  -0.521
  O  O122  1  0.941800  0.485900  0.806300  1.0  -0.5393
  O  O123  1  0.052600  0.486700  0.691900  1.0  -0.4707
  O  O124  1  0.050900  0.473000  0.818400  1.0  -0.4791
  O  O125  1  0.248200  0.363500  0.629100  1.0  -0.5233
  O  O126  1  0.183900  0.247900  0.689200  1.0  -0.5086
  O  O127  1  0.200900  0.465500  0.682700  1.0  -0.4857
  O  O128  1  0.142600  0.344500  0.752800  1.0  -0.5646
  O  O129  1  0.253600  0.617400  0.873100  1.0  -0.478
  O  O130  1  0.183700  0.720600  0.816200  1.0  -0.5113
  O  O131  1  0.202600  0.503600  0.830500  1.0  -0.4815
  O  O132  1  0.138300  0.623600  0.760700  1.0  -0.5143
  O  O133  1  0.685700  0.255300  0.056100  1.0  -0.4706
  O  O134  1  0.679100  0.259200  0.954400  1.0  -0.5328
  O  O135  1  0.804900  0.259500  0.055800  1.0  -0.5287
  O  O136  1  0.808100  0.253600  0.950000  1.0  -0.5158
  O  O137  1  0.693200  0.981900  0.687600  1.0  -0.5254
  O  O138  1  0.635100  0.867700  0.746200  1.0  -0.4497
  O  O139  1  0.685500  0.771700  0.692100  1.0  -0.5734
  O  O140  1  0.754900  0.885900  0.642100  1.0  -0.4596
  O  O141  1  0.630200  0.115700  0.749200  1.0  -0.4534
  O  O142  1  0.691300  0.017000  0.815600  1.0  -0.4678
  O  O143  1  0.667800  0.224500  0.803400  1.0  -0.5651
  O  O144  1  0.738000  0.112600  0.866400  1.0  -0.5405
  O  O145  1  0.555800  0.984700  0.804900  1.0  -0.52
  O  O146  1  0.558200  0.985900  0.693700  1.0  -0.5378
  O  O147  1  0.447400  0.986700  0.808100  1.0  -0.47
  O  O148  1  0.449100  0.973000  0.681600  1.0  -0.4816
  O  O149  1  0.251800  0.863500  0.870900  1.0  -0.5292
  O  O150  1  0.316100  0.747900  0.810800  1.0  -0.5073
  O  O151  1  0.299100  0.965500  0.817300  1.0  -0.4854
  O  O152  1  0.357400  0.844500  0.747200  1.0  -0.5686
  O  O153  1  0.246400  0.117400  0.626900  1.0  -0.4818
  O  O154  1  0.316300  0.220600  0.683800  1.0  -0.5072
  O  O155  1  0.297400  0.003600  0.669500  1.0  -0.481
  O  O156  1  0.361700  0.123600  0.739300  1.0  -0.5087
  O  O157  1  0.814300  0.755300  0.443900  1.0  -0.4691
  O  O158  1  0.820900  0.759200  0.545600  1.0  -0.5293
  O  O159  1  0.695100  0.759500  0.444200  1.0  -0.5246
  O  O160  1  0.691900  0.753600  0.550000  1.0  -0.5155
