# generated using pymatgen
data_CuH7C9NO3
_symmetry_space_group_name_H-M   'P 1'
_cell_length_a   6.98750000
_cell_length_b   15.75630000
_cell_length_c   15.75630000
_cell_angle_alpha   62.14590000
_cell_angle_beta   81.49910000
_cell_angle_gamma   98.50090000
_symmetry_Int_Tables_number   1
_chemical_formula_structural   CuH7C9NO3
_chemical_formula_sum   'Cu6 H42 C54 N6 O18'
_cell_volume   1469.48586157
_cell_formula_units_Z   6
loop_
 _symmetry_equiv_pos_site_id
 _symmetry_equiv_pos_as_xyz
  1  'x, y, z'
loop_
 _atom_site_type_symbol
 _atom_site_label
 _atom_site_symmetry_multiplicity
 _atom_site_fract_x
 _atom_site_fract_y
 _atom_site_fract_z
 _atom_site_occupancy
 _atom_site_charge
  Cu  Cu1  1  0.539000  0.432200  0.098290  1.0  0.8643
  Cu  Cu2  1  0.637290  0.098290  0.469510  1.0  0.863
  Cu  Cu3  1  0.106800  0.469510  0.432200  1.0  0.8633
  Cu  Cu4  1  0.461000  0.567800  0.901710  1.0  0.8646
  Cu  Cu5  1  0.362710  0.901710  0.530490  1.0  0.8629
  Cu  Cu6  1  0.893200  0.530490  0.567800  1.0  0.8644
  H  H7  1  0.797600  0.341100  0.284300  1.0  0.1067
  H  H8  1  0.878900  0.307600  0.209400  1.0  0.0965
  H  H9  1  0.040900  0.488600  0.139000  1.0  0.1062
  H  H10  1  0.225400  0.650100  0.046700  1.0  0.1116
  H  H11  1  0.278500  0.813700  0.929200  1.0  0.1296
  H  H12  1  0.037900  0.864800  0.843200  1.0  0.0991
  H  H13  1  0.753300  0.754000  0.870100  1.0  0.1077
  H  H14  1  0.081900  0.284300  0.374600  1.0  0.1044
  H  H15  1  0.088300  0.209400  0.483000  1.0  0.0963
  H  H16  1  0.179900  0.139000  0.372400  1.0  0.1069
  H  H17  1  0.272100  0.046700  0.303200  1.0  0.1134
  H  H18  1  0.207700  0.929200  0.257100  1.0  0.1264
  H  H19  1  0.881100  0.843200  0.292000  1.0  0.0977
  H  H20  1  0.623400  0.870100  0.375900  1.0  0.1077
  H  H21  1  0.456500  0.374600  0.341100  1.0  0.1052
  H  H22  1  0.571300  0.483000  0.307600  1.0  0.097
  H  H23  1  0.552300  0.372400  0.488600  1.0  0.1079
  H  H24  1  0.575300  0.303200  0.650100  1.0  0.1147
  H  H25  1  0.464800  0.257100  0.813700  1.0  0.1275
  H  H26  1  0.173100  0.292000  0.864800  1.0  0.0952
  H  H27  1  0.999300  0.375900  0.754000  1.0  0.1082
  H  H28  1  0.202400  0.658900  0.715700  1.0  0.1069
  H  H29  1  0.121100  0.692400  0.790600  1.0  0.0962
  H  H30  1  0.959100  0.511400  0.861000  1.0  0.106
  H  H31  1  0.774600  0.349900  0.953300  1.0  0.1116
  H  H32  1  0.721500  0.186300  0.070800  1.0  0.129
  H  H33  1  0.962100  0.135200  0.156800  1.0  0.0996
  H  H34  1  0.246700  0.246000  0.129900  1.0  0.1082
  H  H35  1  0.918100  0.715700  0.625400  1.0  0.1047
  H  H36  1  0.911700  0.790600  0.517000  1.0  0.0971
  H  H37  1  0.820100  0.861000  0.627600  1.0  0.1059
  H  H38  1  0.727900  0.953300  0.696800  1.0  0.113
  H  H39  1  0.792300  0.070800  0.742900  1.0  0.1258
  H  H40  1  0.118900  0.156800  0.708000  1.0  0.0971
  H  H41  1  0.376600  0.129900  0.624100  1.0  0.1086
  H  H42  1  0.543500  0.625400  0.658900  1.0  0.1045
  H  H43  1  0.428700  0.517000  0.692400  1.0  0.0968
  H  H44  1  0.447700  0.627600  0.511400  1.0  0.1073
  H  H45  1  0.424700  0.696800  0.349900  1.0  0.1144
  H  H46  1  0.535200  0.742900  0.186300  1.0  0.1271
  H  H47  1  0.826900  0.708000  0.135200  1.0  0.0953
  H  H48  1  0.000700  0.624100  0.246000  1.0  0.1092
  C  C49  1  0.572420  0.263630  0.258070  1.0  0.7325
  C  C50  1  0.774280  0.333930  0.228590  1.0  -0.1375
  C  C51  1  0.933240  0.501580  0.110760  1.0  0.1021
  C  C52  1  0.954770  0.600670  0.030960  1.0  -0.0104
  C  C53  1  0.129860  0.670570  0.011490  1.0  -0.1212
  C  C54  1  0.162020  0.768250  0.941590  1.0  -0.1177
  C  C55  1  0.018190  0.798200  0.889730  1.0  -0.0514
  C  C56  1  0.847480  0.731610  0.905670  1.0  -0.1229
  C  C57  1  0.812140  0.630210  0.974790  1.0  0.2852
  C  C58  1  0.830490  0.258070  0.478300  1.0  0.7318
  C  C59  1  0.002870  0.228590  0.437480  1.0  -0.1399
  C  C60  1  0.044000  0.110760  0.387660  1.0  0.1016
  C  C61  1  0.985730  0.030960  0.368370  1.0  -0.0101
  C  C62  1  0.141350  0.011490  0.317940  1.0  -0.1248
  C  C63  1  0.103610  0.941590  0.290160  1.0  -0.1192
  C  C64  1  0.907920  0.889730  0.312070  1.0  -0.0563
  C  C65  1  0.753150  0.905670  0.362720  1.0  -0.1227
  C  C66  1  0.786930  0.974790  0.395000  1.0  0.2891
  C  C67  1  0.308790  0.478300  0.263630  1.0  0.7355
  C  C68  1  0.440350  0.437480  0.333930  1.0  -0.1397
  C  C69  1  0.431660  0.387660  0.501580  1.0  0.1012
  C  C70  1  0.354100  0.368370  0.600670  1.0  -0.0117
  C  C71  1  0.459290  0.317940  0.670570  1.0  -0.1253
  C  C72  1  0.393770  0.290160  0.768250  1.0  -0.1199
  C  C73  1  0.219990  0.312070  0.798200  1.0  -0.0539
  C  C74  1  0.115870  0.362720  0.731610  1.0  -0.1262
  C  C75  1  0.181930  0.395000  0.630210  1.0  0.2897
  C  C76  1  0.427580  0.736370  0.741930  1.0  0.7344
  C  C77  1  0.225720  0.666070  0.771410  1.0  -0.1363
  C  C78  1  0.066760  0.498420  0.889240  1.0  0.1015
  C  C79  1  0.045230  0.399330  0.969040  1.0  -0.0108
  C  C80  1  0.870140  0.329430  0.988510  1.0  -0.1232
  C  C81  1  0.837980  0.231750  0.058410  1.0  -0.1223
  C  C82  1  0.981810  0.201800  0.110270  1.0  -0.0591
  C  C83  1  0.152520  0.268390  0.094330  1.0  -0.1242
  C  C84  1  0.187860  0.369790  0.025210  1.0  0.2847
  C  C85  1  0.169510  0.741930  0.521700  1.0  0.7343
  C  C86  1  0.997130  0.771410  0.562520  1.0  -0.1386
  C  C87  1  0.956000  0.889240  0.612340  1.0  0.1018
  C  C88  1  0.014270  0.969040  0.631630  1.0  -0.0098
  C  C89  1  0.858650  0.988510  0.682060  1.0  -0.1244
  C  C90  1  0.896390  0.058410  0.709840  1.0  -0.1165
  C  C91  1  0.092080  0.110270  0.687930  1.0  -0.0522
  C  C92  1  0.246850  0.094330  0.637280  1.0  -0.1236
  C  C93  1  0.213070  0.025210  0.605000  1.0  0.2884
  C  C94  1  0.691210  0.521700  0.736370  1.0  0.7333
  C  C95  1  0.559650  0.562520  0.666070  1.0  -0.1385
  C  C96  1  0.568340  0.612340  0.498420  1.0  0.1017
  C  C97  1  0.645900  0.631630  0.399330  1.0  -0.0103
  C  C98  1  0.540710  0.682060  0.329430  1.0  -0.1247
  C  C99  1  0.606230  0.709840  0.231750  1.0  -0.1189
  C  C100  1  0.780010  0.687930  0.201800  1.0  -0.053
  C  C101  1  0.884130  0.637280  0.268390  1.0  -0.1286
  C  C102  1  0.818070  0.605000  0.369790  1.0  0.2891
  N  N103  1  0.778220  0.430440  0.145580  1.0  -0.3449
  N  N104  1  0.923800  0.145580  0.423980  1.0  -0.3451
  N  N105  1  0.347780  0.423980  0.430440  1.0  -0.3447
  N  N106  1  0.221780  0.569560  0.854420  1.0  -0.3451
  N  N107  1  0.076200  0.854420  0.576020  1.0  -0.3445
  N  N108  1  0.652220  0.576020  0.569560  1.0  -0.3442
  O  O109  1  0.449420  0.296690  0.206830  1.0  -0.5694
  O  O110  1  0.535310  0.179150  0.329620  1.0  -0.6187
  O  O111  1  0.650890  0.565110  0.985140  1.0  -0.6372
  O  O112  1  0.656250  0.206830  0.496480  1.0  -0.57
  O  O113  1  0.864930  0.329620  0.491230  1.0  -0.62
  O  O114  1  0.636030  0.985140  0.449750  1.0  -0.6371
  O  O115  1  0.152730  0.496480  0.296690  1.0  -0.5713
  O  O116  1  0.356160  0.491230  0.179150  1.0  -0.6208
  O  O117  1  0.085780  0.449750  0.565110  1.0  -0.6364
  O  O118  1  0.550580  0.703310  0.793170  1.0  -0.5687
  O  O119  1  0.464690  0.820850  0.670380  1.0  -0.618
  O  O120  1  0.349110  0.434890  0.014860  1.0  -0.6364
  O  O121  1  0.343750  0.793170  0.503520  1.0  -0.5699
  O  O122  1  0.135070  0.670380  0.508770  1.0  -0.6193
  O  O123  1  0.363970  0.014860  0.550250  1.0  -0.6369
  O  O124  1  0.847270  0.503520  0.703310  1.0  -0.5703
  O  O125  1  0.643840  0.508770  0.820850  1.0  -0.6198
  O  O126  1  0.914220  0.550250  0.434890  1.0  -0.6365
