# generated using pymatgen
data_NiAu3(CN)6
_symmetry_space_group_name_H-M   'P 1'
_cell_length_a   23.53200000
_cell_length_b   23.53200000
_cell_length_c   23.18100000
_cell_angle_alpha   90.00000000
_cell_angle_beta   90.00000000
_cell_angle_gamma   90.00000000
_symmetry_Int_Tables_number   1
_chemical_formula_structural   NiAu3(CN)6
_chemical_formula_sum   'Ni16 Au48 C96 N96'
_cell_volume   12836.59521134
_cell_formula_units_Z   16
loop_
 _symmetry_equiv_pos_site_id
 _symmetry_equiv_pos_as_xyz
  1  'x, y, z'
loop_
 _atom_site_type_symbol
 _atom_site_label
 _atom_site_symmetry_multiplicity
 _atom_site_fract_x
 _atom_site_fract_y
 _atom_site_fract_z
 _atom_site_occupancy
 _atom_site_charge
  Ni  Ni1  1  0.002000  0.740590  0.139100  1.0  0.6188
  Ni  Ni2  1  0.502000  0.240590  0.639100  1.0  0.6188
  Ni  Ni3  1  0.498000  0.759410  0.639100  1.0  0.6201
  Ni  Ni4  1  0.998000  0.259410  0.139100  1.0  0.6201
  Ni  Ni5  1  0.259410  0.502000  0.389100  1.0  0.6206
  Ni  Ni6  1  0.759410  0.002000  0.889100  1.0  0.6206
  Ni  Ni7  1  0.240590  0.998000  0.889100  1.0  0.6202
  Ni  Ni8  1  0.740590  0.498000  0.389100  1.0  0.6202
  Ni  Ni9  1  0.002000  0.259410  0.639100  1.0  0.6189
  Ni  Ni10  1  0.502000  0.759410  0.139100  1.0  0.6189
  Ni  Ni11  1  0.498000  0.240590  0.139100  1.0  0.6198
  Ni  Ni12  1  0.998000  0.740590  0.639100  1.0  0.6198
  Ni  Ni13  1  0.259410  0.498000  0.889100  1.0  0.6206
  Ni  Ni14  1  0.759410  0.998000  0.389100  1.0  0.6206
  Ni  Ni15  1  0.240590  0.002000  0.389100  1.0  0.6204
  Ni  Ni16  1  0.740590  0.502000  0.889100  1.0  0.6204
  Au  Au17  1  0.864840  0.639830  0.276700  1.0  0.2941
  Au  Au18  1  0.134460  0.839130  0.995400  1.0  0.2765
  Au  Au19  1  0.894890  0.594160  0.016800  1.0  0.2699
  Au  Au20  1  0.364840  0.139830  0.776700  1.0  0.2941
  Au  Au21  1  0.634460  0.339130  0.495400  1.0  0.2765
  Au  Au22  1  0.394890  0.094160  0.516800  1.0  0.2699
  Au  Au23  1  0.635160  0.860170  0.776700  1.0  0.294
  Au  Au24  1  0.365540  0.660870  0.495400  1.0  0.277
  Au  Au25  1  0.605110  0.905840  0.516800  1.0  0.2733
  Au  Au26  1  0.135160  0.360170  0.276700  1.0  0.294
  Au  Au27  1  0.865540  0.160870  0.995400  1.0  0.277
  Au  Au28  1  0.105110  0.405840  0.016800  1.0  0.2733
  Au  Au29  1  0.360170  0.364840  0.526700  1.0  0.2941
  Au  Au30  1  0.160870  0.634460  0.245400  1.0  0.2773
  Au  Au31  1  0.405840  0.394890  0.266800  1.0  0.2728
  Au  Au32  1  0.860170  0.864840  0.026700  1.0  0.2941
  Au  Au33  1  0.660870  0.134460  0.745400  1.0  0.2773
  Au  Au34  1  0.905840  0.894890  0.766800  1.0  0.2728
  Au  Au35  1  0.139830  0.135160  0.026700  1.0  0.2946
  Au  Au36  1  0.339130  0.865540  0.745400  1.0  0.2772
  Au  Au37  1  0.094160  0.105110  0.766800  1.0  0.2735
  Au  Au38  1  0.639830  0.635160  0.526700  1.0  0.2946
  Au  Au39  1  0.839130  0.365540  0.245400  1.0  0.2772
  Au  Au40  1  0.594160  0.605110  0.266800  1.0  0.2735
  Au  Au41  1  0.864840  0.360170  0.776700  1.0  0.2942
  Au  Au42  1  0.134460  0.160870  0.495400  1.0  0.2765
  Au  Au43  1  0.894890  0.405840  0.516800  1.0  0.2698
  Au  Au44  1  0.364840  0.860170  0.276700  1.0  0.2942
  Au  Au45  1  0.634460  0.660870  0.995400  1.0  0.2765
  Au  Au46  1  0.394890  0.905840  0.016800  1.0  0.2698
  Au  Au47  1  0.635160  0.139830  0.276700  1.0  0.2939
  Au  Au48  1  0.365540  0.339130  0.995400  1.0  0.2769
  Au  Au49  1  0.605110  0.094160  0.016800  1.0  0.2733
  Au  Au50  1  0.135160  0.639830  0.776700  1.0  0.2939
  Au  Au51  1  0.865540  0.839130  0.495400  1.0  0.2769
  Au  Au52  1  0.105110  0.594160  0.516800  1.0  0.2733
  Au  Au53  1  0.360170  0.635160  0.026700  1.0  0.2941
  Au  Au54  1  0.160870  0.365540  0.745400  1.0  0.2769
  Au  Au55  1  0.405840  0.605110  0.766800  1.0  0.2727
  Au  Au56  1  0.860170  0.135160  0.526700  1.0  0.2941
  Au  Au57  1  0.660870  0.865540  0.245400  1.0  0.2769
  Au  Au58  1  0.905840  0.105110  0.266800  1.0  0.2727
  Au  Au59  1  0.139830  0.864840  0.526700  1.0  0.2946
  Au  Au60  1  0.339130  0.134460  0.245400  1.0  0.2775
  Au  Au61  1  0.094160  0.894890  0.266800  1.0  0.2736
  Au  Au62  1  0.639830  0.364840  0.026700  1.0  0.2946
  Au  Au63  1  0.839130  0.634460  0.745400  1.0  0.2775
  Au  Au64  1  0.594160  0.394890  0.766800  1.0  0.2736
  C  C65  1  0.916100  0.683800  0.226400  1.0  0.1035
  C  C66  1  0.086600  0.790900  0.042700  1.0  0.0466
  C  C67  1  0.948400  0.641000  0.061900  1.0  0.0199
  C  C68  1  0.052500  0.840000  0.216500  1.0  0.0853
  C  C69  1  0.104600  0.676700  0.197000  1.0  0.053
  C  C70  1  0.910800  0.816100  0.069600  1.0  -0.0057
  C  C71  1  0.416100  0.183800  0.726400  1.0  0.1035
  C  C72  1  0.586600  0.290900  0.542700  1.0  0.0466
  C  C73  1  0.448400  0.141000  0.561900  1.0  0.0199
  C  C74  1  0.552500  0.340000  0.716500  1.0  0.0853
  C  C75  1  0.604600  0.176700  0.697000  1.0  0.053
  C  C76  1  0.410800  0.316100  0.569600  1.0  -0.0057
  C  C77  1  0.583900  0.816200  0.726400  1.0  0.1038
  C  C78  1  0.413400  0.709100  0.542700  1.0  0.0455
  C  C79  1  0.551600  0.859000  0.561900  1.0  0.019
  C  C80  1  0.447500  0.660000  0.716500  1.0  0.0866
  C  C81  1  0.395400  0.823300  0.697000  1.0  0.0527
  C  C82  1  0.589200  0.683900  0.569600  1.0  -0.0066
  C  C83  1  0.083900  0.316200  0.226400  1.0  0.1038
  C  C84  1  0.913400  0.209100  0.042700  1.0  0.0455
  C  C85  1  0.051600  0.359000  0.061900  1.0  0.019
  C  C86  1  0.947500  0.160000  0.216500  1.0  0.0866
  C  C87  1  0.895400  0.323300  0.197000  1.0  0.0527
  C  C88  1  0.089200  0.183900  0.069600  1.0  -0.0066
  C  C89  1  0.316200  0.416100  0.476400  1.0  0.1028
  C  C90  1  0.209100  0.586600  0.292700  1.0  0.0443
  C  C91  1  0.359000  0.448400  0.311900  1.0  0.0216
  C  C92  1  0.160000  0.552500  0.466500  1.0  0.0857
  C  C93  1  0.323300  0.604600  0.447000  1.0  0.0516
  C  C94  1  0.183900  0.410800  0.319600  1.0  -0.006
  C  C95  1  0.816200  0.916100  0.976400  1.0  0.1028
  C  C96  1  0.709100  0.086600  0.792700  1.0  0.0443
  C  C97  1  0.859000  0.948400  0.811900  1.0  0.0216
  C  C98  1  0.660000  0.052500  0.966500  1.0  0.0857
  C  C99  1  0.823300  0.104600  0.947000  1.0  0.0516
  C  C100  1  0.683900  0.910800  0.819600  1.0  -0.006
  C  C101  1  0.183800  0.083900  0.976400  1.0  0.103
  C  C102  1  0.290900  0.913400  0.792700  1.0  0.0444
  C  C103  1  0.141000  0.051600  0.811900  1.0  0.0217
  C  C104  1  0.340000  0.947500  0.966500  1.0  0.0859
  C  C105  1  0.176700  0.895400  0.947000  1.0  0.0515
  C  C106  1  0.316100  0.089200  0.819600  1.0  -0.0067
  C  C107  1  0.683800  0.583900  0.476400  1.0  0.103
  C  C108  1  0.790900  0.413400  0.292700  1.0  0.0444
  C  C109  1  0.641000  0.551600  0.311900  1.0  0.0217
  C  C110  1  0.840000  0.447500  0.466500  1.0  0.0859
  C  C111  1  0.676700  0.395400  0.447000  1.0  0.0515
  C  C112  1  0.816100  0.589200  0.319600  1.0  -0.0067
  C  C113  1  0.916100  0.316200  0.726400  1.0  0.1033
  C  C114  1  0.086600  0.209100  0.542700  1.0  0.0456
  C  C115  1  0.948400  0.359000  0.561900  1.0  0.0193
  C  C116  1  0.052500  0.160000  0.716500  1.0  0.0855
  C  C117  1  0.104600  0.323300  0.697000  1.0  0.0525
  C  C118  1  0.910800  0.183900  0.569600  1.0  -0.0057
  C  C119  1  0.416100  0.816200  0.226400  1.0  0.1033
  C  C120  1  0.586600  0.709100  0.042700  1.0  0.0456
  C  C121  1  0.448400  0.859000  0.061900  1.0  0.0193
  C  C122  1  0.552500  0.660000  0.216500  1.0  0.0855
  C  C123  1  0.604600  0.823300  0.197000  1.0  0.0525
  C  C124  1  0.410800  0.683900  0.069600  1.0  -0.0057
  C  C125  1  0.583900  0.183800  0.226400  1.0  0.1038
  C  C126  1  0.413400  0.290900  0.042700  1.0  0.046
  C  C127  1  0.551600  0.141000  0.061900  1.0  0.0201
  C  C128  1  0.447500  0.340000  0.216500  1.0  0.0867
  C  C129  1  0.395400  0.176700  0.197000  1.0  0.0527
  C  C130  1  0.589200  0.316100  0.069600  1.0  -0.007
  C  C131  1  0.083900  0.683800  0.726400  1.0  0.1038
  C  C132  1  0.913400  0.790900  0.542700  1.0  0.046
  C  C133  1  0.051600  0.641000  0.561900  1.0  0.0201
  C  C134  1  0.947500  0.840000  0.716500  1.0  0.0867
  C  C135  1  0.895400  0.676700  0.697000  1.0  0.0527
  C  C136  1  0.089200  0.816100  0.569600  1.0  -0.007
  C  C137  1  0.316200  0.583900  0.976400  1.0  0.1031
  C  C138  1  0.209100  0.413400  0.792700  1.0  0.0447
  C  C139  1  0.359000  0.551600  0.811900  1.0  0.0221
  C  C140  1  0.160000  0.447500  0.966500  1.0  0.0862
  C  C141  1  0.323300  0.395400  0.947000  1.0  0.0525
  C  C142  1  0.183900  0.589200  0.819600  1.0  -0.0056
  C  C143  1  0.816200  0.083900  0.476400  1.0  0.1031
  C  C144  1  0.709100  0.913400  0.292700  1.0  0.0447
  C  C145  1  0.859000  0.051600  0.311900  1.0  0.0221
  C  C146  1  0.660000  0.947500  0.466500  1.0  0.0862
  C  C147  1  0.823300  0.895400  0.447000  1.0  0.0525
  C  C148  1  0.683900  0.089200  0.319600  1.0  -0.0056
  C  C149  1  0.183800  0.916100  0.476400  1.0  0.103
  C  C150  1  0.290900  0.086600  0.292700  1.0  0.0442
  C  C151  1  0.141000  0.948400  0.311900  1.0  0.0211
  C  C152  1  0.340000  0.052500  0.466500  1.0  0.0851
  C  C153  1  0.176700  0.104600  0.447000  1.0  0.051
  C  C154  1  0.316100  0.910800  0.319600  1.0  -0.0068
  C  C155  1  0.683800  0.416100  0.976400  1.0  0.103
  C  C156  1  0.790900  0.586600  0.792700  1.0  0.0442
  C  C157  1  0.641000  0.448400  0.811900  1.0  0.0211
  C  C158  1  0.840000  0.552500  0.966500  1.0  0.0851
  C  C159  1  0.676700  0.604600  0.947000  1.0  0.051
  C  C160  1  0.816100  0.410800  0.819600  1.0  -0.0068
  N  N161  1  0.947500  0.709900  0.198500  1.0  -0.261
  N  N162  1  0.057400  0.769000  0.075900  1.0  -0.3147
  N  N163  1  0.975100  0.673300  0.088900  1.0  -0.3399
  N  N164  1  0.028000  0.807600  0.190200  1.0  -0.344
  N  N165  1  0.067200  0.695100  0.174400  1.0  -0.2802
  N  N166  1  0.941200  0.785600  0.099500  1.0  -0.2241
  N  N167  1  0.447500  0.209900  0.698500  1.0  -0.261
  N  N168  1  0.557400  0.269000  0.575900  1.0  -0.3147
  N  N169  1  0.475100  0.173300  0.588900  1.0  -0.3399
  N  N170  1  0.528000  0.307600  0.690200  1.0  -0.344
  N  N171  1  0.567200  0.195100  0.674400  1.0  -0.2802
  N  N172  1  0.441200  0.285600  0.599500  1.0  -0.2241
  N  N173  1  0.552500  0.790100  0.698500  1.0  -0.2605
  N  N174  1  0.442600  0.731000  0.575900  1.0  -0.3148
  N  N175  1  0.524900  0.826700  0.588900  1.0  -0.3393
  N  N176  1  0.472000  0.692400  0.690200  1.0  -0.3431
  N  N177  1  0.432800  0.804900  0.674400  1.0  -0.2811
  N  N178  1  0.558800  0.714400  0.599500  1.0  -0.2247
  N  N179  1  0.052500  0.290100  0.198500  1.0  -0.2605
  N  N180  1  0.942600  0.231000  0.075900  1.0  -0.3148
  N  N181  1  0.024900  0.326700  0.088900  1.0  -0.3393
  N  N182  1  0.972000  0.192400  0.190200  1.0  -0.3431
  N  N183  1  0.932800  0.304900  0.174400  1.0  -0.2811
  N  N184  1  0.058800  0.214400  0.099500  1.0  -0.2247
  N  N185  1  0.290100  0.447500  0.448500  1.0  -0.2599
  N  N186  1  0.231000  0.557400  0.325900  1.0  -0.314
  N  N187  1  0.326700  0.475100  0.338900  1.0  -0.3418
  N  N188  1  0.192400  0.528000  0.440200  1.0  -0.3448
  N  N189  1  0.304900  0.567200  0.424400  1.0  -0.2812
  N  N190  1  0.214400  0.441200  0.349500  1.0  -0.223
  N  N191  1  0.790100  0.947500  0.948500  1.0  -0.2599
  N  N192  1  0.731000  0.057400  0.825900  1.0  -0.314
  N  N193  1  0.826700  0.975100  0.838900  1.0  -0.3418
  N  N194  1  0.692400  0.028000  0.940200  1.0  -0.3448
  N  N195  1  0.804900  0.067200  0.924400  1.0  -0.2812
  N  N196  1  0.714400  0.941200  0.849500  1.0  -0.223
  N  N197  1  0.209900  0.052500  0.948500  1.0  -0.2611
  N  N198  1  0.269000  0.942600  0.825900  1.0  -0.314
  N  N199  1  0.173300  0.024900  0.838900  1.0  -0.3406
  N  N200  1  0.307600  0.972000  0.940200  1.0  -0.3444
  N  N201  1  0.195100  0.932800  0.924400  1.0  -0.2809
  N  N202  1  0.285600  0.058800  0.849500  1.0  -0.2246
  N  N203  1  0.709900  0.552500  0.448500  1.0  -0.2611
  N  N204  1  0.769000  0.442600  0.325900  1.0  -0.314
  N  N205  1  0.673300  0.524900  0.338900  1.0  -0.3406
  N  N206  1  0.807600  0.472000  0.440200  1.0  -0.3444
  N  N207  1  0.695100  0.432800  0.424400  1.0  -0.2809
  N  N208  1  0.785600  0.558800  0.349500  1.0  -0.2246
  N  N209  1  0.947500  0.290100  0.698500  1.0  -0.2608
  N  N210  1  0.057400  0.231000  0.575900  1.0  -0.3146
  N  N211  1  0.975100  0.326700  0.588900  1.0  -0.3389
  N  N212  1  0.028000  0.192400  0.690200  1.0  -0.3432
  N  N213  1  0.067200  0.304900  0.674400  1.0  -0.2811
  N  N214  1  0.941200  0.214400  0.599500  1.0  -0.2244
  N  N215  1  0.447500  0.790100  0.198500  1.0  -0.2608
  N  N216  1  0.557400  0.731000  0.075900  1.0  -0.3146
  N  N217  1  0.475100  0.826700  0.088900  1.0  -0.3389
  N  N218  1  0.528000  0.692400  0.190200  1.0  -0.3432
  N  N219  1  0.567200  0.804900  0.174400  1.0  -0.2811
  N  N220  1  0.441200  0.714400  0.099500  1.0  -0.2244
  N  N221  1  0.552500  0.209900  0.198500  1.0  -0.2605
  N  N222  1  0.442600  0.269000  0.075900  1.0  -0.3145
  N  N223  1  0.524900  0.173300  0.088900  1.0  -0.3403
  N  N224  1  0.472000  0.307600  0.190200  1.0  -0.3439
  N  N225  1  0.432800  0.195100  0.174400  1.0  -0.2803
  N  N226  1  0.558800  0.285600  0.099500  1.0  -0.2248
  N  N227  1  0.052500  0.709900  0.698500  1.0  -0.2605
  N  N228  1  0.942600  0.769000  0.575900  1.0  -0.3145
  N  N229  1  0.024900  0.673300  0.588900  1.0  -0.3403
  N  N230  1  0.972000  0.807600  0.690200  1.0  -0.3439
  N  N231  1  0.932800  0.695100  0.674400  1.0  -0.2803
  N  N232  1  0.058800  0.785600  0.599500  1.0  -0.2248
  N  N233  1  0.290100  0.552500  0.948500  1.0  -0.2607
  N  N234  1  0.231000  0.442600  0.825900  1.0  -0.314
  N  N235  1  0.326700  0.524900  0.838900  1.0  -0.3414
  N  N236  1  0.192400  0.472000  0.940200  1.0  -0.3451
  N  N237  1  0.304900  0.432800  0.924400  1.0  -0.2798
  N  N238  1  0.214400  0.558800  0.849500  1.0  -0.2236
  N  N239  1  0.790100  0.052500  0.448500  1.0  -0.2607
  N  N240  1  0.731000  0.942600  0.325900  1.0  -0.314
  N  N241  1  0.826700  0.024900  0.338900  1.0  -0.3414
  N  N242  1  0.692400  0.972000  0.440200  1.0  -0.3451
  N  N243  1  0.804900  0.932800  0.424400  1.0  -0.2798
  N  N244  1  0.714400  0.058800  0.349500  1.0  -0.2236
  N  N245  1  0.209900  0.947500  0.448500  1.0  -0.2601
  N  N246  1  0.269000  0.057400  0.325900  1.0  -0.3141
  N  N247  1  0.173300  0.975100  0.338900  1.0  -0.3414
  N  N248  1  0.307600  0.028000  0.440200  1.0  -0.3444
  N  N249  1  0.195100  0.067200  0.424400  1.0  -0.2815
  N  N250  1  0.285600  0.941200  0.349500  1.0  -0.2234
  N  N251  1  0.709900  0.447500  0.948500  1.0  -0.2601
  N  N252  1  0.769000  0.557400  0.825900  1.0  -0.3141
  N  N253  1  0.673300  0.475100  0.838900  1.0  -0.3414
  N  N254  1  0.807600  0.528000  0.940200  1.0  -0.3444
  N  N255  1  0.695100  0.567200  0.924400  1.0  -0.2815
  N  N256  1  0.785600  0.441200  0.849500  1.0  -0.2234
