# generated using pymatgen
data_EuH6(C2O)6
_symmetry_space_group_name_H-M   'P 1'
_cell_length_a   11.05520000
_cell_length_b   11.07130000
_cell_length_c   17.64880000
_cell_angle_alpha   93.08400000
_cell_angle_beta   104.42900000
_cell_angle_gamma   119.03200000
_symmetry_Int_Tables_number   1
_chemical_formula_structural   EuH6(C2O)6
_chemical_formula_sum   'Eu4 H24 C48 O24'
_cell_volume   1789.76984919
_cell_formula_units_Z   4
loop_
 _symmetry_equiv_pos_site_id
 _symmetry_equiv_pos_as_xyz
  1  'x, y, z'
loop_
 _atom_site_type_symbol
 _atom_site_label
 _atom_site_symmetry_multiplicity
 _atom_site_fract_x
 _atom_site_fract_y
 _atom_site_fract_z
 _atom_site_occupancy
 _atom_site_charge
  Eu  Eu1  1  0.320560  0.397640  0.378760  1.0  2.188
  Eu  Eu2  1  0.001140  0.105770  0.094930  1.0  2.1672
  Eu  Eu3  1  0.679440  0.602360  0.621240  1.0  2.1874
  Eu  Eu4  1  0.998860  0.894230  0.905070  1.0  2.1676
  H  H5  1  0.332000  0.924500  0.233600  1.0  0.1126
  H  H6  1  0.365800  0.736600  0.263800  1.0  0.1019
  H  H7  1  0.009400  0.468400  0.075000  1.0  0.1104
  H  H8  1  0.980800  0.657600  0.041900  1.0  0.1091
  H  H9  1  0.402600  0.324900  0.705400  1.0  0.1056
  H  H10  1  0.281600  0.145400  0.769100  1.0  0.103
  H  H11  1  0.906500  0.979800  0.583600  1.0  0.0979
  H  H12  1  0.027900  0.156800  0.516900  1.0  0.1073
  H  H13  1  0.654100  0.180800  0.612800  1.0  0.1073
  H  H14  1  0.342400  0.026100  0.397000  1.0  0.0954
  H  H15  1  0.545700  0.543200  0.877700  1.0  0.1146
  H  H16  1  0.648900  0.671000  0.116400  1.0  0.0904
  H  H17  1  0.668000  0.075500  0.766400  1.0  0.1128
  H  H18  1  0.634200  0.263400  0.736200  1.0  0.1016
  H  H19  1  0.990600  0.531600  0.925000  1.0  0.1102
  H  H20  1  0.019200  0.342400  0.958100  1.0  0.1087
  H  H21  1  0.597400  0.675100  0.294600  1.0  0.1046
  H  H22  1  0.718400  0.854600  0.230900  1.0  0.1024
  H  H23  1  0.093500  0.020200  0.416400  1.0  0.0977
  H  H24  1  0.972100  0.843200  0.483100  1.0  0.1072
  H  H25  1  0.345900  0.819200  0.387200  1.0  0.1077
  H  H26  1  0.657600  0.973900  0.603000  1.0  0.0954
  H  H27  1  0.454300  0.456800  0.122300  1.0  0.1149
  H  H28  1  0.351100  0.329000  0.883600  1.0  0.0908
  C  C29  1  0.117100  0.920100  0.118600  1.0  0.7236
  C  C30  1  0.151200  0.807500  0.136000  1.0  -0.1026
  C  C31  1  0.267100  0.832400  0.201300  1.0  -0.0648
  C  C32  1  0.287300  0.720700  0.219100  1.0  -0.0312
  C  C33  1  0.191500  0.584700  0.170900  1.0  -0.1005
  C  C34  1  0.076000  0.560900  0.106500  1.0  -0.0527
  C  C35  1  0.057500  0.673000  0.087700  1.0  -0.0393
  C  C36  1  0.204600  0.462900  0.196800  1.0  0.7401
  C  C37  1  0.301200  0.374200  0.560800  1.0  0.7392
  C  C38  1  0.226900  0.260900  0.606800  1.0  -0.1314
  C  C39  1  0.302500  0.255800  0.680700  1.0  -0.0614
  C  C40  1  0.230200  0.148800  0.718100  1.0  -0.0378
  C  C41  1  0.082900  0.045000  0.682600  1.0  -0.1274
  C  C42  1  0.006800  0.049100  0.607800  1.0  -0.0205
  C  C43  1  0.078200  0.155100  0.568700  1.0  -0.0324
  C  C44  1  0.007500  0.925400  0.721900  1.0  0.7221
  C  C45  1  0.503400  0.266000  0.510600  1.0  0.6918
  C  C46  1  0.500900  0.127900  0.504400  1.0  -0.0901
  C  C47  1  0.591900  0.108000  0.566500  1.0  -0.0601
  C  C48  1  0.407800  0.016200  0.439000  1.0  -0.0411
  C  C49  1  0.737000  0.770200  0.995000  1.0  0.7924
  C  C50  1  0.615000  0.628600  0.997900  1.0  -0.1235
  C  C51  1  0.527100  0.526000  0.927000  1.0  -0.0853
  C  C52  1  0.587400  0.600900  0.068900  1.0  -0.047
  C  C53  1  0.882900  0.079900  0.881400  1.0  0.7241
  C  C54  1  0.848800  0.192500  0.864000  1.0  -0.1027
  C  C55  1  0.732900  0.167600  0.798700  1.0  -0.0645
  C  C56  1  0.712700  0.279300  0.780900  1.0  -0.0304
  C  C57  1  0.808500  0.415300  0.829100  1.0  -0.1006
  C  C58  1  0.924000  0.439100  0.893500  1.0  -0.0526
  C  C59  1  0.942500  0.327000  0.912300  1.0  -0.0392
  C  C60  1  0.795400  0.537100  0.803200  1.0  0.7424
  C  C61  1  0.698800  0.625800  0.439200  1.0  0.7368
  C  C62  1  0.773100  0.739100  0.393200  1.0  -0.1337
  C  C63  1  0.697500  0.744200  0.319300  1.0  -0.0609
  C  C64  1  0.769800  0.851200  0.281900  1.0  -0.0367
  C  C65  1  0.917100  0.955000  0.317400  1.0  -0.1273
  C  C66  1  0.993200  0.950900  0.392200  1.0  -0.02
  C  C67  1  0.921800  0.844900  0.431300  1.0  -0.0334
  C  C68  1  0.992500  0.074600  0.278100  1.0  0.7226
  C  C69  1  0.496600  0.734000  0.489400  1.0  0.6914
  C  C70  1  0.499100  0.872100  0.495600  1.0  -0.0935
  C  C71  1  0.408100  0.892000  0.433500  1.0  -0.0601
  C  C72  1  0.592200  0.983800  0.561000  1.0  -0.0409
  C  C73  1  0.263000  0.229800  0.005000  1.0  0.7907
  C  C74  1  0.385000  0.371400  0.002100  1.0  -0.1227
  C  C75  1  0.472900  0.474000  0.073000  1.0  -0.0892
  C  C76  1  0.412600  0.399100  0.931100  1.0  -0.0486
  O  O77  1  0.144300  0.011800  0.174800  1.0  -0.6292
  O  O78  1  0.055700  0.917000  0.046600  1.0  -0.8389
  O  O79  1  0.305600  0.488000  0.258200  1.0  -0.7188
  O  O80  1  0.109800  0.340400  0.153400  1.0  -0.7327
  O  O81  1  0.228300  0.364400  0.490300  1.0  -0.6865
  O  O82  1  0.429500  0.470900  0.598300  1.0  -0.771
  O  O83  1  0.879000  0.827300  0.682400  1.0  -0.7362
  O  O84  1  0.078300  0.930300  0.792800  1.0  -0.7025
  O  O85  1  0.405100  0.268200  0.455300  1.0  -0.7525
  O  O86  1  0.604400  0.365900  0.565800  1.0  -0.7507
  O  O87  1  0.790900  0.873100  0.054000  1.0  -0.7407
  O  O88  1  0.778600  0.777400  0.934400  1.0  -0.7073
  O  O89  1  0.855700  0.988200  0.825200  1.0  -0.628
  O  O90  1  0.944300  0.083000  0.953400  1.0  -0.8382
  O  O91  1  0.694400  0.512000  0.741800  1.0  -0.7186
  O  O92  1  0.890200  0.659600  0.846600  1.0  -0.7319
  O  O93  1  0.771700  0.635600  0.509700  1.0  -0.6872
  O  O94  1  0.570500  0.529100  0.401700  1.0  -0.7696
  O  O95  1  0.121000  0.172700  0.317600  1.0  -0.7367
  O  O96  1  0.921700  0.069700  0.207200  1.0  -0.7038
  O  O97  1  0.594900  0.731800  0.544700  1.0  -0.7526
  O  O98  1  0.395600  0.634100  0.434200  1.0  -0.7511
  O  O99  1  0.209100  0.126900  0.946000  1.0  -0.738
  O  O100  1  0.221400  0.222600  0.065600  1.0  -0.708
