# generated using pymatgen
data_YH8C7NO8
_symmetry_space_group_name_H-M   'P 1'
_cell_length_a   8.22930000
_cell_length_b   9.73860000
_cell_length_c   9.75430000
_cell_angle_alpha   60.74100000
_cell_angle_beta   72.35700000
_cell_angle_gamma   84.66600000
_symmetry_Int_Tables_number   1
_chemical_formula_structural   YH8C7NO8
_chemical_formula_sum   'Y2 H16 C14 N2 O16'
_cell_volume   648.48293973
_cell_formula_units_Z   2
loop_
 _symmetry_equiv_pos_site_id
 _symmetry_equiv_pos_as_xyz
  1  'x, y, z'
loop_
 _atom_site_type_symbol
 _atom_site_label
 _atom_site_symmetry_multiplicity
 _atom_site_fract_x
 _atom_site_fract_y
 _atom_site_fract_z
 _atom_site_occupancy
 _atom_site_charge
  Y  Y1  1  0.670400  0.841300  0.786800  1.0  2.0241
  Y  Y2  1  0.329600  0.158700  0.213200  1.0  2.0249
  H  H3  1  0.992200  0.408100  0.715900  1.0  0.2227
  H  H4  1  0.975400  0.260000  0.717200  1.0  0.219
  H  H5  1  0.823000  0.369500  0.529500  1.0  0.081
  H  H6  1  0.731000  0.394300  0.681400  1.0  0.0684
  H  H7  1  0.144000  0.358400  0.454000  1.0  0.1113
  H  H8  1  0.283700  0.237700  0.651800  1.0  0.1077
  H  H9  1  0.401500  0.374700  0.490600  1.0  0.1088
  H  H10  1  0.311300  0.399500  0.642600  1.0  0.1059
  H  H11  1  0.007800  0.591900  0.284100  1.0  0.2198
  H  H12  1  0.024600  0.740000  0.282800  1.0  0.2166
  H  H13  1  0.177000  0.630500  0.470500  1.0  0.0801
  H  H14  1  0.269000  0.605700  0.318600  1.0  0.0691
  H  H15  1  0.856000  0.641600  0.546000  1.0  0.1111
  H  H16  1  0.716300  0.762300  0.348200  1.0  0.1086
  H  H17  1  0.598500  0.625300  0.509400  1.0  0.1089
  H  H18  1  0.688700  0.600500  0.357400  1.0  0.1061
  C  C19  1  0.443000  0.923500  0.541100  1.0  0.5961
  C  C20  1  0.572900  0.976000  0.039200  1.0  0.5343
  C  C21  1  0.992900  0.943500  0.467400  1.0  0.6738
  C  C22  1  0.441900  0.524000  0.063500  1.0  0.5664
  C  C23  1  0.557000  0.076500  0.458900  1.0  0.596
  C  C24  1  0.427100  0.024000  0.960800  1.0  0.5336
  C  C25  1  0.007100  0.056500  0.532600  1.0  0.6845
  C  C26  1  0.558100  0.476000  0.936500  1.0  0.5657
  C  C27  1  0.833800  0.422100  0.589200  1.0  -0.0588
  C  C28  1  0.150400  0.408600  0.518400  1.0  0.0881
  C  C29  1  0.299900  0.350000  0.581400  1.0  -0.3717
  C  C30  1  0.166200  0.577900  0.410800  1.0  -0.059
  C  C31  1  0.849600  0.591400  0.481600  1.0  0.0921
  C  C32  1  0.700100  0.650000  0.418600  1.0  -0.3733
  N  N33  1  0.987800  0.365500  0.653300  1.0  -0.1603
  N  N34  1  0.012200  0.634500  0.346700  1.0  -0.1596
  O  O35  1  0.690200  0.906800  0.988100  1.0  -0.6055
  O  O36  1  0.470000  0.660500  0.036900  1.0  -0.6057
  O  O37  1  0.881700  0.828400  0.561400  1.0  -0.6172
  O  O38  1  0.560200  0.008200  0.153200  1.0  -0.6247
  O  O39  1  0.463200  0.812000  0.673200  1.0  -0.619
  O  O40  1  0.086900  0.972000  0.328900  1.0  -0.5959
  O  O41  1  0.329800  0.422300  0.181100  1.0  -0.6398
  O  O42  1  0.340400  0.921700  0.470200  1.0  -0.6125
  O  O43  1  0.309800  0.093200  0.011900  1.0  -0.6059
  O  O44  1  0.530000  0.339500  0.963100  1.0  -0.6065
  O  O45  1  0.118300  0.171600  0.438600  1.0  -0.6188
  O  O46  1  0.439800  0.991800  0.846800  1.0  -0.6236
  O  O47  1  0.536800  0.188000  0.326800  1.0  -0.6199
  O  O48  1  0.913100  0.028000  0.671100  1.0  -0.5956
  O  O49  1  0.670200  0.577700  0.818900  1.0  -0.6397
  O  O50  1  0.659600  0.078300  0.529800  1.0  -0.6113
