# generated using pymatgen
data_Y(CO2)4
_symmetry_space_group_name_H-M   'P 1'
_cell_length_a   11.55160000
_cell_length_b   17.16770000
_cell_length_c   8.71850000
_cell_angle_alpha   90.00000000
_cell_angle_beta   130.63500000
_cell_angle_gamma   90.00000000
_symmetry_Int_Tables_number   1
_chemical_formula_structural   Y(CO2)4
_chemical_formula_sum   'Y4 C16 O32'
_cell_volume   1312.09563749
_cell_formula_units_Z   4
loop_
 _symmetry_equiv_pos_site_id
 _symmetry_equiv_pos_as_xyz
  1  'x, y, z'
loop_
 _atom_site_type_symbol
 _atom_site_label
 _atom_site_symmetry_multiplicity
 _atom_site_fract_x
 _atom_site_fract_y
 _atom_site_fract_z
 _atom_site_occupancy
 _atom_site_charge
  Y  Y1  1  0.441000  0.128000  0.260500  1.0  1.9405
  Y  Y2  1  0.941000  0.628000  0.260500  1.0  1.9401
  Y  Y3  1  0.441000  0.872000  0.760500  1.0  1.9405
  Y  Y4  1  0.941000  0.372000  0.760500  1.0  1.9412
  C  C5  1  0.737100  0.234300  0.484200  1.0  0.5735
  C  C6  1  0.652900  0.271700  0.549500  1.0  0.5613
  C  C7  1  0.519000  0.019400  0.605600  1.0  0.5708
  C  C8  1  0.371400  0.984400  0.413000  1.0  0.6199
  C  C9  1  0.237100  0.734300  0.484200  1.0  0.5735
  C  C10  1  0.152900  0.771700  0.549500  1.0  0.5613
  C  C11  1  0.019000  0.519400  0.605600  1.0  0.5708
  C  C12  1  0.871400  0.484400  0.413000  1.0  0.6199
  C  C13  1  0.737100  0.765700  0.984200  1.0  0.5734
  C  C14  1  0.652900  0.728300  0.049500  1.0  0.5598
  C  C15  1  0.519000  0.980600  0.105600  1.0  0.571
  C  C16  1  0.371400  0.015600  0.913000  1.0  0.62
  C  C17  1  0.237100  0.265700  0.984200  1.0  0.5734
  C  C18  1  0.152900  0.228300  0.049500  1.0  0.5598
  C  C19  1  0.019000  0.480600  0.105600  1.0  0.571
  C  C20  1  0.871400  0.515600  0.913000  1.0  0.62
  O  O21  1  0.670600  0.170500  0.361500  1.0  -0.5762
  O  O22  1  0.568500  0.075900  0.584300  1.0  -0.5066
  O  O23  1  0.523800  0.236500  0.472200  1.0  -0.543
  O  O24  1  0.708100  0.325000  0.652400  1.0  -0.5255
  O  O25  1  0.852300  0.263100  0.538400  1.0  -0.48
  O  O26  1  0.572200  0.983400  0.770000  1.0  -0.5643
  O  O27  1  0.318500  0.921600  0.433000  1.0  -0.5581
  O  O28  1  0.309300  0.017600  0.253000  1.0  -0.5098
  O  O29  1  0.170600  0.670500  0.361500  1.0  -0.577
  O  O30  1  0.068500  0.575900  0.584300  1.0  -0.5066
  O  O31  1  0.023800  0.736500  0.472200  1.0  -0.543
  O  O32  1  0.208100  0.825000  0.652400  1.0  -0.526
  O  O33  1  0.352300  0.763100  0.538400  1.0  -0.48
  O  O34  1  0.072200  0.483400  0.770000  1.0  -0.5643
  O  O35  1  0.818500  0.421600  0.433000  1.0  -0.5581
  O  O36  1  0.809300  0.517600  0.253000  1.0  -0.5098
  O  O37  1  0.670600  0.829500  0.861500  1.0  -0.5781
  O  O38  1  0.568500  0.924100  0.084300  1.0  -0.5084
  O  O39  1  0.523800  0.763500  0.972200  1.0  -0.5424
  O  O40  1  0.708100  0.675000  0.152400  1.0  -0.5253
  O  O41  1  0.852300  0.736900  0.038400  1.0  -0.4793
  O  O42  1  0.572200  0.016600  0.270000  1.0  -0.5639
  O  O43  1  0.318500  0.078400  0.933000  1.0  -0.5587
  O  O44  1  0.309300  0.982400  0.753000  1.0  -0.5112
  O  O45  1  0.170600  0.329500  0.861500  1.0  -0.5786
  O  O46  1  0.068500  0.424100  0.084300  1.0  -0.5084
  O  O47  1  0.023800  0.263500  0.972200  1.0  -0.5424
  O  O48  1  0.208100  0.175000  0.152400  1.0  -0.5255
  O  O49  1  0.352300  0.236900  0.038400  1.0  -0.479
  O  O50  1  0.072200  0.516600  0.270000  1.0  -0.5639
  O  O51  1  0.818500  0.578400  0.933000  1.0  -0.5587
  O  O52  1  0.809300  0.482400  0.753000  1.0  -0.51
