# generated using pymatgen
data_CuH12C19NO4
_symmetry_space_group_name_H-M   'P 1'
_cell_length_a   13.94100000
_cell_length_b   15.07500000
_cell_length_c   15.07500000
_cell_angle_alpha   82.15000000
_cell_angle_beta   87.23000000
_cell_angle_gamma   87.23000000
_symmetry_Int_Tables_number   1
_chemical_formula_structural   CuH12C19NO4
_chemical_formula_sum   'Cu4 H48 C76 N4 O16'
_cell_volume   3132.02614765
_cell_formula_units_Z   4
loop_
 _symmetry_equiv_pos_site_id
 _symmetry_equiv_pos_as_xyz
  1  'x, y, z'
loop_
 _atom_site_type_symbol
 _atom_site_label
 _atom_site_symmetry_multiplicity
 _atom_site_fract_x
 _atom_site_fract_y
 _atom_site_fract_z
 _atom_site_occupancy
 _atom_site_charge
  Cu  Cu1  1  0.793980  0.159340  0.382700  1.0  0.8504
  Cu  Cu2  1  0.604970  0.165140  0.389930  1.0  0.8565
  Cu  Cu3  1  0.206020  0.840660  0.617300  1.0  0.8491
  Cu  Cu4  1  0.395030  0.834860  0.610070  1.0  0.8569
  H  H5  1  0.839500  0.119300  0.666800  1.0  0.093
  H  H6  1  0.836500  0.108700  0.826300  1.0  0.1216
  H  H7  1  0.563100  0.208100  0.813500  1.0  0.1154
  H  H8  1  0.564500  0.190000  0.673600  1.0  0.0753
  H  H9  1  0.845000  0.106600  0.952300  1.0  0.1273
  H  H10  1  0.844500  0.112100  0.109000  1.0  0.11
  H  H11  1  0.573700  0.243400  0.101100  1.0  0.1266
  H  H12  1  0.573300  0.228800  0.949800  1.0  0.105
  H  H13  1  0.550300  0.885300  0.433400  1.0  0.1194
  H  H14  1  0.552900  0.731200  0.434900  1.0  0.106
  H  H15  1  0.836200  0.724000  0.341000  1.0  0.1284
  H  H16  1  0.840200  0.878300  0.343300  1.0  0.1205
  H  H17  1  0.575200  0.587600  0.467800  1.0  0.1045
  H  H18  1  0.568900  0.439400  0.450800  1.0  0.0818
  H  H19  1  0.825300  0.446000  0.313700  1.0  0.1287
  H  H20  1  0.828000  0.601100  0.322500  1.0  0.1185
  H  H21  1  0.429400  0.296100  0.345500  1.0  0.0899
  H  H22  1  0.268000  0.300500  0.337000  1.0  0.1303
  H  H23  1  0.277500  0.030000  0.408800  1.0  0.1274
  H  H24  1  0.440800  0.037200  0.408200  1.0  0.0728
  H  H25  1  0.123400  0.280900  0.288400  1.0  0.135
  H  H26  1  0.958500  0.275800  0.297800  1.0  0.0955
  H  H27  1  0.964900  0.055700  0.466800  1.0  0.0765
  H  H28  1  0.132700  0.049300  0.462300  1.0  0.1236
  H  H29  1  0.160500  0.880700  0.333200  1.0  0.0926
  H  H30  1  0.163500  0.891300  0.173700  1.0  0.1221
  H  H31  1  0.436900  0.791900  0.186500  1.0  0.1165
  H  H32  1  0.435500  0.810000  0.326400  1.0  0.0737
  H  H33  1  0.155000  0.893400  0.047700  1.0  0.1294
  H  H34  1  0.155500  0.887900  0.891000  1.0  0.1102
  H  H35  1  0.426300  0.756600  0.898900  1.0  0.1265
  H  H36  1  0.426700  0.771200  0.050200  1.0  0.1046
  H  H37  1  0.449700  0.114700  0.566600  1.0  0.119
  H  H38  1  0.447100  0.268800  0.565100  1.0  0.1067
  H  H39  1  0.163800  0.276000  0.659000  1.0  0.1281
  H  H40  1  0.159800  0.121700  0.656700  1.0  0.1206
  H  H41  1  0.424800  0.412400  0.532200  1.0  0.1045
  H  H42  1  0.431100  0.560600  0.549200  1.0  0.0812
  H  H43  1  0.174700  0.554000  0.686300  1.0  0.1286
  H  H44  1  0.172000  0.398900  0.677500  1.0  0.1187
  H  H45  1  0.570600  0.703900  0.654500  1.0  0.0895
  H  H46  1  0.732000  0.699500  0.663000  1.0  0.1279
  H  H47  1  0.722500  0.970000  0.591200  1.0  0.1268
  H  H48  1  0.559200  0.962800  0.591800  1.0  0.0731
  H  H49  1  0.876600  0.719100  0.711600  1.0  0.1351
  H  H50  1  0.041500  0.724200  0.702200  1.0  0.0957
  H  H51  1  0.035100  0.944300  0.533200  1.0  0.0773
  H  H52  1  0.867300  0.950700  0.537700  1.0  0.1235
  C  C53  1  0.701600  0.154000  0.554700  1.0  0.6712
  C  C54  1  0.702600  0.155800  0.653500  1.0  -0.1075
  C  C55  1  0.781700  0.134100  0.698600  1.0  -0.0511
  C  C56  1  0.782200  0.133000  0.793800  1.0  -0.1474
  C  C57  1  0.704800  0.165300  0.835700  1.0  0.0465
  C  C58  1  0.621000  0.187000  0.785000  1.0  -0.1209
  C  C59  1  0.623000  0.179000  0.704000  1.0  -0.0203
  C  C60  1  0.706500  0.168900  0.935000  1.0  0.0149
  C  C61  1  0.792000  0.132000  0.983000  1.0  -0.1469
  C  C62  1  0.791000  0.136000  0.075000  1.0  -0.0412
  C  C63  1  0.709000  0.175700  0.119400  1.0  -0.1472
  C  C64  1  0.626000  0.215000  0.072000  1.0  -0.0884
  C  C65  1  0.628000  0.207000  0.982000  1.0  -0.1115
  C  C66  1  0.705200  0.174800  0.217300  1.0  0.6792
  C  C67  1  0.700200  0.994700  0.391500  1.0  0.6618
  C  C68  1  0.699300  0.895500  0.393700  1.0  -0.1559
  C  C69  1  0.607000  0.852000  0.418000  1.0  -0.0632
  C  C70  1  0.610000  0.762500  0.418000  1.0  -0.118
  C  C71  1  0.696200  0.711100  0.391400  1.0  -0.0053
  C  C72  1  0.781000  0.756000  0.362000  1.0  -0.1156
  C  C73  1  0.784000  0.847000  0.363000  1.0  -0.0464
  C  C74  1  0.693800  0.612200  0.391400  1.0  0.0411
  C  C75  1  0.624000  0.561000  0.433000  1.0  -0.1468
  C  C76  1  0.623000  0.471100  0.426000  1.0  -0.0313
  C  C77  1  0.690100  0.427100  0.387100  1.0  -0.1114
  C  C78  1  0.774000  0.476100  0.343300  1.0  -0.0687
  C  C79  1  0.775000  0.567600  0.347700  1.0  -0.1387
  C  C80  1  0.691100  0.330300  0.383300  1.0  0.6939
  C  C81  1  0.397700  0.241200  0.359100  1.0  0.1672
  C  C82  1  0.301900  0.245100  0.354400  1.0  -0.2125
  C  C83  1  0.252400  0.165000  0.376000  1.0  0.099
  C  C84  1  0.306800  0.086200  0.395900  1.0  -0.2084
  C  C85  1  0.405000  0.092100  0.396000  1.0  0.1904
  C  C86  1  0.147200  0.164100  0.375900  1.0  0.092
  C  C87  1  0.092900  0.233100  0.325000  1.0  -0.2013
  C  C88  1  0.995200  0.228700  0.330500  1.0  0.1602
  C  C89  1  0.997900  0.100600  0.428300  1.0  0.179
  C  C90  1  0.098700  0.097000  0.427700  1.0  -0.2146
  C  C91  1  0.298400  0.846000  0.445300  1.0  0.6704
  C  C92  1  0.297400  0.844200  0.346500  1.0  -0.1073
  C  C93  1  0.218300  0.865900  0.301400  1.0  -0.0515
  C  C94  1  0.217800  0.867000  0.206200  1.0  -0.1474
  C  C95  1  0.295200  0.834700  0.164300  1.0  0.0468
  C  C96  1  0.379000  0.813000  0.215000  1.0  -0.12
  C  C97  1  0.377000  0.821000  0.296000  1.0  -0.0262
  C  C98  1  0.293500  0.831100  0.065000  1.0  0.0151
  C  C99  1  0.208000  0.868000  0.017000  1.0  -0.1482
  C  C100  1  0.209000  0.864000  0.925000  1.0  -0.0414
  C  C101  1  0.291000  0.824300  0.880600  1.0  -0.1471
  C  C102  1  0.374000  0.785000  0.928000  1.0  -0.09
  C  C103  1  0.372000  0.793000  0.018000  1.0  -0.1112
  C  C104  1  0.294800  0.825200  0.782700  1.0  0.6794
  C  C105  1  0.299800  0.005300  0.608500  1.0  0.6616
  C  C106  1  0.300700  0.104500  0.606300  1.0  -0.1543
  C  C107  1  0.393000  0.148000  0.582000  1.0  -0.062
  C  C108  1  0.390000  0.237500  0.582000  1.0  -0.1177
  C  C109  1  0.303800  0.288900  0.608600  1.0  -0.0182
  C  C110  1  0.219000  0.244000  0.638000  1.0  -0.1165
  C  C111  1  0.216000  0.153000  0.637000  1.0  -0.0435
  C  C112  1  0.306200  0.387800  0.608600  1.0  0.041
  C  C113  1  0.376000  0.439000  0.567000  1.0  -0.1467
  C  C114  1  0.377000  0.528900  0.574000  1.0  -0.0325
  C  C115  1  0.309900  0.572900  0.612900  1.0  -0.1137
  C  C116  1  0.226000  0.523900  0.656700  1.0  -0.0704
  C  C117  1  0.225000  0.432400  0.652300  1.0  -0.1419
  C  C118  1  0.308900  0.669700  0.616700  1.0  0.6932
  C  C119  1  0.602300  0.758800  0.640900  1.0  0.1655
  C  C120  1  0.698100  0.754900  0.645600  1.0  -0.214
  C  C121  1  0.747600  0.835000  0.624000  1.0  0.1024
  C  C122  1  0.693200  0.913800  0.604100  1.0  -0.2083
  C  C123  1  0.595000  0.907900  0.604000  1.0  0.1919
  C  C124  1  0.852800  0.835900  0.624100  1.0  0.0913
  C  C125  1  0.907100  0.766900  0.675000  1.0  -0.1976
  C  C126  1  0.004800  0.771300  0.669500  1.0  0.1619
  C  C127  1  0.002100  0.899400  0.571700  1.0  0.1794
  C  C128  1  0.901300  0.903000  0.572300  1.0  -0.2163
  N  N129  1  0.453900  0.165400  0.381500  1.0  -0.3409
  N  N130  1  0.946900  0.161300  0.379600  1.0  -0.3097
  N  N131  1  0.546100  0.834600  0.618500  1.0  -0.3416
  N  N132  1  0.053100  0.838700  0.620400  1.0  -0.3101
  O  O133  1  0.780300  0.149300  0.511900  1.0  -0.5742
  O  O134  1  0.621600  0.154500  0.519900  1.0  -0.5639
  O  O135  1  0.786800  0.169100  0.252700  1.0  -0.5736
  O  O136  1  0.627900  0.179600  0.259300  1.0  -0.5617
  O  O137  1  0.624200  0.036400  0.396200  1.0  -0.5496
  O  O138  1  0.782100  0.029200  0.388800  1.0  -0.585
  O  O139  1  0.612200  0.294000  0.385400  1.0  -0.5748
  O  O140  1  0.770700  0.290300  0.377300  1.0  -0.5701
  O  O141  1  0.219700  0.850700  0.488100  1.0  -0.575
  O  O142  1  0.378400  0.845500  0.480100  1.0  -0.565
  O  O143  1  0.213200  0.830900  0.747300  1.0  -0.5744
  O  O144  1  0.372100  0.820400  0.740700  1.0  -0.5632
  O  O145  1  0.375800  0.963600  0.603800  1.0  -0.5484
  O  O146  1  0.217900  0.970800  0.611200  1.0  -0.5856
  O  O147  1  0.387800  0.706000  0.614600  1.0  -0.5727
  O  O148  1  0.229300  0.709700  0.622700  1.0  -0.5696
