# generated using pymatgen
data_Cu3PH46W12C54(N3O10)4
_symmetry_space_group_name_H-M   'P 1'
_cell_length_a   14.18940000
_cell_length_b   26.73460000
_cell_length_c   27.13230000
_cell_angle_alpha   79.45550000
_cell_angle_beta   74.84180000
_cell_angle_gamma   74.61080000
_symmetry_Int_Tables_number   1
_chemical_formula_structural   Cu3PH46W12C54(N3O10)4
_chemical_formula_sum   'Cu12 P4 H184 W48 C216 N48 O160'
_cell_volume   9506.63815374
_cell_formula_units_Z   4
loop_
 _symmetry_equiv_pos_site_id
 _symmetry_equiv_pos_as_xyz
  1  'x, y, z'
loop_
 _atom_site_type_symbol
 _atom_site_label
 _atom_site_symmetry_multiplicity
 _atom_site_fract_x
 _atom_site_fract_y
 _atom_site_fract_z
 _atom_site_occupancy
 _atom_site_charge
  Cu  Cu1  1  0.949730  0.388930  0.885270  1.0  0.5941
  Cu  Cu2  1  0.677960  0.170440  0.982620  1.0  0.5575
  Cu  Cu3  1  0.642450  0.178220  0.395880  1.0  0.5336
  Cu  Cu4  1  0.223930  0.111070  0.614730  1.0  0.5971
  Cu  Cu5  1  0.831020  0.329560  0.517380  1.0  0.5571
  Cu  Cu6  1  0.216550  0.321780  0.104120  1.0  0.5321
  Cu  Cu7  1  0.050270  0.611070  0.114730  1.0  0.5951
  Cu  Cu8  1  0.322040  0.829560  0.017380  1.0  0.5577
  Cu  Cu9  1  0.357550  0.821780  0.604120  1.0  0.5313
  Cu  Cu10  1  0.776070  0.888930  0.385270  1.0  0.5962
  Cu  Cu11  1  0.168980  0.670440  0.482620  1.0  0.5581
  Cu  Cu12  1  0.783450  0.678220  0.895880  1.0  0.5326
  P  P13  1  0.579090  0.447320  0.235300  1.0  1.5567
  P  P14  1  0.261710  0.052680  0.264700  1.0  1.5567
  P  P15  1  0.420910  0.552680  0.764700  1.0  1.5565
  P  P16  1  0.738290  0.947320  0.735300  1.0  1.5565
  H  H17  1  0.855800  0.543700  0.763500  1.0  0.1161
  H  H18  1  0.879200  0.573700  0.803100  1.0  0.1118
  H  H19  1  0.968500  0.547100  0.759500  1.0  0.1171
  H  H20  1  0.136200  0.417900  0.890700  1.0  0.0763
  H  H21  1  0.292900  0.375300  0.909500  1.0  0.1031
  H  H22  1  0.193300  0.243100  0.952700  1.0  0.1008
  H  H23  1  0.047300  0.285600  0.929800  1.0  0.0669
  H  H24  1  0.876500  0.320800  0.983200  1.0  0.0754
  H  H25  1  0.720200  0.310500  0.036100  1.0  0.0984
  H  H26  1  0.588700  0.441000  0.956800  1.0  0.1012
  H  H27  1  0.745500  0.451200  0.910400  1.0  0.0541
  H  H28  1  0.998900  0.119900  0.663900  1.0  0.0743
  H  H29  1  0.892400  0.134500  0.742100  1.0  0.082
  H  H30  1  0.093700  0.202200  0.773800  1.0  0.077
  H  H31  1  0.193900  0.189800  0.694000  1.0  0.0804
  H  H32  1  0.631200  0.382300  0.581300  1.0  0.0545
  H  H33  1  0.494100  0.440000  0.574600  1.0  0.09
  H  H34  1  0.641900  0.495400  0.433400  1.0  0.0964
  H  H35  1  0.779600  0.430600  0.446800  1.0  0.0639
  H  H36  1  0.593500  0.274700  0.918500  1.0  0.074
  H  H37  1  0.442400  0.320600  0.897800  1.0  0.1022
  H  H38  1  0.305500  0.221200  0.002800  1.0  0.088
  H  H39  1  0.456900  0.173900  0.019900  1.0  0.0977
  H  H40  1  0.544200  0.211000  0.073000  1.0  0.0766
  H  H41  1  0.539800  0.213900  0.159900  1.0  0.0891
  H  H42  1  0.831100  0.140700  0.135300  1.0  0.0876
  H  H43  1  0.828400  0.139400  0.050400  1.0  0.0673
  H  H44  1  0.810200  0.179800  0.294400  1.0  0.0705
  H  H45  1  0.823600  0.180200  0.208000  1.0  0.0942
  H  H46  1  0.537200  0.165700  0.239900  1.0  0.0916
  H  H47  1  0.527800  0.168600  0.326000  1.0  0.0715
  H  H48  1  0.700600  0.126100  0.492700  1.0  0.0591
  H  H49  1  0.830300  0.102500  0.530100  1.0  0.1015
  H  H50  1  0.572000  0.325600  0.094200  1.0  0.106
  H  H51  1  0.851300  0.199100  0.372500  1.0  0.0579
  H  H52  1  0.439000  0.145400  0.443600  1.0  0.0655
  H  H53  1  0.381000  0.075300  0.491300  1.0  0.107
  H  H54  1  0.666800  0.989600  0.465400  1.0  0.1083
  H  H55  1  0.716100  0.064200  0.421800  1.0  0.0549
  H  H56  1  0.326500  0.277900  0.368500  1.0  0.1262
  H  H57  1  0.297700  0.290800  0.426600  1.0  0.1299
  H  H58  1  0.352600  0.328000  0.381600  1.0  0.1243
  H  H59  1  0.811100  0.090700  0.920700  1.0  0.089
  H  H60  1  0.918600  0.089400  0.839000  1.0  0.0882
  H  H61  1  0.898000  0.244700  0.830500  1.0  0.0838
  H  H62  1  0.790400  0.246000  0.912200  1.0  0.0877
  H  H63  1  0.163000  0.956300  0.736500  1.0  0.116
  H  H64  1  0.256000  0.926300  0.696900  1.0  0.1108
  H  H65  1  0.275100  0.952900  0.740500  1.0  0.1187
  H  H66  1  0.444800  0.082100  0.609300  1.0  0.0769
  H  H67  1  0.577700  0.124700  0.590500  1.0  0.1035
  H  H68  1  0.389100  0.256900  0.547300  1.0  0.0994
  H  H69  1  0.262700  0.214400  0.570200  1.0  0.067
  H  H70  1  0.180500  0.179200  0.516800  1.0  0.0751
  H  H71  1  0.066800  0.189500  0.463900  1.0  0.0988
  H  H72  1  0.986500  0.059000  0.543200  1.0  0.1019
  H  H73  1  0.107100  0.048800  0.589600  1.0  0.0549
  H  H74  1  0.782700  0.380100  0.836100  1.0  0.0739
  H  H75  1  0.769000  0.365500  0.757900  1.0  0.0818
  H  H76  1  0.069700  0.297800  0.726200  1.0  0.0766
  H  H77  1  0.077700  0.310200  0.806000  1.0  0.0809
  H  H78  1  0.594800  0.117700  0.918700  1.0  0.0519
  H  H79  1  0.508700  0.060000  0.925400  1.0  0.0935
  H  H80  1  0.570700  0.004600  0.066600  1.0  0.0966
  H  H81  1  0.657000  0.069400  0.053200  1.0  0.0645
  H  H82  1  0.786700  0.225300  0.581500  1.0  0.0734
  H  H83  1  0.660800  0.179400  0.602200  1.0  0.1034
  H  H84  1  0.529500  0.278800  0.497200  1.0  0.0895
  H  H85  1  0.650700  0.326100  0.480100  1.0  0.0964
  H  H86  1  0.828200  0.289000  0.427000  1.0  0.077
  H  H87  1  0.913600  0.286100  0.340100  1.0  0.0891
  H  H88  1  0.107100  0.359300  0.364700  1.0  0.0881
  H  H89  1  0.018200  0.360600  0.449600  1.0  0.0673
  H  H90  1  0.284400  0.320200  0.205600  1.0  0.0713
  H  H91  1  0.211800  0.319800  0.292000  1.0  0.0936
  H  H92  1  0.942800  0.334300  0.260100  1.0  0.0926
  H  H93  1  0.022400  0.331400  0.174000  1.0  0.0722
  H  H94  1  0.319400  0.373900  0.007300  1.0  0.0582
  H  H95  1  0.462900  0.397500  0.969900  1.0  0.1014
  H  H96  1  0.991800  0.174400  0.405800  1.0  0.1066
  H  H97  1  0.422900  0.300900  0.127500  1.0  0.0587
  H  H98  1  0.028000  0.354600  0.056400  1.0  0.0658
  H  H99  1  0.947600  0.424700  0.008700  1.0  0.1054
  H  H100  1  0.121800  0.510400  0.034600  1.0  0.1087
  H  H101  1  0.202100  0.435800  0.078200  1.0  0.0529
  H  H102  1  0.972900  0.222100  0.131500  1.0  0.1227
  H  H103  1  0.015100  0.209200  0.073400  1.0  0.1273
  H  H104  1  0.062200  0.172000  0.118400  1.0  0.125
  H  H105  1  0.822500  0.409300  0.579300  1.0  0.0893
  H  H106  1  0.847000  0.410600  0.661000  1.0  0.0877
  H  H107  1  0.973200  0.255300  0.669500  1.0  0.0836
  H  H108  1  0.948600  0.254000  0.587800  1.0  0.0883
  H  H109  1  0.144200  0.456300  0.236500  1.0  0.1168
  H  H110  1  0.120800  0.426300  0.196900  1.0  0.1103
  H  H111  1  0.031500  0.452900  0.240500  1.0  0.1182
  H  H112  1  0.863800  0.582100  0.109300  1.0  0.0766
  H  H113  1  0.707100  0.624700  0.090500  1.0  0.1037
  H  H114  1  0.806700  0.756900  0.047300  1.0  0.1006
  H  H115  1  0.952700  0.714400  0.070200  1.0  0.0669
  H  H116  1  0.123500  0.679200  0.016800  1.0  0.0742
  H  H117  1  0.279800  0.689500  0.963900  1.0  0.0977
  H  H118  1  0.411300  0.559000  0.043200  1.0  0.1008
  H  H119  1  0.254500  0.548800  0.089600  1.0  0.0538
  H  H120  1  0.001100  0.880100  0.336100  1.0  0.0738
  H  H121  1  0.107600  0.865500  0.257900  1.0  0.082
  H  H122  1  0.906300  0.797800  0.226200  1.0  0.0777
  H  H123  1  0.806100  0.810200  0.306000  1.0  0.0798
  H  H124  1  0.368800  0.617700  0.418700  1.0  0.0539
  H  H125  1  0.505900  0.560000  0.425400  1.0  0.091
  H  H126  1  0.358100  0.504600  0.566600  1.0  0.0969
  H  H127  1  0.220400  0.569400  0.553200  1.0  0.064
  H  H128  1  0.406500  0.725300  0.081500  1.0  0.0737
  H  H129  1  0.557600  0.679400  0.102200  1.0  0.1034
  H  H130  1  0.694500  0.778800  0.997200  1.0  0.0874
  H  H131  1  0.543100  0.826100  0.980100  1.0  0.0969
  H  H132  1  0.455800  0.789000  0.927000  1.0  0.077
  H  H133  1  0.460200  0.786100  0.840100  1.0  0.0889
  H  H134  1  0.168900  0.859300  0.864700  1.0  0.0874
  H  H135  1  0.171600  0.860600  0.949600  1.0  0.0681
  H  H136  1  0.189800  0.820200  0.705600  1.0  0.0703
  H  H137  1  0.176400  0.819800  0.792000  1.0  0.0944
  H  H138  1  0.462800  0.834300  0.760100  1.0  0.0919
  H  H139  1  0.472200  0.831400  0.674000  1.0  0.0701
  H  H140  1  0.299400  0.873900  0.507300  1.0  0.0594
  H  H141  1  0.169700  0.897500  0.469900  1.0  0.1008
  H  H142  1  0.428000  0.674400  0.905800  1.0  0.1061
  H  H143  1  0.148700  0.800900  0.627500  1.0  0.0597
  H  H144  1  0.561000  0.854600  0.556400  1.0  0.066
  H  H145  1  0.619000  0.924700  0.508700  1.0  0.1063
  H  H146  1  0.333200  0.010400  0.534600  1.0  0.1086
  H  H147  1  0.283900  0.935800  0.578200  1.0  0.0545
  H  H148  1  0.673500  0.722100  0.631500  1.0  0.1266
  H  H149  1  0.702300  0.709200  0.573400  1.0  0.1294
  H  H150  1  0.647400  0.672000  0.618400  1.0  0.126
  H  H151  1  0.188900  0.909300  0.079300  1.0  0.0899
  H  H152  1  0.081400  0.910600  0.161000  1.0  0.0884
  H  H153  1  0.102000  0.755300  0.169500  1.0  0.0833
  H  H154  1  0.209600  0.754000  0.087800  1.0  0.0873
  H  H155  1  0.837000  0.043700  0.263500  1.0  0.1146
  H  H156  1  0.744000  0.073700  0.303100  1.0  0.1122
  H  H157  1  0.724900  0.047100  0.259500  1.0  0.1179
  H  H158  1  0.555200  0.917900  0.390700  1.0  0.0762
  H  H159  1  0.422300  0.875300  0.409500  1.0  0.1041
  H  H160  1  0.610900  0.743100  0.452700  1.0  0.0994
  H  H161  1  0.737300  0.785600  0.429800  1.0  0.0678
  H  H162  1  0.819500  0.820800  0.483200  1.0  0.075
  H  H163  1  0.933200  0.810500  0.536100  1.0  0.0994
  H  H164  1  0.013500  0.941000  0.456800  1.0  0.102
  H  H165  1  0.892900  0.951200  0.410400  1.0  0.0552
  H  H166  1  0.217300  0.619900  0.163900  1.0  0.0739
  H  H167  1  0.231000  0.634500  0.242100  1.0  0.0825
  H  H168  1  0.930300  0.702200  0.273800  1.0  0.0765
  H  H169  1  0.922300  0.689800  0.194000  1.0  0.0812
  H  H170  1  0.405200  0.882300  0.081300  1.0  0.0537
  H  H171  1  0.491300  0.940000  0.074600  1.0  0.0925
  H  H172  1  0.429300  0.995400  0.933400  1.0  0.0972
  H  H173  1  0.343000  0.930600  0.946800  1.0  0.0649
  H  H174  1  0.213300  0.774700  0.418500  1.0  0.0737
  H  H175  1  0.339200  0.820600  0.397800  1.0  0.1021
  H  H176  1  0.470500  0.721200  0.502800  1.0  0.0889
  H  H177  1  0.349300  0.673900  0.519900  1.0  0.0961
  H  H178  1  0.171800  0.711000  0.573000  1.0  0.0766
  H  H179  1  0.086400  0.713900  0.659900  1.0  0.089
  H  H180  1  0.892900  0.640700  0.635300  1.0  0.0878
  H  H181  1  0.981800  0.639400  0.550400  1.0  0.0675
  H  H182  1  0.715600  0.679800  0.794400  1.0  0.0709
  H  H183  1  0.788200  0.680200  0.708000  1.0  0.0929
  H  H184  1  0.057200  0.665700  0.739900  1.0  0.0929
  H  H185  1  0.977600  0.668600  0.826000  1.0  0.0722
  H  H186  1  0.680600  0.626100  0.992700  1.0  0.0584
  H  H187  1  0.537100  0.602500  0.030100  1.0  0.1021
  H  H188  1  0.008200  0.825600  0.594200  1.0  0.1062
  H  H189  1  0.577100  0.699100  0.872500  1.0  0.0579
  H  H190  1  0.972000  0.645400  0.943600  1.0  0.0658
  H  H191  1  0.052400  0.575300  0.991300  1.0  0.1055
  H  H192  1  0.878200  0.489600  0.965400  1.0  0.1081
  H  H193  1  0.797900  0.564200  0.921800  1.0  0.0525
  H  H194  1  0.027100  0.777900  0.868500  1.0  0.1246
  H  H195  1  0.984900  0.790800  0.926600  1.0  0.129
  H  H196  1  0.937800  0.828000  0.881600  1.0  0.1251
  H  H197  1  0.177500  0.590700  0.420700  1.0  0.0881
  H  H198  1  0.153000  0.589400  0.339000  1.0  0.0882
  H  H199  1  0.026800  0.744700  0.330500  1.0  0.0837
  H  H200  1  0.051400  0.746000  0.412200  1.0  0.0881
  W  W201  1  0.660090  0.561050  0.242590  1.0  2.2458
  W  W202  1  0.826240  0.463590  0.177670  1.0  2.063
  W  W203  1  0.472940  0.566810  0.167390  1.0  2.1141
  W  W204  1  0.405230  0.543340  0.309280  1.0  2.297
  W  W205  1  0.755990  0.444820  0.309020  1.0  2.0918
  W  W206  1  0.644560  0.472940  0.098820  1.0  2.1432
  W  W207  1  0.501420  0.425010  0.372330  1.0  2.2244
  W  W208  1  0.749150  0.345100  0.166740  1.0  2.2594
  W  W209  1  0.408740  0.454930  0.156970  1.0  2.2164
  W  W210  1  0.331850  0.434510  0.298930  1.0  2.2248
  W  W211  1  0.685470  0.324040  0.298440  1.0  2.1959
  W  W212  1  0.513550  0.329550  0.228950  1.0  2.1647
  W  W213  1  0.463730  0.938950  0.257410  1.0  2.2507
  W  W214  1  0.467500  0.036410  0.322330  1.0  2.0688
  W  W215  1  0.207140  0.933190  0.332610  1.0  2.1119
  W  W216  1  0.257850  0.956660  0.190720  1.0  2.2964
  W  W217  1  0.509830  0.055180  0.190980  1.0  2.091
  W  W218  1  0.216320  0.027060  0.401180  1.0  2.146
  W  W219  1  0.298760  0.074990  0.127670  1.0  2.2219
  W  W220  1  0.260990  0.154900  0.333260  1.0  2.2628
  W  W221  1  0.020640  0.045070  0.343030  1.0  2.2179
  W  W222  1  0.065290  0.065490  0.201070  1.0  2.223
  W  W223  1  0.307950  0.175960  0.201560  1.0  2.1906
  W  W224  1  0.072050  0.170450  0.271050  1.0  2.1636
  W  W225  1  0.339910  0.438950  0.757410  1.0  2.2484
  W  W226  1  0.173760  0.536410  0.822330  1.0  2.0705
  W  W227  1  0.527060  0.433190  0.832610  1.0  2.1142
  W  W228  1  0.594770  0.456660  0.690720  1.0  2.2963
  W  W229  1  0.244010  0.555180  0.690980  1.0  2.0939
  W  W230  1  0.355440  0.527060  0.901180  1.0  2.1469
  W  W231  1  0.498580  0.574990  0.627670  1.0  2.2227
  W  W232  1  0.250850  0.654900  0.833260  1.0  2.2635
  W  W233  1  0.591260  0.545070  0.843030  1.0  2.2178
  W  W234  1  0.668150  0.565490  0.701070  1.0  2.2226
  W  W235  1  0.314530  0.675960  0.701560  1.0  2.1916
  W  W236  1  0.486450  0.670450  0.771050  1.0  2.1628
  W  W237  1  0.536270  0.061050  0.742590  1.0  2.2543
  W  W238  1  0.532500  0.963590  0.677670  1.0  2.0627
  W  W239  1  0.792860  0.066810  0.667390  1.0  2.1147
  W  W240  1  0.742150  0.043340  0.809280  1.0  2.2973
  W  W241  1  0.490170  0.944820  0.809020  1.0  2.0943
  W  W242  1  0.783680  0.972940  0.598820  1.0  2.1425
  W  W243  1  0.701240  0.925010  0.872330  1.0  2.216
  W  W244  1  0.739010  0.845100  0.666740  1.0  2.2586
  W  W245  1  0.979360  0.954930  0.656970  1.0  2.2153
  W  W246  1  0.934710  0.934510  0.798930  1.0  2.2179
  W  W247  1  0.692050  0.824040  0.798440  1.0  2.1952
  W  W248  1  0.927950  0.829550  0.728950  1.0  2.1676
  C  C249  1  0.919500  0.495600  0.818000  1.0  0.3126
  C  C250  1  0.904500  0.544000  0.783200  1.0  -0.3832
  C  C251  1  0.149600  0.381400  0.901600  1.0  0.1373
  C  C252  1  0.242800  0.356300  0.914100  1.0  -0.1619
  C  C253  1  0.260800  0.303200  0.933200  1.0  0.0677
  C  C254  1  0.185000  0.278800  0.938800  1.0  -0.2127
  C  C255  1  0.097700  0.304500  0.924900  1.0  0.1393
  C  C256  1  0.817100  0.346000  0.978400  1.0  0.1354
  C  C257  1  0.723100  0.338400  0.008800  1.0  -0.1703
  C  C258  1  0.636700  0.371100  0.998900  1.0  0.0704
  C  C259  1  0.646600  0.415300  0.962700  1.0  -0.2276
  C  C260  1  0.741200  0.421400  0.935400  1.0  0.1524
  C  C261  1  0.017100  0.137100  0.686500  1.0  0.1439
  C  C262  1  0.953500  0.145600  0.733400  1.0  -0.1512
  C  C263  1  0.975900  0.170200  0.768800  1.0  -0.0776
  C  C264  1  0.073000  0.186000  0.751400  1.0  -0.1266
  C  C265  1  0.133300  0.178000  0.704200  1.0  0.1207
  C  C266  1  0.632700  0.405400  0.550200  1.0  0.1783
  C  C267  1  0.551600  0.440000  0.547200  1.0  -0.2458
  C  C268  1  0.545500  0.479300  0.503300  1.0  0.0059
  C  C269  1  0.637400  0.472400  0.464800  1.0  -0.2005
  C  C270  1  0.719500  0.432800  0.472800  1.0  0.1419
  C  C271  1  0.533900  0.263400  0.936000  1.0  0.1468
  C  C272  1  0.444000  0.291200  0.923400  1.0  -0.1874
  C  C273  1  0.359500  0.275700  0.947900  1.0  0.0308
  C  C274  1  0.365200  0.232200  0.984800  1.0  -0.1376
  C  C275  1  0.454100  0.204600  0.995800  1.0  0.0845
  C  C276  1  0.603400  0.196600  0.085600  1.0  0.1374
  C  C277  1  0.600300  0.197900  0.138100  1.0  -0.1896
  C  C278  1  0.686000  0.175400  0.158200  1.0  0.0988
  C  C279  1  0.770200  0.155100  0.124100  1.0  -0.1743
  C  C280  1  0.768700  0.154900  0.073100  1.0  0.1325
  C  C281  1  0.753500  0.177600  0.283200  1.0  0.1443
  C  C282  1  0.761700  0.178000  0.231400  1.0  -0.2
  C  C283  1  0.680600  0.175100  0.212700  1.0  0.0787
  C  C284  1  0.593600  0.170000  0.250000  1.0  -0.1882
  C  C285  1  0.588800  0.170800  0.301600  1.0  0.1549
  C  C286  1  0.760300  0.137000  0.474600  1.0  0.1558
  C  C287  1  0.836200  0.123300  0.497500  1.0  -0.2165
  C  C288  1  0.538600  0.360900  0.025900  1.0  0.0914
  C  C289  1  0.521900  0.334400  0.074800  1.0  -0.2461
  C  C290  1  0.846900  0.178600  0.405200  1.0  0.1485
  C  C291  1  0.486300  0.113500  0.449100  1.0  0.1515
  C  C292  1  0.450800  0.071700  0.477100  1.0  -0.1985
  C  C293  1  0.519000  0.022600  0.485000  1.0  0.023
  C  C294  1  0.617700  0.021300  0.462700  1.0  -0.2181
  C  C295  1  0.646600  0.066500  0.435900  1.0  0.1483
  C  C296  1  0.444500  0.260300  0.401300  1.0  0.2646
  C  C297  1  0.347300  0.291900  0.393900  1.0  -0.4142
  C  C298  1  0.828900  0.121800  0.902400  1.0  0.1341
  C  C299  1  0.892500  0.121200  0.853800  1.0  -0.0969
  C  C300  1  0.918000  0.166900  0.827100  1.0  -0.0296
  C  C301  1  0.879900  0.213400  0.848800  1.0  -0.1306
  C  C302  1  0.816200  0.214200  0.897400  1.0  0.1294
  C  C303  1  0.233100  0.004400  0.682000  1.0  0.3104
  C  C304  1  0.231700  0.956000  0.716800  1.0  -0.3844
  C  C305  1  0.432600  0.118600  0.598400  1.0  0.1361
  C  C306  1  0.513200  0.143700  0.585900  1.0  -0.1632
  C  C307  1  0.497200  0.196800  0.566800  1.0  0.0684
  C  C308  1  0.402600  0.221200  0.561200  1.0  -0.2111
  C  C309  1  0.327100  0.195500  0.575100  1.0  0.1385
  C  C310  1  0.141500  0.154000  0.521600  1.0  0.1347
  C  C311  1  0.070300  0.161600  0.491200  1.0  -0.1684
  C  C312  1  0.006700  0.128900  0.501100  1.0  0.0705
  C  C313  1  0.024600  0.084700  0.537300  1.0  -0.2264
  C  C314  1  0.098000  0.078600  0.564600  1.0  0.1547
  C  C315  1  0.840700  0.362900  0.813500  1.0  0.1464
  C  C316  1  0.832500  0.354400  0.766600  1.0  -0.1508
  C  C317  1  0.914900  0.329800  0.731200  1.0  -0.0805
  C  C318  1  0.010400  0.314000  0.748600  1.0  -0.127
  C  C319  1  0.015500  0.322000  0.795800  1.0  0.1243
  C  C320  1  0.588300  0.094600  0.949800  1.0  0.1778
  C  C321  1  0.538800  0.060000  0.952800  1.0  -0.245
  C  C322  1  0.528100  0.020700  0.996700  1.0  0.0041
  C  C323  1  0.574600  0.027600  0.035200  1.0  -0.1984
  C  C324  1  0.625100  0.067200  0.027200  1.0  0.1406
  C  C325  1  0.733300  0.236600  0.564000  1.0  0.1468
  C  C326  1  0.658600  0.208800  0.576600  1.0  -0.1872
  C  C327  1  0.583100  0.224300  0.552100  1.0  0.0308
  C  C328  1  0.582200  0.267800  0.515200  1.0  -0.1378
  C  C329  1  0.654500  0.295400  0.504200  1.0  0.0838
  C  C330  1  0.885600  0.303400  0.414400  1.0  0.1348
  C  C331  1  0.936300  0.302100  0.361900  1.0  -0.1903
  C  C332  1  0.019600  0.324600  0.341800  1.0  0.0989
  C  C333  1  0.049400  0.344900  0.375900  1.0  -0.1783
  C  C334  1  0.996700  0.345100  0.426900  1.0  0.1311
  C  C335  1  0.214300  0.322400  0.216800  1.0  0.1407
  C  C336  1  0.171100  0.322000  0.268600  1.0  -0.1981
  C  C337  1  0.068400  0.324900  0.287300  1.0  0.0799
  C  C338  1  0.013600  0.330000  0.250000  1.0  -0.189
  C  C339  1  0.061200  0.329200  0.198400  1.0  0.1554
  C  C340  1  0.371900  0.363000  0.025400  1.0  0.1566
  C  C341  1  0.457000  0.376700  0.002500  1.0  -0.2159
  C  C342  1  0.925400  0.139100  0.474100  1.0  0.0909
  C  C343  1  0.931100  0.165600  0.425200  1.0  -0.2462
  C  C344  1  0.430700  0.321400  0.094800  1.0  0.1475
  C  C345  1  0.048900  0.386500  0.050900  1.0  0.1518
  C  C346  1  0.999600  0.428300  0.022900  1.0  -0.1973
  C  C347  1  0.026600  0.477400  0.015000  1.0  0.0227
  C  C348  1  0.101700  0.478700  0.037300  1.0  -0.2186
  C  C349  1  0.149000  0.433500  0.064100  1.0  0.1508
  C  C350  1  0.106100  0.239700  0.098700  1.0  0.2614
  C  C351  1  0.033100  0.208100  0.106100  1.0  -0.4135
  C  C352  1  0.853100  0.378200  0.597600  1.0  0.1344
  C  C353  1  0.867500  0.378800  0.646200  1.0  -0.0968
  C  C354  1  0.912000  0.333100  0.672900  1.0  -0.0293
  C  C355  1  0.942100  0.286600  0.651200  1.0  -0.1304
  C  C356  1  0.927800  0.285800  0.602600  1.0  0.1317
  C  C357  1  0.080500  0.504400  0.182000  1.0  0.3102
  C  C358  1  0.095500  0.456000  0.216800  1.0  -0.3839
  C  C359  1  0.850400  0.618600  0.098400  1.0  0.1374
  C  C360  1  0.757200  0.643700  0.085900  1.0  -0.1613
  C  C361  1  0.739200  0.696800  0.066800  1.0  0.0695
  C  C362  1  0.815000  0.721200  0.061200  1.0  -0.2106
  C  C363  1  0.902300  0.695500  0.075100  1.0  0.1384
  C  C364  1  0.182900  0.654000  0.021600  1.0  0.1341
  C  C365  1  0.276900  0.661600  0.991200  1.0  -0.1692
  C  C366  1  0.363300  0.628900  0.001100  1.0  0.0694
  C  C367  1  0.353400  0.584700  0.037300  1.0  -0.2271
  C  C368  1  0.258800  0.578600  0.064600  1.0  0.1533
  C  C369  1  0.982900  0.862900  0.313500  1.0  0.1443
  C  C370  1  0.046500  0.854400  0.266600  1.0  -0.152
  C  C371  1  0.024100  0.829800  0.231200  1.0  -0.0794
  C  C372  1  0.927000  0.814000  0.248600  1.0  -0.1299
  C  C373  1  0.866700  0.822000  0.295800  1.0  0.1212
  C  C374  1  0.367300  0.594600  0.449800  1.0  0.1792
  C  C375  1  0.448400  0.560000  0.452800  1.0  -0.243
  C  C376  1  0.454500  0.520700  0.496700  1.0  0.0038
  C  C377  1  0.362600  0.527600  0.535200  1.0  -0.1995
  C  C378  1  0.280500  0.567200  0.527200  1.0  0.1419
  C  C379  1  0.466100  0.736600  0.064000  1.0  0.1463
  C  C380  1  0.556000  0.708800  0.076600  1.0  -0.1868
  C  C381  1  0.640500  0.724300  0.052100  1.0  0.0308
  C  C382  1  0.634800  0.767800  0.015200  1.0  -0.1359
  C  C383  1  0.545900  0.795400  0.004200  1.0  0.0837
  C  C384  1  0.396600  0.803400  0.914400  1.0  0.1372
  C  C385  1  0.399700  0.802100  0.861900  1.0  -0.1894
  C  C386  1  0.314000  0.824600  0.841800  1.0  0.0984
  C  C387  1  0.229800  0.844900  0.875900  1.0  -0.1756
  C  C388  1  0.231300  0.845100  0.926900  1.0  0.1332
  C  C389  1  0.246500  0.822400  0.716800  1.0  0.1451
  C  C390  1  0.238300  0.822000  0.768600  1.0  -0.1988
  C  C391  1  0.319400  0.824900  0.787300  1.0  0.0788
  C  C392  1  0.406400  0.830000  0.750000  1.0  -0.1901
  C  C393  1  0.411200  0.829200  0.698400  1.0  0.1549
  C  C394  1  0.239700  0.863000  0.525400  1.0  0.1558
  C  C395  1  0.163800  0.876700  0.502500  1.0  -0.2153
  C  C396  1  0.461400  0.639100  0.974100  1.0  0.0921
  C  C397  1  0.478100  0.665600  0.925200  1.0  -0.2461
  C  C398  1  0.153100  0.821400  0.594800  1.0  0.148
  C  C399  1  0.513700  0.886500  0.550900  1.0  0.1521
  C  C400  1  0.549200  0.928300  0.522900  1.0  -0.1991
  C  C401  1  0.481000  0.977400  0.515000  1.0  0.0228
  C  C402  1  0.382300  0.978700  0.537300  1.0  -0.2136
  C  C403  1  0.353400  0.933500  0.564100  1.0  0.1499
  C  C404  1  0.555500  0.739700  0.598700  1.0  0.2611
  C  C405  1  0.652700  0.708100  0.606100  1.0  -0.4146
  C  C406  1  0.171100  0.878200  0.097600  1.0  0.1336
  C  C407  1  0.107500  0.878800  0.146200  1.0  -0.096
  C  C408  1  0.082000  0.833100  0.172900  1.0  -0.0292
  C  C409  1  0.120100  0.786600  0.151200  1.0  -0.1304
  C  C410  1  0.183800  0.785800  0.102600  1.0  0.1299
  C  C411  1  0.766900  0.995600  0.318000  1.0  0.3119
  C  C412  1  0.768300  0.044000  0.283200  1.0  -0.3847
  C  C413  1  0.567400  0.881400  0.401600  1.0  0.1362
  C  C414  1  0.486800  0.856300  0.414100  1.0  -0.1623
  C  C415  1  0.502800  0.803200  0.433200  1.0  0.0673
  C  C416  1  0.597400  0.778800  0.438800  1.0  -0.213
  C  C417  1  0.672900  0.804500  0.424900  1.0  0.1388
  C  C418  1  0.858500  0.846000  0.478400  1.0  0.135
  C  C419  1  0.929700  0.838400  0.508800  1.0  -0.169
  C  C420  1  0.993300  0.871100  0.498900  1.0  0.0692
  C  C421  1  0.975400  0.915300  0.462700  1.0  -0.2264
  C  C422  1  0.902000  0.921400  0.435400  1.0  0.154
  C  C423  1  0.159300  0.637100  0.186500  1.0  0.147
  C  C424  1  0.167500  0.645600  0.233400  1.0  -0.1517
  C  C425  1  0.085100  0.670200  0.268800  1.0  -0.0785
  C  C426  1  0.989600  0.686000  0.251400  1.0  -0.1249
  C  C427  1  0.984500  0.678000  0.204200  1.0  0.1244
  C  C428  1  0.411700  0.905400  0.050200  1.0  0.1761
  C  C429  1  0.461200  0.940000  0.047200  1.0  -0.2399
  C  C430  1  0.471900  0.979300  0.003300  1.0  0.0063
  C  C431  1  0.425400  0.972400  0.964800  1.0  -0.2017
  C  C432  1  0.374900  0.932800  0.972800  1.0  0.1413
  C  C433  1  0.266700  0.763400  0.436000  1.0  0.1474
  C  C434  1  0.341400  0.791200  0.423400  1.0  -0.1865
  C  C435  1  0.416900  0.775700  0.447900  1.0  0.029
  C  C436  1  0.417800  0.732200  0.484800  1.0  -0.1385
  C  C437  1  0.345500  0.704600  0.495800  1.0  0.0844
  C  C438  1  0.114400  0.696600  0.585600  1.0  0.135
  C  C439  1  0.063700  0.697900  0.638100  1.0  -0.1891
  C  C440  1  0.980400  0.675400  0.658200  1.0  0.0979
  C  C441  1  0.950600  0.655100  0.624100  1.0  -0.1798
  C  C442  1  0.003300  0.654900  0.573100  1.0  0.1332
  C  C443  1  0.785700  0.677600  0.783200  1.0  0.1426
  C  C444  1  0.828900  0.678000  0.731400  1.0  -0.1965
  C  C445  1  0.931600  0.675100  0.712700  1.0  0.0794
  C  C446  1  0.986400  0.670000  0.750000  1.0  -0.1913
  C  C447  1  0.938800  0.670800  0.801600  1.0  0.1536
  C  C448  1  0.628100  0.637000  0.974600  1.0  0.1568
  C  C449  1  0.543000  0.623300  0.997500  1.0  -0.2168
  C  C450  1  0.074600  0.860900  0.525900  1.0  0.0916
  C  C451  1  0.068900  0.834400  0.574800  1.0  -0.2461
  C  C452  1  0.569300  0.678600  0.905200  1.0  0.1473
  C  C453  1  0.951100  0.613500  0.949100  1.0  0.151
  C  C454  1  0.000400  0.571700  0.977100  1.0  -0.1978
  C  C455  1  0.973400  0.522600  0.985000  1.0  0.0227
  C  C456  1  0.898300  0.521300  0.962700  1.0  -0.2153
  C  C457  1  0.851000  0.566500  0.935900  1.0  0.151
  C  C458  1  0.893900  0.760300  0.901300  1.0  0.2625
  C  C459  1  0.966900  0.791900  0.893900  1.0  -0.4151
  C  C460  1  0.146900  0.621800  0.402400  1.0  0.1357
  C  C461  1  0.132500  0.621200  0.353800  1.0  -0.0961
  C  C462  1  0.088000  0.666900  0.327100  1.0  -0.0293
  C  C463  1  0.057900  0.713400  0.348800  1.0  -0.1299
  C  C464  1  0.072200  0.714200  0.397400  1.0  0.1317
  N  N465  1  0.932600  0.457600  0.844200  1.0  -0.4088
  N  N466  1  0.078300  0.354700  0.904700  1.0  -0.3422
  N  N467  1  0.824400  0.388700  0.942300  1.0  -0.3335
  N  N468  1  0.108400  0.152900  0.670900  1.0  -0.3705
  N  N469  1  0.720100  0.397700  0.514300  1.0  -0.3384
  N  N470  1  0.540000  0.221700  0.971700  1.0  -0.3663
  N  N471  1  0.685000  0.176100  0.054700  1.0  -0.3307
  N  N472  1  0.668700  0.174500  0.318300  1.0  -0.3648
  N  N473  1  0.759800  0.165200  0.427200  1.0  -0.3855
  N  N474  1  0.584400  0.112300  0.428700  1.0  -0.3471
  N  N475  1  0.519300  0.234800  0.405000  1.0  -0.4761
  N  N476  1  0.790600  0.168400  0.924200  1.0  -0.3102
  N  N477  1  0.234400  0.042400  0.655800  1.0  -0.4123
  N  N478  1  0.337700  0.145300  0.595300  1.0  -0.3423
  N  N479  1  0.155400  0.111300  0.557700  1.0  -0.3353
  N  N480  1  0.932200  0.347100  0.829100  1.0  -0.3731
  N  N481  1  0.632100  0.102300  0.985700  1.0  -0.3381
  N  N482  1  0.733400  0.278300  0.528300  1.0  -0.3653
  N  N483  1  0.915800  0.323900  0.445300  1.0  -0.3317
  N  N484  1  0.161500  0.325500  0.181700  1.0  -0.3654
  N  N485  1  0.352200  0.334800  0.072800  1.0  -0.3857
  N  N486  1  0.125400  0.387700  0.071300  1.0  -0.3487
  N  N487  1  0.159100  0.265200  0.095000  1.0  -0.4749
  N  N488  1  0.883200  0.331600  0.575800  1.0  -0.3124
  N  N489  1  0.067400  0.542400  0.155800  1.0  -0.4124
  N  N490  1  0.921700  0.645300  0.095300  1.0  -0.3414
  N  N491  1  0.175600  0.611300  0.057700  1.0  -0.335
  N  N492  1  0.891600  0.847100  0.329100  1.0  -0.371
  N  N493  1  0.279900  0.602300  0.485700  1.0  -0.3385
  N  N494  1  0.460000  0.778300  0.028300  1.0  -0.3657
  N  N495  1  0.315000  0.823900  0.945300  1.0  -0.3312
  N  N496  1  0.331300  0.825500  0.681700  1.0  -0.3653
  N  N497  1  0.240200  0.834800  0.572800  1.0  -0.3862
  N  N498  1  0.415600  0.887700  0.571300  1.0  -0.3475
  N  N499  1  0.480700  0.765200  0.595000  1.0  -0.4772
  N  N500  1  0.209400  0.831600  0.075800  1.0  -0.3132
  N  N501  1  0.765600  0.957600  0.344200  1.0  -0.4084
  N  N502  1  0.662300  0.854700  0.404700  1.0  -0.3416
  N  N503  1  0.844600  0.888700  0.442300  1.0  -0.3368
  N  N504  1  0.067800  0.652900  0.170900  1.0  -0.3731
  N  N505  1  0.367900  0.897700  0.014300  1.0  -0.3397
  N  N506  1  0.266600  0.721700  0.471700  1.0  -0.3638
  N  N507  1  0.084200  0.676100  0.554700  1.0  -0.3318
  N  N508  1  0.838500  0.674500  0.818300  1.0  -0.3645
  N  N509  1  0.647800  0.665200  0.927200  1.0  -0.3861
  N  N510  1  0.874600  0.612300  0.928700  1.0  -0.3501
  N  N511  1  0.840900  0.734800  0.905000  1.0  -0.4758
  N  N512  1  0.116800  0.668400  0.424200  1.0  -0.3115
  O  O513  1  0.675500  0.620800  0.245200  1.0  -0.5809
  O  O514  1  0.723700  0.518800  0.295800  1.0  -0.7271
  O  O515  1  0.533400  0.557400  0.291800  1.0  -0.7447
  O  O516  1  0.583700  0.574500  0.191700  1.0  -0.7457
  O  O517  1  0.778000  0.534600  0.194200  1.0  -0.735
  O  O518  1  0.666667  0.469500  0.239100  1.0  -0.7518
  O  O519  1  0.939700  0.466400  0.140400  1.0  -0.6569
  O  O520  1  0.853400  0.445000  0.244600  1.0  -0.7028
  O  O521  1  0.743200  0.483400  0.128600  1.0  -0.7666
  O  O522  1  0.816400  0.394400  0.176600  1.0  -0.7593
  O  O523  1  0.422100  0.628700  0.144500  1.0  -0.6468
  O  O524  1  0.570200  0.542800  0.107800  1.0  -0.7486
  O  O525  1  0.387500  0.530200  0.151600  1.0  -0.6934
  O  O526  1  0.405100  0.561900  0.237100  1.0  -0.7146
  O  O527  1  0.543200  0.473400  0.187200  1.0  -0.7526
  O  O528  1  0.331400  0.598000  0.334600  1.0  -0.5552
  O  O529  1  0.306500  0.504000  0.312400  1.0  -0.729
  O  O530  1  0.436600  0.497800  0.368000  1.0  -0.729
  O  O531  1  0.492400  0.457900  0.282500  1.0  -0.7431
  O  O532  1  0.831400  0.434500  0.351300  1.0  -0.6335
  O  O533  1  0.752600  0.375900  0.300300  1.0  -0.7414
  O  O534  1  0.625200  0.446700  0.352300  1.0  -0.765
  O  O535  1  0.699900  0.478200  0.034800  1.0  -0.6229
  O  O536  1  0.690000  0.399500  0.122500  1.0  -0.781
  O  O537  1  0.518800  0.457100  0.100300  1.0  -0.7498
  O  O538  1  0.488500  0.407600  0.437200  1.0  -0.6429
  O  O539  1  0.575000  0.362300  0.344500  1.0  -0.7962
  O  O540  1  0.381600  0.414300  0.361300  1.0  -0.7576
  O  O541  1  0.840100  0.307000  0.125800  1.0  -0.6227
  O  O542  1  0.768700  0.309500  0.233700  1.0  -0.7854
  O  O543  1  0.636500  0.314500  0.178500  1.0  -0.7391
  O  O544  1  0.614700  0.388000  0.233000  1.0  -0.7579
  O  O545  1  0.317600  0.449800  0.129400  1.0  -0.6337
  O  O546  1  0.339800  0.456700  0.227500  1.0  -0.7253
  O  O547  1  0.467200  0.385000  0.178600  1.0  -0.7415
  O  O548  1  0.215200  0.422100  0.319700  1.0  -0.6272
  O  O549  1  0.415700  0.369600  0.277200  1.0  -0.7285
  O  O550  1  0.734200  0.273100  0.338500  1.0  -0.6689
  O  O551  1  0.588700  0.297000  0.279800  1.0  -0.7741
  O  O552  1  0.458000  0.281800  0.224200  1.0  -0.6397
  O  O553  1  0.541500  0.879200  0.254800  1.0  -0.5793
  O  O554  1  0.538300  0.981200  0.204200  1.0  -0.7242
  O  O555  1  0.382600  0.942600  0.208200  1.0  -0.7451
  O  O556  1  0.349900  0.925500  0.308300  1.0  -0.7436
  O  O557  1  0.506800  0.965400  0.305800  1.0  -0.7357
  O  O558  1  0.375200  0.030500  0.260900  1.0  -0.7515
  O  O559  1  0.546500  0.033600  0.359600  1.0  -0.6557
  O  O560  1  0.543000  0.055000  0.255400  1.0  -0.7015
  O  O561  1  0.355200  0.016600  0.371400  1.0  -0.7668
  O  O562  1  0.387400  0.105600  0.323400  1.0  -0.7615
  O  O563  1  0.195300  0.871300  0.355500  1.0  -0.6485
  O  O564  1  0.220800  0.957200  0.392200  1.0  -0.7468
  O  O565  1  0.069300  0.969800  0.348400  1.0  -0.6959
  O  O566  1  0.204100  0.938100  0.262900  1.0  -0.7131
  O  O567  1  0.203800  0.026600  0.312800  1.0  -0.7531
  O  O568  1  0.264000  0.902000  0.165400  1.0  -0.5565
  O  O569  1  0.122900  0.996000  0.187600  1.0  -0.7296
  O  O570  1  0.302400  0.002200  0.132000  1.0  -0.7311
  O  O571  1  0.232800  0.042100  0.217500  1.0  -0.7455
  O  O572  1  0.617200  0.065500  0.148700  1.0  -0.633
  O  O573  1  0.428800  0.124100  0.199700  1.0  -0.7401
  O  O574  1  0.424200  0.053300  0.147700  1.0  -0.7657
  O  O575  1  0.212900  0.021800  0.465200  1.0  -0.6235
  O  O576  1  0.212000  0.100500  0.377500  1.0  -0.7807
  O  O577  1  0.076200  0.042900  0.399700  1.0  -0.7469
  O  O578  1  0.333333  0.092400  0.062800  1.0  -0.6456
  O  O579  1  0.281800  0.137700  0.155500  1.0  -0.7973
  O  O580  1  0.157200  0.085700  0.138700  1.0  -0.7639
  O  O581  1  0.272900  0.193000  0.374200  1.0  -0.6222
  O  O582  1  0.311900  0.190500  0.266300  1.0  -0.7852
  O  O583  1  0.129500  0.185500  0.321500  1.0  -0.7348
  O  O584  1  0.235700  0.112000  0.267000  1.0  -0.757
  O  O585  1  0.896800  0.050200  0.370600  1.0  -0.6314
  O  O586  1  0.024000  0.043300  0.272500  1.0  -0.7265
  O  O587  1  0.030800  0.115000  0.321400  1.0  -0.7414
  O  O588  1  0.957000  0.077900  0.180300  1.0  -0.6246
  O  O589  1  0.062500  0.130400  0.222800  1.0  -0.7284
  O  O590  1  0.345800  0.226900  0.161500  1.0  -0.6724
  O  O591  1  0.165500  0.203000  0.220200  1.0  -0.776
  O  O592  1  0.964000  0.218200  0.275800  1.0  -0.6405
  O  O593  1  0.324500  0.379200  0.754800  1.0  -0.5815
  O  O594  1  0.276300  0.481200  0.704200  1.0  -0.7285
  O  O595  1  0.466600  0.442600  0.708200  1.0  -0.7472
  O  O596  1  0.416300  0.425500  0.808300  1.0  -0.7449
  O  O597  1  0.222000  0.465400  0.805800  1.0  -0.7369
  O  O598  1  0.333400  0.530500  0.760900  1.0  -0.7503
  O  O599  1  0.060300  0.533600  0.859600  1.0  -0.6561
  O  O600  1  0.146600  0.555000  0.755400  1.0  -0.7049
  O  O601  1  0.256800  0.516600  0.871400  1.0  -0.7654
  O  O602  1  0.183600  0.605600  0.823400  1.0  -0.7589
  O  O603  1  0.577900  0.371300  0.855500  1.0  -0.649
  O  O604  1  0.429800  0.457200  0.892200  1.0  -0.7481
  O  O605  1  0.612500  0.469800  0.848400  1.0  -0.6931
  O  O606  1  0.594900  0.438100  0.762900  1.0  -0.7131
  O  O607  1  0.456800  0.526600  0.812800  1.0  -0.7527
  O  O608  1  0.668600  0.402000  0.665400  1.0  -0.5557
  O  O609  1  0.693500  0.496000  0.687600  1.0  -0.729
  O  O610  1  0.563400  0.502200  0.632000  1.0  -0.7298
  O  O611  1  0.507600  0.542100  0.717500  1.0  -0.7437
  O  O612  1  0.168600  0.565500  0.648700  1.0  -0.6321
  O  O613  1  0.247400  0.624100  0.699700  1.0  -0.7419
  O  O614  1  0.374800  0.553300  0.647700  1.0  -0.7671
  O  O615  1  0.300100  0.521800  0.965200  1.0  -0.6232
  O  O616  1  0.310000  0.600500  0.877500  1.0  -0.7802
  O  O617  1  0.481200  0.542900  0.899700  1.0  -0.7487
  O  O618  1  0.511500  0.592400  0.562800  1.0  -0.6435
  O  O619  1  0.425000  0.637700  0.655500  1.0  -0.795
  O  O620  1  0.618400  0.585700  0.638700  1.0  -0.7581
  O  O621  1  0.159900  0.693000  0.874200  1.0  -0.622
  O  O622  1  0.231300  0.690500  0.766300  1.0  -0.787
  O  O623  1  0.363500  0.685500  0.821500  1.0  -0.7351
  O  O624  1  0.385300  0.612000  0.767000  1.0  -0.7573
  O  O625  1  0.682400  0.550200  0.870600  1.0  -0.6325
  O  O626  1  0.660200  0.543300  0.772500  1.0  -0.7252
  O  O627  1  0.532800  0.615000  0.821400  1.0  -0.7417
  O  O628  1  0.784800  0.577900  0.680300  1.0  -0.6274
  O  O629  1  0.584300  0.630400  0.722800  1.0  -0.7279
  O  O630  1  0.265800  0.726900  0.661500  1.0  -0.6718
  O  O631  1  0.411300  0.703000  0.720200  1.0  -0.7738
  O  O632  1  0.542000  0.718200  0.775800  1.0  -0.6395
  O  O633  1  0.458500  0.120800  0.745200  1.0  -0.579
  O  O634  1  0.461700  0.018800  0.795800  1.0  -0.7237
  O  O635  1  0.617400  0.057400  0.791800  1.0  -0.7449
  O  O636  1  0.650100  0.074500  0.691700  1.0  -0.7459
  O  O637  1  0.493200  0.034600  0.694200  1.0  -0.7347
  O  O638  1  0.624800  0.969500  0.739100  1.0  -0.7505
  O  O639  1  0.453500  0.966400  0.640400  1.0  -0.6565
  O  O640  1  0.457000  0.945000  0.744600  1.0  -0.7045
  O  O641  1  0.644800  0.983400  0.628600  1.0  -0.7674
  O  O642  1  0.612600  0.894400  0.676600  1.0  -0.7632
  O  O643  1  0.804700  0.128700  0.644500  1.0  -0.6476
  O  O644  1  0.779200  0.042800  0.607800  1.0  -0.75
  O  O645  1  0.930700  0.030200  0.651600  1.0  -0.693
  O  O646  1  0.795900  0.061900  0.737100  1.0  -0.7146
  O  O647  1  0.796200  0.973400  0.687200  1.0  -0.7522
  O  O648  1  0.736000  0.098000  0.834600  1.0  -0.557
  O  O649  1  0.877100  0.004000  0.812400  1.0  -0.7266
  O  O650  1  0.697600  0.997800  0.868000  1.0  -0.7296
  O  O651  1  0.767200  0.957900  0.782500  1.0  -0.7443
  O  O652  1  0.382800  0.934500  0.851300  1.0  -0.6324
  O  O653  1  0.571200  0.875900  0.800300  1.0  -0.7411
  O  O654  1  0.575800  0.946700  0.852300  1.0  -0.7634
  O  O655  1  0.787100  0.978200  0.534800  1.0  -0.6238
  O  O656  1  0.788000  0.899500  0.622500  1.0  -0.7823
  O  O657  1  0.923800  0.957100  0.600300  1.0  -0.7496
  O  O658  1  0.666667  0.907600  0.937200  1.0  -0.6448
  O  O659  1  0.718200  0.862300  0.844500  1.0  -0.7949
  O  O660  1  0.842800  0.914300  0.861300  1.0  -0.7588
  O  O661  1  0.727100  0.807000  0.625800  1.0  -0.6232
  O  O662  1  0.688100  0.809500  0.733700  1.0  -0.7861
  O  O663  1  0.870500  0.814500  0.678500  1.0  -0.739
  O  O664  1  0.764300  0.888000  0.733000  1.0  -0.7576
  O  O665  1  0.103200  0.949800  0.629400  1.0  -0.6321
  O  O666  1  0.976000  0.956700  0.727500  1.0  -0.7269
  O  O667  1  0.969200  0.885000  0.678600  1.0  -0.7416
  O  O668  1  0.043000  0.922100  0.819700  1.0  -0.6252
  O  O669  1  0.937500  0.869600  0.777200  1.0  -0.7289
  O  O670  1  0.654200  0.773100  0.838500  1.0  -0.6706
  O  O671  1  0.834500  0.797000  0.779800  1.0  -0.7754
  O  O672  1  0.036000  0.781800  0.724200  1.0  -0.6398
