# generated using pymatgen
data_CoPO4
_symmetry_space_group_name_H-M   'P 1'
_cell_length_a   13.04690000
_cell_length_b   14.12600000
_cell_length_c   14.21050000
_cell_angle_alpha   90.00000000
_cell_angle_beta   91.11000000
_cell_angle_gamma   90.00000000
_symmetry_Int_Tables_number   1
_chemical_formula_structural   CoPO4
_chemical_formula_sum   'Co20 P20 O80'
_cell_volume   2618.51092336
_cell_formula_units_Z   20
loop_
 _symmetry_equiv_pos_site_id
 _symmetry_equiv_pos_as_xyz
  1  'x, y, z'
loop_
 _atom_site_type_symbol
 _atom_site_label
 _atom_site_symmetry_multiplicity
 _atom_site_fract_x
 _atom_site_fract_y
 _atom_site_fract_z
 _atom_site_occupancy
 _atom_site_charge
  Co  Co1  1  0.230610  0.123320  0.263020  1.0  1.145
  Co  Co2  1  0.943380  0.999030  0.318710  1.0  1.1678
  Co  Co3  1  0.243460  0.872170  0.283500  1.0  1.1215
  Co  Co4  1  0.156210  0.008240  0.670850  1.0  1.1318
  Co  Co5  1  0.614570  0.020640  0.414330  1.0  1.1157
  Co  Co6  1  0.746300  0.624700  0.317630  1.0  1.1692
  Co  Co7  1  0.778970  0.378740  0.303240  1.0  1.1213
  Co  Co8  1  0.052760  0.532250  0.271370  1.0  1.0915
  Co  Co9  1  0.340790  0.484940  0.415520  1.0  1.1327
  Co  Co10  1  0.377900  0.482110  0.168900  1.0  1.1275
  Co  Co11  1  0.730610  0.876680  0.763020  1.0  1.1457
  Co  Co12  1  0.443380  0.000970  0.818710  1.0  1.1677
  Co  Co13  1  0.743460  0.127830  0.783500  1.0  1.1216
  Co  Co14  1  0.656210  0.991760  0.170850  1.0  1.1321
  Co  Co15  1  0.114570  0.979360  0.914330  1.0  1.1155
  Co  Co16  1  0.246300  0.375300  0.817630  1.0  1.1718
  Co  Co17  1  0.278970  0.621260  0.803240  1.0  1.1215
  Co  Co18  1  0.552760  0.467750  0.771370  1.0  1.0912
  Co  Co19  1  0.840790  0.515060  0.915520  1.0  1.1329
  Co  Co20  1  0.877900  0.517890  0.668900  1.0  1.1272
  P  P21  1  0.096890  0.983870  0.143030  1.0  1.7593
  P  P22  1  0.142570  0.997770  0.437210  1.0  1.8097
  P  P23  1  0.771410  0.145510  0.301240  1.0  1.728
  P  P24  1  0.437070  0.012700  0.261390  1.0  1.7941
  P  P25  1  0.749630  0.858670  0.331340  1.0  1.7241
  P  P26  1  0.854260  0.533810  0.146340  1.0  1.8169
  P  P27  1  0.900750  0.509240  0.439400  1.0  1.815
  P  P28  1  0.560600  0.482750  0.318340  1.0  1.7616
  P  P29  1  0.251660  0.644520  0.287210  1.0  1.8138
  P  P30  1  0.220160  0.360060  0.256660  1.0  1.7724
  P  P31  1  0.596890  0.016130  0.643030  1.0  1.7603
  P  P32  1  0.642570  0.002230  0.937210  1.0  1.8096
  P  P33  1  0.271410  0.854490  0.801240  1.0  1.7285
  P  P34  1  0.937070  0.987300  0.761390  1.0  1.7945
  P  P35  1  0.249630  0.141330  0.831340  1.0  1.7246
  P  P36  1  0.354260  0.466190  0.646340  1.0  1.8464
  P  P37  1  0.400750  0.490760  0.939400  1.0  1.8155
  P  P38  1  0.060600  0.517250  0.818340  1.0  1.7616
  P  P39  1  0.751660  0.355480  0.787210  1.0  1.8133
  P  P40  1  0.720160  0.639940  0.756660  1.0  1.7727
  O  O41  1  0.139600  0.890800  0.184100  1.0  -0.7224
  O  O42  1  0.176400  0.063500  0.147100  1.0  -0.6986
  O  O43  1  0.999000  0.011000  0.194700  1.0  -0.7507
  O  O44  1  0.204600  0.910100  0.406900  1.0  -0.7096
  O  O45  1  0.157700  0.080300  0.370600  1.0  -0.7924
  O  O46  1  0.028800  0.971500  0.431100  1.0  -0.6962
  O  O47  1  0.174700  0.024600  0.537100  1.0  -0.7795
  O  O48  1  0.759000  0.083300  0.212400  1.0  -0.7111
  O  O49  1  0.678600  0.136900  0.366100  1.0  -0.7075
  O  O50  1  0.868300  0.110500  0.356100  1.0  -0.6894
  O  O51  1  0.785900  0.247200  0.271000  1.0  -0.7799
  O  O52  1  0.515500  0.026400  0.183700  1.0  -0.7158
  O  O53  1  0.485900  0.985300  0.355100  1.0  -0.7184
  O  O54  1  0.378000  0.105800  0.272100  1.0  -0.7042
  O  O55  1  0.362600  0.934300  0.229400  1.0  -0.728
  O  O56  1  0.683700  0.877800  0.242000  1.0  -0.7192
  O  O57  1  0.066300  0.966300  0.040100  1.0  -0.7701
  O  O58  1  0.716800  0.919600  0.414000  1.0  -0.7172
  O  O59  1  0.865100  0.878200  0.312700  1.0  -0.6902
  O  O60  1  0.739600  0.754700  0.361600  1.0  -0.7612
  O  O61  1  0.802000  0.566700  0.430100  1.0  -0.7019
  O  O62  1  0.822100  0.622700  0.202500  1.0  -0.6968
  O  O63  1  0.814900  0.543700  0.045200  1.0  -0.7413
  O  O64  1  0.971100  0.528200  0.151000  1.0  -0.6901
  O  O65  1  0.803700  0.447500  0.187600  1.0  -0.7972
  O  O66  1  0.886600  0.412200  0.392300  1.0  -0.7115
  O  O67  1  0.988800  0.562300  0.390600  1.0  -0.707
  O  O68  1  0.644100  0.410600  0.347700  1.0  -0.7086
  O  O69  1  0.487900  0.489700  0.400500  1.0  -0.7413
  O  O70  1  0.606600  0.580200  0.299600  1.0  -0.7108
  O  O71  1  0.507400  0.445900  0.228700  1.0  -0.7071
  O  O72  1  0.931100  0.498400  0.542400  1.0  -0.7366
  O  O73  1  0.321000  0.597700  0.215800  1.0  -0.8351
  O  O74  1  0.140200  0.643900  0.251400  1.0  -0.6878
  O  O75  1  0.290500  0.746500  0.297300  1.0  -0.7037
  O  O76  1  0.258900  0.593600  0.382200  1.0  -0.7009
  O  O77  1  0.303000  0.378100  0.331500  1.0  -0.7259
  O  O78  1  0.120800  0.411800  0.279200  1.0  -0.7906
  O  O79  1  0.193900  0.255100  0.251600  1.0  -0.7791
  O  O80  1  0.262100  0.391500  0.160700  1.0  -0.6999
  O  O81  1  0.639600  0.109200  0.684100  1.0  -0.7207
  O  O82  1  0.676400  0.936500  0.647100  1.0  -0.6995
  O  O83  1  0.499000  0.989000  0.694700  1.0  -0.7511
  O  O84  1  0.704600  0.089900  0.906900  1.0  -0.7083
  O  O85  1  0.657700  0.919700  0.870600  1.0  -0.7912
  O  O86  1  0.528800  0.028500  0.931100  1.0  -0.6961
  O  O87  1  0.674700  0.975400  0.037100  1.0  -0.7801
  O  O88  1  0.259000  0.916700  0.712400  1.0  -0.7105
  O  O89  1  0.178600  0.863100  0.866100  1.0  -0.7072
  O  O90  1  0.368300  0.889500  0.856100  1.0  -0.6902
  O  O91  1  0.285900  0.752800  0.771000  1.0  -0.7807
  O  O92  1  0.015500  0.973600  0.683700  1.0  -0.7156
  O  O93  1  0.985900  0.014700  0.855100  1.0  -0.7185
  O  O94  1  0.878000  0.894200  0.772100  1.0  -0.7057
  O  O95  1  0.862600  0.065700  0.729400  1.0  -0.7278
  O  O96  1  0.183700  0.122200  0.742000  1.0  -0.7201
  O  O97  1  0.566300  0.033700  0.540100  1.0  -0.7697
  O  O98  1  0.216800  0.080400  0.914000  1.0  -0.7178
  O  O99  1  0.365100  0.121800  0.812700  1.0  -0.69
  O  O100  1  0.239600  0.245300  0.861600  1.0  -0.7611
  O  O101  1  0.302000  0.433300  0.930100  1.0  -0.7026
  O  O102  1  0.322100  0.377300  0.702500  1.0  -0.6969
  O  O103  1  0.314900  0.456300  0.545200  1.0  -0.7417
  O  O104  1  0.471100  0.471800  0.651000  1.0  -0.69
  O  O105  1  0.303700  0.552500  0.687600  1.0  -0.7978
  O  O106  1  0.386600  0.587800  0.892300  1.0  -0.7105
  O  O107  1  0.488800  0.437700  0.890600  1.0  -0.7072
  O  O108  1  0.144100  0.589400  0.847700  1.0  -0.7098
  O  O109  1  0.987900  0.510300  0.900500  1.0  -0.7417
  O  O110  1  0.106600  0.419800  0.799600  1.0  -0.7104
  O  O111  1  0.007400  0.554100  0.728700  1.0  -0.707
  O  O112  1  0.431100  0.501600  0.042400  1.0  -0.7365
  O  O113  1  0.821000  0.402300  0.715800  1.0  -0.8345
  O  O114  1  0.640200  0.356100  0.751400  1.0  -0.6878
  O  O115  1  0.790500  0.253500  0.797300  1.0  -0.7041
  O  O116  1  0.758900  0.406400  0.882200  1.0  -0.7005
  O  O117  1  0.803000  0.621900  0.831500  1.0  -0.7271
  O  O118  1  0.620800  0.588200  0.779200  1.0  -0.7907
  O  O119  1  0.693900  0.744900  0.751600  1.0  -0.7791
  O  O120  1  0.762100  0.608500  0.660700  1.0  -0.7004
