# generated using pymatgen
data_Zn4H12C24O13
_symmetry_space_group_name_H-M   'P 1'
_cell_length_a   18.26600000
_cell_length_b   18.26600000
_cell_length_c   18.26600000
_cell_angle_alpha   60.00000000
_cell_angle_beta   60.00000000
_cell_angle_gamma   60.00000000
_symmetry_Int_Tables_number   1
_chemical_formula_structural   Zn4H12C24O13
_chemical_formula_sum   'Zn8 H24 C48 O26'
_cell_volume   4309.38565945
_cell_formula_units_Z   2
loop_
 _symmetry_equiv_pos_site_id
 _symmetry_equiv_pos_as_xyz
  1  'x, y, z'
loop_
 _atom_site_type_symbol
 _atom_site_label
 _atom_site_symmetry_multiplicity
 _atom_site_fract_x
 _atom_site_fract_y
 _atom_site_fract_z
 _atom_site_occupancy
 _atom_site_charge
  Zn  Zn1  1  0.293380  0.293380  0.293380  1.0  1.1035
  Zn  Zn2  1  0.293380  0.293380  0.119860  1.0  1.103
  Zn  Zn3  1  0.293380  0.119860  0.293380  1.0  1.1017
  Zn  Zn4  1  0.119860  0.293380  0.293380  1.0  1.1019
  Zn  Zn5  1  0.706620  0.706620  0.706620  1.0  1.1032
  Zn  Zn6  1  0.706620  0.706620  0.880140  1.0  1.1038
  Zn  Zn7  1  0.880140  0.706620  0.706620  1.0  1.102
  Zn  Zn8  1  0.706620  0.880140  0.706620  1.0  1.1019
  H  H9  1  0.154600  0.455200  0.455200  1.0  0.1135
  H  H10  1  0.455200  0.154600  0.935000  1.0  0.1151
  H  H11  1  0.455200  0.935000  0.154600  1.0  0.1151
  H  H12  1  0.935000  0.455200  0.455200  1.0  0.1147
  H  H13  1  0.154600  0.455200  0.935000  1.0  0.1135
  H  H14  1  0.455200  0.935000  0.455200  1.0  0.1148
  H  H15  1  0.455200  0.154600  0.455200  1.0  0.1151
  H  H16  1  0.935000  0.455200  0.154600  1.0  0.1147
  H  H17  1  0.154600  0.935000  0.455200  1.0  0.1139
  H  H18  1  0.455200  0.455200  0.154600  1.0  0.1143
  H  H19  1  0.455200  0.455200  0.935000  1.0  0.1145
  H  H20  1  0.935000  0.154600  0.455200  1.0  0.1147
  H  H21  1  0.544800  0.845400  0.544800  1.0  0.1149
  H  H22  1  0.845400  0.544800  0.065000  1.0  0.1142
  H  H23  1  0.065000  0.544800  0.845400  1.0  0.1152
  H  H24  1  0.544800  0.065000  0.544800  1.0  0.115
  H  H25  1  0.544800  0.845400  0.065000  1.0  0.1151
  H  H26  1  0.065000  0.544800  0.544800  1.0  0.1149
  H  H27  1  0.845400  0.544800  0.544800  1.0  0.1143
  H  H28  1  0.544800  0.065000  0.845400  1.0  0.1152
  H  H29  1  0.065000  0.845400  0.544800  1.0  0.1151
  H  H30  1  0.544800  0.544800  0.845400  1.0  0.1148
  H  H31  1  0.544800  0.544800  0.065000  1.0  0.1145
  H  H32  1  0.845400  0.065000  0.544800  1.0  0.1139
  C  C33  1  0.092700  0.473100  0.473100  1.0  -0.0565
  C  C34  1  0.473100  0.092700  0.961100  1.0  -0.0564
  C  C35  1  0.473100  0.961100  0.092700  1.0  -0.0573
  C  C36  1  0.961100  0.473100  0.473100  1.0  -0.0567
  C  C37  1  0.092700  0.473100  0.961100  1.0  -0.0569
  C  C38  1  0.473100  0.961100  0.473100  1.0  -0.0574
  C  C39  1  0.473100  0.092700  0.473100  1.0  -0.0557
  C  C40  1  0.961100  0.473100  0.092700  1.0  -0.0566
  C  C41  1  0.092700  0.961100  0.473100  1.0  -0.0569
  C  C42  1  0.473100  0.473100  0.092700  1.0  -0.0576
  C  C43  1  0.473100  0.473100  0.961100  1.0  -0.0568
  C  C44  1  0.961100  0.092700  0.473100  1.0  -0.056
  C  C45  1  0.526900  0.907300  0.526900  1.0  -0.0557
  C  C46  1  0.907300  0.526900  0.038900  1.0  -0.0572
  C  C47  1  0.038900  0.526900  0.907300  1.0  -0.057
  C  C48  1  0.526900  0.038900  0.526900  1.0  -0.0568
  C  C49  1  0.526900  0.907300  0.038900  1.0  -0.0554
  C  C50  1  0.038900  0.526900  0.526900  1.0  -0.0563
  C  C51  1  0.907300  0.526900  0.526900  1.0  -0.0572
  C  C52  1  0.526900  0.038900  0.907300  1.0  -0.0575
  C  C53  1  0.038900  0.907300  0.526900  1.0  -0.056
  C  C54  1  0.526900  0.526900  0.907300  1.0  -0.0576
  C  C55  1  0.526900  0.526900  0.038900  1.0  -0.0575
  C  C56  1  0.907300  0.038900  0.526900  1.0  -0.0572
  C  C57  1  0.111300  0.388700  0.388700  1.0  0.6736
  C  C58  1  0.053800  0.446200  0.446200  1.0  -0.1149
  C  C59  1  0.388700  0.111300  0.111300  1.0  0.6739
  C  C60  1  0.446200  0.053800  0.053800  1.0  -0.1148
  C  C61  1  0.111300  0.388700  0.111300  1.0  0.6742
  C  C62  1  0.053800  0.446200  0.053800  1.0  -0.1143
  C  C63  1  0.388700  0.111300  0.388700  1.0  0.6738
  C  C64  1  0.446200  0.053800  0.446200  1.0  -0.1152
  C  C65  1  0.111300  0.111300  0.388700  1.0  0.6739
  C  C66  1  0.053800  0.053800  0.446200  1.0  -0.1136
  C  C67  1  0.388700  0.388700  0.111300  1.0  0.6747
  C  C68  1  0.446200  0.446200  0.053800  1.0  -0.114
  C  C69  1  0.611300  0.888700  0.611300  1.0  0.6742
  C  C70  1  0.553800  0.946200  0.553800  1.0  -0.1143
  C  C71  1  0.888700  0.611300  0.888700  1.0  0.6738
  C  C72  1  0.946200  0.553800  0.946200  1.0  -0.1152
  C  C73  1  0.611300  0.888700  0.888700  1.0  0.6736
  C  C74  1  0.553800  0.946200  0.946200  1.0  -0.1149
  C  C75  1  0.888700  0.611300  0.611300  1.0  0.6739
  C  C76  1  0.946200  0.553800  0.553800  1.0  -0.1148
  C  C77  1  0.888700  0.888700  0.611300  1.0  0.6747
  C  C78  1  0.946200  0.946200  0.553800  1.0  -0.114
  C  C79  1  0.611300  0.611300  0.888700  1.0  0.6739
  C  C80  1  0.553800  0.553800  0.946200  1.0  -0.1136
  O  O81  1  0.250000  0.250000  0.250000  1.0  -1.2615
  O  O82  1  0.750000  0.750000  0.750000  1.0  -1.2615
  O  O83  1  0.197770  0.366000  0.366000  1.0  -0.5996
  O  O84  1  0.366000  0.197770  0.070230  1.0  -0.6009
  O  O85  1  0.366000  0.070230  0.197770  1.0  -0.6
  O  O86  1  0.070230  0.366000  0.366000  1.0  -0.5997
  O  O87  1  0.197770  0.366000  0.070230  1.0  -0.5992
  O  O88  1  0.366000  0.070230  0.366000  1.0  -0.6001
  O  O89  1  0.366000  0.197770  0.366000  1.0  -0.601
  O  O90  1  0.070230  0.366000  0.197770  1.0  -0.5996
  O  O91  1  0.197770  0.070230  0.366000  1.0  -0.5993
  O  O92  1  0.366000  0.366000  0.197770  1.0  -0.6001
  O  O93  1  0.366000  0.366000  0.070230  1.0  -0.6003
  O  O94  1  0.070230  0.197770  0.366000  1.0  -0.601
  O  O95  1  0.634000  0.802230  0.634000  1.0  -0.6013
  O  O96  1  0.802230  0.634000  0.929770  1.0  -0.5996
  O  O97  1  0.929770  0.634000  0.802230  1.0  -0.5997
  O  O98  1  0.634000  0.929770  0.634000  1.0  -0.5991
  O  O99  1  0.634000  0.802230  0.929770  1.0  -0.6014
  O  O100  1  0.929770  0.634000  0.634000  1.0  -0.5993
  O  O101  1  0.802230  0.634000  0.634000  1.0  -0.5995
  O  O102  1  0.634000  0.929770  0.802230  1.0  -0.5997
  O  O103  1  0.929770  0.802230  0.634000  1.0  -0.6003
  O  O104  1  0.634000  0.634000  0.802230  1.0  -0.601
  O  O105  1  0.634000  0.634000  0.929770  1.0  -0.6009
  O  O106  1  0.802230  0.929770  0.634000  1.0  -0.5991
