# generated using pymatgen
data_Zn4C24N12O13
_symmetry_space_group_name_H-M   'P 1'
_cell_length_a   25.74650000
_cell_length_b   25.74650000
_cell_length_c   25.74650000
_cell_angle_alpha   90.00000000
_cell_angle_beta   90.00000000
_cell_angle_gamma   90.00000000
_symmetry_Int_Tables_number   1
_chemical_formula_structural   Zn4C24N12O13
_chemical_formula_sum   'Zn32 C192 N96 O104'
_cell_volume   17066.89816502
_cell_formula_units_Z   8
loop_
 _symmetry_equiv_pos_site_id
 _symmetry_equiv_pos_as_xyz
  1  'x, y, z'
loop_
 _atom_site_type_symbol
 _atom_site_label
 _atom_site_symmetry_multiplicity
 _atom_site_fract_x
 _atom_site_fract_y
 _atom_site_fract_z
 _atom_site_occupancy
 _atom_site_charge
  Zn  Zn1  1  0.293420  0.206580  0.206580  1.0  1.1467
  Zn  Zn2  1  0.293420  0.706580  0.706580  1.0  1.1467
  Zn  Zn3  1  0.706580  0.793420  0.206580  1.0  1.1468
  Zn  Zn4  1  0.706580  0.293420  0.706580  1.0  1.1468
  Zn  Zn5  1  0.206580  0.293420  0.206580  1.0  1.1468
  Zn  Zn6  1  0.706580  0.206580  0.793420  1.0  1.1479
  Zn  Zn7  1  0.706580  0.706580  0.293420  1.0  1.1479
  Zn  Zn8  1  0.206580  0.206580  0.293420  1.0  1.1479
  Zn  Zn9  1  0.293420  0.793420  0.793420  1.0  1.1472
  Zn  Zn10  1  0.293420  0.293420  0.293420  1.0  1.1472
  Zn  Zn11  1  0.206580  0.706580  0.793420  1.0  1.1479
  Zn  Zn12  1  0.793420  0.706580  0.206580  1.0  1.1467
  Zn  Zn13  1  0.793420  0.293420  0.793420  1.0  1.1472
  Zn  Zn14  1  0.793420  0.206580  0.706580  1.0  1.1467
  Zn  Zn15  1  0.206580  0.793420  0.706580  1.0  1.1468
  Zn  Zn16  1  0.793420  0.793420  0.293420  1.0  1.1472
  Zn  Zn17  1  0.206580  0.293420  0.793420  1.0  1.148
  Zn  Zn18  1  0.793420  0.706580  0.793420  1.0  1.1475
  Zn  Zn19  1  0.793420  0.206580  0.293420  1.0  1.1475
  Zn  Zn20  1  0.293420  0.206580  0.793420  1.0  1.1475
  Zn  Zn21  1  0.206580  0.706580  0.206580  1.0  1.1471
  Zn  Zn22  1  0.793420  0.293420  0.206580  1.0  1.1461
  Zn  Zn23  1  0.293420  0.293420  0.706580  1.0  1.1461
  Zn  Zn24  1  0.293420  0.706580  0.293420  1.0  1.1475
  Zn  Zn25  1  0.706580  0.206580  0.206580  1.0  1.1471
  Zn  Zn26  1  0.706580  0.706580  0.706580  1.0  1.1471
  Zn  Zn27  1  0.706580  0.793420  0.793420  1.0  1.148
  Zn  Zn28  1  0.706580  0.293420  0.293420  1.0  1.148
  Zn  Zn29  1  0.206580  0.793420  0.293420  1.0  1.148
  Zn  Zn30  1  0.293420  0.793420  0.206580  1.0  1.1461
  Zn  Zn31  1  0.206580  0.206580  0.706580  1.0  1.1471
  Zn  Zn32  1  0.793420  0.793420  0.706580  1.0  1.1461
  C  C33  1  0.281000  0.219000  0.026600  1.0  0.1891
  C  C34  1  0.281000  0.719000  0.526600  1.0  0.1891
  C  C35  1  0.719000  0.781000  0.026600  1.0  0.1899
  C  C36  1  0.719000  0.281000  0.526600  1.0  0.1899
  C  C37  1  0.219000  0.281000  0.026600  1.0  0.1899
  C  C38  1  0.719000  0.219000  0.973400  1.0  0.1891
  C  C39  1  0.719000  0.719000  0.473400  1.0  0.1886
  C  C40  1  0.219000  0.219000  0.473400  1.0  0.1883
  C  C41  1  0.281000  0.781000  0.973400  1.0  0.1898
  C  C42  1  0.281000  0.281000  0.473400  1.0  0.1898
  C  C43  1  0.026600  0.281000  0.219000  1.0  0.1927
  C  C44  1  0.526600  0.281000  0.719000  1.0  0.1941
  C  C45  1  0.026600  0.719000  0.781000  1.0  0.1899
  C  C46  1  0.026600  0.219000  0.281000  1.0  0.1899
  C  C47  1  0.526600  0.719000  0.281000  1.0  0.1919
  C  C48  1  0.973400  0.719000  0.219000  1.0  0.1881
  C  C49  1  0.473400  0.719000  0.719000  1.0  0.1874
  C  C50  1  0.473400  0.219000  0.219000  1.0  0.1871
  C  C51  1  0.973400  0.281000  0.781000  1.0  0.1877
  C  C52  1  0.473400  0.281000  0.281000  1.0  0.1877
  C  C53  1  0.219000  0.026600  0.281000  1.0  0.1924
  C  C54  1  0.219000  0.526600  0.781000  1.0  0.1924
  C  C55  1  0.781000  0.026600  0.719000  1.0  0.1949
  C  C56  1  0.781000  0.526600  0.219000  1.0  0.1949
  C  C57  1  0.281000  0.026600  0.219000  1.0  0.1961
  C  C58  1  0.219000  0.973400  0.719000  1.0  0.1901
  C  C59  1  0.219000  0.473400  0.219000  1.0  0.1911
  C  C60  1  0.781000  0.973400  0.281000  1.0  0.1904
  C  C61  1  0.781000  0.473400  0.781000  1.0  0.191
  C  C62  1  0.281000  0.473400  0.281000  1.0  0.1904
  C  C63  1  0.219000  0.281000  0.973400  1.0  0.1899
  C  C64  1  0.219000  0.781000  0.473400  1.0  0.1907
  C  C65  1  0.781000  0.719000  0.973400  1.0  0.1897
  C  C66  1  0.781000  0.219000  0.473400  1.0  0.1902
  C  C67  1  0.281000  0.219000  0.973400  1.0  0.1897
  C  C68  1  0.219000  0.719000  0.026600  1.0  0.1899
  C  C69  1  0.219000  0.219000  0.526600  1.0  0.1899
  C  C70  1  0.781000  0.281000  0.026600  1.0  0.1922
  C  C71  1  0.781000  0.781000  0.526600  1.0  0.1922
  C  C72  1  0.281000  0.281000  0.526600  1.0  0.1922
  C  C73  1  0.281000  0.026600  0.781000  1.0  0.1955
  C  C74  1  0.281000  0.526600  0.281000  1.0  0.194
  C  C75  1  0.719000  0.026600  0.219000  1.0  0.1954
  C  C76  1  0.719000  0.526600  0.719000  1.0  0.1954
  C  C77  1  0.219000  0.526600  0.219000  1.0  0.1928
  C  C78  1  0.719000  0.973400  0.781000  1.0  0.1905
  C  C79  1  0.719000  0.473400  0.281000  1.0  0.1913
  C  C80  1  0.219000  0.973400  0.281000  1.0  0.1905
  C  C81  1  0.281000  0.973400  0.219000  1.0  0.1914
  C  C82  1  0.281000  0.473400  0.719000  1.0  0.192
  C  C83  1  0.026600  0.219000  0.719000  1.0  0.1929
  C  C84  1  0.526600  0.219000  0.219000  1.0  0.1923
  C  C85  1  0.026600  0.781000  0.281000  1.0  0.1929
  C  C86  1  0.526600  0.781000  0.781000  1.0  0.1929
  C  C87  1  0.526600  0.281000  0.281000  1.0  0.1929
  C  C88  1  0.973400  0.219000  0.281000  1.0  0.1873
  C  C89  1  0.473400  0.219000  0.781000  1.0  0.188
  C  C90  1  0.973400  0.781000  0.719000  1.0  0.1888
  C  C91  1  0.973400  0.281000  0.219000  1.0  0.189
  C  C92  1  0.473400  0.781000  0.219000  1.0  0.1896
  C  C93  1  0.719000  0.781000  0.973400  1.0  0.1899
  C  C94  1  0.719000  0.281000  0.473400  1.0  0.1899
  C  C95  1  0.281000  0.719000  0.473400  1.0  0.1897
  C  C96  1  0.281000  0.781000  0.026600  1.0  0.1922
  C  C97  1  0.719000  0.219000  0.026600  1.0  0.1888
  C  C98  1  0.719000  0.719000  0.526600  1.0  0.1899
  C  C99  1  0.973400  0.719000  0.781000  1.0  0.1873
  C  C100  1  0.473400  0.719000  0.281000  1.0  0.1873
  C  C101  1  0.473400  0.281000  0.719000  1.0  0.189
  C  C102  1  0.026600  0.281000  0.781000  1.0  0.1915
  C  C103  1  0.026600  0.719000  0.219000  1.0  0.1902
  C  C104  1  0.526600  0.719000  0.719000  1.0  0.1923
  C  C105  1  0.781000  0.973400  0.719000  1.0  0.1909
  C  C106  1  0.781000  0.473400  0.219000  1.0  0.1914
  C  C107  1  0.219000  0.473400  0.781000  1.0  0.1905
  C  C108  1  0.781000  0.026600  0.281000  1.0  0.194
  C  C109  1  0.781000  0.526600  0.781000  1.0  0.194
  C  C110  1  0.219000  0.026600  0.719000  1.0  0.1928
  C  C111  1  0.781000  0.719000  0.026600  1.0  0.1891
  C  C112  1  0.781000  0.219000  0.526600  1.0  0.1891
  C  C113  1  0.219000  0.781000  0.526600  1.0  0.1899
  C  C114  1  0.781000  0.281000  0.973400  1.0  0.1898
  C  C115  1  0.781000  0.781000  0.473400  1.0  0.1898
  C  C116  1  0.219000  0.719000  0.973400  1.0  0.1883
  C  C117  1  0.719000  0.973400  0.219000  1.0  0.1901
  C  C118  1  0.719000  0.473400  0.719000  1.0  0.1901
  C  C119  1  0.281000  0.973400  0.781000  1.0  0.1904
  C  C120  1  0.281000  0.526600  0.719000  1.0  0.1949
  C  C121  1  0.719000  0.026600  0.781000  1.0  0.1914
  C  C122  1  0.719000  0.526600  0.281000  1.0  0.1924
  C  C123  1  0.973400  0.781000  0.281000  1.0  0.1877
  C  C124  1  0.473400  0.781000  0.781000  1.0  0.1877
  C  C125  1  0.973400  0.219000  0.719000  1.0  0.1874
  C  C126  1  0.026600  0.781000  0.719000  1.0  0.1941
  C  C127  1  0.526600  0.781000  0.219000  1.0  0.1941
  C  C128  1  0.526600  0.219000  0.781000  1.0  0.1919
  C  C129  1  0.250000  0.250000  0.110500  1.0  0.7019
  C  C130  1  0.250000  0.250000  0.055700  1.0  0.0792
  C  C131  1  0.250000  0.750000  0.610500  1.0  0.7019
  C  C132  1  0.250000  0.750000  0.555700  1.0  0.0792
  C  C133  1  0.750000  0.750000  0.110500  1.0  0.7019
  C  C134  1  0.750000  0.750000  0.055700  1.0  0.0792
  C  C135  1  0.750000  0.250000  0.610500  1.0  0.7019
  C  C136  1  0.750000  0.250000  0.555700  1.0  0.0792
  C  C137  1  0.750000  0.250000  0.889500  1.0  0.7036
  C  C138  1  0.750000  0.250000  0.944300  1.0  0.0787
  C  C139  1  0.750000  0.750000  0.389500  1.0  0.7036
  C  C140  1  0.750000  0.750000  0.444300  1.0  0.0787
  C  C141  1  0.250000  0.250000  0.389500  1.0  0.7036
  C  C142  1  0.250000  0.250000  0.444300  1.0  0.0787
  C  C143  1  0.250000  0.750000  0.889500  1.0  0.7036
  C  C144  1  0.250000  0.750000  0.944300  1.0  0.0787
  C  C145  1  0.110500  0.250000  0.250000  1.0  0.7007
  C  C146  1  0.055700  0.250000  0.250000  1.0  0.0796
  C  C147  1  0.610500  0.250000  0.750000  1.0  0.7007
  C  C148  1  0.555700  0.250000  0.750000  1.0  0.0796
  C  C149  1  0.110500  0.750000  0.750000  1.0  0.7007
  C  C150  1  0.055700  0.750000  0.750000  1.0  0.0796
  C  C151  1  0.610500  0.750000  0.250000  1.0  0.7007
  C  C152  1  0.555700  0.750000  0.250000  1.0  0.0796
  C  C153  1  0.889500  0.750000  0.250000  1.0  0.7017
  C  C154  1  0.944300  0.750000  0.250000  1.0  0.0794
  C  C155  1  0.389500  0.750000  0.750000  1.0  0.7017
  C  C156  1  0.444300  0.750000  0.750000  1.0  0.0794
  C  C157  1  0.389500  0.250000  0.250000  1.0  0.7017
  C  C158  1  0.444300  0.250000  0.250000  1.0  0.0794
  C  C159  1  0.889500  0.250000  0.750000  1.0  0.7017
  C  C160  1  0.944300  0.250000  0.750000  1.0  0.0794
  C  C161  1  0.250000  0.110500  0.250000  1.0  0.7025
  C  C162  1  0.250000  0.055700  0.250000  1.0  0.0802
  C  C163  1  0.250000  0.610500  0.750000  1.0  0.7025
  C  C164  1  0.250000  0.555700  0.750000  1.0  0.0802
  C  C165  1  0.750000  0.110500  0.750000  1.0  0.7025
  C  C166  1  0.750000  0.055700  0.750000  1.0  0.0802
  C  C167  1  0.750000  0.610500  0.250000  1.0  0.7025
  C  C168  1  0.750000  0.555700  0.250000  1.0  0.0802
  C  C169  1  0.250000  0.889500  0.750000  1.0  0.7021
  C  C170  1  0.250000  0.944300  0.750000  1.0  0.0805
  C  C171  1  0.250000  0.389500  0.250000  1.0  0.7021
  C  C172  1  0.250000  0.444300  0.250000  1.0  0.0805
  C  C173  1  0.750000  0.889500  0.250000  1.0  0.7021
  C  C174  1  0.750000  0.944300  0.250000  1.0  0.0805
  C  C175  1  0.750000  0.389500  0.750000  1.0  0.7021
  C  C176  1  0.750000  0.444300  0.750000  1.0  0.0805
  C  C177  1  0.250000  0.250000  0.889500  1.0  0.7036
  C  C178  1  0.250000  0.250000  0.944300  1.0  0.0787
  C  C179  1  0.250000  0.750000  0.389500  1.0  0.7036
  C  C180  1  0.250000  0.750000  0.444300  1.0  0.0787
  C  C181  1  0.750000  0.750000  0.889500  1.0  0.7036
  C  C182  1  0.750000  0.750000  0.944300  1.0  0.0787
  C  C183  1  0.750000  0.250000  0.389500  1.0  0.7036
  C  C184  1  0.750000  0.250000  0.444300  1.0  0.0787
  C  C185  1  0.250000  0.750000  0.110500  1.0  0.7019
  C  C186  1  0.250000  0.750000  0.055700  1.0  0.0792
  C  C187  1  0.250000  0.250000  0.610500  1.0  0.7019
  C  C188  1  0.250000  0.250000  0.555700  1.0  0.0792
  C  C189  1  0.750000  0.250000  0.110500  1.0  0.7019
  C  C190  1  0.750000  0.250000  0.055700  1.0  0.0792
  C  C191  1  0.750000  0.750000  0.610500  1.0  0.7019
  C  C192  1  0.750000  0.750000  0.555700  1.0  0.0792
  C  C193  1  0.250000  0.110500  0.750000  1.0  0.7025
  C  C194  1  0.250000  0.055700  0.750000  1.0  0.0802
  C  C195  1  0.250000  0.610500  0.250000  1.0  0.7025
  C  C196  1  0.250000  0.555700  0.250000  1.0  0.0802
  C  C197  1  0.750000  0.110500  0.250000  1.0  0.7025
  C  C198  1  0.750000  0.055700  0.250000  1.0  0.0802
  C  C199  1  0.750000  0.610500  0.750000  1.0  0.7025
  C  C200  1  0.750000  0.555700  0.750000  1.0  0.0802
  C  C201  1  0.750000  0.889500  0.750000  1.0  0.7021
  C  C202  1  0.750000  0.944300  0.750000  1.0  0.0805
  C  C203  1  0.750000  0.389500  0.250000  1.0  0.7021
  C  C204  1  0.750000  0.444300  0.250000  1.0  0.0805
  C  C205  1  0.250000  0.889500  0.250000  1.0  0.7021
  C  C206  1  0.250000  0.944300  0.250000  1.0  0.0805
  C  C207  1  0.250000  0.389500  0.750000  1.0  0.7021
  C  C208  1  0.250000  0.444300  0.750000  1.0  0.0805
  C  C209  1  0.110500  0.250000  0.750000  1.0  0.7007
  C  C210  1  0.055700  0.250000  0.750000  1.0  0.0796
  C  C211  1  0.610500  0.250000  0.250000  1.0  0.7007
  C  C212  1  0.555700  0.250000  0.250000  1.0  0.0796
  C  C213  1  0.110500  0.750000  0.250000  1.0  0.7007
  C  C214  1  0.055700  0.750000  0.250000  1.0  0.0796
  C  C215  1  0.610500  0.750000  0.750000  1.0  0.7007
  C  C216  1  0.555700  0.750000  0.750000  1.0  0.0796
  C  C217  1  0.889500  0.250000  0.250000  1.0  0.7017
  C  C218  1  0.944300  0.250000  0.250000  1.0  0.0794
  C  C219  1  0.389500  0.250000  0.750000  1.0  0.7017
  C  C220  1  0.444300  0.250000  0.750000  1.0  0.0794
  C  C221  1  0.889500  0.750000  0.750000  1.0  0.7017
  C  C222  1  0.944300  0.750000  0.750000  1.0  0.0794
  C  C223  1  0.389500  0.750000  0.250000  1.0  0.7017
  C  C224  1  0.444300  0.750000  0.250000  1.0  0.0794
  N  N225  1  0.317700  0.182300  0.047400  1.0  -0.2614
  N  N226  1  0.317700  0.682300  0.547400  1.0  -0.2614
  N  N227  1  0.682300  0.817700  0.047400  1.0  -0.2598
  N  N228  1  0.682300  0.317700  0.547400  1.0  -0.2598
  N  N229  1  0.182300  0.317700  0.047400  1.0  -0.2598
  N  N230  1  0.682300  0.182300  0.952600  1.0  -0.26
  N  N231  1  0.682300  0.682300  0.452600  1.0  -0.26
  N  N232  1  0.182300  0.182300  0.452600  1.0  -0.26
  N  N233  1  0.317700  0.817700  0.952600  1.0  -0.2604
  N  N234  1  0.317700  0.317700  0.452600  1.0  -0.2604
  N  N235  1  0.047400  0.317700  0.182300  1.0  -0.2608
  N  N236  1  0.547400  0.317700  0.682300  1.0  -0.2608
  N  N237  1  0.047400  0.682300  0.817700  1.0  -0.2623
  N  N238  1  0.047400  0.182300  0.317700  1.0  -0.2623
  N  N239  1  0.547400  0.682300  0.317700  1.0  -0.2623
  N  N240  1  0.952600  0.682300  0.182300  1.0  -0.2621
  N  N241  1  0.452600  0.682300  0.682300  1.0  -0.2621
  N  N242  1  0.452600  0.182300  0.182300  1.0  -0.2621
  N  N243  1  0.952600  0.317700  0.817700  1.0  -0.2611
  N  N244  1  0.452600  0.317700  0.317700  1.0  -0.2611
  N  N245  1  0.182300  0.047400  0.317700  1.0  -0.2632
  N  N246  1  0.182300  0.547400  0.817700  1.0  -0.2632
  N  N247  1  0.817700  0.047400  0.682300  1.0  -0.2638
  N  N248  1  0.817700  0.547400  0.182300  1.0  -0.2638
  N  N249  1  0.317700  0.047400  0.182300  1.0  -0.2638
  N  N250  1  0.182300  0.952600  0.682300  1.0  -0.2641
  N  N251  1  0.182300  0.452600  0.182300  1.0  -0.2641
  N  N252  1  0.817700  0.952600  0.317700  1.0  -0.2644
  N  N253  1  0.817700  0.452600  0.817700  1.0  -0.2644
  N  N254  1  0.317700  0.452600  0.317700  1.0  -0.2644
  N  N255  1  0.182300  0.317700  0.952600  1.0  -0.2603
  N  N256  1  0.182300  0.817700  0.452600  1.0  -0.2603
  N  N257  1  0.817700  0.682300  0.952600  1.0  -0.26
  N  N258  1  0.817700  0.182300  0.452600  1.0  -0.26
  N  N259  1  0.317700  0.182300  0.952600  1.0  -0.26
  N  N260  1  0.182300  0.682300  0.047400  1.0  -0.2608
  N  N261  1  0.182300  0.182300  0.547400  1.0  -0.2608
  N  N262  1  0.817700  0.317700  0.047400  1.0  -0.2609
  N  N263  1  0.817700  0.817700  0.547400  1.0  -0.2609
  N  N264  1  0.317700  0.317700  0.547400  1.0  -0.2609
  N  N265  1  0.317700  0.047400  0.817700  1.0  -0.264
  N  N266  1  0.317700  0.547400  0.317700  1.0  -0.264
  N  N267  1  0.682300  0.047400  0.182300  1.0  -0.2622
  N  N268  1  0.682300  0.547400  0.682300  1.0  -0.2622
  N  N269  1  0.182300  0.547400  0.182300  1.0  -0.2622
  N  N270  1  0.682300  0.952600  0.817700  1.0  -0.2647
  N  N271  1  0.682300  0.452600  0.317700  1.0  -0.2647
  N  N272  1  0.182300  0.952600  0.317700  1.0  -0.2647
  N  N273  1  0.317700  0.952600  0.182300  1.0  -0.2645
  N  N274  1  0.317700  0.452600  0.682300  1.0  -0.2645
  N  N275  1  0.047400  0.182300  0.682300  1.0  -0.2607
  N  N276  1  0.547400  0.182300  0.182300  1.0  -0.2607
  N  N277  1  0.047400  0.817700  0.317700  1.0  -0.2593
  N  N278  1  0.547400  0.817700  0.817700  1.0  -0.2593
  N  N279  1  0.547400  0.317700  0.317700  1.0  -0.2593
  N  N280  1  0.952600  0.182300  0.317700  1.0  -0.2635
  N  N281  1  0.452600  0.182300  0.817700  1.0  -0.2635
  N  N282  1  0.952600  0.817700  0.682300  1.0  -0.2625
  N  N283  1  0.952600  0.317700  0.182300  1.0  -0.2625
  N  N284  1  0.452600  0.817700  0.182300  1.0  -0.2625
  N  N285  1  0.682300  0.817700  0.952600  1.0  -0.2603
  N  N286  1  0.682300  0.317700  0.452600  1.0  -0.2603
  N  N287  1  0.317700  0.682300  0.452600  1.0  -0.26
  N  N288  1  0.317700  0.817700  0.047400  1.0  -0.2609
  N  N289  1  0.682300  0.182300  0.047400  1.0  -0.2608
  N  N290  1  0.682300  0.682300  0.547400  1.0  -0.2608
  N  N291  1  0.952600  0.682300  0.817700  1.0  -0.2635
  N  N292  1  0.452600  0.682300  0.317700  1.0  -0.2635
  N  N293  1  0.452600  0.317700  0.682300  1.0  -0.2625
  N  N294  1  0.047400  0.317700  0.817700  1.0  -0.2593
  N  N295  1  0.047400  0.682300  0.182300  1.0  -0.2607
  N  N296  1  0.547400  0.682300  0.682300  1.0  -0.2607
  N  N297  1  0.817700  0.952600  0.682300  1.0  -0.2645
  N  N298  1  0.817700  0.452600  0.182300  1.0  -0.2645
  N  N299  1  0.182300  0.452600  0.817700  1.0  -0.2647
  N  N300  1  0.817700  0.047400  0.317700  1.0  -0.264
  N  N301  1  0.817700  0.547400  0.817700  1.0  -0.264
  N  N302  1  0.182300  0.047400  0.682300  1.0  -0.2622
  N  N303  1  0.817700  0.682300  0.047400  1.0  -0.2614
  N  N304  1  0.817700  0.182300  0.547400  1.0  -0.2614
  N  N305  1  0.182300  0.817700  0.547400  1.0  -0.2598
  N  N306  1  0.817700  0.317700  0.952600  1.0  -0.2604
  N  N307  1  0.817700  0.817700  0.452600  1.0  -0.2604
  N  N308  1  0.182300  0.682300  0.952600  1.0  -0.26
  N  N309  1  0.682300  0.952600  0.182300  1.0  -0.2641
  N  N310  1  0.682300  0.452600  0.682300  1.0  -0.2641
  N  N311  1  0.317700  0.952600  0.817700  1.0  -0.2644
  N  N312  1  0.317700  0.547400  0.682300  1.0  -0.2638
  N  N313  1  0.682300  0.047400  0.817700  1.0  -0.2632
  N  N314  1  0.682300  0.547400  0.317700  1.0  -0.2632
  N  N315  1  0.952600  0.817700  0.317700  1.0  -0.2611
  N  N316  1  0.452600  0.817700  0.817700  1.0  -0.2611
  N  N317  1  0.952600  0.182300  0.682300  1.0  -0.2621
  N  N318  1  0.047400  0.817700  0.682300  1.0  -0.2608
  N  N319  1  0.547400  0.817700  0.182300  1.0  -0.2608
  N  N320  1  0.547400  0.182300  0.817700  1.0  -0.2623
  O  O321  1  0.280700  0.219300  0.134000  1.0  -0.6
  O  O322  1  0.280700  0.719300  0.634000  1.0  -0.6
  O  O323  1  0.719300  0.780700  0.134000  1.0  -0.5977
  O  O324  1  0.719300  0.280700  0.634000  1.0  -0.5977
  O  O325  1  0.219300  0.280700  0.134000  1.0  -0.5977
  O  O326  1  0.719300  0.219300  0.866000  1.0  -0.5987
  O  O327  1  0.719300  0.719300  0.366000  1.0  -0.5987
  O  O328  1  0.219300  0.219300  0.366000  1.0  -0.5987
  O  O329  1  0.280700  0.780700  0.866000  1.0  -0.5995
  O  O330  1  0.280700  0.280700  0.366000  1.0  -0.5995
  O  O331  1  0.134000  0.280700  0.219300  1.0  -0.5999
  O  O332  1  0.634000  0.280700  0.719300  1.0  -0.5999
  O  O333  1  0.134000  0.719300  0.780700  1.0  -0.5987
  O  O334  1  0.134000  0.219300  0.280700  1.0  -0.5987
  O  O335  1  0.634000  0.719300  0.280700  1.0  -0.5987
  O  O336  1  0.866000  0.719300  0.219300  1.0  -0.599
  O  O337  1  0.366000  0.719300  0.719300  1.0  -0.599
  O  O338  1  0.366000  0.219300  0.219300  1.0  -0.599
  O  O339  1  0.866000  0.280700  0.780700  1.0  -0.5988
  O  O340  1  0.366000  0.280700  0.280700  1.0  -0.5988
  O  O341  1  0.219300  0.134000  0.280700  1.0  -0.5965
  O  O342  1  0.219300  0.634000  0.780700  1.0  -0.5965
  O  O343  1  0.780700  0.134000  0.719300  1.0  -0.5982
  O  O344  1  0.780700  0.634000  0.219300  1.0  -0.5982
  O  O345  1  0.280700  0.134000  0.219300  1.0  -0.5982
  O  O346  1  0.219300  0.866000  0.719300  1.0  -0.5966
  O  O347  1  0.219300  0.366000  0.219300  1.0  -0.5966
  O  O348  1  0.780700  0.866000  0.280700  1.0  -0.5979
  O  O349  1  0.780700  0.366000  0.780700  1.0  -0.5979
  O  O350  1  0.280700  0.366000  0.280700  1.0  -0.5979
  O  O351  1  0.219300  0.280700  0.866000  1.0  -0.5986
  O  O352  1  0.219300  0.780700  0.366000  1.0  -0.5986
  O  O353  1  0.780700  0.719300  0.866000  1.0  -0.5993
  O  O354  1  0.780700  0.219300  0.366000  1.0  -0.5993
  O  O355  1  0.280700  0.219300  0.866000  1.0  -0.5993
  O  O356  1  0.219300  0.719300  0.134000  1.0  -0.5981
  O  O357  1  0.219300  0.219300  0.634000  1.0  -0.5981
  O  O358  1  0.780700  0.280700  0.134000  1.0  -0.5994
  O  O359  1  0.780700  0.780700  0.634000  1.0  -0.5994
  O  O360  1  0.280700  0.280700  0.634000  1.0  -0.5994
  O  O361  1  0.280700  0.134000  0.780700  1.0  -0.5981
  O  O362  1  0.280700  0.634000  0.280700  1.0  -0.5981
  O  O363  1  0.719300  0.134000  0.219300  1.0  -0.5968
  O  O364  1  0.719300  0.634000  0.719300  1.0  -0.5968
  O  O365  1  0.219300  0.634000  0.219300  1.0  -0.5968
  O  O366  1  0.719300  0.866000  0.780700  1.0  -0.5971
  O  O367  1  0.719300  0.366000  0.280700  1.0  -0.5971
  O  O368  1  0.219300  0.866000  0.280700  1.0  -0.5971
  O  O369  1  0.280700  0.866000  0.219300  1.0  -0.5974
  O  O370  1  0.280700  0.366000  0.719300  1.0  -0.5974
  O  O371  1  0.134000  0.219300  0.719300  1.0  -0.599
  O  O372  1  0.634000  0.219300  0.219300  1.0  -0.599
  O  O373  1  0.134000  0.780700  0.280700  1.0  -0.5996
  O  O374  1  0.634000  0.780700  0.780700  1.0  -0.5996
  O  O375  1  0.634000  0.280700  0.280700  1.0  -0.5996
  O  O376  1  0.866000  0.219300  0.280700  1.0  -0.5987
  O  O377  1  0.366000  0.219300  0.780700  1.0  -0.5987
  O  O378  1  0.866000  0.780700  0.719300  1.0  -0.5985
  O  O379  1  0.866000  0.280700  0.219300  1.0  -0.5985
  O  O380  1  0.366000  0.780700  0.219300  1.0  -0.5985
  O  O381  1  0.719300  0.780700  0.866000  1.0  -0.5986
  O  O382  1  0.719300  0.280700  0.366000  1.0  -0.5986
  O  O383  1  0.280700  0.719300  0.366000  1.0  -0.5993
  O  O384  1  0.280700  0.780700  0.134000  1.0  -0.5994
  O  O385  1  0.719300  0.219300  0.134000  1.0  -0.5981
  O  O386  1  0.719300  0.719300  0.634000  1.0  -0.5981
  O  O387  1  0.866000  0.719300  0.780700  1.0  -0.5987
  O  O388  1  0.366000  0.719300  0.280700  1.0  -0.5987
  O  O389  1  0.366000  0.280700  0.719300  1.0  -0.5985
  O  O390  1  0.134000  0.280700  0.780700  1.0  -0.5996
  O  O391  1  0.134000  0.719300  0.219300  1.0  -0.599
  O  O392  1  0.634000  0.719300  0.719300  1.0  -0.599
  O  O393  1  0.780700  0.866000  0.719300  1.0  -0.5974
  O  O394  1  0.780700  0.366000  0.219300  1.0  -0.5974
  O  O395  1  0.219300  0.366000  0.780700  1.0  -0.5971
  O  O396  1  0.780700  0.134000  0.280700  1.0  -0.5981
  O  O397  1  0.780700  0.634000  0.780700  1.0  -0.5981
  O  O398  1  0.219300  0.134000  0.719300  1.0  -0.5968
  O  O399  1  0.780700  0.719300  0.134000  1.0  -0.6
  O  O400  1  0.780700  0.219300  0.634000  1.0  -0.6
  O  O401  1  0.219300  0.780700  0.634000  1.0  -0.5977
  O  O402  1  0.780700  0.280700  0.866000  1.0  -0.5995
  O  O403  1  0.780700  0.780700  0.366000  1.0  -0.5995
  O  O404  1  0.219300  0.719300  0.866000  1.0  -0.5987
  O  O405  1  0.719300  0.866000  0.219300  1.0  -0.5966
  O  O406  1  0.719300  0.366000  0.719300  1.0  -0.5966
  O  O407  1  0.280700  0.866000  0.780700  1.0  -0.5979
  O  O408  1  0.280700  0.634000  0.719300  1.0  -0.5982
  O  O409  1  0.719300  0.134000  0.780700  1.0  -0.5965
  O  O410  1  0.719300  0.634000  0.280700  1.0  -0.5965
  O  O411  1  0.866000  0.780700  0.280700  1.0  -0.5988
  O  O412  1  0.366000  0.780700  0.780700  1.0  -0.5988
  O  O413  1  0.866000  0.219300  0.719300  1.0  -0.599
  O  O414  1  0.134000  0.780700  0.719300  1.0  -0.5999
  O  O415  1  0.634000  0.780700  0.219300  1.0  -0.5999
  O  O416  1  0.634000  0.219300  0.780700  1.0  -0.5987
  O  O417  1  0.250000  0.250000  0.250000  1.0  -1.2436
  O  O418  1  0.750000  0.750000  0.250000  1.0  -1.2436
  O  O419  1  0.750000  0.250000  0.750000  1.0  -1.2436
  O  O420  1  0.250000  0.750000  0.750000  1.0  -1.2436
  O  O421  1  0.250000  0.250000  0.750000  1.0  -1.2436
  O  O422  1  0.750000  0.750000  0.750000  1.0  -1.2436
  O  O423  1  0.750000  0.250000  0.250000  1.0  -1.2436
  O  O424  1  0.250000  0.750000  0.250000  1.0  -1.2436
