# generated using pymatgen
data_Zn4H24C36O13
_symmetry_space_group_name_H-M   'P 1'
_cell_length_a   25.84210000
_cell_length_b   25.84210000
_cell_length_c   25.84210000
_cell_angle_alpha   90.00000000
_cell_angle_beta   90.00000000
_cell_angle_gamma   90.00000000
_symmetry_Int_Tables_number   1
_chemical_formula_structural   Zn4H24C36O13
_chemical_formula_sum   'Zn32 H192 C288 O104'
_cell_volume   17257.71959115
_cell_formula_units_Z   8
loop_
 _symmetry_equiv_pos_site_id
 _symmetry_equiv_pos_as_xyz
  1  'x, y, z'
loop_
 _atom_site_type_symbol
 _atom_site_label
 _atom_site_symmetry_multiplicity
 _atom_site_fract_x
 _atom_site_fract_y
 _atom_site_fract_z
 _atom_site_occupancy
 _atom_site_charge
  Zn  Zn1  1  0.206450  0.293550  0.206450  1.0  1.0695
  Zn  Zn2  1  0.793550  0.706450  0.206450  1.0  1.0682
  Zn  Zn3  1  0.293550  0.206450  0.206450  1.0  1.0682
  Zn  Zn4  1  0.793550  0.293550  0.793550  1.0  1.0687
  Zn  Zn5  1  0.293550  0.293550  0.293550  1.0  1.0687
  Zn  Zn6  1  0.206450  0.706450  0.793550  1.0  1.0689
  Zn  Zn7  1  0.206450  0.206450  0.293550  1.0  1.0689
  Zn  Zn8  1  0.206450  0.793550  0.706450  1.0  1.0695
  Zn  Zn9  1  0.793550  0.793550  0.293550  1.0  1.0687
  Zn  Zn10  1  0.793550  0.206450  0.706450  1.0  1.0682
  Zn  Zn11  1  0.293550  0.706450  0.706450  1.0  1.0682
  Zn  Zn12  1  0.706450  0.206450  0.793550  1.0  1.0689
  Zn  Zn13  1  0.706450  0.706450  0.293550  1.0  1.0689
  Zn  Zn14  1  0.293550  0.793550  0.793550  1.0  1.0687
  Zn  Zn15  1  0.706450  0.793550  0.206450  1.0  1.0695
  Zn  Zn16  1  0.706450  0.293550  0.706450  1.0  1.0695
  Zn  Zn17  1  0.293550  0.206450  0.793550  1.0  1.0683
  Zn  Zn18  1  0.293550  0.706450  0.293550  1.0  1.0683
  Zn  Zn19  1  0.706450  0.793550  0.793550  1.0  1.0694
  Zn  Zn20  1  0.706450  0.293550  0.293550  1.0  1.0694
  Zn  Zn21  1  0.206450  0.793550  0.293550  1.0  1.0694
  Zn  Zn22  1  0.206450  0.293550  0.793550  1.0  1.0694
  Zn  Zn23  1  0.293550  0.793550  0.206450  1.0  1.0688
  Zn  Zn24  1  0.293550  0.293550  0.706450  1.0  1.0688
  Zn  Zn25  1  0.706450  0.206450  0.206450  1.0  1.0688
  Zn  Zn26  1  0.706450  0.706450  0.706450  1.0  1.0688
  Zn  Zn27  1  0.206450  0.206450  0.706450  1.0  1.0688
  Zn  Zn28  1  0.793550  0.206450  0.293550  1.0  1.0683
  Zn  Zn29  1  0.793550  0.793550  0.706450  1.0  1.0688
  Zn  Zn30  1  0.793550  0.293550  0.206450  1.0  1.0688
  Zn  Zn31  1  0.206450  0.706450  0.206450  1.0  1.0688
  Zn  Zn32  1  0.793550  0.706450  0.793550  1.0  1.0683
  H  H33  1  0.311800  0.144900  0.041300  1.0  0.0711
  H  H34  1  0.311800  0.644900  0.541300  1.0  0.0711
  H  H35  1  0.811800  0.144900  0.541300  1.0  0.0711
  H  H36  1  0.811800  0.644900  0.041300  1.0  0.0711
  H  H37  1  0.688200  0.855100  0.041300  1.0  0.0744
  H  H38  1  0.688200  0.355100  0.541300  1.0  0.0744
  H  H39  1  0.188200  0.855100  0.541300  1.0  0.0744
  H  H40  1  0.188200  0.355100  0.041300  1.0  0.0744
  H  H41  1  0.688200  0.144900  0.958700  1.0  0.0723
  H  H42  1  0.688200  0.644900  0.458700  1.0  0.0723
  H  H43  1  0.188200  0.144900  0.458700  1.0  0.0723
  H  H44  1  0.188200  0.644900  0.958700  1.0  0.0723
  H  H45  1  0.311800  0.855100  0.958700  1.0  0.0754
  H  H46  1  0.311800  0.355100  0.458700  1.0  0.0754
  H  H47  1  0.811800  0.855100  0.458700  1.0  0.0754
  H  H48  1  0.811800  0.355100  0.958700  1.0  0.0754
  H  H49  1  0.041300  0.311800  0.144900  1.0  0.0809
  H  H50  1  0.041300  0.811800  0.644900  1.0  0.0809
  H  H51  1  0.541300  0.311800  0.644900  1.0  0.0809
  H  H52  1  0.541300  0.811800  0.144900  1.0  0.0809
  H  H53  1  0.041300  0.688200  0.855100  1.0  0.0817
  H  H54  1  0.041300  0.188200  0.355100  1.0  0.0817
  H  H55  1  0.541300  0.688200  0.355100  1.0  0.0817
  H  H56  1  0.541300  0.188200  0.855100  1.0  0.0817
  H  H57  1  0.958700  0.688200  0.144900  1.0  0.0823
  H  H58  1  0.958700  0.188200  0.644900  1.0  0.0823
  H  H59  1  0.458700  0.688200  0.644900  1.0  0.0823
  H  H60  1  0.458700  0.188200  0.144900  1.0  0.0823
  H  H61  1  0.958700  0.311800  0.855100  1.0  0.0828
  H  H62  1  0.958700  0.811800  0.355100  1.0  0.0828
  H  H63  1  0.458700  0.311800  0.355100  1.0  0.0828
  H  H64  1  0.458700  0.811800  0.855100  1.0  0.0828
  H  H65  1  0.144900  0.041300  0.311800  1.0  0.0713
  H  H66  1  0.144900  0.541300  0.811800  1.0  0.0713
  H  H67  1  0.644900  0.041300  0.811800  1.0  0.0713
  H  H68  1  0.644900  0.541300  0.311800  1.0  0.0713
  H  H69  1  0.855100  0.041300  0.688200  1.0  0.0841
  H  H70  1  0.855100  0.541300  0.188200  1.0  0.0841
  H  H71  1  0.355100  0.041300  0.188200  1.0  0.0841
  H  H72  1  0.355100  0.541300  0.688200  1.0  0.0841
  H  H73  1  0.144900  0.958700  0.688200  1.0  0.0715
  H  H74  1  0.144900  0.458700  0.188200  1.0  0.0715
  H  H75  1  0.644900  0.958700  0.188200  1.0  0.0715
  H  H76  1  0.644900  0.458700  0.688200  1.0  0.0715
  H  H77  1  0.855100  0.958700  0.311800  1.0  0.0843
  H  H78  1  0.855100  0.458700  0.811800  1.0  0.0843
  H  H79  1  0.355100  0.958700  0.811800  1.0  0.0843
  H  H80  1  0.355100  0.458700  0.311800  1.0  0.0843
  H  H81  1  0.144900  0.311800  0.958700  1.0  0.0721
  H  H82  1  0.144900  0.811800  0.458700  1.0  0.0721
  H  H83  1  0.644900  0.311800  0.458700  1.0  0.0721
  H  H84  1  0.644900  0.811800  0.958700  1.0  0.0721
  H  H85  1  0.855100  0.688200  0.958700  1.0  0.0846
  H  H86  1  0.855100  0.188200  0.458700  1.0  0.0846
  H  H87  1  0.355100  0.688200  0.458700  1.0  0.0846
  H  H88  1  0.355100  0.188200  0.958700  1.0  0.0846
  H  H89  1  0.144900  0.688200  0.041300  1.0  0.0712
  H  H90  1  0.144900  0.188200  0.541300  1.0  0.0712
  H  H91  1  0.644900  0.688200  0.541300  1.0  0.0712
  H  H92  1  0.644900  0.188200  0.041300  1.0  0.0712
  H  H93  1  0.855100  0.311800  0.041300  1.0  0.0832
  H  H94  1  0.855100  0.811800  0.541300  1.0  0.0832
  H  H95  1  0.355100  0.311800  0.541300  1.0  0.0832
  H  H96  1  0.355100  0.811800  0.041300  1.0  0.0832
  H  H97  1  0.311800  0.041300  0.855100  1.0  0.0811
  H  H98  1  0.311800  0.541300  0.355100  1.0  0.0811
  H  H99  1  0.811800  0.041300  0.355100  1.0  0.0811
  H  H100  1  0.811800  0.541300  0.855100  1.0  0.0811
  H  H101  1  0.688200  0.041300  0.144900  1.0  0.0812
  H  H102  1  0.688200  0.541300  0.644900  1.0  0.0812
  H  H103  1  0.188200  0.041300  0.644900  1.0  0.0812
  H  H104  1  0.188200  0.541300  0.144900  1.0  0.0812
  H  H105  1  0.688200  0.958700  0.855100  1.0  0.0826
  H  H106  1  0.688200  0.458700  0.355100  1.0  0.0826
  H  H107  1  0.188200  0.958700  0.355100  1.0  0.0826
  H  H108  1  0.188200  0.458700  0.855100  1.0  0.0826
  H  H109  1  0.311800  0.958700  0.144900  1.0  0.081
  H  H110  1  0.311800  0.458700  0.644900  1.0  0.081
  H  H111  1  0.811800  0.958700  0.644900  1.0  0.081
  H  H112  1  0.811800  0.458700  0.144900  1.0  0.081
  H  H113  1  0.041300  0.144900  0.688200  1.0  0.0725
  H  H114  1  0.041300  0.644900  0.188200  1.0  0.0725
  H  H115  1  0.541300  0.144900  0.188200  1.0  0.0725
  H  H116  1  0.541300  0.644900  0.688200  1.0  0.0725
  H  H117  1  0.041300  0.855100  0.311800  1.0  0.075
  H  H118  1  0.041300  0.355100  0.811800  1.0  0.075
  H  H119  1  0.541300  0.855100  0.811800  1.0  0.075
  H  H120  1  0.541300  0.355100  0.311800  1.0  0.075
  H  H121  1  0.958700  0.144900  0.311800  1.0  0.0725
  H  H122  1  0.958700  0.644900  0.811800  1.0  0.0725
  H  H123  1  0.458700  0.144900  0.811800  1.0  0.0725
  H  H124  1  0.458700  0.644900  0.311800  1.0  0.0725
  H  H125  1  0.958700  0.855100  0.688200  1.0  0.0758
  H  H126  1  0.958700  0.355100  0.188200  1.0  0.0758
  H  H127  1  0.458700  0.855100  0.188200  1.0  0.0758
  H  H128  1  0.458700  0.355100  0.688200  1.0  0.0758
  H  H129  1  0.688200  0.855100  0.958700  1.0  0.0756
  H  H130  1  0.688200  0.355100  0.458700  1.0  0.0756
  H  H131  1  0.188200  0.855100  0.458700  1.0  0.0756
  H  H132  1  0.188200  0.355100  0.958700  1.0  0.0756
  H  H133  1  0.311800  0.144900  0.958700  1.0  0.0715
  H  H134  1  0.311800  0.644900  0.458700  1.0  0.0715
  H  H135  1  0.811800  0.144900  0.458700  1.0  0.0715
  H  H136  1  0.811800  0.644900  0.958700  1.0  0.0715
  H  H137  1  0.311800  0.855100  0.041300  1.0  0.0741
  H  H138  1  0.311800  0.355100  0.541300  1.0  0.0741
  H  H139  1  0.811800  0.855100  0.541300  1.0  0.0741
  H  H140  1  0.811800  0.355100  0.041300  1.0  0.0741
  H  H141  1  0.688200  0.144900  0.041300  1.0  0.0718
  H  H142  1  0.688200  0.644900  0.541300  1.0  0.0718
  H  H143  1  0.188200  0.144900  0.541300  1.0  0.0718
  H  H144  1  0.188200  0.644900  0.041300  1.0  0.0718
  H  H145  1  0.958700  0.688200  0.855100  1.0  0.0826
  H  H146  1  0.958700  0.188200  0.355100  1.0  0.0826
  H  H147  1  0.458700  0.688200  0.355100  1.0  0.0826
  H  H148  1  0.458700  0.188200  0.855100  1.0  0.0826
  H  H149  1  0.958700  0.311800  0.144900  1.0  0.0817
  H  H150  1  0.958700  0.811800  0.644900  1.0  0.0817
  H  H151  1  0.458700  0.311800  0.644900  1.0  0.0817
  H  H152  1  0.458700  0.811800  0.144900  1.0  0.0817
  H  H153  1  0.041300  0.311800  0.855100  1.0  0.0818
  H  H154  1  0.041300  0.811800  0.355100  1.0  0.0818
  H  H155  1  0.541300  0.311800  0.355100  1.0  0.0818
  H  H156  1  0.541300  0.811800  0.855100  1.0  0.0818
  H  H157  1  0.041300  0.688200  0.144900  1.0  0.0813
  H  H158  1  0.041300  0.188200  0.644900  1.0  0.0813
  H  H159  1  0.541300  0.688200  0.644900  1.0  0.0813
  H  H160  1  0.541300  0.188200  0.144900  1.0  0.0813
  H  H161  1  0.855100  0.958700  0.688200  1.0  0.0842
  H  H162  1  0.855100  0.458700  0.188200  1.0  0.0842
  H  H163  1  0.355100  0.958700  0.188200  1.0  0.0842
  H  H164  1  0.355100  0.458700  0.688200  1.0  0.0842
  H  H165  1  0.144900  0.958700  0.311800  1.0  0.0714
  H  H166  1  0.144900  0.458700  0.811800  1.0  0.0714
  H  H167  1  0.644900  0.958700  0.811800  1.0  0.0714
  H  H168  1  0.644900  0.458700  0.311800  1.0  0.0714
  H  H169  1  0.855100  0.041300  0.311800  1.0  0.084
  H  H170  1  0.855100  0.541300  0.811800  1.0  0.084
  H  H171  1  0.355100  0.041300  0.811800  1.0  0.084
  H  H172  1  0.355100  0.541300  0.311800  1.0  0.084
  H  H173  1  0.144900  0.041300  0.688200  1.0  0.0714
  H  H174  1  0.144900  0.541300  0.188200  1.0  0.0714
  H  H175  1  0.644900  0.041300  0.188200  1.0  0.0714
  H  H176  1  0.644900  0.541300  0.688200  1.0  0.0714
  H  H177  1  0.855100  0.688200  0.041300  1.0  0.0833
  H  H178  1  0.855100  0.188200  0.541300  1.0  0.0833
  H  H179  1  0.355100  0.688200  0.541300  1.0  0.0833
  H  H180  1  0.355100  0.188200  0.041300  1.0  0.0833
  H  H181  1  0.144900  0.311800  0.041300  1.0  0.071
  H  H182  1  0.144900  0.811800  0.541300  1.0  0.071
  H  H183  1  0.644900  0.311800  0.541300  1.0  0.071
  H  H184  1  0.644900  0.811800  0.041300  1.0  0.071
  H  H185  1  0.855100  0.311800  0.958700  1.0  0.0847
  H  H186  1  0.855100  0.811800  0.458700  1.0  0.0847
  H  H187  1  0.355100  0.311800  0.458700  1.0  0.0847
  H  H188  1  0.355100  0.811800  0.958700  1.0  0.0847
  H  H189  1  0.144900  0.688200  0.958700  1.0  0.0723
  H  H190  1  0.144900  0.188200  0.458700  1.0  0.0723
  H  H191  1  0.644900  0.688200  0.458700  1.0  0.0723
  H  H192  1  0.644900  0.188200  0.958700  1.0  0.0723
  H  H193  1  0.688200  0.958700  0.144900  1.0  0.0817
  H  H194  1  0.688200  0.458700  0.644900  1.0  0.0817
  H  H195  1  0.188200  0.958700  0.644900  1.0  0.0817
  H  H196  1  0.188200  0.458700  0.144900  1.0  0.0817
  H  H197  1  0.311800  0.958700  0.855100  1.0  0.0816
  H  H198  1  0.311800  0.458700  0.355100  1.0  0.0816
  H  H199  1  0.811800  0.958700  0.355100  1.0  0.0816
  H  H200  1  0.811800  0.458700  0.855100  1.0  0.0816
  H  H201  1  0.311800  0.041300  0.144900  1.0  0.0808
  H  H202  1  0.311800  0.541300  0.644900  1.0  0.0808
  H  H203  1  0.811800  0.041300  0.644900  1.0  0.0808
  H  H204  1  0.811800  0.541300  0.144900  1.0  0.0808
  H  H205  1  0.688200  0.041300  0.855100  1.0  0.0818
  H  H206  1  0.688200  0.541300  0.355100  1.0  0.0818
  H  H207  1  0.188200  0.041300  0.355100  1.0  0.0818
  H  H208  1  0.188200  0.541300  0.855100  1.0  0.0818
  H  H209  1  0.958700  0.855100  0.311800  1.0  0.076
  H  H210  1  0.958700  0.355100  0.811800  1.0  0.076
  H  H211  1  0.458700  0.855100  0.811800  1.0  0.076
  H  H212  1  0.458700  0.355100  0.311800  1.0  0.076
  H  H213  1  0.958700  0.144900  0.688200  1.0  0.0728
  H  H214  1  0.958700  0.644900  0.188200  1.0  0.0728
  H  H215  1  0.458700  0.144900  0.188200  1.0  0.0728
  H  H216  1  0.458700  0.644900  0.688200  1.0  0.0728
  H  H217  1  0.041300  0.855100  0.688200  1.0  0.075
  H  H218  1  0.041300  0.355100  0.188200  1.0  0.075
  H  H219  1  0.541300  0.855100  0.188200  1.0  0.075
  H  H220  1  0.541300  0.355100  0.688200  1.0  0.075
  H  H221  1  0.041300  0.144900  0.311800  1.0  0.0722
  H  H222  1  0.041300  0.644900  0.811800  1.0  0.0722
  H  H223  1  0.541300  0.144900  0.811800  1.0  0.0722
  H  H224  1  0.541300  0.644900  0.311800  1.0  0.0722
  C  C225  1  0.278900  0.221100  0.028200  1.0  0.0302
  C  C226  1  0.320000  0.180000  0.027000  1.0  -0.2433
  C  C227  1  0.278900  0.721100  0.528200  1.0  0.0302
  C  C228  1  0.320000  0.680000  0.527000  1.0  -0.2433
  C  C229  1  0.721100  0.778900  0.028200  1.0  0.0286
  C  C230  1  0.680000  0.820000  0.027000  1.0  -0.2437
  C  C231  1  0.721100  0.278900  0.528200  1.0  0.0286
  C  C232  1  0.680000  0.320000  0.527000  1.0  -0.2437
  C  C233  1  0.221100  0.278900  0.028200  1.0  0.0286
  C  C234  1  0.180000  0.320000  0.027000  1.0  -0.2437
  C  C235  1  0.721100  0.221100  0.971800  1.0  0.0316
  C  C236  1  0.680000  0.180000  0.973000  1.0  -0.2427
  C  C237  1  0.721100  0.721100  0.471800  1.0  0.0316
  C  C238  1  0.680000  0.680000  0.473000  1.0  -0.2427
  C  C239  1  0.221100  0.221100  0.471800  1.0  0.0316
  C  C240  1  0.180000  0.180000  0.473000  1.0  -0.2427
  C  C241  1  0.278900  0.778900  0.971800  1.0  0.0329
  C  C242  1  0.320000  0.820000  0.973000  1.0  -0.2449
  C  C243  1  0.278900  0.278900  0.471800  1.0  0.0329
  C  C244  1  0.320000  0.320000  0.473000  1.0  -0.2449
  C  C245  1  0.028200  0.278900  0.221100  1.0  0.03
  C  C246  1  0.027000  0.320000  0.180000  1.0  -0.2439
  C  C247  1  0.528200  0.278900  0.721100  1.0  0.03
  C  C248  1  0.527000  0.320000  0.680000  1.0  -0.2439
  C  C249  1  0.028200  0.721100  0.778900  1.0  0.0305
  C  C250  1  0.027000  0.680000  0.820000  1.0  -0.2437
  C  C251  1  0.028200  0.221100  0.278900  1.0  0.0305
  C  C252  1  0.027000  0.180000  0.320000  1.0  -0.2437
  C  C253  1  0.528200  0.721100  0.278900  1.0  0.0305
  C  C254  1  0.527000  0.680000  0.320000  1.0  -0.2437
  C  C255  1  0.971800  0.721100  0.221100  1.0  0.0285
  C  C256  1  0.973000  0.680000  0.180000  1.0  -0.2417
  C  C257  1  0.471800  0.721100  0.721100  1.0  0.0285
  C  C258  1  0.473000  0.680000  0.680000  1.0  -0.2417
  C  C259  1  0.471800  0.221100  0.221100  1.0  0.0285
  C  C260  1  0.473000  0.180000  0.180000  1.0  -0.2417
  C  C261  1  0.971800  0.278900  0.778900  1.0  0.0277
  C  C262  1  0.973000  0.320000  0.820000  1.0  -0.2435
  C  C263  1  0.471800  0.278900  0.278900  1.0  0.0277
  C  C264  1  0.473000  0.320000  0.320000  1.0  -0.2435
  C  C265  1  0.221100  0.028200  0.278900  1.0  0.0306
  C  C266  1  0.180000  0.027000  0.320000  1.0  -0.2434
  C  C267  1  0.221100  0.528200  0.778900  1.0  0.0306
  C  C268  1  0.180000  0.527000  0.820000  1.0  -0.2434
  C  C269  1  0.778900  0.028200  0.721100  1.0  0.0322
  C  C270  1  0.820000  0.027000  0.680000  1.0  -0.2436
  C  C271  1  0.778900  0.528200  0.221100  1.0  0.0322
  C  C272  1  0.820000  0.527000  0.180000  1.0  -0.2436
  C  C273  1  0.278900  0.028200  0.221100  1.0  0.0322
  C  C274  1  0.320000  0.027000  0.180000  1.0  -0.2436
  C  C275  1  0.221100  0.971800  0.721100  1.0  0.0298
  C  C276  1  0.180000  0.973000  0.680000  1.0  -0.2406
  C  C277  1  0.221100  0.471800  0.221100  1.0  0.0298
  C  C278  1  0.180000  0.473000  0.180000  1.0  -0.2406
  C  C279  1  0.778900  0.971800  0.278900  1.0  0.0308
  C  C280  1  0.820000  0.973000  0.320000  1.0  -0.241
  C  C281  1  0.778900  0.471800  0.778900  1.0  0.0308
  C  C282  1  0.820000  0.473000  0.820000  1.0  -0.241
  C  C283  1  0.278900  0.471800  0.278900  1.0  0.0308
  C  C284  1  0.320000  0.473000  0.320000  1.0  -0.241
  C  C285  1  0.221100  0.278900  0.971800  1.0  0.0316
  C  C286  1  0.180000  0.320000  0.973000  1.0  -0.2475
  C  C287  1  0.221100  0.778900  0.471800  1.0  0.0316
  C  C288  1  0.180000  0.820000  0.473000  1.0  -0.2434
  C  C289  1  0.778900  0.721100  0.971800  1.0  0.0329
  C  C290  1  0.820000  0.680000  0.973000  1.0  -0.2436
  C  C291  1  0.778900  0.221100  0.471800  1.0  0.0329
  C  C292  1  0.820000  0.180000  0.473000  1.0  -0.2436
  C  C293  1  0.278900  0.221100  0.971800  1.0  0.0329
  C  C294  1  0.320000  0.180000  0.973000  1.0  -0.2475
  C  C295  1  0.221100  0.721100  0.028200  1.0  0.0293
  C  C296  1  0.180000  0.680000  0.027000  1.0  -0.2427
  C  C297  1  0.221100  0.221100  0.528200  1.0  0.0293
  C  C298  1  0.180000  0.180000  0.527000  1.0  -0.2468
  C  C299  1  0.778900  0.278900  0.028200  1.0  0.0296
  C  C300  1  0.820000  0.320000  0.027000  1.0  -0.2445
  C  C301  1  0.778900  0.778900  0.528200  1.0  0.0296
  C  C302  1  0.820000  0.820000  0.527000  1.0  -0.2445
  C  C303  1  0.278900  0.278900  0.528200  1.0  0.0296
  C  C304  1  0.320000  0.320000  0.527000  1.0  -0.2484
  C  C305  1  0.278900  0.028200  0.778900  1.0  0.032
  C  C306  1  0.320000  0.027000  0.820000  1.0  -0.2438
  C  C307  1  0.278900  0.528200  0.278900  1.0  0.032
  C  C308  1  0.320000  0.527000  0.320000  1.0  -0.2478
  C  C309  1  0.721100  0.028200  0.221100  1.0  0.0307
  C  C310  1  0.680000  0.027000  0.180000  1.0  -0.2419
  C  C311  1  0.721100  0.528200  0.721100  1.0  0.0307
  C  C312  1  0.680000  0.527000  0.680000  1.0  -0.2419
  C  C313  1  0.221100  0.528200  0.221100  1.0  0.0307
  C  C314  1  0.180000  0.527000  0.180000  1.0  -0.2461
  C  C315  1  0.721100  0.971800  0.778900  1.0  0.0298
  C  C316  1  0.680000  0.973000  0.820000  1.0  -0.2409
  C  C317  1  0.721100  0.471800  0.278900  1.0  0.0298
  C  C318  1  0.680000  0.473000  0.320000  1.0  -0.2409
  C  C319  1  0.221100  0.971800  0.278900  1.0  0.0298
  C  C320  1  0.180000  0.973000  0.320000  1.0  -0.2453
  C  C321  1  0.278900  0.971800  0.221100  1.0  0.0312
  C  C322  1  0.320000  0.973000  0.180000  1.0  -0.2455
  C  C323  1  0.278900  0.471800  0.721100  1.0  0.0312
  C  C324  1  0.320000  0.473000  0.680000  1.0  -0.2412
  C  C325  1  0.028200  0.221100  0.721100  1.0  0.0309
  C  C326  1  0.027000  0.180000  0.680000  1.0  -0.2436
  C  C327  1  0.528200  0.221100  0.221100  1.0  0.0309
  C  C328  1  0.527000  0.180000  0.180000  1.0  -0.2477
  C  C329  1  0.028200  0.778900  0.278900  1.0  0.0299
  C  C330  1  0.027000  0.820000  0.320000  1.0  -0.2444
  C  C331  1  0.528200  0.778900  0.778900  1.0  0.0299
  C  C332  1  0.527000  0.820000  0.820000  1.0  -0.2444
  C  C333  1  0.528200  0.278900  0.278900  1.0  0.0299
  C  C334  1  0.527000  0.320000  0.320000  1.0  -0.2483
  C  C335  1  0.971800  0.221100  0.278900  1.0  0.0282
  C  C336  1  0.973000  0.180000  0.320000  1.0  -0.2463
  C  C337  1  0.471800  0.221100  0.778900  1.0  0.0282
  C  C338  1  0.473000  0.180000  0.820000  1.0  -0.2423
  C  C339  1  0.971800  0.778900  0.721100  1.0  0.0279
  C  C340  1  0.973000  0.820000  0.680000  1.0  -0.2417
  C  C341  1  0.971800  0.278900  0.221100  1.0  0.0279
  C  C342  1  0.973000  0.320000  0.180000  1.0  -0.2458
  C  C343  1  0.471800  0.778900  0.221100  1.0  0.0279
  C  C344  1  0.473000  0.820000  0.180000  1.0  -0.2417
  C  C345  1  0.721100  0.778900  0.971800  1.0  0.0316
  C  C346  1  0.680000  0.820000  0.973000  1.0  -0.2475
  C  C347  1  0.721100  0.278900  0.471800  1.0  0.0316
  C  C348  1  0.680000  0.320000  0.473000  1.0  -0.2475
  C  C349  1  0.278900  0.721100  0.471800  1.0  0.0329
  C  C350  1  0.320000  0.680000  0.473000  1.0  -0.2475
  C  C351  1  0.278900  0.778900  0.028200  1.0  0.0296
  C  C352  1  0.320000  0.820000  0.027000  1.0  -0.2484
  C  C353  1  0.721100  0.221100  0.028200  1.0  0.0293
  C  C354  1  0.680000  0.180000  0.027000  1.0  -0.2468
  C  C355  1  0.721100  0.721100  0.528200  1.0  0.0293
  C  C356  1  0.680000  0.680000  0.527000  1.0  -0.2468
  C  C357  1  0.971800  0.721100  0.778900  1.0  0.0282
  C  C358  1  0.973000  0.680000  0.820000  1.0  -0.2463
  C  C359  1  0.471800  0.721100  0.278900  1.0  0.0282
  C  C360  1  0.473000  0.680000  0.320000  1.0  -0.2463
  C  C361  1  0.471800  0.278900  0.721100  1.0  0.0279
  C  C362  1  0.473000  0.320000  0.680000  1.0  -0.2458
  C  C363  1  0.028200  0.278900  0.778900  1.0  0.0299
  C  C364  1  0.027000  0.320000  0.820000  1.0  -0.2483
  C  C365  1  0.028200  0.721100  0.221100  1.0  0.0309
  C  C366  1  0.027000  0.680000  0.180000  1.0  -0.2477
  C  C367  1  0.528200  0.721100  0.721100  1.0  0.0309
  C  C368  1  0.527000  0.680000  0.680000  1.0  -0.2477
  C  C369  1  0.778900  0.971800  0.721100  1.0  0.0312
  C  C370  1  0.820000  0.973000  0.680000  1.0  -0.2455
  C  C371  1  0.778900  0.471800  0.221100  1.0  0.0312
  C  C372  1  0.820000  0.473000  0.180000  1.0  -0.2455
  C  C373  1  0.221100  0.471800  0.778900  1.0  0.0298
  C  C374  1  0.180000  0.473000  0.820000  1.0  -0.2453
  C  C375  1  0.778900  0.028200  0.278900  1.0  0.032
  C  C376  1  0.820000  0.027000  0.320000  1.0  -0.2478
  C  C377  1  0.778900  0.528200  0.778900  1.0  0.032
  C  C378  1  0.820000  0.527000  0.820000  1.0  -0.2478
  C  C379  1  0.221100  0.028200  0.721100  1.0  0.0307
  C  C380  1  0.180000  0.027000  0.680000  1.0  -0.2461
  C  C381  1  0.778900  0.721100  0.028200  1.0  0.0302
  C  C382  1  0.820000  0.680000  0.027000  1.0  -0.2473
  C  C383  1  0.778900  0.221100  0.528200  1.0  0.0302
  C  C384  1  0.820000  0.180000  0.527000  1.0  -0.2473
  C  C385  1  0.221100  0.778900  0.528200  1.0  0.0286
  C  C386  1  0.180000  0.820000  0.527000  1.0  -0.2478
  C  C387  1  0.778900  0.278900  0.971800  1.0  0.0329
  C  C388  1  0.820000  0.320000  0.973000  1.0  -0.2488
  C  C389  1  0.778900  0.778900  0.471800  1.0  0.0329
  C  C390  1  0.820000  0.820000  0.473000  1.0  -0.2488
  C  C391  1  0.221100  0.721100  0.971800  1.0  0.0316
  C  C392  1  0.180000  0.680000  0.973000  1.0  -0.2469
  C  C393  1  0.721100  0.971800  0.221100  1.0  0.0298
  C  C394  1  0.680000  0.973000  0.180000  1.0  -0.245
  C  C395  1  0.721100  0.471800  0.721100  1.0  0.0298
  C  C396  1  0.680000  0.473000  0.680000  1.0  -0.245
  C  C397  1  0.278900  0.971800  0.778900  1.0  0.0308
  C  C398  1  0.320000  0.973000  0.820000  1.0  -0.2452
  C  C399  1  0.278900  0.528200  0.721100  1.0  0.0322
  C  C400  1  0.320000  0.527000  0.680000  1.0  -0.2477
  C  C401  1  0.721100  0.028200  0.778900  1.0  0.0306
  C  C402  1  0.680000  0.027000  0.820000  1.0  -0.2476
  C  C403  1  0.721100  0.528200  0.278900  1.0  0.0306
  C  C404  1  0.680000  0.527000  0.320000  1.0  -0.2476
  C  C405  1  0.971800  0.778900  0.278900  1.0  0.0277
  C  C406  1  0.973000  0.820000  0.320000  1.0  -0.2476
  C  C407  1  0.471800  0.778900  0.778900  1.0  0.0277
  C  C408  1  0.473000  0.820000  0.820000  1.0  -0.2476
  C  C409  1  0.971800  0.221100  0.721100  1.0  0.0285
  C  C410  1  0.973000  0.180000  0.680000  1.0  -0.2459
  C  C411  1  0.028200  0.778900  0.721100  1.0  0.03
  C  C412  1  0.027000  0.820000  0.680000  1.0  -0.248
  C  C413  1  0.528200  0.778900  0.221100  1.0  0.03
  C  C414  1  0.527000  0.820000  0.180000  1.0  -0.248
  C  C415  1  0.528200  0.221100  0.778900  1.0  0.0305
  C  C416  1  0.527000  0.180000  0.820000  1.0  -0.2477
  C  C417  1  0.250000  0.250000  0.112000  1.0  0.6786
  C  C418  1  0.250000  0.250000  0.056500  1.0  0.213
  C  C419  1  0.250000  0.750000  0.612000  1.0  0.6786
  C  C420  1  0.250000  0.750000  0.556500  1.0  0.213
  C  C421  1  0.750000  0.750000  0.112000  1.0  0.6786
  C  C422  1  0.750000  0.750000  0.056500  1.0  0.213
  C  C423  1  0.750000  0.250000  0.612000  1.0  0.6786
  C  C424  1  0.750000  0.250000  0.556500  1.0  0.213
  C  C425  1  0.750000  0.250000  0.888000  1.0  0.6796
  C  C426  1  0.750000  0.250000  0.943500  1.0  0.2127
  C  C427  1  0.750000  0.750000  0.388000  1.0  0.6796
  C  C428  1  0.750000  0.750000  0.443500  1.0  0.2127
  C  C429  1  0.250000  0.250000  0.388000  1.0  0.6796
  C  C430  1  0.250000  0.250000  0.443500  1.0  0.2127
  C  C431  1  0.250000  0.750000  0.888000  1.0  0.6796
  C  C432  1  0.250000  0.750000  0.943500  1.0  0.2127
  C  C433  1  0.112000  0.250000  0.250000  1.0  0.6768
  C  C434  1  0.056500  0.250000  0.250000  1.0  0.2075
  C  C435  1  0.612000  0.250000  0.750000  1.0  0.6768
  C  C436  1  0.556500  0.250000  0.750000  1.0  0.2075
  C  C437  1  0.112000  0.750000  0.750000  1.0  0.6768
  C  C438  1  0.056500  0.750000  0.750000  1.0  0.2075
  C  C439  1  0.612000  0.750000  0.250000  1.0  0.6768
  C  C440  1  0.556500  0.750000  0.250000  1.0  0.2075
  C  C441  1  0.888000  0.750000  0.250000  1.0  0.6768
  C  C442  1  0.943500  0.750000  0.250000  1.0  0.2096
  C  C443  1  0.388000  0.750000  0.750000  1.0  0.6768
  C  C444  1  0.443500  0.750000  0.750000  1.0  0.2096
  C  C445  1  0.388000  0.250000  0.250000  1.0  0.6768
  C  C446  1  0.443500  0.250000  0.250000  1.0  0.2096
  C  C447  1  0.888000  0.250000  0.750000  1.0  0.6768
  C  C448  1  0.943500  0.250000  0.750000  1.0  0.2096
  C  C449  1  0.250000  0.112000  0.250000  1.0  0.674
  C  C450  1  0.250000  0.056500  0.250000  1.0  0.2104
  C  C451  1  0.250000  0.612000  0.750000  1.0  0.674
  C  C452  1  0.250000  0.556500  0.750000  1.0  0.2104
  C  C453  1  0.750000  0.112000  0.750000  1.0  0.674
  C  C454  1  0.750000  0.056500  0.750000  1.0  0.2104
  C  C455  1  0.750000  0.612000  0.250000  1.0  0.674
  C  C456  1  0.750000  0.556500  0.250000  1.0  0.2104
  C  C457  1  0.250000  0.888000  0.750000  1.0  0.6753
  C  C458  1  0.250000  0.943500  0.750000  1.0  0.2116
  C  C459  1  0.250000  0.388000  0.250000  1.0  0.6753
  C  C460  1  0.250000  0.443500  0.250000  1.0  0.2116
  C  C461  1  0.750000  0.888000  0.250000  1.0  0.6753
  C  C462  1  0.750000  0.943500  0.250000  1.0  0.2116
  C  C463  1  0.750000  0.388000  0.750000  1.0  0.6753
  C  C464  1  0.750000  0.443500  0.750000  1.0  0.2116
  C  C465  1  0.250000  0.250000  0.888000  1.0  0.6796
  C  C466  1  0.250000  0.250000  0.943500  1.0  0.2127
  C  C467  1  0.250000  0.750000  0.388000  1.0  0.6796
  C  C468  1  0.250000  0.750000  0.443500  1.0  0.2127
  C  C469  1  0.750000  0.750000  0.888000  1.0  0.6796
  C  C470  1  0.750000  0.750000  0.943500  1.0  0.2127
  C  C471  1  0.750000  0.250000  0.388000  1.0  0.6796
  C  C472  1  0.750000  0.250000  0.443500  1.0  0.2127
  C  C473  1  0.250000  0.750000  0.112000  1.0  0.6786
  C  C474  1  0.250000  0.750000  0.056500  1.0  0.213
  C  C475  1  0.250000  0.250000  0.612000  1.0  0.6786
  C  C476  1  0.250000  0.250000  0.556500  1.0  0.213
  C  C477  1  0.750000  0.250000  0.112000  1.0  0.6786
  C  C478  1  0.750000  0.250000  0.056500  1.0  0.213
  C  C479  1  0.750000  0.750000  0.612000  1.0  0.6786
  C  C480  1  0.750000  0.750000  0.556500  1.0  0.213
  C  C481  1  0.250000  0.112000  0.750000  1.0  0.674
  C  C482  1  0.250000  0.056500  0.750000  1.0  0.2104
  C  C483  1  0.250000  0.612000  0.250000  1.0  0.674
  C  C484  1  0.250000  0.556500  0.250000  1.0  0.2104
  C  C485  1  0.750000  0.112000  0.250000  1.0  0.674
  C  C486  1  0.750000  0.056500  0.250000  1.0  0.2104
  C  C487  1  0.750000  0.612000  0.750000  1.0  0.674
  C  C488  1  0.750000  0.556500  0.750000  1.0  0.2104
  C  C489  1  0.750000  0.888000  0.750000  1.0  0.6753
  C  C490  1  0.750000  0.943500  0.750000  1.0  0.2116
  C  C491  1  0.750000  0.388000  0.250000  1.0  0.6753
  C  C492  1  0.750000  0.443500  0.250000  1.0  0.2116
  C  C493  1  0.250000  0.888000  0.250000  1.0  0.6753
  C  C494  1  0.250000  0.943500  0.250000  1.0  0.2116
  C  C495  1  0.250000  0.388000  0.750000  1.0  0.6753
  C  C496  1  0.250000  0.443500  0.750000  1.0  0.2116
  C  C497  1  0.112000  0.250000  0.750000  1.0  0.6768
  C  C498  1  0.056500  0.250000  0.750000  1.0  0.2075
  C  C499  1  0.612000  0.250000  0.250000  1.0  0.6768
  C  C500  1  0.556500  0.250000  0.250000  1.0  0.2075
  C  C501  1  0.112000  0.750000  0.250000  1.0  0.6768
  C  C502  1  0.056500  0.750000  0.250000  1.0  0.2075
  C  C503  1  0.612000  0.750000  0.750000  1.0  0.6768
  C  C504  1  0.556500  0.750000  0.750000  1.0  0.2075
  C  C505  1  0.888000  0.250000  0.250000  1.0  0.6768
  C  C506  1  0.943500  0.250000  0.250000  1.0  0.2096
  C  C507  1  0.388000  0.250000  0.750000  1.0  0.6768
  C  C508  1  0.443500  0.250000  0.750000  1.0  0.2096
  C  C509  1  0.888000  0.750000  0.750000  1.0  0.6768
  C  C510  1  0.943500  0.750000  0.750000  1.0  0.2096
  C  C511  1  0.388000  0.750000  0.250000  1.0  0.6768
  C  C512  1  0.443500  0.750000  0.250000  1.0  0.2096
  O  O513  1  0.250000  0.250000  0.250000  1.0  -1.3043
  O  O514  1  0.750000  0.750000  0.250000  1.0  -1.3043
  O  O515  1  0.750000  0.250000  0.750000  1.0  -1.3043
  O  O516  1  0.250000  0.750000  0.750000  1.0  -1.3043
  O  O517  1  0.250000  0.250000  0.750000  1.0  -1.3043
  O  O518  1  0.750000  0.750000  0.750000  1.0  -1.3043
  O  O519  1  0.750000  0.250000  0.250000  1.0  -1.3043
  O  O520  1  0.250000  0.750000  0.250000  1.0  -1.3043
  O  O521  1  0.218600  0.281400  0.133400  1.0  -0.6318
  O  O522  1  0.218600  0.781400  0.633400  1.0  -0.6318
  O  O523  1  0.781400  0.718600  0.133400  1.0  -0.6319
  O  O524  1  0.781400  0.218600  0.633400  1.0  -0.6319
  O  O525  1  0.281400  0.218600  0.133400  1.0  -0.6319
  O  O526  1  0.781400  0.281400  0.866600  1.0  -0.6318
  O  O527  1  0.781400  0.781400  0.366600  1.0  -0.6318
  O  O528  1  0.281400  0.281400  0.366600  1.0  -0.6318
  O  O529  1  0.218600  0.718600  0.866600  1.0  -0.6317
  O  O530  1  0.218600  0.218600  0.366600  1.0  -0.6317
  O  O531  1  0.133400  0.218600  0.281400  1.0  -0.6319
  O  O532  1  0.633400  0.218600  0.781400  1.0  -0.6319
  O  O533  1  0.133400  0.781400  0.718600  1.0  -0.6314
  O  O534  1  0.133400  0.281400  0.218600  1.0  -0.6314
  O  O535  1  0.633400  0.781400  0.218600  1.0  -0.6314
  O  O536  1  0.866600  0.781400  0.281400  1.0  -0.6323
  O  O537  1  0.366600  0.781400  0.781400  1.0  -0.6323
  O  O538  1  0.366600  0.281400  0.281400  1.0  -0.6323
  O  O539  1  0.866600  0.218600  0.718600  1.0  -0.6321
  O  O540  1  0.366600  0.218600  0.218600  1.0  -0.6321
  O  O541  1  0.281400  0.133400  0.218600  1.0  -0.6326
  O  O542  1  0.281400  0.633400  0.718600  1.0  -0.6326
  O  O543  1  0.718600  0.133400  0.781400  1.0  -0.6331
  O  O544  1  0.718600  0.633400  0.281400  1.0  -0.6331
  O  O545  1  0.218600  0.133400  0.281400  1.0  -0.6331
  O  O546  1  0.281400  0.866600  0.781400  1.0  -0.6328
  O  O547  1  0.281400  0.366600  0.281400  1.0  -0.6328
  O  O548  1  0.718600  0.866600  0.218600  1.0  -0.6323
  O  O549  1  0.718600  0.366600  0.718600  1.0  -0.6323
  O  O550  1  0.218600  0.366600  0.218600  1.0  -0.6323
  O  O551  1  0.281400  0.218600  0.866600  1.0  -0.6321
  O  O552  1  0.281400  0.718600  0.366600  1.0  -0.6321
  O  O553  1  0.718600  0.781400  0.866600  1.0  -0.6318
  O  O554  1  0.718600  0.281400  0.366600  1.0  -0.6318
  O  O555  1  0.218600  0.281400  0.866600  1.0  -0.6318
  O  O556  1  0.281400  0.781400  0.133400  1.0  -0.6318
  O  O557  1  0.281400  0.281400  0.633400  1.0  -0.6318
  O  O558  1  0.718600  0.218600  0.133400  1.0  -0.6316
  O  O559  1  0.718600  0.718600  0.633400  1.0  -0.6316
  O  O560  1  0.218600  0.218600  0.633400  1.0  -0.6316
  O  O561  1  0.218600  0.133400  0.718600  1.0  -0.6326
  O  O562  1  0.218600  0.633400  0.218600  1.0  -0.6326
  O  O563  1  0.781400  0.133400  0.281400  1.0  -0.633
  O  O564  1  0.781400  0.633400  0.781400  1.0  -0.633
  O  O565  1  0.281400  0.633400  0.281400  1.0  -0.633
  O  O566  1  0.781400  0.866600  0.718600  1.0  -0.6326
  O  O567  1  0.781400  0.366600  0.218600  1.0  -0.6326
  O  O568  1  0.281400  0.866600  0.218600  1.0  -0.6326
  O  O569  1  0.218600  0.866600  0.281400  1.0  -0.6328
  O  O570  1  0.218600  0.366600  0.781400  1.0  -0.6328
  O  O571  1  0.133400  0.281400  0.781400  1.0  -0.6319
  O  O572  1  0.633400  0.281400  0.281400  1.0  -0.6319
  O  O573  1  0.133400  0.718600  0.218600  1.0  -0.6317
  O  O574  1  0.633400  0.718600  0.718600  1.0  -0.6317
  O  O575  1  0.633400  0.218600  0.218600  1.0  -0.6317
  O  O576  1  0.866600  0.281400  0.218600  1.0  -0.6317
  O  O577  1  0.366600  0.281400  0.718600  1.0  -0.6317
  O  O578  1  0.866600  0.718600  0.781400  1.0  -0.6324
  O  O579  1  0.866600  0.218600  0.281400  1.0  -0.6324
  O  O580  1  0.366600  0.718600  0.281400  1.0  -0.6324
  O  O581  1  0.781400  0.718600  0.866600  1.0  -0.6321
  O  O582  1  0.781400  0.218600  0.366600  1.0  -0.6321
  O  O583  1  0.218600  0.781400  0.366600  1.0  -0.6318
  O  O584  1  0.218600  0.718600  0.133400  1.0  -0.6316
  O  O585  1  0.781400  0.281400  0.133400  1.0  -0.6318
  O  O586  1  0.781400  0.781400  0.633400  1.0  -0.6318
  O  O587  1  0.866600  0.781400  0.718600  1.0  -0.6317
  O  O588  1  0.366600  0.781400  0.218600  1.0  -0.6317
  O  O589  1  0.366600  0.218600  0.781400  1.0  -0.6324
  O  O590  1  0.133400  0.218600  0.718600  1.0  -0.6317
  O  O591  1  0.133400  0.781400  0.281400  1.0  -0.6319
  O  O592  1  0.633400  0.781400  0.781400  1.0  -0.6319
  O  O593  1  0.718600  0.866600  0.781400  1.0  -0.6328
  O  O594  1  0.718600  0.366600  0.281400  1.0  -0.6328
  O  O595  1  0.281400  0.366600  0.718600  1.0  -0.6326
  O  O596  1  0.718600  0.133400  0.218600  1.0  -0.6326
  O  O597  1  0.718600  0.633400  0.718600  1.0  -0.6326
  O  O598  1  0.281400  0.133400  0.781400  1.0  -0.633
  O  O599  1  0.718600  0.781400  0.133400  1.0  -0.6318
  O  O600  1  0.718600  0.281400  0.633400  1.0  -0.6318
  O  O601  1  0.281400  0.718600  0.633400  1.0  -0.6319
  O  O602  1  0.718600  0.218600  0.866600  1.0  -0.6317
  O  O603  1  0.718600  0.718600  0.366600  1.0  -0.6317
  O  O604  1  0.281400  0.781400  0.866600  1.0  -0.6318
  O  O605  1  0.781400  0.866600  0.281400  1.0  -0.6328
  O  O606  1  0.781400  0.366600  0.781400  1.0  -0.6328
  O  O607  1  0.218600  0.866600  0.718600  1.0  -0.6323
  O  O608  1  0.218600  0.633400  0.781400  1.0  -0.6331
  O  O609  1  0.781400  0.133400  0.718600  1.0  -0.6326
  O  O610  1  0.781400  0.633400  0.218600  1.0  -0.6326
  O  O611  1  0.866600  0.718600  0.218600  1.0  -0.6321
  O  O612  1  0.366600  0.718600  0.718600  1.0  -0.6321
  O  O613  1  0.866600  0.281400  0.781400  1.0  -0.6323
  O  O614  1  0.133400  0.718600  0.781400  1.0  -0.6319
  O  O615  1  0.633400  0.718600  0.281400  1.0  -0.6319
  O  O616  1  0.633400  0.281400  0.718600  1.0  -0.6314
