# generated using pymatgen
data_Zn4H24C54O13
_symmetry_space_group_name_H-M   'P 1'
_cell_length_a   24.31100000
_cell_length_b   24.31100000
_cell_length_c   24.31100000
_cell_angle_alpha   60.00000000
_cell_angle_beta   60.00000000
_cell_angle_gamma   60.00000000
_symmetry_Int_Tables_number   1
_chemical_formula_structural   Zn4H24C54O13
_chemical_formula_sum   'Zn8 H48 C108 O26'
_cell_volume   10159.99448352
_cell_formula_units_Z   2
loop_
 _symmetry_equiv_pos_site_id
 _symmetry_equiv_pos_as_xyz
  1  'x, y, z'
loop_
 _atom_site_type_symbol
 _atom_site_label
 _atom_site_symmetry_multiplicity
 _atom_site_fract_x
 _atom_site_fract_y
 _atom_site_fract_z
 _atom_site_occupancy
 _atom_site_charge
  Zn  Zn1  1  0.217250  0.348250  0.217250  1.0  1.0791
  Zn  Zn2  1  0.348250  0.217250  0.217250  1.0  1.0783
  Zn  Zn3  1  0.217250  0.217250  0.217250  1.0  1.0824
  Zn  Zn4  1  0.217250  0.217250  0.348250  1.0  1.0842
  Zn  Zn5  1  0.651750  0.782750  0.782750  1.0  1.0808
  Zn  Zn6  1  0.782750  0.651750  0.782750  1.0  1.0787
  Zn  Zn7  1  0.782750  0.782750  0.782750  1.0  1.0825
  Zn  Zn8  1  0.782750  0.782750  0.651750  1.0  1.0813
  H  H9  1  0.486600  0.321000  0.096200  1.0  0.1167
  H  H10  1  0.595100  0.338700  0.033100  1.0  0.1039
  H  H11  1  0.321000  0.486600  0.096200  1.0  0.1135
  H  H12  1  0.338700  0.595100  0.033100  1.0  0.1053
  H  H13  1  0.096200  0.096200  0.486600  1.0  0.1152
  H  H14  1  0.033100  0.033100  0.595100  1.0  0.1036
  H  H15  1  0.096200  0.096200  0.321000  1.0  0.1153
  H  H16  1  0.033100  0.033100  0.338700  1.0  0.1046
  H  H17  1  0.486600  0.096200  0.096200  1.0  0.1141
  H  H18  1  0.595100  0.033100  0.033100  1.0  0.1049
  H  H19  1  0.321000  0.096200  0.096200  1.0  0.1117
  H  H20  1  0.338700  0.033100  0.033100  1.0  0.1065
  H  H21  1  0.096200  0.486600  0.321000  1.0  0.1148
  H  H22  1  0.033100  0.595100  0.338700  1.0  0.1046
  H  H23  1  0.096200  0.321000  0.486600  1.0  0.117
  H  H24  1  0.033100  0.338700  0.595100  1.0  0.1038
  H  H25  1  0.486600  0.096200  0.321000  1.0  0.1148
  H  H26  1  0.595100  0.033100  0.338700  1.0  0.1054
  H  H27  1  0.321000  0.096200  0.486600  1.0  0.1113
  H  H28  1  0.338700  0.033100  0.595100  1.0  0.1057
  H  H29  1  0.096200  0.321000  0.096200  1.0  0.116
  H  H30  1  0.033100  0.338700  0.033100  1.0  0.1041
  H  H31  1  0.096200  0.486600  0.096200  1.0  0.1143
  H  H32  1  0.033100  0.595100  0.033100  1.0  0.1044
  H  H33  1  0.679000  0.513400  0.903800  1.0  0.1146
  H  H34  1  0.661300  0.404900  0.966900  1.0  0.1058
  H  H35  1  0.513400  0.679000  0.903800  1.0  0.1166
  H  H36  1  0.404900  0.661300  0.966900  1.0  0.1029
  H  H37  1  0.903800  0.903800  0.513400  1.0  0.1148
  H  H38  1  0.966900  0.966900  0.404900  1.0  0.1039
  H  H39  1  0.903800  0.903800  0.679000  1.0  0.1156
  H  H40  1  0.966900  0.966900  0.661300  1.0  0.1035
  H  H41  1  0.903800  0.513400  0.903800  1.0  0.1144
  H  H42  1  0.966900  0.404900  0.966900  1.0  0.104
  H  H43  1  0.903800  0.679000  0.903800  1.0  0.117
  H  H44  1  0.966900  0.661300  0.966900  1.0  0.1033
  H  H45  1  0.513400  0.903800  0.679000  1.0  0.1144
  H  H46  1  0.404900  0.966900  0.661300  1.0  0.1047
  H  H47  1  0.679000  0.903800  0.513400  1.0  0.1137
  H  H48  1  0.661300  0.966900  0.404900  1.0  0.1064
  H  H49  1  0.903800  0.513400  0.679000  1.0  0.1145
  H  H50  1  0.966900  0.404900  0.661300  1.0  0.1044
  H  H51  1  0.903800  0.679000  0.513400  1.0  0.1166
  H  H52  1  0.966900  0.661300  0.404900  1.0  0.1039
  H  H53  1  0.679000  0.903800  0.903800  1.0  0.114
  H  H54  1  0.661300  0.966900  0.966900  1.0  0.1057
  H  H55  1  0.513400  0.903800  0.903800  1.0  0.1139
  H  H56  1  0.404900  0.966900  0.966900  1.0  0.1044
  C  C57  1  0.465500  0.367500  0.083500  1.0  -0.1251
  C  C58  1  0.503800  0.410600  0.042800  1.0  0.0265
  C  C59  1  0.574100  0.385300  0.020300  1.0  -0.1413
  C  C60  1  0.367500  0.465500  0.083500  1.0  -0.1287
  C  C61  1  0.410600  0.503800  0.042800  1.0  0.0232
  C  C62  1  0.385300  0.574100  0.020300  1.0  -0.1428
  C  C63  1  0.083500  0.083500  0.465500  1.0  -0.1287
  C  C64  1  0.042800  0.042800  0.503800  1.0  0.0247
  C  C65  1  0.020300  0.020300  0.574100  1.0  -0.1428
  C  C66  1  0.083500  0.083500  0.367500  1.0  -0.127
  C  C67  1  0.042800  0.042800  0.410600  1.0  0.0235
  C  C68  1  0.020300  0.020300  0.385300  1.0  -0.1446
  C  C69  1  0.465500  0.083500  0.083500  1.0  -0.1278
  C  C70  1  0.503800  0.042800  0.042800  1.0  0.0269
  C  C71  1  0.574100  0.020300  0.020300  1.0  -0.1451
  C  C72  1  0.367500  0.083500  0.083500  1.0  -0.1268
  C  C73  1  0.410600  0.042800  0.042800  1.0  0.0209
  C  C74  1  0.385300  0.020300  0.020300  1.0  -0.1392
  C  C75  1  0.083500  0.465500  0.367500  1.0  -0.1282
  C  C76  1  0.042800  0.503800  0.410600  1.0  0.0232
  C  C77  1  0.020300  0.574100  0.385300  1.0  -0.1446
  C  C78  1  0.083500  0.367500  0.465500  1.0  -0.1275
  C  C79  1  0.042800  0.410600  0.503800  1.0  0.0245
  C  C80  1  0.020300  0.385300  0.574100  1.0  -0.1424
  C  C81  1  0.465500  0.083500  0.367500  1.0  -0.1275
  C  C82  1  0.503800  0.042800  0.410600  1.0  0.0265
  C  C83  1  0.574100  0.020300  0.385300  1.0  -0.1433
  C  C84  1  0.367500  0.083500  0.465500  1.0  -0.1271
  C  C85  1  0.410600  0.042800  0.503800  1.0  0.0205
  C  C86  1  0.385300  0.020300  0.574100  1.0  -0.1422
  C  C87  1  0.083500  0.367500  0.083500  1.0  -0.1272
  C  C88  1  0.042800  0.410600  0.042800  1.0  0.0245
  C  C89  1  0.020300  0.385300  0.020300  1.0  -0.1424
  C  C90  1  0.083500  0.465500  0.083500  1.0  -0.1287
  C  C91  1  0.042800  0.503800  0.042800  1.0  0.0238
  C  C92  1  0.020300  0.574100  0.020300  1.0  -0.145
  C  C93  1  0.632500  0.534500  0.916500  1.0  -0.1276
  C  C94  1  0.589400  0.496200  0.957200  1.0  0.0243
  C  C95  1  0.614700  0.425900  0.979700  1.0  -0.1401
  C  C96  1  0.534500  0.632500  0.916500  1.0  -0.1298
  C  C97  1  0.496200  0.589400  0.957200  1.0  0.0248
  C  C98  1  0.425900  0.614700  0.979700  1.0  -0.1413
  C  C99  1  0.916500  0.916500  0.534500  1.0  -0.1235
  C  C100  1  0.957200  0.957200  0.496200  1.0  0.0244
  C  C101  1  0.979700  0.979700  0.425900  1.0  -0.1443
  C  C102  1  0.916500  0.916500  0.632500  1.0  -0.1287
  C  C103  1  0.957200  0.957200  0.589400  1.0  0.0257
  C  C104  1  0.979700  0.979700  0.614700  1.0  -0.1431
  C  C105  1  0.916500  0.534500  0.916500  1.0  -0.1292
  C  C106  1  0.957200  0.496200  0.957200  1.0  0.0258
  C  C107  1  0.979700  0.425900  0.979700  1.0  -0.1453
  C  C108  1  0.916500  0.632500  0.916500  1.0  -0.1293
  C  C109  1  0.957200  0.589400  0.957200  1.0  0.0272
  C  C110  1  0.979700  0.614700  0.979700  1.0  -0.143
  C  C111  1  0.534500  0.916500  0.632500  1.0  -0.1263
  C  C112  1  0.496200  0.957200  0.589400  1.0  0.0226
  C  C113  1  0.425900  0.979700  0.614700  1.0  -0.1445
  C  C114  1  0.632500  0.916500  0.534500  1.0  -0.1272
  C  C115  1  0.589400  0.957200  0.496200  1.0  0.026
  C  C116  1  0.614700  0.979700  0.425900  1.0  -0.1404
  C  C117  1  0.916500  0.534500  0.632500  1.0  -0.1304
  C  C118  1  0.957200  0.496200  0.589400  1.0  0.0269
  C  C119  1  0.979700  0.425900  0.614700  1.0  -0.1472
  C  C120  1  0.916500  0.632500  0.534500  1.0  -0.1291
  C  C121  1  0.957200  0.589400  0.496200  1.0  0.0271
  C  C122  1  0.979700  0.614700  0.425900  1.0  -0.1444
  C  C123  1  0.632500  0.916500  0.916500  1.0  -0.1286
  C  C124  1  0.589400  0.957200  0.957200  1.0  0.0276
  C  C125  1  0.614700  0.979700  0.979700  1.0  -0.1419
  C  C126  1  0.534500  0.916500  0.916500  1.0  -0.1247
  C  C127  1  0.496200  0.957200  0.957200  1.0  0.0215
  C  C128  1  0.425900  0.979700  0.979700  1.0  -0.1441
  C  C129  1  0.395200  0.395200  0.104800  1.0  -1e-04
  C  C130  1  0.356300  0.356300  0.143700  1.0  0.7762
  C  C131  1  0.480800  0.480800  0.019200  1.0  0.0283
  C  C132  1  0.104800  0.104800  0.395200  1.0  0.0
  C  C133  1  0.143700  0.143700  0.356300  1.0  0.7791
  C  C134  1  0.019200  0.019200  0.480800  1.0  0.0274
  C  C135  1  0.395200  0.104800  0.104800  1.0  -0.0014
  C  C136  1  0.356300  0.143700  0.143700  1.0  0.7759
  C  C137  1  0.480800  0.019200  0.019200  1.0  0.0283
  C  C138  1  0.104800  0.395200  0.395200  1.0  0.0003
  C  C139  1  0.143700  0.356300  0.356300  1.0  0.7782
  C  C140  1  0.019200  0.480800  0.480800  1.0  0.0279
  C  C141  1  0.395200  0.104800  0.395200  1.0  -0.0003
  C  C142  1  0.356300  0.143700  0.356300  1.0  0.7776
  C  C143  1  0.480800  0.019200  0.480800  1.0  0.0282
  C  C144  1  0.104800  0.395200  0.104800  1.0  -1e-04
  C  C145  1  0.143700  0.356300  0.143700  1.0  0.777
  C  C146  1  0.019200  0.480800  0.019200  1.0  0.028
  C  C147  1  0.604800  0.604800  0.895200  1.0  0.0
  C  C148  1  0.643700  0.643700  0.856300  1.0  0.7791
  C  C149  1  0.519200  0.519200  0.980800  1.0  0.0274
  C  C150  1  0.895200  0.895200  0.604800  1.0  -1e-04
  C  C151  1  0.856300  0.856300  0.643700  1.0  0.7762
  C  C152  1  0.980800  0.980800  0.519200  1.0  0.0283
  C  C153  1  0.895200  0.604800  0.895200  1.0  -0.0003
  C  C154  1  0.856300  0.643700  0.856300  1.0  0.7776
  C  C155  1  0.980800  0.519200  0.980800  1.0  0.0282
  C  C156  1  0.604800  0.895200  0.604800  1.0  -1e-04
  C  C157  1  0.643700  0.856300  0.643700  1.0  0.777
  C  C158  1  0.519200  0.980800  0.519200  1.0  0.028
  C  C159  1  0.895200  0.604800  0.604800  1.0  -0.0014
  C  C160  1  0.856300  0.643700  0.643700  1.0  0.7759
  C  C161  1  0.980800  0.519200  0.519200  1.0  0.0283
  C  C162  1  0.604800  0.895200  0.895200  1.0  0.0003
  C  C163  1  0.643700  0.856300  0.856300  1.0  0.7782
  C  C164  1  0.519200  0.980800  0.980800  1.0  0.0279
  O  O165  1  0.250000  0.250000  0.250000  1.0  -1.2644
  O  O166  1  0.750000  0.750000  0.750000  1.0  -1.2644
  O  O167  1  0.293700  0.383700  0.161300  1.0  -0.6297
  O  O168  1  0.383700  0.293700  0.161300  1.0  -0.6314
  O  O169  1  0.161300  0.161300  0.293700  1.0  -0.6307
  O  O170  1  0.161300  0.161300  0.383700  1.0  -0.6297
  O  O171  1  0.293700  0.161300  0.161300  1.0  -0.6305
  O  O172  1  0.383700  0.161300  0.161300  1.0  -0.6301
  O  O173  1  0.161300  0.293700  0.383700  1.0  -0.6314
  O  O174  1  0.161300  0.383700  0.293700  1.0  -0.6307
  O  O175  1  0.293700  0.161300  0.383700  1.0  -0.6306
  O  O176  1  0.383700  0.161300  0.293700  1.0  -0.6304
  O  O177  1  0.161300  0.383700  0.161300  1.0  -0.6308
  O  O178  1  0.161300  0.293700  0.161300  1.0  -0.6313
  O  O179  1  0.616300  0.706300  0.838700  1.0  -0.6323
  O  O180  1  0.706300  0.616300  0.838700  1.0  -0.6296
  O  O181  1  0.838700  0.838700  0.706300  1.0  -0.6297
  O  O182  1  0.838700  0.838700  0.616300  1.0  -0.6302
  O  O183  1  0.838700  0.706300  0.838700  1.0  -0.6316
  O  O184  1  0.838700  0.616300  0.838700  1.0  -0.6308
  O  O185  1  0.706300  0.838700  0.616300  1.0  -0.6301
  O  O186  1  0.616300  0.838700  0.706300  1.0  -0.6307
  O  O187  1  0.838700  0.706300  0.616300  1.0  -0.6315
  O  O188  1  0.838700  0.616300  0.706300  1.0  -0.631
  O  O189  1  0.616300  0.838700  0.838700  1.0  -0.6307
  O  O190  1  0.706300  0.838700  0.838700  1.0  -0.6306
