# generated using pymatgen
data_ZnH9C22O5
_symmetry_space_group_name_H-M   'P 1'
_cell_length_a   29.56650000
_cell_length_b   29.56650000
_cell_length_c   31.15630000
_cell_angle_alpha   103.72600000
_cell_angle_beta   103.72600000
_cell_angle_gamma   90.00380000
_symmetry_Int_Tables_number   1
_chemical_formula_structural   ZnH9C22O5
_chemical_formula_sum   'Zn16 H144 C352 O80'
_cell_volume   25656.82709837
_cell_formula_units_Z   16
loop_
 _symmetry_equiv_pos_site_id
 _symmetry_equiv_pos_as_xyz
  1  'x, y, z'
loop_
 _atom_site_type_symbol
 _atom_site_label
 _atom_site_symmetry_multiplicity
 _atom_site_fract_x
 _atom_site_fract_y
 _atom_site_fract_z
 _atom_site_occupancy
 _atom_site_charge
  Zn  Zn1  1  0.466910  0.007730  0.029820  1.0  1.1549
  Zn  Zn2  1  0.492560  0.701980  0.470370  1.0  1.1532
  Zn  Zn3  1  0.992750  0.033270  0.470400  1.0  1.147
  Zn  Zn4  1  0.507420  0.798080  0.529820  1.0  1.1317
  Zn  Zn5  1  0.992270  0.533090  0.470180  1.0  1.1547
  Zn  Zn6  1  0.298020  0.507440  0.029630  1.0  1.1546
  Zn  Zn7  1  0.966730  0.007250  0.029600  1.0  1.1502
  Zn  Zn8  1  0.201920  0.492580  0.970180  1.0  1.1367
  Zn  Zn9  1  0.533090  0.992270  0.970180  1.0  1.1532
  Zn  Zn10  1  0.507440  0.298020  0.529630  1.0  1.1564
  Zn  Zn11  1  0.007250  0.966730  0.529600  1.0  1.1468
  Zn  Zn12  1  0.492580  0.201920  0.470180  1.0  1.1295
  Zn  Zn13  1  0.007730  0.466910  0.529820  1.0  1.1544
  Zn  Zn14  1  0.701980  0.492560  0.970370  1.0  1.1527
  Zn  Zn15  1  0.033270  0.992750  0.970400  1.0  1.15
  Zn  Zn16  1  0.798080  0.507420  0.029820  1.0  1.1378
  H  H17  1  0.648800  0.773600  0.098100  1.0  0.1257
  H  H18  1  0.726500  0.851100  0.402100  1.0  0.1246
  H  H19  1  0.659200  0.847400  0.079100  1.0  0.1186
  H  H20  1  0.619000  0.896800  0.036700  1.0  0.1149
  H  H21  1  0.536500  0.928900  0.125300  1.0  0.1118
  H  H22  1  0.576800  0.879600  0.167800  1.0  0.1174
  H  H23  1  0.630300  0.691900  0.079800  1.0  0.1156
  H  H24  1  0.649700  0.621100  0.038000  1.0  0.1138
  H  H25  1  0.776900  0.634900  0.126100  1.0  0.1131
  H  H26  1  0.757600  0.705800  0.167900  1.0  0.1221
  H  H27  1  0.795500  0.924700  0.332100  1.0  0.1189
  H  H28  1  0.866400  0.964800  0.374200  1.0  0.1117
  H  H29  1  0.878600  0.882800  0.463300  1.0  0.1142
  H  H30  1  0.807800  0.842600  0.421200  1.0  0.1171
  H  H31  1  0.352000  0.725000  0.903600  1.0  0.1269
  H  H32  1  0.243500  0.619100  0.831200  1.0  0.1199
  H  H33  1  0.224400  0.569800  0.873700  1.0  0.1141
  H  H34  1  0.350100  0.604300  0.963900  1.0  0.1149
  H  H35  1  0.369200  0.653600  0.921300  1.0  0.1184
  H  H36  1  0.340700  0.808900  0.921100  1.0  0.1182
  H  H37  1  0.380800  0.880000  0.962800  1.0  0.113
  H  H38  1  0.463200  0.866800  0.874100  1.0  0.1131
  H  H39  1  0.423100  0.795700  0.832400  1.0  0.1195
  H  H40  1  0.224900  0.850300  0.404200  1.0  0.1242
  H  H41  1  0.151400  0.840600  0.421700  1.0  0.1182
  H  H42  1  0.102200  0.881000  0.464400  1.0  0.1126
  H  H43  1  0.069900  0.963500  0.375700  1.0  0.1153
  H  H44  1  0.119100  0.923100  0.333100  1.0  0.116
  H  H45  1  0.296600  0.744000  0.332500  1.0  0.1189
  H  H46  1  0.367600  0.724800  0.374200  1.0  0.1151
  H  H47  1  0.379200  0.850400  0.464700  1.0  0.1147
  H  H48  1  0.308200  0.869600  0.422900  1.0  0.1173
  H  H49  1  0.651700  0.871100  0.422300  1.0  0.1175
  H  H50  1  0.601400  0.851800  0.463700  1.0  0.1152
  H  H51  1  0.571200  0.724600  0.375300  1.0  0.1139
  H  H52  1  0.621600  0.744000  0.333900  1.0  0.1213
  H  H53  1  0.226400  0.351200  0.401900  1.0  0.1263
  H  H54  1  0.148900  0.273500  0.097900  1.0  0.1243
  H  H55  1  0.152600  0.340800  0.420900  1.0  0.1189
  H  H56  1  0.103200  0.381000  0.463300  1.0  0.1137
  H  H57  1  0.071100  0.463500  0.374700  1.0  0.112
  H  H58  1  0.120400  0.423200  0.332200  1.0  0.1184
  H  H59  1  0.308100  0.369700  0.420200  1.0  0.1164
  H  H60  1  0.378900  0.350300  0.462000  1.0  0.1145
  H  H61  1  0.365100  0.223100  0.373900  1.0  0.1125
  H  H62  1  0.294200  0.242400  0.332100  1.0  0.1216
  H  H63  1  0.075300  0.204500  0.167900  1.0  0.1175
  H  H64  1  0.035200  0.133600  0.125800  1.0  0.1122
  H  H65  1  0.117200  0.121400  0.036700  1.0  0.114
  H  H66  1  0.157400  0.192200  0.078800  1.0  0.1173
  H  H67  1  0.275000  0.648000  0.596400  1.0  0.1268
  H  H68  1  0.380900  0.756500  0.668800  1.0  0.1199
  H  H69  1  0.430200  0.775600  0.626300  1.0  0.1141
  H  H70  1  0.395700  0.649900  0.536100  1.0  0.1136
  H  H71  1  0.346400  0.630800  0.578700  1.0  0.1182
  H  H72  1  0.191100  0.659300  0.578900  1.0  0.1184
  H  H73  1  0.120000  0.619200  0.537200  1.0  0.1133
  H  H74  1  0.133200  0.536800  0.625900  1.0  0.1126
  H  H75  1  0.204300  0.576900  0.667600  1.0  0.1199
  H  H76  1  0.149700  0.775100  0.095800  1.0  0.124
  H  H77  1  0.159400  0.848600  0.078300  1.0  0.1176
  H  H78  1  0.119000  0.897800  0.035600  1.0  0.1133
  H  H79  1  0.036500  0.930100  0.124300  1.0  0.1155
  H  H80  1  0.076900  0.880900  0.166900  1.0  0.1165
  H  H81  1  0.256000  0.703400  0.167500  1.0  0.1193
  H  H82  1  0.275200  0.632400  0.125800  1.0  0.1156
  H  H83  1  0.149600  0.620800  0.035300  1.0  0.114
  H  H84  1  0.130400  0.691800  0.077100  1.0  0.1166
  H  H85  1  0.128900  0.348300  0.077700  1.0  0.1179
  H  H86  1  0.148200  0.398600  0.036300  1.0  0.1153
  H  H87  1  0.275400  0.428800  0.124700  1.0  0.1141
  H  H88  1  0.256000  0.378400  0.166100  1.0  0.122
  H  H89  1  0.351200  0.226400  0.901900  1.0  0.1264
  H  H90  1  0.273500  0.148900  0.597900  1.0  0.1243
  H  H91  1  0.340800  0.152600  0.920900  1.0  0.1188
  H  H92  1  0.381000  0.103200  0.963300  1.0  0.115
  H  H93  1  0.463500  0.071100  0.874700  1.0  0.1117
  H  H94  1  0.423200  0.120400  0.832200  1.0  0.1178
  H  H95  1  0.369700  0.308100  0.920200  1.0  0.1153
  H  H96  1  0.350300  0.378900  0.962000  1.0  0.1145
  H  H97  1  0.223100  0.365100  0.873900  1.0  0.1128
  H  H98  1  0.242400  0.294200  0.832100  1.0  0.1216
  H  H99  1  0.204500  0.075300  0.667900  1.0  0.1184
  H  H100  1  0.133600  0.035200  0.625800  1.0  0.1113
  H  H101  1  0.121400  0.117200  0.536700  1.0  0.1138
  H  H102  1  0.192200  0.157400  0.578800  1.0  0.117
  H  H103  1  0.648000  0.275000  0.096400  1.0  0.1268
  H  H104  1  0.756500  0.380900  0.168800  1.0  0.1191
  H  H105  1  0.775600  0.430200  0.126300  1.0  0.1144
  H  H106  1  0.649900  0.395700  0.036100  1.0  0.1144
  H  H107  1  0.630800  0.346400  0.078700  1.0  0.1177
  H  H108  1  0.659300  0.191100  0.078900  1.0  0.1182
  H  H109  1  0.619200  0.120000  0.037200  1.0  0.1129
  H  H110  1  0.536800  0.133200  0.125900  1.0  0.1128
  H  H111  1  0.576900  0.204300  0.167600  1.0  0.1191
  H  H112  1  0.775100  0.149700  0.595800  1.0  0.1244
  H  H113  1  0.848600  0.159400  0.578300  1.0  0.1181
  H  H114  1  0.897800  0.119000  0.535600  1.0  0.1126
  H  H115  1  0.930100  0.036500  0.624300  1.0  0.1152
  H  H116  1  0.880900  0.076900  0.666900  1.0  0.1159
  H  H117  1  0.703400  0.256000  0.667500  1.0  0.1196
  H  H118  1  0.632400  0.275200  0.625800  1.0  0.1157
  H  H119  1  0.620800  0.149600  0.535300  1.0  0.1144
  H  H120  1  0.691800  0.130400  0.577100  1.0  0.1171
  H  H121  1  0.348300  0.128900  0.577700  1.0  0.1168
  H  H122  1  0.398600  0.148200  0.536300  1.0  0.1148
  H  H123  1  0.428800  0.275400  0.624700  1.0  0.1142
  H  H124  1  0.378400  0.256000  0.666100  1.0  0.1218
  H  H125  1  0.773600  0.648800  0.598100  1.0  0.1258
  H  H126  1  0.851100  0.726500  0.902100  1.0  0.1246
  H  H127  1  0.847400  0.659200  0.579100  1.0  0.1182
  H  H128  1  0.896800  0.619000  0.536700  1.0  0.1135
  H  H129  1  0.928900  0.536500  0.625300  1.0  0.1118
  H  H130  1  0.879600  0.576800  0.667800  1.0  0.1171
  H  H131  1  0.691900  0.630300  0.579800  1.0  0.1169
  H  H132  1  0.621100  0.649700  0.538000  1.0  0.114
  H  H133  1  0.634900  0.776900  0.626100  1.0  0.1132
  H  H134  1  0.705800  0.757600  0.667900  1.0  0.1225
  H  H135  1  0.924700  0.795500  0.832100  1.0  0.1179
  H  H136  1  0.964800  0.866400  0.874200  1.0  0.1128
  H  H137  1  0.882800  0.878600  0.963300  1.0  0.1138
  H  H138  1  0.842600  0.807800  0.921200  1.0  0.1171
  H  H139  1  0.725000  0.352000  0.403600  1.0  0.1268
  H  H140  1  0.619100  0.243500  0.331200  1.0  0.1196
  H  H141  1  0.569800  0.224400  0.373700  1.0  0.1139
  H  H142  1  0.604300  0.350100  0.463900  1.0  0.1143
  H  H143  1  0.653600  0.369200  0.421300  1.0  0.118
  H  H144  1  0.808900  0.340700  0.421100  1.0  0.118
  H  H145  1  0.880000  0.380800  0.462800  1.0  0.1131
  H  H146  1  0.866800  0.463200  0.374100  1.0  0.1127
  H  H147  1  0.795700  0.423100  0.332400  1.0  0.1198
  H  H148  1  0.850300  0.224900  0.904200  1.0  0.1244
  H  H149  1  0.840600  0.151400  0.921700  1.0  0.1178
  H  H150  1  0.881000  0.102200  0.964400  1.0  0.1134
  H  H151  1  0.963500  0.069900  0.875700  1.0  0.1156
  H  H152  1  0.923100  0.119100  0.833100  1.0  0.1166
  H  H153  1  0.744000  0.296600  0.832500  1.0  0.1186
  H  H154  1  0.724800  0.367600  0.874200  1.0  0.1149
  H  H155  1  0.850400  0.379200  0.964700  1.0  0.1145
  H  H156  1  0.869600  0.308200  0.922900  1.0  0.1162
  H  H157  1  0.871100  0.651700  0.922300  1.0  0.1177
  H  H158  1  0.851800  0.601400  0.963700  1.0  0.1157
  H  H159  1  0.724600  0.571200  0.875300  1.0  0.1138
  H  H160  1  0.744000  0.621600  0.833900  1.0  0.1221
  C  C161  1  0.681460  0.808980  0.225850  1.0  -0.019
  C  C162  1  0.657480  0.839440  0.200900  1.0  0.3071
  C  C163  1  0.645190  0.826130  0.152900  1.0  0.0536
  C  C164  1  0.656870  0.782350  0.129800  1.0  -0.0659
  C  C165  1  0.680850  0.751890  0.154700  1.0  -0.058
  C  C166  1  0.693140  0.765200  0.202800  1.0  0.0186
  C  C167  1  0.691010  0.819130  0.274410  1.0  0.0009
  C  C168  1  0.734760  0.842480  0.297300  1.0  0.2552
  C  C169  1  0.748110  0.854510  0.345400  1.0  -0.0016
  C  C170  1  0.717710  0.843210  0.370450  1.0  -0.0924
  C  C171  1  0.673950  0.819850  0.347500  1.0  -0.0204
  C  C172  1  0.660600  0.807820  0.299500  1.0  0.0161
  C  C173  1  0.622170  0.858370  0.127800  1.0  0.0485
  C  C174  1  0.634860  0.863600  0.088300  1.0  -0.1327
  C  C175  1  0.610570  0.893390  0.062730  1.0  -0.0413
  C  C176  1  0.573570  0.917970  0.076660  1.0  -0.1516
  C  C177  1  0.560880  0.912740  0.116200  1.0  -0.0327
  C  C178  1  0.585170  0.882950  0.141720  1.0  -0.1195
  C  C179  1  0.691990  0.706150  0.128100  1.0  -0.0092
  C  C180  1  0.659470  0.680610  0.089000  1.0  -0.1204
  C  C181  1  0.671120  0.637880  0.063810  1.0  -0.0366
  C  C182  1  0.715280  0.620700  0.077750  1.0  -0.1485
  C  C183  1  0.747810  0.646230  0.116900  1.0  -0.0464
  C  C184  1  0.736160  0.688960  0.142070  1.0  -0.0734
  C  C185  1  0.794370  0.879510  0.372340  1.0  0.0587
  C  C186  1  0.812020  0.916320  0.358190  1.0  -0.0884
  C  C187  1  0.854710  0.940530  0.383600  1.0  -0.0428
  C  C188  1  0.879730  0.927930  0.423100  1.0  -0.1531
  C  C189  1  0.862090  0.891110  0.437230  1.0  -0.0622
  C  C190  1  0.819400  0.866900  0.411900  1.0  -0.125
  C  C191  1  0.318780  0.696560  0.775850  1.0  -0.0201
  C  C192  1  0.310230  0.663050  0.799000  1.0  0.186
  C  C193  1  0.322710  0.673770  0.847000  1.0  -0.0693
  C  C194  1  0.343740  0.718000  0.871890  1.0  -0.0787
  C  C195  1  0.352270  0.751510  0.848800  1.0  0.0121
  C  C196  1  0.339790  0.740790  0.800800  1.0  -0.0061
  C  C197  1  0.308350  0.641410  0.871900  1.0  0.048
  C  C198  1  0.264720  0.616180  0.857540  1.0  -0.1109
  C  C199  1  0.253180  0.586480  0.883200  1.0  -0.0337
  C  C200  1  0.285290  0.581990  0.923170  1.0  -0.145
  C  C201  1  0.328920  0.607200  0.937520  1.0  -0.0487
  C  C202  1  0.340450  0.636910  0.911900  1.0  -0.1711
  C  C203  1  0.377760  0.795060  0.872500  1.0  0.0672
  C  C204  1  0.365010  0.820430  0.911800  1.0  -0.1521
  C  C205  1  0.389180  0.863220  0.936920  1.0  -0.0331
  C  C206  1  0.426100  0.880620  0.922740  1.0  -0.1498
  C  C207  1  0.438850  0.855250  0.883400  1.0  -0.0455
  C  C208  1  0.414680  0.812460  0.858300  1.0  -0.0784
  C  C209  1  0.196560  0.819220  0.276540  1.0  -0.0994
  C  C210  1  0.240670  0.810490  0.301500  1.0  0.0071
  C  C211  1  0.251320  0.822140  0.349600  1.0  0.0078
  C  C212  1  0.217850  0.842530  0.372580  1.0  -0.0702
  C  C213  1  0.173750  0.851270  0.347600  1.0  -0.0089
  C  C214  1  0.163090  0.839610  0.299600  1.0  0.1805
  C  C215  1  0.140330  0.877730  0.373060  1.0  0.0359
  C  C216  1  0.135220  0.865060  0.412600  1.0  -0.133
  C  C217  1  0.105550  0.889430  0.438280  1.0  -0.0423
  C  C218  1  0.080990  0.926450  0.424410  1.0  -0.094
  C  C219  1  0.086100  0.939120  0.384900  1.0  -0.044
  C  C220  1  0.115760  0.914760  0.359190  1.0  -0.1104
  C  C221  1  0.295140  0.808720  0.373440  1.0  0.0792
  C  C222  1  0.313040  0.765100  0.358760  1.0  -0.0912
  C  C223  1  0.355840  0.753540  0.383900  1.0  -0.0423
  C  C224  1  0.380740  0.785600  0.423710  1.0  -0.1014
  C  C225  1  0.362830  0.829230  0.438390  1.0  -0.0413
  C  C226  1  0.320050  0.840790  0.413300  1.0  -0.1519
  C  C227  1  0.641830  0.809530  0.373800  1.0  0.0302
  C  C228  1  0.635740  0.842000  0.412900  1.0  -0.1055
  C  C229  1  0.605370  0.830350  0.437900  1.0  -0.0628
  C  C230  1  0.581090  0.786230  0.423740  1.0  -0.1363
  C  C231  1  0.587180  0.753760  0.384600  1.0  -0.0455
  C  C232  1  0.617560  0.765420  0.359670  1.0  -0.0875
  C  C233  1  0.548100  0.949100  0.047900  1.0  0.7208
  C  C234  1  0.726000  0.574200  0.047900  1.0  0.7229
  C  C235  1  0.551300  0.776300  0.453100  1.0  0.7045
  C  C236  1  0.049900  0.951500  0.452600  1.0  0.7448
  C  C237  1  0.273900  0.550900  0.950900  1.0  0.7095
  C  C238  1  0.924200  0.953400  0.451000  1.0  0.7225
  C  C239  1  0.452200  0.925800  0.950700  1.0  0.699
  C  C240  1  0.425800  0.773800  0.452400  1.0  0.7265
  C  C241  1  0.802500  0.816100  0.274500  1.0  -0.0267
  C  C242  1  0.832900  0.834900  0.244900  1.0  -0.0653
  C  C243  1  0.688700  0.916100  0.234200  1.0  -0.0687
  C  C244  1  0.675400  0.964200  0.263600  1.0  -0.0747
  C  C245  1  0.081800  0.810000  0.276500  1.0  -0.0321
  C  C246  1  0.034100  0.826300  0.245900  1.0  -0.0682
  C  C247  1  0.331100  0.586300  0.776300  1.0  -0.036
  C  C248  1  0.302500  0.537900  0.749800  1.0  -0.0779
  C  C249  1  0.191020  0.318540  0.274150  1.0  -0.0183
  C  C250  1  0.160560  0.342520  0.299100  1.0  0.3091
  C  C251  1  0.173870  0.354810  0.347100  1.0  0.055
  C  C252  1  0.217650  0.343130  0.370200  1.0  -0.065
  C  C253  1  0.248110  0.319150  0.345300  1.0  -0.0577
  C  C254  1  0.234800  0.306860  0.297200  1.0  0.017
  C  C255  1  0.180870  0.308990  0.225590  1.0  0.0006
  C  C256  1  0.157520  0.265240  0.202700  1.0  0.2545
  C  C257  1  0.145490  0.251890  0.154600  1.0  -0.0026
  C  C258  1  0.156790  0.282290  0.129550  1.0  -0.0929
  C  C259  1  0.180150  0.326050  0.152500  1.0  -0.021
  C  C260  1  0.192180  0.339400  0.200500  1.0  0.0164
  C  C261  1  0.141630  0.377830  0.372200  1.0  0.0485
  C  C262  1  0.136400  0.365140  0.411700  1.0  -0.1315
  C  C263  1  0.106610  0.389430  0.437270  1.0  -0.0392
  C  C264  1  0.082030  0.426430  0.423340  1.0  -0.1528
  C  C265  1  0.087260  0.439120  0.383800  1.0  -0.0333
  C  C266  1  0.117050  0.414830  0.358280  1.0  -0.1216
  C  C267  1  0.293850  0.308010  0.371900  1.0  -0.0103
  C  C268  1  0.319390  0.340530  0.411000  1.0  -0.1219
  C  C269  1  0.362120  0.328880  0.436190  1.0  -0.0368
  C  C270  1  0.379300  0.284720  0.422250  1.0  -0.1493
  C  C271  1  0.353770  0.252190  0.383100  1.0  -0.0469
  C  C272  1  0.311040  0.263840  0.357930  1.0  -0.0764
  C  C273  1  0.120490  0.205630  0.127660  1.0  0.0607
  C  C274  1  0.083680  0.187980  0.141810  1.0  -0.0895
  C  C275  1  0.059470  0.145290  0.116400  1.0  -0.0407
  C  C276  1  0.072070  0.120270  0.076900  1.0  -0.1527
  C  C277  1  0.108890  0.137910  0.062770  1.0  -0.0613
  C  C278  1  0.133100  0.180600  0.088100  1.0  -0.1244
  C  C279  1  0.303440  0.681220  0.724150  1.0  -0.0208
  C  C280  1  0.336950  0.689770  0.701000  1.0  0.189
  C  C281  1  0.326230  0.677290  0.653000  1.0  -0.0688
  C  C282  1  0.282000  0.656260  0.628110  1.0  -0.0841
  C  C283  1  0.248490  0.647730  0.651200  1.0  0.0104
  C  C284  1  0.259210  0.660210  0.699200  1.0  -0.0044
  C  C285  1  0.358590  0.691650  0.628100  1.0  0.0477
  C  C286  1  0.383820  0.735280  0.642460  1.0  -0.1117
  C  C287  1  0.413520  0.746820  0.616800  1.0  -0.0343
  C  C288  1  0.418010  0.714710  0.576830  1.0  -0.146
  C  C289  1  0.392800  0.671080  0.562480  1.0  -0.0502
  C  C290  1  0.363090  0.659550  0.588100  1.0  -0.171
  C  C291  1  0.204940  0.622240  0.627500  1.0  0.067
  C  C292  1  0.179570  0.634990  0.588200  1.0  -0.1534
  C  C293  1  0.136780  0.610820  0.563080  1.0  -0.0326
  C  C294  1  0.119380  0.573900  0.577260  1.0  -0.151
  C  C295  1  0.144750  0.561150  0.616600  1.0  -0.0437
  C  C296  1  0.187540  0.585320  0.641700  1.0  -0.0776
  C  C297  1  0.180780  0.803440  0.223460  1.0  -0.1028
  C  C298  1  0.189510  0.759330  0.198500  1.0  0.0091
  C  C299  1  0.177860  0.748680  0.150400  1.0  0.0082
  C  C300  1  0.157470  0.782150  0.127420  1.0  -0.0706
  C  C301  1  0.148730  0.826250  0.152400  1.0  -0.0093
  C  C302  1  0.160390  0.836910  0.200400  1.0  0.1801
  C  C303  1  0.122270  0.859670  0.126940  1.0  0.0361
  C  C304  1  0.134940  0.864780  0.087400  1.0  -0.1328
  C  C305  1  0.110570  0.894450  0.061720  1.0  -0.045
  C  C306  1  0.073550  0.919010  0.075590  1.0  -0.0942
  C  C307  1  0.060880  0.913900  0.115100  1.0  -0.0428
  C  C308  1  0.085240  0.884240  0.140810  1.0  -0.1085
  C  C309  1  0.191280  0.704860  0.126560  1.0  0.0786
  C  C310  1  0.234900  0.686960  0.141240  1.0  -0.0891
  C  C311  1  0.246460  0.644160  0.116100  1.0  -0.0408
  C  C312  1  0.214400  0.619260  0.076290  1.0  -0.1002
  C  C313  1  0.170770  0.637170  0.061610  1.0  -0.0392
  C  C314  1  0.159210  0.679950  0.086700  1.0  -0.1537
  C  C315  1  0.190470  0.358170  0.126200  1.0  0.0308
  C  C316  1  0.158000  0.364260  0.087100  1.0  -0.1082
  C  C317  1  0.169650  0.394630  0.062100  1.0  -0.0615
  C  C318  1  0.213770  0.418910  0.076260  1.0  -0.1355
  C  C319  1  0.246240  0.412820  0.115400  1.0  -0.0442
  C  C320  1  0.234580  0.382440  0.140330  1.0  -0.0855
  C  C321  1  0.050900  0.451900  0.452100  1.0  0.721
  C  C322  1  0.425800  0.274000  0.452100  1.0  0.7228
  C  C323  1  0.223700  0.448700  0.046900  1.0  0.7042
  C  C324  1  0.048500  0.950100  0.047400  1.0  0.7436
  C  C325  1  0.449100  0.726100  0.549100  1.0  0.7104
  C  C326  1  0.046600  0.075800  0.049000  1.0  0.7229
  C  C327  1  0.074200  0.547800  0.549300  1.0  0.6979
  C  C328  1  0.226200  0.574200  0.047600  1.0  0.7276
  C  C329  1  0.183900  0.197500  0.225500  1.0  -0.0287
  C  C330  1  0.165100  0.167100  0.255100  1.0  -0.0668
  C  C331  1  0.083900  0.311300  0.265800  1.0  -0.0758
  C  C332  1  0.035800  0.324600  0.236400  1.0  -0.072
  C  C333  1  0.190000  0.918200  0.223500  1.0  -0.0285
  C  C334  1  0.173700  0.965900  0.254100  1.0  -0.0679
  C  C335  1  0.413700  0.668900  0.723700  1.0  -0.0357
  C  C336  1  0.462100  0.697500  0.750200  1.0  -0.0761
  C  C337  1  0.318540  0.191020  0.774150  1.0  -0.0193
  C  C338  1  0.342520  0.160560  0.799100  1.0  0.3075
  C  C339  1  0.354810  0.173870  0.847100  1.0  0.0533
  C  C340  1  0.343130  0.217650  0.870200  1.0  -0.0647
  C  C341  1  0.319150  0.248110  0.845300  1.0  -0.0567
  C  C342  1  0.306860  0.234800  0.797200  1.0  0.02
  C  C343  1  0.308990  0.180870  0.725590  1.0  0.0005
  C  C344  1  0.265240  0.157520  0.702700  1.0  0.2532
  C  C345  1  0.251890  0.145490  0.654600  1.0  -0.0031
  C  C346  1  0.282290  0.156790  0.629550  1.0  -0.0928
  C  C347  1  0.326050  0.180150  0.652500  1.0  -0.0208
  C  C348  1  0.339400  0.192180  0.700500  1.0  0.013
  C  C349  1  0.377830  0.141630  0.872200  1.0  0.0492
  C  C350  1  0.365140  0.136400  0.911700  1.0  -0.135
  C  C351  1  0.389430  0.106610  0.937270  1.0  -0.039
  C  C352  1  0.426430  0.082030  0.923340  1.0  -0.1523
  C  C353  1  0.439120  0.087260  0.883800  1.0  -0.0327
  C  C354  1  0.414830  0.117050  0.858280  1.0  -0.1187
  C  C355  1  0.308010  0.293850  0.871900  1.0  -0.0098
  C  C356  1  0.340530  0.319390  0.911000  1.0  -0.12
  C  C357  1  0.328880  0.362120  0.936190  1.0  -0.0352
  C  C358  1  0.284720  0.379300  0.922250  1.0  -0.1485
  C  C359  1  0.252190  0.353770  0.883100  1.0  -0.0489
  C  C360  1  0.263840  0.311040  0.857930  1.0  -0.0747
  C  C361  1  0.205630  0.120490  0.627660  1.0  0.0586
  C  C362  1  0.187980  0.083680  0.641810  1.0  -0.0881
  C  C363  1  0.145290  0.059470  0.616400  1.0  -0.0411
  C  C364  1  0.120270  0.072070  0.576900  1.0  -0.153
  C  C365  1  0.137910  0.108890  0.562770  1.0  -0.0609
  C  C366  1  0.180600  0.133100  0.588100  1.0  -0.1253
  C  C367  1  0.681220  0.303440  0.224150  1.0  -0.0202
  C  C368  1  0.689770  0.336950  0.201000  1.0  0.1855
  C  C369  1  0.677290  0.326230  0.153000  1.0  -0.0693
  C  C370  1  0.656260  0.282000  0.128110  1.0  -0.0812
  C  C371  1  0.647730  0.248490  0.151200  1.0  0.0104
  C  C372  1  0.660210  0.259210  0.199200  1.0  -0.0074
  C  C373  1  0.691650  0.358590  0.128100  1.0  0.0476
  C  C374  1  0.735280  0.383820  0.142460  1.0  -0.1099
  C  C375  1  0.746820  0.413520  0.116800  1.0  -0.0321
  C  C376  1  0.714710  0.418010  0.076830  1.0  -0.1449
  C  C377  1  0.671080  0.392800  0.062480  1.0  -0.0489
  C  C378  1  0.659550  0.363090  0.088100  1.0  -0.1743
  C  C379  1  0.622240  0.204940  0.127500  1.0  0.0671
  C  C380  1  0.634990  0.179570  0.088200  1.0  -0.1504
  C  C381  1  0.610820  0.136780  0.063080  1.0  -0.0319
  C  C382  1  0.573900  0.119380  0.077260  1.0  -0.1498
  C  C383  1  0.561150  0.144750  0.116600  1.0  -0.0455
  C  C384  1  0.585320  0.187540  0.141700  1.0  -0.0796
  C  C385  1  0.803440  0.180780  0.723460  1.0  -0.0994
  C  C386  1  0.759330  0.189510  0.698500  1.0  0.0075
  C  C387  1  0.748680  0.177860  0.650400  1.0  0.0065
  C  C388  1  0.782150  0.157470  0.627420  1.0  -0.0722
  C  C389  1  0.826250  0.148730  0.652400  1.0  -0.0087
  C  C390  1  0.836910  0.160390  0.700400  1.0  0.1811
  C  C391  1  0.859670  0.122270  0.626940  1.0  0.0363
  C  C392  1  0.864780  0.134940  0.587400  1.0  -0.135
  C  C393  1  0.894450  0.110570  0.561720  1.0  -0.0453
  C  C394  1  0.919010  0.073550  0.575590  1.0  -0.0939
  C  C395  1  0.913900  0.060880  0.615100  1.0  -0.0427
  C  C396  1  0.884240  0.085240  0.640810  1.0  -0.1088
  C  C397  1  0.704860  0.191280  0.626560  1.0  0.0781
  C  C398  1  0.686960  0.234900  0.641240  1.0  -0.0898
  C  C399  1  0.644160  0.246460  0.616100  1.0  -0.0413
  C  C400  1  0.619260  0.214400  0.576290  1.0  -0.101
  C  C401  1  0.637170  0.170770  0.561610  1.0  -0.0398
  C  C402  1  0.679950  0.159210  0.586700  1.0  -0.1515
  C  C403  1  0.358170  0.190470  0.626200  1.0  0.0304
  C  C404  1  0.364260  0.158000  0.587100  1.0  -0.1072
  C  C405  1  0.394630  0.169650  0.562100  1.0  -0.0622
  C  C406  1  0.418910  0.213770  0.576260  1.0  -0.1368
  C  C407  1  0.412820  0.246240  0.615400  1.0  -0.0459
  C  C408  1  0.382440  0.234580  0.640330  1.0  -0.0868
  C  C409  1  0.451900  0.050900  0.952100  1.0  0.7203
  C  C410  1  0.274000  0.425800  0.952100  1.0  0.7237
  C  C411  1  0.448700  0.223700  0.546900  1.0  0.7033
  C  C412  1  0.950100  0.048500  0.547400  1.0  0.7444
  C  C413  1  0.726100  0.449100  0.049100  1.0  0.7099
  C  C414  1  0.075800  0.046600  0.549000  1.0  0.7224
  C  C415  1  0.547800  0.074200  0.049300  1.0  0.6987
  C  C416  1  0.574200  0.226200  0.547600  1.0  0.7278
  C  C417  1  0.197500  0.183900  0.725500  1.0  -0.0268
  C  C418  1  0.167100  0.165100  0.755100  1.0  -0.0642
  C  C419  1  0.311300  0.083900  0.765800  1.0  -0.0707
  C  C420  1  0.324600  0.035800  0.736400  1.0  -0.0737
  C  C421  1  0.918200  0.190000  0.723500  1.0  -0.0266
  C  C422  1  0.965900  0.173700  0.754100  1.0  -0.0649
  C  C423  1  0.668900  0.413700  0.223700  1.0  -0.0349
  C  C424  1  0.697500  0.462100  0.250200  1.0  -0.0763
  C  C425  1  0.808980  0.681460  0.725850  1.0  -0.0172
  C  C426  1  0.839440  0.657480  0.700900  1.0  0.3062
  C  C427  1  0.826130  0.645190  0.652900  1.0  0.0539
  C  C428  1  0.782350  0.656870  0.629800  1.0  -0.0664
  C  C429  1  0.751890  0.680850  0.654700  1.0  -0.0584
  C  C430  1  0.765200  0.693140  0.702800  1.0  0.0191
  C  C431  1  0.819130  0.691010  0.774410  1.0  0.001
  C  C432  1  0.842480  0.734760  0.797300  1.0  0.2545
  C  C433  1  0.854510  0.748110  0.845400  1.0  -0.002
  C  C434  1  0.843210  0.717710  0.870450  1.0  -0.0924
  C  C435  1  0.819850  0.673950  0.847500  1.0  -0.0209
  C  C436  1  0.807820  0.660600  0.799500  1.0  0.0164
  C  C437  1  0.858370  0.622170  0.627800  1.0  0.0486
  C  C438  1  0.863600  0.634860  0.588300  1.0  -0.1338
  C  C439  1  0.893390  0.610570  0.562730  1.0  -0.0415
  C  C440  1  0.917970  0.573570  0.576660  1.0  -0.1528
  C  C441  1  0.912740  0.560880  0.616200  1.0  -0.0317
  C  C442  1  0.882950  0.585170  0.641720  1.0  -0.1174
  C  C443  1  0.706150  0.691990  0.628100  1.0  -0.0096
  C  C444  1  0.680610  0.659470  0.589000  1.0  -0.1207
  C  C445  1  0.637880  0.671120  0.563810  1.0  -0.0371
  C  C446  1  0.620700  0.715280  0.577750  1.0  -0.1496
  C  C447  1  0.646230  0.747810  0.616900  1.0  -0.0467
  C  C448  1  0.688960  0.736160  0.642070  1.0  -0.075
  C  C449  1  0.879510  0.794370  0.872340  1.0  0.0598
  C  C450  1  0.916320  0.812020  0.858190  1.0  -0.0879
  C  C451  1  0.940530  0.854710  0.883600  1.0  -0.0402
  C  C452  1  0.927930  0.879730  0.923100  1.0  -0.1519
  C  C453  1  0.891110  0.862090  0.937230  1.0  -0.0623
  C  C454  1  0.866900  0.819400  0.911900  1.0  -0.1256
  C  C455  1  0.696560  0.318780  0.275850  1.0  -0.0216
  C  C456  1  0.663050  0.310230  0.299000  1.0  0.1891
  C  C457  1  0.673770  0.322710  0.347000  1.0  -0.0689
  C  C458  1  0.718000  0.343740  0.371890  1.0  -0.0809
  C  C459  1  0.751510  0.352270  0.348800  1.0  0.0117
  C  C460  1  0.740790  0.339790  0.300800  1.0  -0.0059
  C  C461  1  0.641410  0.308350  0.371900  1.0  0.0482
  C  C462  1  0.616180  0.264720  0.357540  1.0  -0.11
  C  C463  1  0.586480  0.253180  0.383200  1.0  -0.0341
  C  C464  1  0.581990  0.285290  0.423170  1.0  -0.1449
  C  C465  1  0.607200  0.328920  0.437520  1.0  -0.0507
  C  C466  1  0.636910  0.340450  0.411900  1.0  -0.172
  C  C467  1  0.795060  0.377760  0.372500  1.0  0.0677
  C  C468  1  0.820430  0.365010  0.411800  1.0  -0.1509
  C  C469  1  0.863220  0.389180  0.436920  1.0  -0.0324
  C  C470  1  0.880620  0.426100  0.422740  1.0  -0.1508
  C  C471  1  0.855250  0.438850  0.383400  1.0  -0.0449
  C  C472  1  0.812460  0.414680  0.358300  1.0  -0.0765
  C  C473  1  0.819220  0.196560  0.776540  1.0  -0.1032
  C  C474  1  0.810490  0.240670  0.801500  1.0  0.0099
  C  C475  1  0.822140  0.251320  0.849600  1.0  0.0088
  C  C476  1  0.842530  0.217850  0.872580  1.0  -0.0692
  C  C477  1  0.851270  0.173750  0.847600  1.0  -0.0098
  C  C478  1  0.839610  0.163090  0.799600  1.0  0.1811
  C  C479  1  0.877730  0.140330  0.873060  1.0  0.0362
  C  C480  1  0.865060  0.135220  0.912600  1.0  -0.1352
  C  C481  1  0.889430  0.105550  0.938280  1.0  -0.0421
  C  C482  1  0.926450  0.080990  0.924410  1.0  -0.0937
  C  C483  1  0.939120  0.086100  0.884900  1.0  -0.041
  C  C484  1  0.914760  0.115760  0.859190  1.0  -0.1061
  C  C485  1  0.808720  0.295140  0.873440  1.0  0.0787
  C  C486  1  0.765100  0.313040  0.858760  1.0  -0.091
  C  C487  1  0.753540  0.355840  0.883900  1.0  -0.0433
  C  C488  1  0.785600  0.380740  0.923710  1.0  -0.1002
  C  C489  1  0.829230  0.362830  0.938390  1.0  -0.0392
  C  C490  1  0.840790  0.320050  0.913300  1.0  -0.1495
  C  C491  1  0.809530  0.641830  0.873800  1.0  0.0308
  C  C492  1  0.842000  0.635740  0.912900  1.0  -0.1042
  C  C493  1  0.830350  0.605370  0.937900  1.0  -0.0601
  C  C494  1  0.786230  0.581090  0.923740  1.0  -0.1358
  C  C495  1  0.753760  0.587180  0.884600  1.0  -0.0455
  C  C496  1  0.765420  0.617560  0.859670  1.0  -0.0868
  C  C497  1  0.949100  0.548100  0.547900  1.0  0.7205
  C  C498  1  0.574200  0.726000  0.547900  1.0  0.7232
  C  C499  1  0.776300  0.551300  0.953100  1.0  0.7047
  C  C500  1  0.951500  0.049900  0.952600  1.0  0.7437
  C  C501  1  0.550900  0.273900  0.450900  1.0  0.7102
  C  C502  1  0.953400  0.924200  0.951000  1.0  0.723
  C  C503  1  0.925800  0.452200  0.450700  1.0  0.6992
  C  C504  1  0.773800  0.425800  0.952400  1.0  0.7279
  C  C505  1  0.816100  0.802500  0.774500  1.0  -0.0256
  C  C506  1  0.834900  0.832900  0.744900  1.0  -0.0658
  C  C507  1  0.916100  0.688700  0.734200  1.0  -0.0773
  C  C508  1  0.964200  0.675400  0.763600  1.0  -0.072
  C  C509  1  0.810000  0.081800  0.776500  1.0  -0.03
  C  C510  1  0.826300  0.034100  0.745900  1.0  -0.0678
  C  C511  1  0.586300  0.331100  0.276300  1.0  -0.0357
  C  C512  1  0.537900  0.302500  0.249800  1.0  -0.0769
  O  O513  1  0.533350  0.732750  0.439200  1.0  -0.6016
  O  O514  1  0.543710  0.805190  0.484400  1.0  -0.5569
  O  O515  1  0.304020  0.545020  0.984200  1.0  -0.6168
  O  O516  1  0.231790  0.533030  0.938300  1.0  -0.6092
  O  O517  1  0.768540  0.563840  0.062200  1.0  -0.5904
  O  O518  1  0.695740  0.551580  0.016300  1.0  -0.5805
  O  O519  1  0.436510  0.731590  0.437940  1.0  -0.6008
  O  O520  1  0.447200  0.803760  0.484300  1.0  -0.5704
  O  O521  1  0.044090  0.937110  0.484000  1.0  -0.5571
  O  O522  1  0.032970  0.987050  0.438300  1.0  -0.6122
  O  O523  1  0.512600  0.966980  0.061000  1.0  -0.6042
  O  O524  1  0.562020  0.955500  0.015800  1.0  -0.5815
  O  O525  1  0.937340  0.988080  0.439200  1.0  -0.627
  O  O526  1  0.947560  0.939040  0.484000  1.0  -0.6376
  O  O527  1  0.437400  0.948340  0.984300  1.0  -0.5964
  O  O528  1  0.487860  0.937000  0.938800  1.0  -0.5903
  O  O529  1  0.766100  0.850900  0.274800  1.0  -0.4551
  O  O530  1  0.649000  0.880200  0.226000  1.0  -0.5264
  O  O531  1  0.117600  0.846200  0.276400  1.0  -0.3485
  O  O532  1  0.292900  0.617900  0.774900  1.0  -0.4131
  O  O533  1  0.267250  0.466650  0.060800  1.0  -0.5989
  O  O534  1  0.194810  0.456290  0.015600  1.0  -0.5559
  O  O535  1  0.454980  0.695980  0.515800  1.0  -0.616
  O  O536  1  0.466970  0.768210  0.561700  1.0  -0.6082
  O  O537  1  0.436160  0.231460  0.437800  1.0  -0.5912
  O  O538  1  0.448420  0.304260  0.483700  1.0  -0.5809
  O  O539  1  0.268410  0.563490  0.062060  1.0  -0.5986
  O  O540  1  0.196240  0.552800  0.015700  1.0  -0.5704
  O  O541  1  0.062890  0.955910  0.016000  1.0  -0.5566
  O  O542  1  0.012950  0.967030  0.061700  1.0  -0.6112
  O  O543  1  0.033020  0.487400  0.439000  1.0  -0.6034
  O  O544  1  0.044500  0.437980  0.484200  1.0  -0.5827
  O  O545  1  0.011920  0.062660  0.060800  1.0  -0.624
  O  O546  1  0.060960  0.052440  0.016000  1.0  -0.6373
  O  O547  1  0.051660  0.562600  0.515700  1.0  -0.597
  O  O548  1  0.063000  0.512140  0.561200  1.0  -0.591
  O  O549  1  0.149100  0.233900  0.225200  1.0  -0.4556
  O  O550  1  0.119800  0.351000  0.274000  1.0  -0.5266
  O  O551  1  0.153800  0.882400  0.223600  1.0  -0.351
  O  O552  1  0.382100  0.707100  0.725100  1.0  -0.4122
  O  O553  1  0.466650  0.267250  0.560800  1.0  -0.5985
  O  O554  1  0.456290  0.194810  0.515600  1.0  -0.5575
  O  O555  1  0.695980  0.454980  0.015800  1.0  -0.617
  O  O556  1  0.768210  0.466970  0.061700  1.0  -0.6086
  O  O557  1  0.231460  0.436160  0.937800  1.0  -0.5901
  O  O558  1  0.304260  0.448420  0.983700  1.0  -0.5819
  O  O559  1  0.563490  0.268410  0.562060  1.0  -0.597
  O  O560  1  0.552800  0.196240  0.515700  1.0  -0.5703
  O  O561  1  0.955910  0.062890  0.516000  1.0  -0.5586
  O  O562  1  0.967030  0.012950  0.561700  1.0  -0.6119
  O  O563  1  0.487400  0.033020  0.939000  1.0  -0.6037
  O  O564  1  0.437980  0.044500  0.984200  1.0  -0.581
  O  O565  1  0.062660  0.011920  0.560800  1.0  -0.6261
  O  O566  1  0.052440  0.060960  0.516000  1.0  -0.6386
  O  O567  1  0.562600  0.051660  0.015700  1.0  -0.5974
  O  O568  1  0.512140  0.063000  0.061200  1.0  -0.5903
  O  O569  1  0.233900  0.149100  0.725200  1.0  -0.4565
  O  O570  1  0.351000  0.119800  0.774000  1.0  -0.5255
  O  O571  1  0.882400  0.153800  0.723600  1.0  -0.3532
  O  O572  1  0.707100  0.382100  0.225100  1.0  -0.4138
  O  O573  1  0.732750  0.533350  0.939200  1.0  -0.6014
  O  O574  1  0.805190  0.543710  0.984400  1.0  -0.5574
  O  O575  1  0.545020  0.304020  0.484200  1.0  -0.6165
  O  O576  1  0.533030  0.231790  0.438300  1.0  -0.6076
  O  O577  1  0.563840  0.768540  0.562200  1.0  -0.5902
  O  O578  1  0.551580  0.695740  0.516300  1.0  -0.5806
  O  O579  1  0.731590  0.436510  0.937940  1.0  -0.5993
  O  O580  1  0.803760  0.447200  0.984300  1.0  -0.5714
  O  O581  1  0.937110  0.044090  0.984000  1.0  -0.5551
  O  O582  1  0.987050  0.032970  0.938300  1.0  -0.6118
  O  O583  1  0.966980  0.512600  0.561000  1.0  -0.6043
  O  O584  1  0.955500  0.562020  0.515800  1.0  -0.5833
  O  O585  1  0.988080  0.937340  0.939200  1.0  -0.6269
  O  O586  1  0.939040  0.947560  0.984000  1.0  -0.6378
  O  O587  1  0.948340  0.437400  0.484300  1.0  -0.596
  O  O588  1  0.937000  0.487860  0.438800  1.0  -0.5912
  O  O589  1  0.850900  0.766100  0.774800  1.0  -0.4556
  O  O590  1  0.880200  0.649000  0.726000  1.0  -0.5254
  O  O591  1  0.846200  0.117600  0.776400  1.0  -0.3531
  O  O592  1  0.617900  0.292900  0.274900  1.0  -0.4096
