# generated using pymatgen
data_CuH15C22O5
_symmetry_space_group_name_H-M   'P 1'
_cell_length_a   29.43920000
_cell_length_b   29.43920000
_cell_length_c   59.61680000
_cell_angle_alpha   127.93650000
_cell_angle_beta   127.93650000
_cell_angle_gamma   90.41290000
_symmetry_Int_Tables_number   1
_chemical_formula_structural   CuH15C22O5
_chemical_formula_sum   'Cu16 H240 C352 O80'
_cell_volume   25236.60477090
_cell_formula_units_Z   16
loop_
 _symmetry_equiv_pos_site_id
 _symmetry_equiv_pos_as_xyz
  1  'x, y, z'
loop_
 _atom_site_type_symbol
 _atom_site_label
 _atom_site_symmetry_multiplicity
 _atom_site_fract_x
 _atom_site_fract_y
 _atom_site_fract_z
 _atom_site_occupancy
 _atom_site_charge
  Cu  Cu1  1  0.679980  0.466120  0.972960  1.0  0.9469
  Cu  Cu2  1  0.502730  0.966690  0.973310  1.0  0.9105
  Cu  Cu3  1  0.819290  0.533230  0.026570  1.0  0.8968
  Cu  Cu4  1  0.002970  0.966990  0.973530  1.0  0.9072
  Cu  Cu5  1  0.533880  0.320020  0.527040  1.0  0.9466
  Cu  Cu6  1  0.033310  0.497270  0.526690  1.0  0.9114
  Cu  Cu7  1  0.466770  0.180710  0.473430  1.0  0.8954
  Cu  Cu8  1  0.033010  0.997030  0.526470  1.0  0.9082
  Cu  Cu9  1  0.320020  0.533880  0.027040  1.0  0.9453
  Cu  Cu10  1  0.497270  0.033310  0.026690  1.0  0.9115
  Cu  Cu11  1  0.180710  0.466770  0.973430  1.0  0.8944
  Cu  Cu12  1  0.997030  0.033010  0.026470  1.0  0.9083
  Cu  Cu13  1  0.466120  0.679980  0.472960  1.0  0.9457
  Cu  Cu14  1  0.966690  0.502730  0.473310  1.0  0.9113
  Cu  Cu15  1  0.533230  0.819290  0.526570  1.0  0.8948
  Cu  Cu16  1  0.966990  0.002970  0.473530  1.0  0.9079
  H  H17  1  0.736290  0.358580  0.088960  1.0  0.1025
  H  H18  1  0.137870  0.763040  0.409140  1.0  0.1074
  H  H19  1  0.079100  0.758500  0.423880  1.0  0.1107
  H  H20  1  0.071390  0.849060  0.470150  1.0  0.1189
  H  H21  1  0.939190  0.840930  0.372500  1.0  0.1162
  H  H22  1  0.946910  0.750380  0.326230  1.0  0.1077
  H  H23  1  0.744290  0.269540  0.077420  1.0  0.1076
  H  H24  1  0.650470  0.145470  0.029840  1.0  0.1191
  H  H25  1  0.654620  0.257150  0.125690  1.0  0.1155
  H  H26  1  0.748440  0.381230  0.173260  1.0  0.108
  H  H27  1  0.932820  0.554570  0.174230  1.0  0.1097
  H  H28  1  0.910040  0.561890  0.128150  1.0  0.1193
  H  H29  1  0.671880  0.423610  0.026860  1.0  0.1158
  H  H30  1  0.694540  0.416110  0.072810  1.0  0.1079
  H  H31  1  0.693930  0.765700  0.073570  1.0  0.1059
  H  H32  1  0.669630  0.642580  0.027810  1.0  0.117
  H  H33  1  0.906990  0.757250  0.126560  1.0  0.1211
  H  H34  1  0.931110  0.880330  0.172120  1.0  0.1089
  H  H35  1  0.734510  0.859860  0.087390  1.0  0.1095
  H  H36  1  0.757280  0.732270  0.924350  1.0  0.113
  H  H37  1  0.848350  0.856380  0.970810  1.0  0.1173
  H  H38  1  0.841120  0.745070  0.873520  1.0  0.1141
  H  H39  1  0.750240  0.620980  0.827230  1.0  0.1146
  H  H40  1  0.766480  0.638400  0.912630  1.0  0.1112
  H  H41  1  0.802790  0.582690  0.925510  1.0  0.0998
  H  H42  1  0.827810  0.576580  0.972510  1.0  0.1228
  H  H43  1  0.590060  0.436380  0.871780  1.0  0.1153
  H  H44  1  0.565080  0.442570  0.824790  1.0  0.1041
  H  H45  1  0.117700  0.563710  0.326160  1.0  0.1093
  H  H46  1  0.241240  0.588670  0.371920  1.0  0.1243
  H  H47  1  0.354560  0.825740  0.470300  1.0  0.1189
  H  H48  1  0.231070  0.800750  0.424540  1.0  0.1179
  H  H49  1  0.739230  0.919830  0.075040  1.0  0.1121
  H  H50  1  0.648630  0.927010  0.028400  1.0  0.1164
  H  H51  1  0.657320  0.061050  0.126240  1.0  0.1143
  H  H52  1  0.747900  0.053880  0.172880  1.0  0.1054
  H  H53  1  0.870920  0.459510  0.221720  1.0  0.1105
  H  H54  1  0.037420  0.566050  0.276560  1.0  0.1146
  H  H55  1  0.922300  0.950460  0.217580  1.0  0.105
  H  H56  1  0.575040  0.403790  0.778990  1.0  0.1114
  H  H57  1  0.977570  0.170930  0.255030  1.0  0.1184
  H  H58  1  0.893680  0.110880  0.193530  1.0  0.1107
  H  H59  1  0.894870  0.218080  0.258090  1.0  0.1172
  H  H60  1  0.863550  0.192230  0.211120  1.0  0.1295
  H  H61  1  0.962950  0.262120  0.268870  1.0  0.117
  H  H62  1  0.537700  0.547090  0.763840  1.0  0.1053
  H  H63  1  0.623390  0.637920  0.809330  1.0  0.094
  H  H64  1  0.534270  0.610260  0.745140  1.0  0.1045
  H  H65  1  0.496380  0.512520  0.701990  1.0  0.1265
  H  H66  1  0.589190  0.586070  0.741080  1.0  0.1234
  H  H67  1  0.857640  0.621830  0.201160  1.0  0.0918
  H  H68  1  0.896840  0.640820  0.247520  1.0  0.1137
  H  H69  1  0.970400  0.737330  0.255340  1.0  0.1143
  H  H70  1  0.024210  0.752220  0.301740  1.0  0.1255
  H  H71  1  0.950900  0.762520  0.284060  1.0  0.1188
  H  H72  1  0.854380  0.529710  0.253090  1.0  0.1237
  H  H73  1  0.866750  0.605610  0.295970  1.0  0.1075
  H  H74  1  0.729050  0.486940  0.206290  1.0  0.1194
  H  H75  1  0.755260  0.530670  0.199310  1.0  0.1215
  H  H76  1  0.756520  0.580630  0.239520  1.0  0.1171
  H  H77  1  0.641420  0.263710  0.411040  1.0  0.1032
  H  H78  1  0.236960  0.862130  0.090860  1.0  0.1076
  H  H79  1  0.241500  0.920900  0.076120  1.0  0.1084
  H  H80  1  0.150940  0.928610  0.029850  1.0  0.1219
  H  H81  1  0.159070  0.060810  0.127500  1.0  0.1176
  H  H82  1  0.249620  0.053090  0.173770  1.0  0.1076
  H  H83  1  0.730460  0.255710  0.422580  1.0  0.1081
  H  H84  1  0.854530  0.349530  0.470160  1.0  0.1174
  H  H85  1  0.742850  0.345380  0.374310  1.0  0.1166
  H  H86  1  0.618770  0.251560  0.326740  1.0  0.1091
  H  H87  1  0.445430  0.067180  0.325770  1.0  0.1129
  H  H88  1  0.438110  0.089960  0.371850  1.0  0.1171
  H  H89  1  0.576390  0.328120  0.473140  1.0  0.1171
  H  H90  1  0.583890  0.305460  0.427190  1.0  0.1102
  H  H91  1  0.234300  0.306070  0.426430  1.0  0.1078
  H  H92  1  0.357420  0.330370  0.472190  1.0  0.1175
  H  H93  1  0.242750  0.093010  0.373440  1.0  0.1224
  H  H94  1  0.119670  0.068890  0.327880  1.0  0.1075
  H  H95  1  0.140140  0.265490  0.412610  1.0  0.1096
  H  H96  1  0.267730  0.242720  0.575650  1.0  0.1118
  H  H97  1  0.143620  0.151650  0.529190  1.0  0.1153
  H  H98  1  0.254930  0.158880  0.626480  1.0  0.1142
  H  H99  1  0.379020  0.249760  0.672770  1.0  0.1153
  H  H100  1  0.361600  0.233520  0.587370  1.0  0.1111
  H  H101  1  0.417310  0.197210  0.574490  1.0  0.0996
  H  H102  1  0.423420  0.172190  0.527490  1.0  0.1252
  H  H103  1  0.563620  0.409940  0.628220  1.0  0.1157
  H  H104  1  0.557430  0.434920  0.675210  1.0  0.1055
  H  H105  1  0.436290  0.882300  0.173840  1.0  0.1102
  H  H106  1  0.411330  0.758760  0.128080  1.0  0.1229
  H  H107  1  0.174260  0.645440  0.029700  1.0  0.1178
  H  H108  1  0.199250  0.768930  0.075460  1.0  0.1162
  H  H109  1  0.080170  0.260770  0.424960  1.0  0.1129
  H  H110  1  0.072990  0.351370  0.471600  1.0  0.1165
  H  H111  1  0.938950  0.342680  0.373760  1.0  0.1138
  H  H112  1  0.946120  0.252100  0.327120  1.0  0.1061
  H  H113  1  0.540490  0.129080  0.278280  1.0  0.1089
  H  H114  1  0.433950  0.962580  0.223440  1.0  0.115
  H  H115  1  0.049540  0.077700  0.282420  1.0  0.105
  H  H116  1  0.596210  0.424960  0.721010  1.0  0.1095
  H  H117  1  0.829070  0.022430  0.244970  1.0  0.1184
  H  H118  1  0.889120  0.106320  0.306470  1.0  0.1126
  H  H119  1  0.781920  0.105130  0.241910  1.0  0.1169
  H  H120  1  0.807770  0.136450  0.288880  1.0  0.1291
  H  H121  1  0.737880  0.037050  0.231130  1.0  0.117
  H  H122  1  0.452910  0.462300  0.736160  1.0  0.1041
  H  H123  1  0.362080  0.376610  0.690670  1.0  0.0942
  H  H124  1  0.389740  0.465730  0.754860  1.0  0.0983
  H  H125  1  0.487480  0.503620  0.798010  1.0  0.1255
  H  H126  1  0.413930  0.410810  0.758920  1.0  0.126
  H  H127  1  0.378170  0.142360  0.298840  1.0  0.0938
  H  H128  1  0.359180  0.103160  0.252480  1.0  0.1143
  H  H129  1  0.262670  0.029600  0.244660  1.0  0.1164
  H  H130  1  0.247780  0.975790  0.198260  1.0  0.1265
  H  H131  1  0.237480  0.049100  0.215940  1.0  0.1135
  H  H132  1  0.470290  0.145620  0.246910  1.0  0.1204
  H  H133  1  0.394390  0.133250  0.204030  1.0  0.1073
  H  H134  1  0.513060  0.270950  0.293710  1.0  0.118
  H  H135  1  0.469330  0.244740  0.300690  1.0  0.1228
  H  H136  1  0.419370  0.243480  0.260480  1.0  0.1134
  H  H137  1  0.263710  0.641420  0.911040  1.0  0.1037
  H  H138  1  0.862130  0.236960  0.590860  1.0  0.1074
  H  H139  1  0.920900  0.241500  0.576120  1.0  0.1087
  H  H140  1  0.928610  0.150940  0.529850  1.0  0.1188
  H  H141  1  0.060810  0.159070  0.627500  1.0  0.1175
  H  H142  1  0.053090  0.249620  0.673770  1.0  0.108
  H  H143  1  0.255710  0.730460  0.922580  1.0  0.1084
  H  H144  1  0.349530  0.854530  0.970160  1.0  0.1188
  H  H145  1  0.345380  0.742850  0.874310  1.0  0.1152
  H  H146  1  0.251560  0.618770  0.826740  1.0  0.1079
  H  H147  1  0.067180  0.445430  0.825770  1.0  0.1092
  H  H148  1  0.089960  0.438110  0.871850  1.0  0.1183
  H  H149  1  0.328120  0.576390  0.973140  1.0  0.1162
  H  H150  1  0.305460  0.583890  0.927190  1.0  0.1086
  H  H151  1  0.306070  0.234300  0.926430  1.0  0.1066
  H  H152  1  0.330370  0.357420  0.972190  1.0  0.1179
  H  H153  1  0.093010  0.242750  0.873440  1.0  0.1201
  H  H154  1  0.068890  0.119670  0.827880  1.0  0.1083
  H  H155  1  0.265490  0.140140  0.912610  1.0  0.1096
  H  H156  1  0.242720  0.267730  0.075650  1.0  0.1131
  H  H157  1  0.151650  0.143620  0.029190  1.0  0.1165
  H  H158  1  0.158880  0.254930  0.126480  1.0  0.1144
  H  H159  1  0.249760  0.379020  0.172770  1.0  0.1149
  H  H160  1  0.233520  0.361600  0.087370  1.0  0.1107
  H  H161  1  0.197210  0.417310  0.074490  1.0  0.1
  H  H162  1  0.172190  0.423420  0.027490  1.0  0.1215
  H  H163  1  0.409940  0.563620  0.128220  1.0  0.1142
  H  H164  1  0.434920  0.557430  0.175210  1.0  0.1039
  H  H165  1  0.882300  0.436290  0.673840  1.0  0.1099
  H  H166  1  0.758760  0.411330  0.628080  1.0  0.1252
  H  H167  1  0.645440  0.174260  0.529700  1.0  0.1192
  H  H168  1  0.768930  0.199250  0.575460  1.0  0.1171
  H  H169  1  0.260770  0.080170  0.924960  1.0  0.1126
  H  H170  1  0.351370  0.072990  0.971600  1.0  0.1154
  H  H171  1  0.342680  0.938950  0.873760  1.0  0.1142
  H  H172  1  0.252100  0.946120  0.827120  1.0  0.1046
  H  H173  1  0.129080  0.540490  0.778280  1.0  0.1105
  H  H174  1  0.962580  0.433950  0.723440  1.0  0.1143
  H  H175  1  0.077700  0.049540  0.782420  1.0  0.1052
  H  H176  1  0.424960  0.596210  0.221010  1.0  0.1131
  H  H177  1  0.022430  0.829070  0.744970  1.0  0.1134
  H  H178  1  0.106320  0.889120  0.806470  1.0  0.1114
  H  H179  1  0.105130  0.781920  0.741910  1.0  0.117
  H  H180  1  0.136450  0.807770  0.788880  1.0  0.1288
  H  H181  1  0.037050  0.737880  0.731130  1.0  0.1183
  H  H182  1  0.462300  0.452910  0.236160  1.0  0.1051
  H  H183  1  0.376610  0.362080  0.190670  1.0  0.0951
  H  H184  1  0.465730  0.389740  0.254860  1.0  0.1056
  H  H185  1  0.503620  0.487480  0.298010  1.0  0.1246
  H  H186  1  0.410810  0.413930  0.258920  1.0  0.1246
  H  H187  1  0.142360  0.378170  0.798840  1.0  0.0914
  H  H188  1  0.103160  0.359180  0.752480  1.0  0.114
  H  H189  1  0.029600  0.262670  0.744660  1.0  0.1173
  H  H190  1  0.975790  0.247780  0.698260  1.0  0.1238
  H  H191  1  0.049100  0.237480  0.715940  1.0  0.1204
  H  H192  1  0.145620  0.470290  0.746910  1.0  0.1221
  H  H193  1  0.133250  0.394390  0.704030  1.0  0.1073
  H  H194  1  0.270950  0.513060  0.793710  1.0  0.1195
  H  H195  1  0.244740  0.469330  0.800690  1.0  0.1212
  H  H196  1  0.243480  0.419370  0.760480  1.0  0.1211
  H  H197  1  0.358580  0.736290  0.588960  1.0  0.1023
  H  H198  1  0.763040  0.137870  0.909140  1.0  0.1077
  H  H199  1  0.758500  0.079100  0.923880  1.0  0.1092
  H  H200  1  0.849060  0.071390  0.970150  1.0  0.1225
  H  H201  1  0.840930  0.939190  0.872500  1.0  0.1175
  H  H202  1  0.750380  0.946910  0.826230  1.0  0.1077
  H  H203  1  0.269540  0.744290  0.577420  1.0  0.1082
  H  H204  1  0.145470  0.650470  0.529840  1.0  0.1185
  H  H205  1  0.257150  0.654620  0.625690  1.0  0.1161
  H  H206  1  0.381230  0.748440  0.673260  1.0  0.1089
  H  H207  1  0.554570  0.932820  0.674230  1.0  0.1122
  H  H208  1  0.561890  0.910040  0.628150  1.0  0.1181
  H  H209  1  0.423610  0.671880  0.526860  1.0  0.116
  H  H210  1  0.416110  0.694540  0.572810  1.0  0.1092
  H  H211  1  0.765700  0.693930  0.573570  1.0  0.1069
  H  H212  1  0.642580  0.669630  0.527810  1.0  0.1181
  H  H213  1  0.757250  0.906990  0.626560  1.0  0.1235
  H  H214  1  0.880330  0.931110  0.672120  1.0  0.1079
  H  H215  1  0.859860  0.734510  0.587390  1.0  0.1092
  H  H216  1  0.732270  0.757280  0.424350  1.0  0.1113
  H  H217  1  0.856380  0.848350  0.470810  1.0  0.1154
  H  H218  1  0.745070  0.841120  0.373520  1.0  0.1142
  H  H219  1  0.620980  0.750240  0.327230  1.0  0.1138
  H  H220  1  0.638400  0.766480  0.412630  1.0  0.1112
  H  H221  1  0.582690  0.802790  0.425510  1.0  0.1006
  H  H222  1  0.576580  0.827810  0.472510  1.0  0.1234
  H  H223  1  0.436380  0.590060  0.371780  1.0  0.116
  H  H224  1  0.442570  0.565080  0.324790  1.0  0.1051
  H  H225  1  0.563710  0.117700  0.826160  1.0  0.1094
  H  H226  1  0.588670  0.241240  0.871920  1.0  0.122
  H  H227  1  0.825740  0.354560  0.970300  1.0  0.1185
  H  H228  1  0.800750  0.231070  0.924540  1.0  0.1168
  H  H229  1  0.919830  0.739230  0.575040  1.0  0.1127
  H  H230  1  0.927010  0.648630  0.528400  1.0  0.1163
  H  H231  1  0.061050  0.657320  0.626240  1.0  0.1145
  H  H232  1  0.053880  0.747900  0.672880  1.0  0.1061
  H  H233  1  0.459510  0.870920  0.721720  1.0  0.1111
  H  H234  1  0.566050  0.037420  0.776560  1.0  0.1154
  H  H235  1  0.950460  0.922300  0.717580  1.0  0.1044
  H  H236  1  0.403790  0.575040  0.278990  1.0  0.1098
  H  H237  1  0.170930  0.977570  0.755030  1.0  0.1176
  H  H238  1  0.110880  0.893680  0.693530  1.0  0.11
  H  H239  1  0.218080  0.894870  0.758090  1.0  0.1171
  H  H240  1  0.192230  0.863550  0.711120  1.0  0.1297
  H  H241  1  0.262120  0.962950  0.768870  1.0  0.1168
  H  H242  1  0.547090  0.537700  0.263840  1.0  0.1042
  H  H243  1  0.637920  0.623390  0.309330  1.0  0.0934
  H  H244  1  0.610260  0.534270  0.245140  1.0  0.1041
  H  H245  1  0.512520  0.496380  0.201990  1.0  0.1289
  H  H246  1  0.586070  0.589190  0.241080  1.0  0.1253
  H  H247  1  0.621830  0.857640  0.701160  1.0  0.0934
  H  H248  1  0.640820  0.896840  0.747520  1.0  0.1127
  H  H249  1  0.737330  0.970400  0.755340  1.0  0.116
  H  H250  1  0.752220  0.024210  0.801740  1.0  0.1251
  H  H251  1  0.762520  0.950900  0.784060  1.0  0.1176
  H  H252  1  0.529710  0.854380  0.753090  1.0  0.1233
  H  H253  1  0.605610  0.866750  0.795970  1.0  0.108
  H  H254  1  0.486940  0.729050  0.706290  1.0  0.1191
  H  H255  1  0.530670  0.755260  0.699310  1.0  0.1214
  H  H256  1  0.580630  0.756520  0.739520  1.0  0.1208
  C  C257  1  0.907800  0.879600  0.952400  1.0  0.664
  C  C258  1  0.593300  0.997300  0.046300  1.0  0.6494
  C  C259  1  0.905490  0.532310  0.224900  1.0  0.0221
  C  C260  1  0.859430  0.464370  0.201500  1.0  -0.0563
  C  C261  1  0.799200  0.402520  0.153100  1.0  0.0603
  C  C262  1  0.785000  0.408600  0.128100  1.0  -0.0914
  C  C263  1  0.831030  0.476510  0.151500  1.0  -0.0595
  C  C264  1  0.891280  0.538360  0.199900  1.0  0.1907
  C  C265  1  0.964240  0.591040  0.273200  1.0  0.0215
  C  C266  1  0.032340  0.604600  0.296700  1.0  -0.0736
  C  C267  1  0.094190  0.665810  0.345100  1.0  -0.0111
  C  C268  1  0.087890  0.713490  0.370000  1.0  -0.0916
  C  C269  1  0.019910  0.700010  0.346600  1.0  0.0126
  C  C270  1  0.958070  0.638810  0.298200  1.0  0.1543
  C  C271  1  0.013520  0.749740  0.372700  1.0  0.0605
  C  C272  1  0.047840  0.776940  0.412400  1.0  -0.1031
  C  C273  1  0.043570  0.827030  0.438000  1.0  -0.0805
  C  C274  1  0.004900  0.849820  0.423800  1.0  -0.1143
  C  C275  1  0.970480  0.822520  0.384000  1.0  -0.0885
  C  C276  1  0.974750  0.772430  0.358400  1.0  -0.1
  C  C277  1  0.751240  0.331940  0.127800  1.0  0.0372
  C  C278  1  0.724220  0.266780  0.088200  1.0  -0.0906
  C  C279  1  0.672370  0.198150  0.061900  1.0  -0.0733
  C  C280  1  0.647640  0.194760  0.075300  1.0  -0.1473
  C  C281  1  0.674670  0.259910  0.114900  1.0  -0.0696
  C  C282  1  0.726530  0.328550  0.141200  1.0  -0.0782
  C  C283  1  0.814930  0.485010  0.126000  1.0  0.0171
  C  C284  1  0.874480  0.525280  0.141280  1.0  -0.0877
  C  C285  1  0.861880  0.529340  0.115800  1.0  -0.0696
  C  C286  1  0.789790  0.493170  0.075100  1.0  -0.1194
  C  C287  1  0.730210  0.452870  0.059800  1.0  -0.0835
  C  C288  1  0.742720  0.448740  0.085200  1.0  -0.1119
  C  C289  1  0.813830  0.829550  0.125300  1.0  0.0554
  C  C290  1  0.741550  0.763810  0.085400  1.0  -0.0991
  C  C291  1  0.728100  0.695700  0.060100  1.0  -0.0833
  C  C292  1  0.787080  0.693400  0.074800  1.0  -0.0464
  C  C293  1  0.859360  0.759140  0.114700  1.0  -0.0812
  C  C294  1  0.872690  0.827170  0.139900  1.0  -0.1029
  C  C295  1  0.800860  0.978100  0.151300  1.0  -0.0657
  C  C296  1  0.783520  0.908360  0.126530  1.0  -0.0733
  C  C297  1  0.826720  0.898480  0.150100  1.0  0.0485
  C  C298  1  0.887330  0.958410  0.198500  1.0  -0.0763
  C  C299  1  0.904760  0.028240  0.223360  1.0  -0.0704
  C  C300  1  0.861570  0.038130  0.199800  1.0  0.2448
  C  C301  1  0.748910  0.670030  0.873300  1.0  0.0142
  C  C302  1  0.776050  0.735130  0.913000  1.0  -0.1419
  C  C303  1  0.826400  0.803800  0.938700  1.0  -0.0889
  C  C304  1  0.849550  0.807310  0.924600  1.0  -0.1327
  C  C305  1  0.822410  0.742210  0.884900  1.0  -0.08
  C  C306  1  0.772140  0.673620  0.859300  1.0  -0.0764
  C  C307  1  0.595500  0.472500  0.776700  1.0  -0.0612
  C  C308  1  0.611410  0.460910  0.799600  1.0  -0.0842
  C  C309  1  0.672310  0.519970  0.848000  1.0  0.0198
  C  C310  1  0.717250  0.590650  0.873500  1.0  -0.1001
  C  C311  1  0.701280  0.602240  0.850600  1.0  0.009
  C  C312  1  0.640370  0.543190  0.802200  1.0  0.1628
  C  C313  1  0.682620  0.513020  0.872700  1.0  0.0257
  C  C314  1  0.755230  0.550010  0.913500  1.0  -0.1054
  C  C315  1  0.769080  0.546600  0.939500  1.0  -0.094
  C  C316  1  0.710230  0.506090  0.924600  1.0  -0.1364
  C  C317  1  0.637630  0.469090  0.883800  1.0  -0.072
  C  C318  1  0.623780  0.472520  0.857800  1.0  -0.0593
  C  C319  1  0.167910  0.680950  0.373000  1.0  -0.0461
  C  C320  1  0.170670  0.622270  0.358400  1.0  -0.1103
  C  C321  1  0.238960  0.636080  0.383700  1.0  -0.0993
  C  C322  1  0.304500  0.708580  0.423600  1.0  -0.1247
  C  C323  1  0.301640  0.767160  0.438100  1.0  -0.0946
  C  C324  1  0.233350  0.753350  0.412800  1.0  -0.1146
  C  C325  1  0.748450  0.986550  0.126500  1.0  -0.0062
  C  C326  1  0.720940  0.951420  0.086500  1.0  -0.0948
  C  C327  1  0.670830  0.955390  0.060700  1.0  -0.0791
  C  C328  1  0.648230  0.994490  0.074900  1.0  -0.1275
  C  C329  1  0.675640  0.029500  0.114800  1.0  -0.0687
  C  C330  1  0.725740  0.025540  0.140600  1.0  -0.0915
  C  C331  1  0.592100  0.117500  0.046000  1.0  0.6603
  C  C332  1  0.770500  0.495300  0.046100  1.0  0.7033
  C  C333  1  0.772000  0.622400  0.048100  1.0  0.6735
  C  C334  1  0.717700  0.499100  0.950100  1.0  0.6535
  C  C335  1  0.378700  0.724100  0.452300  1.0  0.6501
  C  C336  1  0.000400  0.905400  0.451600  1.0  0.6625
  C  C337  1  0.917400  0.146000  0.227200  1.0  -0.036
  C  C338  1  0.909100  0.209100  0.242400  1.0  -0.4156
  C  C339  1  0.583100  0.577700  0.773800  1.0  0.0084
  C  C340  1  0.548400  0.571200  0.738100  1.0  -0.3932
  C  C341  1  0.910000  0.646600  0.234600  1.0  0.0182
  C  C342  1  0.967900  0.730500  0.271500  1.0  -0.3533
  C  C343  1  0.848600  0.575000  0.264500  1.0  -0.0131
  C  C344  1  0.766800  0.541000  0.224700  1.0  -0.3926
  C  C345  1  0.120400  0.092200  0.547600  1.0  0.6636
  C  C346  1  0.002700  0.406700  0.453700  1.0  0.651
  C  C347  1  0.467690  0.094510  0.275100  1.0  0.0237
  C  C348  1  0.535630  0.140570  0.298500  1.0  -0.0555
  C  C349  1  0.597480  0.200800  0.346900  1.0  0.0594
  C  C350  1  0.591400  0.215000  0.371900  1.0  -0.0917
  C  C351  1  0.523490  0.168970  0.348500  1.0  -0.0592
  C  C352  1  0.461640  0.108720  0.300100  1.0  0.1913
  C  C353  1  0.408960  0.035760  0.226800  1.0  0.0206
  C  C354  1  0.395400  0.967660  0.203300  1.0  -0.0724
  C  C355  1  0.334190  0.905810  0.154900  1.0  -0.0118
  C  C356  1  0.286510  0.912110  0.130000  1.0  -0.0903
  C  C357  1  0.299990  0.980090  0.153400  1.0  0.0122
  C  C358  1  0.361190  0.041930  0.201800  1.0  0.1528
  C  C359  1  0.250260  0.986480  0.127300  1.0  0.0589
  C  C360  1  0.223060  0.952160  0.087600  1.0  -0.1085
  C  C361  1  0.172970  0.956430  0.062000  1.0  -0.0843
  C  C362  1  0.150180  0.995100  0.076200  1.0  -0.1149
  C  C363  1  0.177480  0.029520  0.116000  1.0  -0.09
  C  C364  1  0.227570  0.025250  0.141600  1.0  -0.1003
  C  C365  1  0.668060  0.248760  0.372200  1.0  0.0376
  C  C366  1  0.733220  0.275780  0.411800  1.0  -0.0884
  C  C367  1  0.801850  0.327630  0.438100  1.0  -0.069
  C  C368  1  0.805240  0.352360  0.424700  1.0  -0.1468
  C  C369  1  0.740090  0.325330  0.385100  1.0  -0.0698
  C  C370  1  0.671450  0.273470  0.358800  1.0  -0.0814
  C  C371  1  0.514990  0.185070  0.374000  1.0  0.0156
  C  C372  1  0.474720  0.125520  0.358720  1.0  -0.0899
  C  C373  1  0.470660  0.138120  0.384200  1.0  -0.0714
  C  C374  1  0.506830  0.210210  0.424900  1.0  -0.1189
  C  C375  1  0.547130  0.269790  0.440200  1.0  -0.0856
  C  C376  1  0.551260  0.257280  0.414800  1.0  -0.1144
  C  C377  1  0.170450  0.186170  0.374700  1.0  0.0546
  C  C378  1  0.236190  0.258450  0.414600  1.0  -0.1024
  C  C379  1  0.304300  0.271900  0.439900  1.0  -0.086
  C  C380  1  0.306600  0.212920  0.425200  1.0  -0.0468
  C  C381  1  0.240860  0.140640  0.385300  1.0  -0.0866
  C  C382  1  0.172830  0.127310  0.360100  1.0  -0.1037
  C  C383  1  0.021900  0.199140  0.348700  1.0  -0.0648
  C  C384  1  0.091640  0.216480  0.373470  1.0  -0.0721
  C  C385  1  0.101520  0.173280  0.349900  1.0  0.0483
  C  C386  1  0.041590  0.112670  0.301500  1.0  -0.0778
  C  C387  1  0.971760  0.095240  0.276640  1.0  -0.0698
  C  C388  1  0.961870  0.138430  0.300200  1.0  0.2449
  C  C389  1  0.329970  0.251090  0.626700  1.0  0.0145
  C  C390  1  0.264870  0.223950  0.587000  1.0  -0.1372
  C  C391  1  0.196200  0.173600  0.561300  1.0  -0.086
  C  C392  1  0.192690  0.150450  0.575400  1.0  -0.1337
  C  C393  1  0.257790  0.177590  0.615100  1.0  -0.0784
  C  C394  1  0.326380  0.227860  0.640700  1.0  -0.077
  C  C395  1  0.527500  0.404500  0.723300  1.0  -0.059
  C  C396  1  0.539090  0.388590  0.700400  1.0  -0.083
  C  C397  1  0.480030  0.327690  0.652000  1.0  0.0196
  C  C398  1  0.409350  0.282750  0.626500  1.0  -0.1042
  C  C399  1  0.397760  0.298720  0.649400  1.0  0.0076
  C  C400  1  0.456810  0.359630  0.697800  1.0  0.1641
  C  C401  1  0.486980  0.317380  0.627300  1.0  0.0251
  C  C402  1  0.449990  0.244770  0.586500  1.0  -0.1057
  C  C403  1  0.453400  0.230920  0.560500  1.0  -0.0975
  C  C404  1  0.493910  0.289770  0.575400  1.0  -0.1374
  C  C405  1  0.530910  0.362370  0.616200  1.0  -0.0759
  C  C406  1  0.527480  0.376220  0.642200  1.0  -0.0616
  C  C407  1  0.319050  0.832090  0.127000  1.0  -0.046
  C  C408  1  0.377730  0.829330  0.141600  1.0  -0.1083
  C  C409  1  0.363920  0.761040  0.116300  1.0  -0.0944
  C  C410  1  0.291420  0.695500  0.076400  1.0  -0.1248
  C  C411  1  0.232840  0.698360  0.061900  1.0  -0.0926
  C  C412  1  0.246650  0.766650  0.087200  1.0  -0.1103
  C  C413  1  0.013450  0.251550  0.373500  1.0  -0.0037
  C  C414  1  0.048580  0.279060  0.413500  1.0  -0.0892
  C  C415  1  0.044610  0.329170  0.439300  1.0  -0.0748
  C  C416  1  0.005510  0.351770  0.425100  1.0  -0.1272
  C  C417  1  0.970500  0.324360  0.385200  1.0  -0.0682
  C  C418  1  0.974460  0.274260  0.359400  1.0  -0.095
  C  C419  1  0.882500  0.407900  0.454000  1.0  0.6584
  C  C420  1  0.504700  0.229500  0.453900  1.0  0.7028
  C  C421  1  0.377600  0.228000  0.451900  1.0  0.6725
  C  C422  1  0.500900  0.282300  0.549900  1.0  0.6527
  C  C423  1  0.275900  0.621300  0.047700  1.0  0.6508
  C  C424  1  0.094600  0.999600  0.048400  1.0  0.6616
  C  C425  1  0.854000  0.082600  0.272800  1.0  -0.0405
  C  C426  1  0.790900  0.090900  0.257600  1.0  -0.4153
  C  C427  1  0.422300  0.416900  0.726200  1.0  0.0062
  C  C428  1  0.428800  0.451600  0.761900  1.0  -0.3935
  C  C429  1  0.353400  0.090000  0.265400  1.0  0.0162
  C  C430  1  0.269500  0.032100  0.228500  1.0  -0.352
  C  C431  1  0.425000  0.151400  0.235500  1.0  -0.0117
  C  C432  1  0.459000  0.233200  0.275300  1.0  -0.3919
  C  C433  1  0.092200  0.120400  0.047600  1.0  0.6645
  C  C434  1  0.406700  0.002700  0.953700  1.0  0.6499
  C  C435  1  0.094510  0.467690  0.775100  1.0  0.0198
  C  C436  1  0.140570  0.535630  0.798500  1.0  -0.0567
  C  C437  1  0.200800  0.597480  0.846900  1.0  0.0604
  C  C438  1  0.215000  0.591400  0.871900  1.0  -0.0936
  C  C439  1  0.168970  0.523490  0.848500  1.0  -0.0598
  C  C440  1  0.108720  0.461640  0.800100  1.0  0.1897
  C  C441  1  0.035760  0.408960  0.726800  1.0  0.0207
  C  C442  1  0.967660  0.395400  0.703300  1.0  -0.0734
  C  C443  1  0.905810  0.334190  0.654900  1.0  -0.0103
  C  C444  1  0.912110  0.286510  0.630000  1.0  -0.0895
  C  C445  1  0.980090  0.299990  0.653400  1.0  0.0116
  C  C446  1  0.041930  0.361190  0.701800  1.0  0.1524
  C  C447  1  0.986480  0.250260  0.627300  1.0  0.0587
  C  C448  1  0.952160  0.223060  0.587600  1.0  -0.1063
  C  C449  1  0.956430  0.172970  0.562000  1.0  -0.0809
  C  C450  1  0.995100  0.150180  0.576200  1.0  -0.1145
  C  C451  1  0.029520  0.177480  0.616000  1.0  -0.0876
  C  C452  1  0.025250  0.227570  0.641600  1.0  -0.1008
  C  C453  1  0.248760  0.668060  0.872200  1.0  0.0382
  C  C454  1  0.275780  0.733220  0.911800  1.0  -0.0894
  C  C455  1  0.327630  0.801850  0.938100  1.0  -0.0714
  C  C456  1  0.352360  0.805240  0.924700  1.0  -0.1469
  C  C457  1  0.325330  0.740090  0.885100  1.0  -0.0715
  C  C458  1  0.273470  0.671450  0.858800  1.0  -0.08
  C  C459  1  0.185070  0.514990  0.874000  1.0  0.0178
  C  C460  1  0.125520  0.474720  0.858720  1.0  -0.0862
  C  C461  1  0.138120  0.470660  0.884200  1.0  -0.0691
  C  C462  1  0.210210  0.506830  0.924900  1.0  -0.1189
  C  C463  1  0.269790  0.547130  0.940200  1.0  -0.0812
  C  C464  1  0.257280  0.551260  0.914800  1.0  -0.1123
  C  C465  1  0.186170  0.170450  0.874700  1.0  0.0554
  C  C466  1  0.258450  0.236190  0.914600  1.0  -0.097
  C  C467  1  0.271900  0.304300  0.939900  1.0  -0.083
  C  C468  1  0.212920  0.306600  0.925200  1.0  -0.0468
  C  C469  1  0.140640  0.240860  0.885300  1.0  -0.0815
  C  C470  1  0.127310  0.172830  0.860100  1.0  -0.1006
  C  C471  1  0.199140  0.021900  0.848700  1.0  -0.0653
  C  C472  1  0.216480  0.091640  0.873470  1.0  -0.0732
  C  C473  1  0.173280  0.101520  0.849900  1.0  0.049
  C  C474  1  0.112670  0.041590  0.801500  1.0  -0.0787
  C  C475  1  0.095240  0.971760  0.776640  1.0  -0.0707
  C  C476  1  0.138430  0.961870  0.800200  1.0  0.2447
  C  C477  1  0.251090  0.329970  0.126700  1.0  0.0145
  C  C478  1  0.223950  0.264870  0.087000  1.0  -0.1424
  C  C479  1  0.173600  0.196200  0.061300  1.0  -0.0921
  C  C480  1  0.150450  0.192690  0.075400  1.0  -0.1339
  C  C481  1  0.177590  0.257790  0.115100  1.0  -0.078
  C  C482  1  0.227860  0.326380  0.140700  1.0  -0.0744
  C  C483  1  0.404500  0.527500  0.223300  1.0  -0.0614
  C  C484  1  0.388590  0.539090  0.200400  1.0  -0.0842
  C  C485  1  0.327690  0.480030  0.152000  1.0  0.0207
  C  C486  1  0.282750  0.409350  0.126500  1.0  -0.0987
  C  C487  1  0.298720  0.397760  0.149400  1.0  0.008
  C  C488  1  0.359630  0.456810  0.197800  1.0  0.1641
  C  C489  1  0.317380  0.486980  0.127300  1.0  0.0255
  C  C490  1  0.244770  0.449990  0.086500  1.0  -0.1052
  C  C491  1  0.230920  0.453400  0.060500  1.0  -0.0943
  C  C492  1  0.289770  0.493910  0.075400  1.0  -0.137
  C  C493  1  0.362370  0.530910  0.116200  1.0  -0.0726
  C  C494  1  0.376220  0.527480  0.142200  1.0  -0.0599
  C  C495  1  0.832090  0.319050  0.627000  1.0  -0.0453
  C  C496  1  0.829330  0.377730  0.641600  1.0  -0.1107
  C  C497  1  0.761040  0.363920  0.616300  1.0  -0.0974
  C  C498  1  0.695500  0.291420  0.576400  1.0  -0.125
  C  C499  1  0.698360  0.232840  0.561900  1.0  -0.0934
  C  C500  1  0.766650  0.246650  0.587200  1.0  -0.1135
  C  C501  1  0.251550  0.013450  0.873500  1.0  -0.0037
  C  C502  1  0.279060  0.048580  0.913500  1.0  -0.0941
  C  C503  1  0.329170  0.044610  0.939300  1.0  -0.0757
  C  C504  1  0.351770  0.005510  0.925100  1.0  -0.1285
  C  C505  1  0.324360  0.970500  0.885200  1.0  -0.0702
  C  C506  1  0.274260  0.974460  0.859400  1.0  -0.0937
  C  C507  1  0.407900  0.882500  0.954000  1.0  0.6608
  C  C508  1  0.229500  0.504700  0.953900  1.0  0.7036
  C  C509  1  0.228000  0.377600  0.951900  1.0  0.6738
  C  C510  1  0.282300  0.500900  0.049900  1.0  0.6527
  C  C511  1  0.621300  0.275900  0.547700  1.0  0.6493
  C  C512  1  0.999600  0.094600  0.548400  1.0  0.6619
  C  C513  1  0.082600  0.854000  0.772800  1.0  -0.0384
  C  C514  1  0.090900  0.790900  0.757600  1.0  -0.4126
  C  C515  1  0.416900  0.422300  0.226200  1.0  0.0077
  C  C516  1  0.451600  0.428800  0.261900  1.0  -0.3961
  C  C517  1  0.090000  0.353400  0.765400  1.0  0.0164
  C  C518  1  0.032100  0.269500  0.728500  1.0  -0.3516
  C  C519  1  0.151400  0.425000  0.735500  1.0  -0.0103
  C  C520  1  0.233200  0.459000  0.775300  1.0  -0.3921
  C  C521  1  0.879600  0.907800  0.452400  1.0  0.6625
  C  C522  1  0.997300  0.593300  0.546300  1.0  0.65
  C  C523  1  0.532310  0.905490  0.724900  1.0  0.0218
  C  C524  1  0.464370  0.859430  0.701500  1.0  -0.0562
  C  C525  1  0.402520  0.799200  0.653100  1.0  0.0609
  C  C526  1  0.408600  0.785000  0.628100  1.0  -0.0898
  C  C527  1  0.476510  0.831030  0.651500  1.0  -0.0609
  C  C528  1  0.538360  0.891280  0.699900  1.0  0.1891
  C  C529  1  0.591040  0.964240  0.773200  1.0  0.0193
  C  C530  1  0.604600  0.032340  0.796700  1.0  -0.0716
  C  C531  1  0.665810  0.094190  0.845100  1.0  -0.0116
  C  C532  1  0.713490  0.087890  0.870000  1.0  -0.0927
  C  C533  1  0.700010  0.019910  0.846600  1.0  0.0123
  C  C534  1  0.638810  0.958070  0.798200  1.0  0.1543
  C  C535  1  0.749740  0.013520  0.872700  1.0  0.0598
  C  C536  1  0.776940  0.047840  0.912400  1.0  -0.1062
  C  C537  1  0.827030  0.043570  0.938000  1.0  -0.082
  C  C538  1  0.849820  0.004900  0.923800  1.0  -0.1144
  C  C539  1  0.822520  0.970480  0.884000  1.0  -0.0894
  C  C540  1  0.772430  0.974750  0.858400  1.0  -0.1006
  C  C541  1  0.331940  0.751240  0.627800  1.0  0.038
  C  C542  1  0.266780  0.724220  0.588200  1.0  -0.0871
  C  C543  1  0.198150  0.672370  0.561900  1.0  -0.0722
  C  C544  1  0.194760  0.647640  0.575300  1.0  -0.1476
  C  C545  1  0.259910  0.674670  0.614900  1.0  -0.0694
  C  C546  1  0.328550  0.726530  0.641200  1.0  -0.0773
  C  C547  1  0.485010  0.814930  0.626000  1.0  0.0155
  C  C548  1  0.525280  0.874480  0.641280  1.0  -0.0898
  C  C549  1  0.529340  0.861880  0.615800  1.0  -0.0737
  C  C550  1  0.493170  0.789790  0.575100  1.0  -0.1193
  C  C551  1  0.452870  0.730210  0.559800  1.0  -0.0858
  C  C552  1  0.448740  0.742720  0.585200  1.0  -0.1126
  C  C553  1  0.829550  0.813830  0.625300  1.0  0.0545
  C  C554  1  0.763810  0.741550  0.585400  1.0  -0.1022
  C  C555  1  0.695700  0.728100  0.560100  1.0  -0.0856
  C  C556  1  0.693400  0.787080  0.574800  1.0  -0.0465
  C  C557  1  0.759140  0.859360  0.614700  1.0  -0.0855
  C  C558  1  0.827170  0.872690  0.639900  1.0  -0.1045
  C  C559  1  0.978100  0.800860  0.651300  1.0  -0.0662
  C  C560  1  0.908360  0.783520  0.626530  1.0  -0.0722
  C  C561  1  0.898480  0.826720  0.650100  1.0  0.0491
  C  C562  1  0.958410  0.887330  0.698500  1.0  -0.079
  C  C563  1  0.028240  0.904760  0.723360  1.0  -0.072
  C  C564  1  0.038130  0.861570  0.699800  1.0  0.2437
  C  C565  1  0.670030  0.748910  0.373300  1.0  0.0159
  C  C566  1  0.735130  0.776050  0.413000  1.0  -0.1385
  C  C567  1  0.803800  0.826400  0.438700  1.0  -0.0852
  C  C568  1  0.807310  0.849550  0.424600  1.0  -0.1328
  C  C569  1  0.742210  0.822410  0.384900  1.0  -0.0789
  C  C570  1  0.673620  0.772140  0.359300  1.0  -0.079
  C  C571  1  0.472500  0.595500  0.276700  1.0  -0.0586
  C  C572  1  0.460910  0.611410  0.299600  1.0  -0.0842
  C  C573  1  0.519970  0.672310  0.348000  1.0  0.0211
  C  C574  1  0.590650  0.717250  0.373500  1.0  -0.1043
  C  C575  1  0.602240  0.701280  0.350600  1.0  0.0083
  C  C576  1  0.543190  0.640370  0.302200  1.0  0.1645
  C  C577  1  0.513020  0.682620  0.372700  1.0  0.0261
  C  C578  1  0.550010  0.755230  0.413500  1.0  -0.1062
  C  C579  1  0.546600  0.769080  0.439500  1.0  -0.097
  C  C580  1  0.506090  0.710230  0.424600  1.0  -0.1366
  C  C581  1  0.469090  0.637630  0.383800  1.0  -0.0734
  C  C582  1  0.472520  0.623780  0.357800  1.0  -0.0604
  C  C583  1  0.680950  0.167910  0.873000  1.0  -0.046
  C  C584  1  0.622270  0.170670  0.858400  1.0  -0.1088
  C  C585  1  0.636080  0.238960  0.883700  1.0  -0.0954
  C  C586  1  0.708580  0.304500  0.923600  1.0  -0.1246
  C  C587  1  0.767160  0.301640  0.938100  1.0  -0.0926
  C  C588  1  0.753350  0.233350  0.912800  1.0  -0.1106
  C  C589  1  0.986550  0.748450  0.626500  1.0  -0.007
  C  C590  1  0.951420  0.720940  0.586500  1.0  -0.0909
  C  C591  1  0.955390  0.670830  0.560700  1.0  -0.0769
  C  C592  1  0.994490  0.648230  0.574900  1.0  -0.1274
  C  C593  1  0.029500  0.675640  0.614800  1.0  -0.0676
  C  C594  1  0.025540  0.725740  0.640600  1.0  -0.0963
  C  C595  1  0.117500  0.592100  0.546000  1.0  0.6597
  C  C596  1  0.495300  0.770500  0.546100  1.0  0.7034
  C  C597  1  0.622400  0.772000  0.548100  1.0  0.6727
  C  C598  1  0.499100  0.717700  0.450100  1.0  0.6533
  C  C599  1  0.724100  0.378700  0.952300  1.0  0.6507
  C  C600  1  0.905400  0.000400  0.951600  1.0  0.6626
  C  C601  1  0.146000  0.917400  0.727200  1.0  -0.0394
  C  C602  1  0.209100  0.909100  0.742400  1.0  -0.413
  C  C603  1  0.577700  0.583100  0.273800  1.0  0.008
  C  C604  1  0.571200  0.548400  0.238100  1.0  -0.3939
  C  C605  1  0.646600  0.910000  0.734600  1.0  0.0148
  C  C606  1  0.730500  0.967900  0.771500  1.0  -0.3537
  C  C607  1  0.575000  0.848600  0.764500  1.0  -0.014
  C  C608  1  0.541000  0.766800  0.724700  1.0  -0.3892
  O  O609  1  0.919610  0.931250  0.982700  1.0  -0.5923
  O  O610  1  0.926770  0.876450  0.938300  1.0  -0.5593
  O  O611  1  0.576720  0.970340  0.013900  1.0  -0.5696
  O  O612  1  0.572650  0.030090  0.061100  1.0  -0.574
  O  O613  1  0.971130  0.929710  0.439900  1.0  -0.5681
  O  O614  1  0.827370  0.622530  0.060000  1.0  -0.5934
  O  O615  1  0.710620  0.565100  0.014600  1.0  -0.5793
  O  O616  1  0.711070  0.472930  0.016000  1.0  -0.5312
  O  O617  1  0.829530  0.528790  0.061400  1.0  -0.5987
  O  O618  1  0.436370  0.789630  0.485900  1.0  -0.5881
  O  O619  1  0.379500  0.670880  0.440700  1.0  -0.5785
  O  O620  1  0.669540  0.470620  0.939400  1.0  -0.55
  O  O621  1  0.786640  0.527580  0.983400  1.0  -0.6044
  O  O622  1  0.027990  0.923270  0.485200  1.0  -0.5736
  O  O623  1  0.578000  0.066420  0.015400  1.0  -0.5528
  O  O624  1  0.572610  0.123830  0.061500  1.0  -0.5788
  O  O625  1  0.875100  0.103300  0.221900  1.0  -0.3516
  O  O626  1  0.622400  0.548000  0.776400  1.0  -0.3417
  O  O627  1  0.937700  0.606900  0.226000  1.0  -0.3538
  O  O628  1  0.891700  0.624500  0.274500  1.0  -0.3223
  O  O629  1  0.068750  0.080390  0.517300  1.0  -0.591
  O  O630  1  0.123550  0.073230  0.561700  1.0  -0.5584
  O  O631  1  0.029660  0.423280  0.486100  1.0  -0.5686
  O  O632  1  0.969910  0.427350  0.438900  1.0  -0.5734
  O  O633  1  0.070290  0.028870  0.060100  1.0  -0.5685
  O  O634  1  0.377470  0.172630  0.440000  1.0  -0.5935
  O  O635  1  0.434900  0.289380  0.485400  1.0  -0.5835
  O  O636  1  0.527070  0.288930  0.484000  1.0  -0.5296
  O  O637  1  0.471210  0.170470  0.438600  1.0  -0.6012
  O  O638  1  0.210370  0.563630  0.014100  1.0  -0.5863
  O  O639  1  0.329120  0.620500  0.059300  1.0  -0.5807
  O  O640  1  0.529380  0.330460  0.560600  1.0  -0.5502
  O  O641  1  0.472420  0.213360  0.516600  1.0  -0.607
  O  O642  1  0.076730  0.972010  0.014800  1.0  -0.5755
  O  O643  1  0.933580  0.422000  0.484600  1.0  -0.5513
  O  O644  1  0.876170  0.427390  0.438500  1.0  -0.5778
  O  O645  1  0.896700  0.124900  0.278100  1.0  -0.3532
  O  O646  1  0.452000  0.377600  0.723600  1.0  -0.3406
  O  O647  1  0.393100  0.062300  0.274000  1.0  -0.3493
  O  O648  1  0.375500  0.108300  0.225500  1.0  -0.3225
  O  O649  1  0.080390  0.068750  0.017300  1.0  -0.5922
  O  O650  1  0.073230  0.123550  0.061700  1.0  -0.5598
  O  O651  1  0.423280  0.029660  0.986100  1.0  -0.5704
  O  O652  1  0.427350  0.969910  0.938900  1.0  -0.5734
  O  O653  1  0.028870  0.070290  0.560100  1.0  -0.5681
  O  O654  1  0.172630  0.377470  0.940000  1.0  -0.5949
  O  O655  1  0.289380  0.434900  0.985400  1.0  -0.5807
  O  O656  1  0.288930  0.527070  0.984000  1.0  -0.5306
  O  O657  1  0.170470  0.471210  0.938600  1.0  -0.602
  O  O658  1  0.563630  0.210370  0.514100  1.0  -0.5866
  O  O659  1  0.620500  0.329120  0.559300  1.0  -0.5799
  O  O660  1  0.330460  0.529380  0.060600  1.0  -0.5508
  O  O661  1  0.213360  0.472420  0.016600  1.0  -0.6049
  O  O662  1  0.972010  0.076730  0.514800  1.0  -0.5753
  O  O663  1  0.422000  0.933580  0.984600  1.0  -0.5515
  O  O664  1  0.427390  0.876170  0.938500  1.0  -0.5779
  O  O665  1  0.124900  0.896700  0.778100  1.0  -0.3517
  O  O666  1  0.377600  0.452000  0.223600  1.0  -0.3419
  O  O667  1  0.062300  0.393100  0.774000  1.0  -0.3525
  O  O668  1  0.108300  0.375500  0.725500  1.0  -0.3195
  O  O669  1  0.931250  0.919610  0.482700  1.0  -0.5904
  O  O670  1  0.876450  0.926770  0.438300  1.0  -0.559
  O  O671  1  0.970340  0.576720  0.513900  1.0  -0.5693
  O  O672  1  0.030090  0.572650  0.561100  1.0  -0.5733
  O  O673  1  0.929710  0.971130  0.939900  1.0  -0.5692
  O  O674  1  0.622530  0.827370  0.560000  1.0  -0.5933
  O  O675  1  0.565100  0.710620  0.514600  1.0  -0.5815
  O  O676  1  0.472930  0.711070  0.516000  1.0  -0.5286
  O  O677  1  0.528790  0.829530  0.561400  1.0  -0.5997
  O  O678  1  0.789630  0.436370  0.985900  1.0  -0.5858
  O  O679  1  0.670880  0.379500  0.940700  1.0  -0.5801
  O  O680  1  0.470620  0.669540  0.439400  1.0  -0.5501
  O  O681  1  0.527580  0.786640  0.483400  1.0  -0.6048
  O  O682  1  0.923270  0.027990  0.985200  1.0  -0.5759
  O  O683  1  0.066420  0.578000  0.515400  1.0  -0.5513
  O  O684  1  0.123830  0.572610  0.561500  1.0  -0.5762
  O  O685  1  0.103300  0.875100  0.721900  1.0  -0.3501
  O  O686  1  0.548000  0.622400  0.276400  1.0  -0.3414
  O  O687  1  0.606900  0.937700  0.726000  1.0  -0.352
  O  O688  1  0.624500  0.891700  0.774500  1.0  -0.32
