# generated using pymatgen
data_FeH5C8O5
_symmetry_space_group_name_H-M   'P 1'
_cell_length_a   11.34000000
_cell_length_b   19.22000000
_cell_length_c   13.79800000
_cell_angle_alpha   110.82000000
_cell_angle_beta   90.00000000
_cell_angle_gamma   90.00000000
_symmetry_Int_Tables_number   1
_chemical_formula_structural   FeH5C8O5
_chemical_formula_sum   'Fe8 H40 C64 O40'
_cell_volume   2810.96601023
_cell_formula_units_Z   8
loop_
 _symmetry_equiv_pos_site_id
 _symmetry_equiv_pos_as_xyz
  1  'x, y, z'
loop_
 _atom_site_type_symbol
 _atom_site_label
 _atom_site_symmetry_multiplicity
 _atom_site_fract_x
 _atom_site_fract_y
 _atom_site_fract_z
 _atom_site_occupancy
 _atom_site_charge
  Fe  Fe1  1  0.999190  0.998660  0.997980  1.0  1.0081
  Fe  Fe2  1  0.492340  0.500510  0.001300  1.0  1.1415
  Fe  Fe3  1  0.001370  0.000130  0.748660  1.0  1.125
  Fe  Fe4  1  0.495520  0.500900  0.750330  1.0  1.1424
  Fe  Fe5  1  0.996810  0.000920  0.499200  1.0  1.1144
  Fe  Fe6  1  0.508680  0.499840  0.502290  1.0  1.1504
  Fe  Fe7  1  0.999290  0.999880  0.248490  1.0  1.1119
  Fe  Fe8  1  0.501590  0.500000  0.251380  1.0  1.1337
  H  H9  1  0.670800  0.700970  0.822730  1.0  0.1352
  H  H10  1  0.768980  0.824730  0.883940  1.0  0.1388
  H  H11  1  0.327610  0.491560  0.871200  1.0  0.4367
  H  H12  1  0.223590  0.177840  0.811620  1.0  0.1325
  H  H13  1  0.319240  0.302590  0.875730  1.0  0.1421
  H  H14  1  0.695060  0.312860  0.936520  1.0  0.1371
  H  H15  1  0.801220  0.191270  0.874550  1.0  0.1398
  H  H16  1  0.176890  0.798050  0.925080  1.0  0.1384
  H  H17  1  0.275320  0.674380  0.862530  1.0  0.1393
  H  H18  1  0.841130  0.986460  0.873590  1.0  0.453
  H  H19  1  0.327250  0.297400  0.676150  1.0  0.143
  H  H20  1  0.226900  0.174080  0.613750  1.0  0.1378
  H  H21  1  0.662960  0.531020  0.647920  1.0  0.4416
  H  H22  1  0.819250  0.810010  0.677130  1.0  0.1382
  H  H23  1  0.721030  0.686110  0.614680  1.0  0.1439
  H  H24  1  0.277750  0.676700  0.556790  1.0  0.1386
  H  H25  1  0.179480  0.800840  0.619220  1.0  0.1384
  H  H26  1  0.805500  0.195700  0.569550  1.0  0.1389
  H  H27  1  0.700240  0.317670  0.631570  1.0  0.1434
  H  H28  1  0.617570  0.720950  0.339700  1.0  0.1357
  H  H29  1  0.718720  0.843850  0.401070  1.0  0.1427
  H  H30  1  0.342010  0.478380  0.368490  1.0  0.4525
  H  H31  1  0.224100  0.177330  0.308080  1.0  0.1357
  H  H32  1  0.325780  0.300270  0.370220  1.0  0.1457
  H  H33  1  0.733250  0.325990  0.439290  1.0  0.1373
  H  H34  1  0.828490  0.200970  0.376160  1.0  0.139
  H  H35  1  0.179690  0.802700  0.432290  1.0  0.1367
  H  H36  1  0.278900  0.678750  0.371620  1.0  0.1406
  H  H37  1  0.839150  0.967290  0.355830  1.0  0.4433
  H  H38  1  0.324500  0.297160  0.180300  1.0  0.137
  H  H39  1  0.227340  0.172850  0.116440  1.0  0.137
  H  H40  1  0.658560  0.524990  0.133690  1.0  0.4502
  H  H41  1  0.777680  0.821840  0.189920  1.0  0.1402
  H  H42  1  0.678320  0.698320  0.128860  1.0  0.1396
  H  H43  1  0.291250  0.682130  0.066240  1.0  0.1384
  H  H44  1  0.192440  0.806140  0.126930  1.0  0.1395
  H  H45  1  0.833830  0.204880  0.070870  1.0  0.1369
  H  H46  1  0.738470  0.329760  0.133990  1.0  0.1457
  H  H47  1  0.167830  0.028450  0.643480  1.0  0.4697
  H  H48  1  0.160980  0.024980  0.135730  1.0  0.4542
  C  C49  1  0.669300  0.692520  0.972140  1.0  -0.063
  C  C50  1  0.693270  0.728380  0.902760  1.0  -0.065
  C  C51  1  0.747870  0.796970  0.936720  1.0  -0.048
  C  C52  1  0.612460  0.618410  0.934700  1.0  0.7645
  C  C53  1  0.220070  0.168380  0.960240  1.0  -0.0713
  C  C54  1  0.246380  0.204610  0.891720  1.0  -0.0726
  C  C55  1  0.299030  0.273690  0.927310  1.0  -0.0869
  C  C56  1  0.156650  0.096640  0.922480  1.0  0.7481
  C  C57  1  0.693580  0.322330  0.787900  1.0  -0.0624
  C  C58  1  0.719960  0.286500  0.856870  1.0  -0.0853
  C  C59  1  0.778310  0.219320  0.822560  1.0  -0.0774
  C  C60  1  0.634710  0.395500  0.826200  1.0  0.7871
  C  C61  1  0.172810  0.806340  0.775790  1.0  -0.0658
  C  C62  1  0.198660  0.770560  0.844900  1.0  -0.072
  C  C63  1  0.252520  0.702000  0.810280  1.0  -0.0506
  C  C64  1  0.115540  0.880210  0.813720  1.0  0.7798
  C  C65  1  0.331100  0.305990  0.526970  1.0  -0.0567
  C  C66  1  0.304660  0.270280  0.596070  1.0  -0.077
  C  C67  1  0.249430  0.202000  0.561500  1.0  -0.0599
  C  C68  1  0.388590  0.379790  0.565110  1.0  0.7642
  C  C69  1  0.774720  0.833520  0.542480  1.0  -0.0718
  C  C70  1  0.773690  0.790190  0.604420  1.0  -0.0702
  C  C71  1  0.718470  0.721910  0.570300  1.0  -0.0644
  C  C72  1  0.842450  0.903510  0.576370  1.0  0.7418
  C  C73  1  0.280840  0.668420  0.706070  1.0  -0.0605
  C  C74  1  0.254480  0.703850  0.636680  1.0  -0.0568
  C  C75  1  0.200550  0.772560  0.671350  1.0  -0.0661
  C  C76  1  0.343010  0.596280  0.669800  1.0  0.7463
  C  C77  1  0.809430  0.187170  0.718640  1.0  -0.0635
  C  C78  1  0.781070  0.222240  0.649290  1.0  -0.062
  C  C79  1  0.723060  0.289610  0.683610  1.0  -0.0505
  C  C80  1  0.875620  0.116430  0.682440  1.0  0.789
  C  C81  1  0.663290  0.696890  0.474020  1.0  -0.068
  C  C82  1  0.661270  0.741150  0.413340  1.0  -0.0731
  C  C83  1  0.717150  0.809280  0.447300  1.0  -0.0525
  C  C84  1  0.610490  0.621930  0.435030  1.0  0.7385
  C  C85  1  0.220030  0.168890  0.457250  1.0  -0.07
  C  C86  1  0.247710  0.204170  0.387960  1.0  -0.0713
  C  C87  1  0.303440  0.272310  0.422480  1.0  -0.0526
  C  C88  1  0.154550  0.097900  0.421000  1.0  0.7492
  C  C89  1  0.730780  0.334930  0.290440  1.0  -0.0619
  C  C90  1  0.756710  0.298980  0.359380  1.0  -0.0695
  C  C91  1  0.808840  0.229720  0.324290  1.0  -0.0663
  C  C92  1  0.666270  0.406360  0.327880  1.0  0.7462
  C  C93  1  0.180270  0.810980  0.282910  1.0  -0.0648
  C  C94  1  0.204490  0.775590  0.352780  1.0  -0.0678
  C  C95  1  0.258740  0.706900  0.319130  1.0  -0.0645
  C  C96  1  0.117810  0.883100  0.318030  1.0  0.7601
  C  C97  1  0.326500  0.307070  0.031910  1.0  -0.0725
  C  C98  1  0.302100  0.270310  0.100130  1.0  -0.0593
  C  C99  1  0.248810  0.201360  0.064660  1.0  -0.0574
  C  C100  1  0.381270  0.381680  0.070370  1.0  0.7603
  C  C101  1  0.778500  0.830450  0.040620  1.0  -0.0622
  C  C102  1  0.753070  0.794990  0.110260  1.0  -0.0656
  C  C103  1  0.698520  0.726410  0.076280  1.0  -0.0567
  C  C104  1  0.842830  0.901960  0.076480  1.0  0.7509
  C  C105  1  0.288460  0.673150  0.215130  1.0  -0.0663
  C  C106  1  0.265970  0.709130  0.145630  1.0  -0.0618
  C  C107  1  0.211860  0.777730  0.179270  1.0  -0.0697
  C  C108  1  0.345710  0.599450  0.177120  1.0  0.7798
  C  C109  1  0.835600  0.195630  0.219690  1.0  -0.0603
  C  C110  1  0.812100  0.232220  0.151090  1.0  -0.0507
  C  C111  1  0.759840  0.301550  0.186170  1.0  -0.051
  C  C112  1  0.887710  0.120180  0.181480  1.0  0.7902
  O  O113  1  0.586290  0.591810  0.839840  1.0  -0.5843
  O  O114  1  0.595480  0.590580  0.500170  1.0  -0.5698
  O  O115  1  0.129770  0.071170  0.827620  1.0  -0.5791
  O  O116  1  0.126880  0.070550  0.488430  1.0  -0.5827
  O  O117  1  0.608650  0.421170  0.920920  1.0  -0.581
  O  O118  1  0.619970  0.427950  0.762160  1.0  -0.571
  O  O119  1  0.090020  0.906840  0.908700  1.0  -0.5649
  O  O120  1  0.097110  0.910570  0.747850  1.0  -0.5823
  O  O121  1  0.402660  0.409610  0.661720  1.0  -0.5824
  O  O122  1  0.391110  0.414590  0.006520  1.0  -0.5821
  O  O123  1  0.873990  0.928900  0.669980  1.0  -0.5748
  O  O124  1  0.867440  0.930590  0.009690  1.0  -0.5872
  O  O125  1  0.373160  0.569830  0.576070  1.0  -0.5768
  O  O126  1  0.360720  0.566090  0.736410  1.0  -0.5872
  O  O127  1  0.902130  0.090620  0.587630  1.0  -0.5664
  O  O128  1  0.901310  0.088530  0.749530  1.0  -0.578
  O  O129  1  0.585060  0.508800  0.632970  1.0  -0.9087
  O  O130  1  0.924600  0.993790  0.873880  1.0  -0.8287
  O  O131  1  0.411480  0.495580  0.873050  1.0  -1.0276
  O  O132  1  0.586170  0.595090  0.339730  1.0  -0.5913
  O  O133  1  0.130040  0.070650  0.325800  1.0  -0.5862
  O  O134  1  0.640170  0.431860  0.422730  1.0  -0.5789
  O  O135  1  0.641030  0.435990  0.262260  1.0  -0.5846
  O  O136  1  0.090890  0.910180  0.412590  1.0  -0.562
  O  O137  1  0.095910  0.911230  0.250270  1.0  -0.5616
  O  O138  1  0.413200  0.406670  0.164020  1.0  -0.5807
  O  O139  1  0.418610  0.407000  0.498170  1.0  -0.5713
  O  O140  1  0.869240  0.928900  0.171340  1.0  -0.5778
  O  O141  1  0.865410  0.931870  0.508950  1.0  -0.5708
  O  O142  1  0.368910  0.573250  0.081560  1.0  -0.5874
  O  O143  1  0.366290  0.568180  0.241570  1.0  -0.5896
  O  O144  1  0.908770  0.091700  0.085730  1.0  -0.574
  O  O145  1  0.905610  0.090020  0.247690  1.0  -0.5755
  O  O146  1  0.578810  0.508200  0.128550  1.0  -1.0236
  O  O147  1  0.916600  0.987230  0.366890  1.0  -0.985
  O  O148  1  0.424030  0.490040  0.372560  1.0  -1.0033
  O  O149  1  0.595070  0.587470  0.000130  1.0  -0.5786
  O  O150  1  0.133110  0.066530  0.987780  1.0  -0.5758
  O  O151  1  0.088210  0.008440  0.630460  1.0  -0.8488
  O  O152  1  0.081470  0.007830  0.128200  1.0  -0.9606
