# generated using pymatgen
data_Ga3P3O13
_symmetry_space_group_name_H-M   'P 1'
_cell_length_a   18.03500000
_cell_length_b   10.51300000
_cell_length_c   14.29300000
_cell_angle_alpha   90.00000000
_cell_angle_beta   90.00000000
_cell_angle_gamma   90.00000000
_symmetry_Int_Tables_number   1
_chemical_formula_structural   Ga3P3O13
_chemical_formula_sum   'Ga24 P24 O104'
_cell_volume   2709.98074281
_cell_formula_units_Z   8
loop_
 _symmetry_equiv_pos_site_id
 _symmetry_equiv_pos_as_xyz
  1  'x, y, z'
loop_
 _atom_site_type_symbol
 _atom_site_label
 _atom_site_symmetry_multiplicity
 _atom_site_fract_x
 _atom_site_fract_y
 _atom_site_fract_z
 _atom_site_occupancy
 _atom_site_charge
  Ga  Ga1  1  0.702800  0.807900  0.648500  1.0  1.6184
  Ga  Ga2  1  0.815000  0.624500  0.874700  1.0  1.7043
  Ga  Ga3  1  0.890700  0.853600  0.557500  1.0  1.6707
  Ga  Ga4  1  0.702800  0.307900  0.148500  1.0  1.6184
  Ga  Ga5  1  0.815000  0.124500  0.374700  1.0  1.7043
  Ga  Ga6  1  0.890700  0.353600  0.057500  1.0  1.6707
  Ga  Ga7  1  0.297200  0.192100  0.648500  1.0  1.6195
  Ga  Ga8  1  0.185000  0.375500  0.874700  1.0  1.704
  Ga  Ga9  1  0.109300  0.146400  0.557500  1.0  1.6709
  Ga  Ga10  1  0.297200  0.692100  0.148500  1.0  1.6195
  Ga  Ga11  1  0.185000  0.875500  0.374700  1.0  1.704
  Ga  Ga12  1  0.109300  0.646400  0.057500  1.0  1.6709
  Ga  Ga13  1  0.202800  0.692100  0.648500  1.0  1.6182
  Ga  Ga14  1  0.315000  0.875500  0.874700  1.0  1.7046
  Ga  Ga15  1  0.390700  0.646400  0.557500  1.0  1.6709
  Ga  Ga16  1  0.202800  0.192100  0.148500  1.0  1.6182
  Ga  Ga17  1  0.315000  0.375500  0.374700  1.0  1.7046
  Ga  Ga18  1  0.390700  0.146400  0.057500  1.0  1.6709
  Ga  Ga19  1  0.797200  0.307900  0.648500  1.0  1.6196
  Ga  Ga20  1  0.685000  0.124500  0.874700  1.0  1.704
  Ga  Ga21  1  0.609300  0.353600  0.557500  1.0  1.6708
  Ga  Ga22  1  0.797200  0.807900  0.148500  1.0  1.6196
  Ga  Ga23  1  0.685000  0.624500  0.374700  1.0  1.704
  Ga  Ga24  1  0.609300  0.853600  0.057500  1.0  1.6708
  P  P25  1  0.575100  0.642400  0.544400  1.0  2.0383
  P  P26  1  0.704200  0.839500  0.874700  1.0  1.9505
  P  P27  1  0.830700  0.613400  0.659800  1.0  1.9888
  P  P28  1  0.575100  0.142400  0.044400  1.0  2.0383
  P  P29  1  0.704200  0.339500  0.374700  1.0  1.9505
  P  P30  1  0.830700  0.113400  0.159800  1.0  1.9888
  P  P31  1  0.424900  0.357600  0.544400  1.0  2.0377
  P  P32  1  0.295800  0.160500  0.874700  1.0  1.9523
  P  P33  1  0.169300  0.386600  0.659800  1.0  1.9807
  P  P34  1  0.424900  0.857600  0.044400  1.0  2.0377
  P  P35  1  0.295800  0.660500  0.374700  1.0  1.9523
  P  P36  1  0.169300  0.886600  0.159800  1.0  1.9807
  P  P37  1  0.075100  0.857600  0.544400  1.0  2.0416
  P  P38  1  0.204200  0.660500  0.874700  1.0  1.9508
  P  P39  1  0.330700  0.886600  0.659800  1.0  1.9889
  P  P40  1  0.075100  0.357600  0.044400  1.0  2.0416
  P  P41  1  0.204200  0.160500  0.374700  1.0  1.9508
  P  P42  1  0.330700  0.386600  0.159800  1.0  1.9889
  P  P43  1  0.924900  0.142400  0.544400  1.0  2.0389
  P  P44  1  0.795800  0.339500  0.874700  1.0  1.9525
  P  P45  1  0.669300  0.113400  0.659800  1.0  1.9802
  P  P46  1  0.924900  0.642400  0.044400  1.0  2.0389
  P  P47  1  0.795800  0.839500  0.374700  1.0  1.9525
  P  P48  1  0.669300  0.613400  0.159800  1.0  1.9802
  O  O49  1  0.750400  0.642400  0.636000  1.0  -0.789
  O  O50  1  0.847500  0.662400  0.757900  1.0  -0.8827
  O  O51  1  0.791500  0.888100  0.610600  1.0  -0.7301
  O  O52  1  0.632800  0.839200  0.930000  1.0  -0.7944
  O  O53  1  0.602600  0.619300  0.444700  1.0  -0.954
  O  O54  1  0.618300  0.751300  0.588400  1.0  -0.8951
  O  O55  1  0.884400  0.685400  0.594700  1.0  -0.8316
  O  O56  1  0.761400  0.756200  0.923900  1.0  -0.8778
  O  O57  1  0.688400  0.786200  0.778200  1.0  -0.87
  O  O58  1  0.736100  0.974300  0.871600  1.0  -0.8777
  O  O59  1  0.585900  0.518600  0.599100  1.0  -0.7896
  O  O60  1  0.494300  0.681300  0.537900  1.0  -0.8591
  O  O61  1  0.844400  0.471900  0.651100  1.0  -0.8215
  O  O62  1  0.750400  0.142400  0.136000  1.0  -0.789
  O  O63  1  0.847500  0.162400  0.257900  1.0  -0.8827
  O  O64  1  0.791500  0.388100  0.110600  1.0  -0.7301
  O  O65  1  0.632800  0.339200  0.430000  1.0  -0.7944
  O  O66  1  0.602600  0.119300  0.944700  1.0  -0.954
  O  O67  1  0.618300  0.251300  0.088400  1.0  -0.8951
  O  O68  1  0.884400  0.185400  0.094700  1.0  -0.8316
  O  O69  1  0.761400  0.256200  0.423900  1.0  -0.8778
  O  O70  1  0.688400  0.286200  0.278200  1.0  -0.87
  O  O71  1  0.736100  0.474300  0.371600  1.0  -0.8777
  O  O72  1  0.585900  0.018600  0.099100  1.0  -0.7896
  O  O73  1  0.494300  0.181300  0.037900  1.0  -0.8591
  O  O74  1  0.844400  0.971900  0.151100  1.0  -0.8215
  O  O75  1  0.249600  0.357600  0.636000  1.0  -0.7881
  O  O76  1  0.152500  0.337600  0.757900  1.0  -0.8809
  O  O77  1  0.208500  0.111900  0.610600  1.0  -0.7314
  O  O78  1  0.367200  0.160800  0.930000  1.0  -0.7936
  O  O79  1  0.397400  0.380700  0.444700  1.0  -0.9544
  O  O80  1  0.381700  0.248700  0.588400  1.0  -0.8913
  O  O81  1  0.115600  0.314600  0.594700  1.0  -0.8315
  O  O82  1  0.238600  0.243800  0.923900  1.0  -0.8768
  O  O83  1  0.311600  0.213800  0.778200  1.0  -0.8706
  O  O84  1  0.263900  0.025700  0.871600  1.0  -0.8785
  O  O85  1  0.414100  0.481400  0.599100  1.0  -0.788
  O  O86  1  0.505700  0.318700  0.537900  1.0  -0.859
  O  O87  1  0.155600  0.528100  0.651100  1.0  -0.8218
  O  O88  1  0.249600  0.857600  0.136000  1.0  -0.7881
  O  O89  1  0.152500  0.837600  0.257900  1.0  -0.8809
  O  O90  1  0.208500  0.611900  0.110600  1.0  -0.7314
  O  O91  1  0.367200  0.660800  0.430000  1.0  -0.7936
  O  O92  1  0.397400  0.880700  0.944700  1.0  -0.9544
  O  O93  1  0.381700  0.748700  0.088400  1.0  -0.8913
  O  O94  1  0.115600  0.814600  0.094700  1.0  -0.8315
  O  O95  1  0.238600  0.743800  0.423900  1.0  -0.8768
  O  O96  1  0.311600  0.713800  0.278200  1.0  -0.8706
  O  O97  1  0.263900  0.525700  0.371600  1.0  -0.8785
  O  O98  1  0.414100  0.981400  0.099100  1.0  -0.788
  O  O99  1  0.505700  0.818700  0.037900  1.0  -0.859
  O  O100  1  0.155600  0.028100  0.151100  1.0  -0.8218
  O  O101  1  0.250400  0.857600  0.636000  1.0  -0.7888
  O  O102  1  0.347500  0.837600  0.757900  1.0  -0.8824
  O  O103  1  0.291500  0.611900  0.610600  1.0  -0.7317
  O  O104  1  0.132800  0.660800  0.930000  1.0  -0.795
  O  O105  1  0.102600  0.880700  0.444700  1.0  -0.9542
  O  O106  1  0.118300  0.748700  0.588400  1.0  -0.8909
  O  O107  1  0.384400  0.814600  0.594700  1.0  -0.8306
  O  O108  1  0.261400  0.743800  0.923900  1.0  -0.8771
  O  O109  1  0.188400  0.713800  0.778200  1.0  -0.8708
  O  O110  1  0.236100  0.525700  0.871600  1.0  -0.8778
  O  O111  1  0.085900  0.981400  0.599100  1.0  -0.7895
  O  O112  1  0.994300  0.818700  0.537900  1.0  -0.8588
  O  O113  1  0.344400  0.028100  0.651100  1.0  -0.8219
  O  O114  1  0.250400  0.357600  0.136000  1.0  -0.7888
  O  O115  1  0.347500  0.337600  0.257900  1.0  -0.8824
  O  O116  1  0.291500  0.111900  0.110600  1.0  -0.7313
  O  O117  1  0.132800  0.160800  0.430000  1.0  -0.795
  O  O118  1  0.102600  0.380700  0.944700  1.0  -0.9542
  O  O119  1  0.118300  0.248700  0.088400  1.0  -0.8909
  O  O120  1  0.384400  0.314600  0.094700  1.0  -0.8306
  O  O121  1  0.261400  0.243800  0.423900  1.0  -0.8771
  O  O122  1  0.188400  0.213800  0.278200  1.0  -0.8708
  O  O123  1  0.236100  0.025700  0.371600  1.0  -0.8778
  O  O124  1  0.085900  0.481400  0.099100  1.0  -0.7895
  O  O125  1  0.994300  0.318700  0.037900  1.0  -0.8588
  O  O126  1  0.344400  0.528100  0.151100  1.0  -0.8219
  O  O127  1  0.749600  0.142400  0.636000  1.0  -0.7883
  O  O128  1  0.652500  0.162400  0.757900  1.0  -0.8825
  O  O129  1  0.708500  0.388100  0.610600  1.0  -0.7302
  O  O130  1  0.867200  0.339200  0.930000  1.0  -0.7936
  O  O131  1  0.897400  0.119300  0.444700  1.0  -0.9543
  O  O132  1  0.881700  0.251300  0.588400  1.0  -0.893
  O  O133  1  0.615600  0.185400  0.594700  1.0  -0.8327
  O  O134  1  0.738600  0.256200  0.923900  1.0  -0.8772
  O  O135  1  0.811600  0.286200  0.778200  1.0  -0.87
  O  O136  1  0.763900  0.474300  0.871600  1.0  -0.8782
  O  O137  1  0.914100  0.018600  0.599100  1.0  -0.7885
  O  O138  1  0.005700  0.181300  0.537900  1.0  -0.8591
  O  O139  1  0.655600  0.971900  0.651100  1.0  -0.8215
  O  O140  1  0.749600  0.642400  0.136000  1.0  -0.7883
  O  O141  1  0.652500  0.662400  0.257900  1.0  -0.8825
  O  O142  1  0.708500  0.888100  0.110600  1.0  -0.7298
  O  O143  1  0.867200  0.839200  0.430000  1.0  -0.7936
  O  O144  1  0.897400  0.619300  0.944700  1.0  -0.9543
  O  O145  1  0.881700  0.751300  0.088400  1.0  -0.893
  O  O146  1  0.615600  0.685400  0.094700  1.0  -0.8327
  O  O147  1  0.738600  0.756200  0.423900  1.0  -0.8772
  O  O148  1  0.811600  0.786200  0.278200  1.0  -0.87
  O  O149  1  0.763900  0.974300  0.371600  1.0  -0.8782
  O  O150  1  0.914100  0.518600  0.099100  1.0  -0.7885
  O  O151  1  0.005700  0.681300  0.037900  1.0  -0.8591
  O  O152  1  0.655600  0.471900  0.151100  1.0  -0.8215
