# generated using pymatgen
data_BePO4
_symmetry_space_group_name_H-M   'P 1'
_cell_length_a   13.51370000
_cell_length_b   9.01190000
_cell_length_c   9.63570000
_cell_angle_alpha   90.00000000
_cell_angle_beta   134.50700000
_cell_angle_gamma   90.00000000
_symmetry_Int_Tables_number   1
_chemical_formula_structural   BePO4
_chemical_formula_sum   'Be8 P8 O32'
_cell_volume   836.88120419
_cell_formula_units_Z   8
loop_
 _symmetry_equiv_pos_site_id
 _symmetry_equiv_pos_as_xyz
  1  'x, y, z'
loop_
 _atom_site_type_symbol
 _atom_site_label
 _atom_site_symmetry_multiplicity
 _atom_site_fract_x
 _atom_site_fract_y
 _atom_site_fract_z
 _atom_site_occupancy
 _atom_site_charge
  Be  Be1  1  0.369200  0.647800  0.957800  1.0  1.2216
  Be  Be2  1  0.869200  0.147800  0.957800  1.0  1.2216
  Be  Be3  1  0.630800  0.647800  0.542200  1.0  1.2202
  Be  Be4  1  0.130800  0.147800  0.542200  1.0  1.2202
  Be  Be5  1  0.630800  0.352200  0.042200  1.0  1.2206
  Be  Be6  1  0.130800  0.852200  0.042200  1.0  1.2206
  Be  Be7  1  0.369200  0.352200  0.457800  1.0  1.222
  Be  Be8  1  0.869200  0.852200  0.457800  1.0  1.222
  P  P9  1  0.333150  0.602840  0.220630  1.0  2.0079
  P  P10  1  0.833150  0.102840  0.220630  1.0  2.0079
  P  P11  1  0.666850  0.602840  0.279370  1.0  2.0088
  P  P12  1  0.166850  0.102840  0.279370  1.0  2.0088
  P  P13  1  0.666850  0.397160  0.779370  1.0  2.0088
  P  P14  1  0.166850  0.897160  0.779370  1.0  2.0088
  P  P15  1  0.333150  0.397160  0.720630  1.0  2.008
  P  P16  1  0.833150  0.897160  0.720630  1.0  2.008
  O  O17  1  0.325100  0.569500  0.057400  1.0  -0.8108
  O  O18  1  0.465600  0.686200  0.389600  1.0  -0.7614
  O  O19  1  0.207600  0.693400  0.144300  1.0  -0.8226
  O  O20  1  0.320400  0.453200  0.280600  1.0  -0.8343
  O  O21  1  0.825100  0.069500  0.057400  1.0  -0.8108
  O  O22  1  0.965600  0.186200  0.389600  1.0  -0.7614
  O  O23  1  0.707600  0.193400  0.144300  1.0  -0.8226
  O  O24  1  0.820400  0.953200  0.280600  1.0  -0.8343
  O  O25  1  0.674900  0.569500  0.442600  1.0  -0.8124
  O  O26  1  0.534400  0.686200  0.110400  1.0  -0.7605
  O  O27  1  0.792400  0.693400  0.355700  1.0  -0.8229
  O  O28  1  0.679600  0.453200  0.219400  1.0  -0.833
  O  O29  1  0.174900  0.069500  0.442600  1.0  -0.8124
  O  O30  1  0.034400  0.186200  0.110400  1.0  -0.7605
  O  O31  1  0.292400  0.193400  0.355700  1.0  -0.8229
  O  O32  1  0.179600  0.953200  0.219400  1.0  -0.833
  O  O33  1  0.674900  0.430500  0.942600  1.0  -0.8112
  O  O34  1  0.534400  0.313800  0.610400  1.0  -0.7596
  O  O35  1  0.792400  0.306600  0.855700  1.0  -0.8232
  O  O36  1  0.679600  0.546800  0.719400  1.0  -0.8363
  O  O37  1  0.174900  0.930500  0.942600  1.0  -0.8112
  O  O38  1  0.034400  0.813800  0.610400  1.0  -0.7596
  O  O39  1  0.292400  0.806600  0.855700  1.0  -0.8232
  O  O40  1  0.179600  0.046800  0.719400  1.0  -0.8363
  O  O41  1  0.325100  0.430500  0.557400  1.0  -0.8108
  O  O42  1  0.465600  0.313800  0.889600  1.0  -0.76
  O  O43  1  0.207600  0.306600  0.644300  1.0  -0.8246
  O  O44  1  0.320400  0.546800  0.780600  1.0  -0.8342
  O  O45  1  0.825100  0.930500  0.557400  1.0  -0.8108
  O  O46  1  0.965600  0.813800  0.889600  1.0  -0.76
  O  O47  1  0.707600  0.806600  0.644300  1.0  -0.8246
  O  O48  1  0.820400  0.046800  0.780600  1.0  -0.8342
