# generated using pymatgen
data_NaBe2P2H2O9
_symmetry_space_group_name_H-M   'P 1'
_cell_length_a   13.05600000
_cell_length_b   13.05600000
_cell_length_c   9.48500000
_cell_angle_alpha   90.00000000
_cell_angle_beta   90.00000000
_cell_angle_gamma   120.00000000
_symmetry_Int_Tables_number   1
_chemical_formula_structural   NaBe2P2H2O9
_chemical_formula_sum   'Na6 Be12 P12 H12 O54'
_cell_volume   1400.19412066
_cell_formula_units_Z   6
loop_
 _symmetry_equiv_pos_site_id
 _symmetry_equiv_pos_as_xyz
  1  'x, y, z'
loop_
 _atom_site_type_symbol
 _atom_site_label
 _atom_site_symmetry_multiplicity
 _atom_site_fract_x
 _atom_site_fract_y
 _atom_site_fract_z
 _atom_site_occupancy
 _atom_site_charge
  Na  Na1  1  0.333333  0.666667  0.250000  1.0  0.8559
  Na  Na2  1  0.666667  0.333333  0.750000  1.0  0.8559
  Na  Na3  1  0.666667  0.333333  0.081100  1.0  0.8362
  Na  Na4  1  0.666667  0.333333  0.418900  1.0  0.8362
  Na  Na5  1  0.333333  0.666667  0.918900  1.0  0.8362
  Na  Na6  1  0.333333  0.666667  0.581100  1.0  0.8362
  Be  Be7  1  0.663400  0.108300  0.900700  1.0  1.1697
  Be  Be8  1  0.891700  0.555100  0.900700  1.0  1.17
  Be  Be9  1  0.444900  0.336600  0.900700  1.0  1.168
  Be  Be10  1  0.891700  0.336600  0.599300  1.0  1.1701
  Be  Be11  1  0.444900  0.108300  0.599300  1.0  1.1688
  Be  Be12  1  0.663400  0.555100  0.599300  1.0  1.1682
  Be  Be13  1  0.336600  0.891700  0.099300  1.0  1.1688
  Be  Be14  1  0.108300  0.444900  0.099300  1.0  1.1682
  Be  Be15  1  0.555100  0.663400  0.099300  1.0  1.1707
  Be  Be16  1  0.108300  0.663400  0.400700  1.0  1.1682
  Be  Be17  1  0.555100  0.891700  0.400700  1.0  1.1692
  Be  Be18  1  0.336600  0.444900  0.400700  1.0  1.17
  P  P19  1  0.556550  0.887580  0.089910  1.0  1.8273
  P  P20  1  0.112420  0.668970  0.089910  1.0  1.8266
  P  P21  1  0.331030  0.443450  0.089910  1.0  1.8329
  P  P22  1  0.112420  0.443450  0.410090  1.0  1.8348
  P  P23  1  0.331030  0.887580  0.410090  1.0  1.8248
  P  P24  1  0.556550  0.668970  0.410090  1.0  1.831
  P  P25  1  0.443450  0.112420  0.910090  1.0  1.8243
  P  P26  1  0.887580  0.331030  0.910090  1.0  1.8304
  P  P27  1  0.668970  0.556550  0.910090  1.0  1.8337
  P  P28  1  0.887580  0.556550  0.589910  1.0  1.8323
  P  P29  1  0.668970  0.112420  0.589910  1.0  1.8272
  P  P30  1  0.443450  0.331030  0.589910  1.0  1.8261
  H  H31  1  0.873200  0.427400  0.176400  1.0  0.3988
  H  H32  1  0.572600  0.445800  0.176400  1.0  0.3989
  H  H33  1  0.554200  0.126800  0.176400  1.0  0.3988
  H  H34  1  0.572600  0.126800  0.323600  1.0  0.4011
  H  H35  1  0.554200  0.427400  0.323600  1.0  0.4006
  H  H36  1  0.873200  0.445800  0.323600  1.0  0.4017
  H  H37  1  0.126800  0.572600  0.823600  1.0  0.4006
  H  H38  1  0.427400  0.554200  0.823600  1.0  0.4013
  H  H39  1  0.445800  0.873200  0.823600  1.0  0.4007
  H  H40  1  0.427400  0.873200  0.676400  1.0  0.3985
  H  H41  1  0.445800  0.572600  0.676400  1.0  0.399
  H  H42  1  0.126800  0.554200  0.676400  1.0  0.3985
  O  O43  1  0.617700  0.992100  0.992200  1.0  -0.775
  O  O44  1  0.585300  0.793300  0.040300  1.0  -0.8855
  O  O45  1  0.420800  0.831200  0.083100  1.0  -0.8849
  O  O46  1  0.599100  0.926800  0.239200  1.0  -0.849
  O  O47  1  0.007900  0.625600  0.992200  1.0  -0.7767
  O  O48  1  0.206700  0.792000  0.040300  1.0  -0.8864
  O  O49  1  0.168800  0.589600  0.083100  1.0  -0.8839
  O  O50  1  0.073200  0.672300  0.239200  1.0  -0.8481
  O  O51  1  0.374400  0.382300  0.992200  1.0  -0.7799
  O  O52  1  0.208000  0.414700  0.040300  1.0  -0.8932
  O  O53  1  0.410400  0.579200  0.083100  1.0  -0.8844
  O  O54  1  0.327700  0.400900  0.239200  1.0  -0.8462
  O  O55  1  0.007900  0.382300  0.507800  1.0  -0.7817
  O  O56  1  0.206700  0.414700  0.459700  1.0  -0.8944
  O  O57  1  0.168800  0.579200  0.416900  1.0  -0.8839
  O  O58  1  0.073200  0.400900  0.260800  1.0  -0.8453
  O  O59  1  0.374400  0.992100  0.507800  1.0  -0.7763
  O  O60  1  0.208000  0.793300  0.459700  1.0  -0.8875
  O  O61  1  0.410400  0.831200  0.416900  1.0  -0.8842
  O  O62  1  0.327700  0.926800  0.260800  1.0  -0.8465
  O  O63  1  0.617700  0.625600  0.507800  1.0  -0.7784
  O  O64  1  0.585300  0.792000  0.459700  1.0  -0.888
  O  O65  1  0.420800  0.589600  0.416900  1.0  -0.8834
  O  O66  1  0.599100  0.672300  0.260800  1.0  -0.8502
  O  O67  1  0.382300  0.007900  0.007800  1.0  -0.7756
  O  O68  1  0.414700  0.206700  0.959700  1.0  -0.8884
  O  O69  1  0.579200  0.168800  0.916900  1.0  -0.8839
  O  O70  1  0.400900  0.073200  0.760800  1.0  -0.8462
  O  O71  1  0.992100  0.374400  0.007800  1.0  -0.7801
  O  O72  1  0.793300  0.208000  0.959700  1.0  -0.8892
  O  O73  1  0.831200  0.410400  0.916900  1.0  -0.8837
  O  O74  1  0.926800  0.327700  0.760800  1.0  -0.8502
  O  O75  1  0.625600  0.617700  0.007800  1.0  -0.7793
  O  O76  1  0.792000  0.585300  0.959700  1.0  -0.8929
  O  O77  1  0.589600  0.420800  0.916900  1.0  -0.8842
  O  O78  1  0.672300  0.599100  0.760800  1.0  -0.8492
  O  O79  1  0.992100  0.617700  0.492200  1.0  -0.7789
  O  O80  1  0.793300  0.585300  0.540300  1.0  -0.8907
  O  O81  1  0.831200  0.420800  0.583100  1.0  -0.8845
  O  O82  1  0.926800  0.599100  0.739200  1.0  -0.8495
  O  O83  1  0.625600  0.007900  0.492200  1.0  -0.7756
  O  O84  1  0.792000  0.206700  0.540300  1.0  -0.885
  O  O85  1  0.589600  0.168800  0.583100  1.0  -0.8844
  O  O86  1  0.672300  0.073200  0.739200  1.0  -0.8487
  O  O87  1  0.382300  0.374400  0.492200  1.0  -0.7799
  O  O88  1  0.414700  0.208000  0.540300  1.0  -0.8864
  O  O89  1  0.579200  0.410400  0.583100  1.0  -0.8841
  O  O90  1  0.400900  0.327700  0.739200  1.0  -0.8482
  O  O91  1  0.835000  0.417500  0.250000  1.0  -0.8428
  O  O92  1  0.582500  0.417500  0.250000  1.0  -0.8408
  O  O93  1  0.582500  0.165000  0.250000  1.0  -0.8363
  O  O94  1  0.165000  0.582500  0.750000  1.0  -0.8408
  O  O95  1  0.417500  0.582500  0.750000  1.0  -0.8419
  O  O96  1  0.417500  0.835000  0.750000  1.0  -0.842
