# generated using pymatgen
data_MnRe3C3S4N3
_symmetry_space_group_name_H-M   'P 1'
_cell_length_a   16.95400000
_cell_length_b   16.95400000
_cell_length_c   16.95400000
_cell_angle_alpha   90.00000000
_cell_angle_beta   90.00000000
_cell_angle_gamma   90.00000000
_symmetry_Int_Tables_number   1
_chemical_formula_structural   MnRe3C3S4N3
_chemical_formula_sum   'Mn8 Re24 C24 S32 N24'
_cell_volume   4873.22581866
_cell_formula_units_Z   8
loop_
 _symmetry_equiv_pos_site_id
 _symmetry_equiv_pos_as_xyz
  1  'x, y, z'
loop_
 _atom_site_type_symbol
 _atom_site_label
 _atom_site_symmetry_multiplicity
 _atom_site_fract_x
 _atom_site_fract_y
 _atom_site_fract_z
 _atom_site_occupancy
 _atom_site_charge
  Mn  Mn1  1  0.893000  0.107000  0.607000  1.0  1.1122
  Mn  Mn2  1  0.607000  0.893000  0.107000  1.0  1.1149
  Mn  Mn3  1  0.107000  0.607000  0.893000  1.0  1.113
  Mn  Mn4  1  0.393000  0.393000  0.393000  1.0  1.1095
  Mn  Mn5  1  0.107000  0.893000  0.393000  1.0  1.1127
  Mn  Mn6  1  0.393000  0.107000  0.893000  1.0  1.11
  Mn  Mn7  1  0.893000  0.393000  0.107000  1.0  1.1118
  Mn  Mn8  1  0.607000  0.607000  0.607000  1.0  1.1153
  Re  Re9  1  0.970260  0.404970  0.543340  1.0  -0.0123
  Re  Re10  1  0.529740  0.595030  0.043340  1.0  -0.012
  Re  Re11  1  0.029740  0.904970  0.956660  1.0  -0.0126
  Re  Re12  1  0.470260  0.095030  0.456660  1.0  -0.0118
  Re  Re13  1  0.543340  0.970260  0.404970  1.0  -0.0125
  Re  Re14  1  0.043340  0.529740  0.595030  1.0  -0.0126
  Re  Re15  1  0.956660  0.029740  0.904970  1.0  -0.0121
  Re  Re16  1  0.456660  0.470260  0.095030  1.0  -0.0121
  Re  Re17  1  0.404970  0.543340  0.970260  1.0  -0.0109
  Re  Re18  1  0.595030  0.043340  0.529740  1.0  -0.011
  Re  Re19  1  0.904970  0.956660  0.029740  1.0  -0.0104
  Re  Re20  1  0.095030  0.456660  0.470260  1.0  -0.0112
  Re  Re21  1  0.029740  0.595030  0.456660  1.0  -0.0121
  Re  Re22  1  0.470260  0.404970  0.956660  1.0  -0.0125
  Re  Re23  1  0.970260  0.095030  0.043340  1.0  -0.0117
  Re  Re24  1  0.529740  0.904970  0.543340  1.0  -0.0125
  Re  Re25  1  0.456660  0.029740  0.595030  1.0  -0.0124
  Re  Re26  1  0.956660  0.470260  0.404970  1.0  -0.0121
  Re  Re27  1  0.043340  0.970260  0.095030  1.0  -0.0124
  Re  Re28  1  0.543340  0.529740  0.904970  1.0  -0.0126
  Re  Re29  1  0.595030  0.456660  0.029740  1.0  -0.0109
  Re  Re30  1  0.404970  0.956660  0.470260  1.0  -0.0108
  Re  Re31  1  0.095030  0.043340  0.970260  1.0  -0.0115
  Re  Re32  1  0.904970  0.543340  0.529740  1.0  -0.0104
  C  C33  1  0.933000  0.292000  0.591000  1.0  0.2307
  C  C34  1  0.567000  0.708000  0.091000  1.0  0.2308
  C  C35  1  0.067000  0.792000  0.909000  1.0  0.2311
  C  C36  1  0.433000  0.208000  0.409000  1.0  0.2309
  C  C37  1  0.591000  0.933000  0.292000  1.0  0.2294
  C  C38  1  0.091000  0.567000  0.708000  1.0  0.2301
  C  C39  1  0.909000  0.067000  0.792000  1.0  0.2296
  C  C40  1  0.409000  0.433000  0.208000  1.0  0.2302
  C  C41  1  0.292000  0.591000  0.933000  1.0  0.2303
  C  C42  1  0.708000  0.091000  0.567000  1.0  0.2303
  C  C43  1  0.792000  0.909000  0.067000  1.0  0.23
  C  C44  1  0.208000  0.409000  0.433000  1.0  0.2302
  C  C45  1  0.067000  0.708000  0.409000  1.0  0.2307
  C  C46  1  0.433000  0.292000  0.909000  1.0  0.2309
  C  C47  1  0.933000  0.208000  0.091000  1.0  0.2306
  C  C48  1  0.567000  0.792000  0.591000  1.0  0.2308
  C  C49  1  0.409000  0.067000  0.708000  1.0  0.23
  C  C50  1  0.909000  0.433000  0.292000  1.0  0.2296
  C  C51  1  0.091000  0.933000  0.208000  1.0  0.2305
  C  C52  1  0.591000  0.567000  0.792000  1.0  0.2289
  C  C53  1  0.708000  0.409000  0.067000  1.0  0.2302
  C  C54  1  0.292000  0.909000  0.433000  1.0  0.2301
  C  C55  1  0.208000  0.091000  0.933000  1.0  0.2301
  C  C56  1  0.792000  0.591000  0.567000  1.0  0.23
  S  S57  1  0.924900  0.479300  0.655500  1.0  -0.0764
  S  S58  1  0.575100  0.520700  0.155500  1.0  -0.0751
  S  S59  1  0.075100  0.979300  0.844500  1.0  -0.0756
  S  S60  1  0.424900  0.020700  0.344500  1.0  -0.0756
  S  S61  1  0.655500  0.924900  0.479300  1.0  -0.0752
  S  S62  1  0.155500  0.575100  0.520700  1.0  -0.0747
  S  S63  1  0.844500  0.075100  0.979300  1.0  -0.0752
  S  S64  1  0.344500  0.424900  0.020700  1.0  -0.0755
  S  S65  1  0.479300  0.655500  0.924900  1.0  -0.0753
  S  S66  1  0.520700  0.155500  0.575100  1.0  -0.0755
  S  S67  1  0.979300  0.844500  0.075100  1.0  -0.0758
  S  S68  1  0.020700  0.344500  0.424900  1.0  -0.076
  S  S69  1  0.075100  0.520700  0.344500  1.0  -0.0754
  S  S70  1  0.424900  0.479300  0.844500  1.0  -0.0759
  S  S71  1  0.924900  0.020700  0.155500  1.0  -0.0761
  S  S72  1  0.575100  0.979300  0.655500  1.0  -0.0752
  S  S73  1  0.344500  0.075100  0.520700  1.0  -0.0752
  S  S74  1  0.844500  0.424900  0.479300  1.0  -0.0757
  S  S75  1  0.155500  0.924900  0.020700  1.0  -0.0752
  S  S76  1  0.655500  0.575100  0.979300  1.0  -0.0746
  S  S77  1  0.520700  0.344500  0.075100  1.0  -0.0758
  S  S78  1  0.479300  0.844500  0.424900  1.0  -0.076
  S  S79  1  0.020700  0.155500  0.924900  1.0  -0.0755
  S  S80  1  0.979300  0.655500  0.575100  1.0  -0.0753
  S  S81  1  0.100400  0.399600  0.600400  1.0  -0.0672
  S  S82  1  0.399600  0.600400  0.100400  1.0  -0.0675
  S  S83  1  0.899600  0.899600  0.899600  1.0  -0.0677
  S  S84  1  0.600400  0.100400  0.399600  1.0  -0.0672
  S  S85  1  0.899600  0.600400  0.399600  1.0  -0.0676
  S  S86  1  0.600400  0.399600  0.899600  1.0  -0.0673
  S  S87  1  0.100400  0.100400  0.100400  1.0  -0.0669
  S  S88  1  0.399600  0.899600  0.600400  1.0  -0.0677
  N  N89  1  0.915000  0.232000  0.614000  1.0  -0.4925
  N  N90  1  0.585000  0.768000  0.114000  1.0  -0.4927
  N  N91  1  0.085000  0.732000  0.886000  1.0  -0.492
  N  N92  1  0.415000  0.268000  0.386000  1.0  -0.4925
  N  N93  1  0.614000  0.915000  0.232000  1.0  -0.4919
  N  N94  1  0.114000  0.585000  0.768000  1.0  -0.4922
  N  N95  1  0.886000  0.085000  0.732000  1.0  -0.4926
  N  N96  1  0.386000  0.415000  0.268000  1.0  -0.4929
  N  N97  1  0.232000  0.614000  0.915000  1.0  -0.4919
  N  N98  1  0.768000  0.114000  0.585000  1.0  -0.4914
  N  N99  1  0.732000  0.886000  0.085000  1.0  -0.4922
  N  N100  1  0.268000  0.386000  0.415000  1.0  -0.4913
  N  N101  1  0.085000  0.768000  0.386000  1.0  -0.4895
  N  N102  1  0.415000  0.232000  0.886000  1.0  -0.4897
  N  N103  1  0.915000  0.268000  0.114000  1.0  -0.4904
  N  N104  1  0.585000  0.732000  0.614000  1.0  -0.4899
  N  N105  1  0.386000  0.085000  0.768000  1.0  -0.493
  N  N106  1  0.886000  0.415000  0.232000  1.0  -0.4923
  N  N107  1  0.114000  0.915000  0.268000  1.0  -0.4921
  N  N108  1  0.614000  0.585000  0.732000  1.0  -0.4917
  N  N109  1  0.768000  0.386000  0.085000  1.0  -0.4889
  N  N110  1  0.232000  0.886000  0.415000  1.0  -0.4893
  N  N111  1  0.268000  0.114000  0.915000  1.0  -0.4887
  N  N112  1  0.732000  0.614000  0.585000  1.0  -0.4896
