# generated using pymatgen
data_MnRe3Te4(CN)3
_symmetry_space_group_name_H-M   'P 1'
_cell_length_a   17.01300000
_cell_length_b   17.38200000
_cell_length_c   17.93500000
_cell_angle_alpha   90.00000000
_cell_angle_beta   90.00000000
_cell_angle_gamma   90.00000000
_symmetry_Int_Tables_number   1
_chemical_formula_structural   MnRe3Te4(CN)3
_chemical_formula_sum   'Mn8 Re24 Te32 C24 N24'
_cell_volume   5303.73759021
_cell_formula_units_Z   8
loop_
 _symmetry_equiv_pos_site_id
 _symmetry_equiv_pos_as_xyz
  1  'x, y, z'
loop_
 _atom_site_type_symbol
 _atom_site_label
 _atom_site_symmetry_multiplicity
 _atom_site_fract_x
 _atom_site_fract_y
 _atom_site_fract_z
 _atom_site_occupancy
 _atom_site_charge
  Mn  Mn1  1  0.614900  0.363400  0.866900  1.0  1.137
  Mn  Mn2  1  0.385100  0.136600  0.366900  1.0  1.1367
  Mn  Mn3  1  0.114900  0.636600  0.633100  1.0  1.1367
  Mn  Mn4  1  0.885100  0.863400  0.133100  1.0  1.1373
  Mn  Mn5  1  0.385100  0.636600  0.133100  1.0  1.1367
  Mn  Mn6  1  0.614900  0.863400  0.633100  1.0  1.1369
  Mn  Mn7  1  0.885100  0.363400  0.366900  1.0  1.1372
  Mn  Mn8  1  0.114900  0.136600  0.866900  1.0  1.137
  Re  Re9  1  0.900310  0.465250  0.965130  1.0  -0.2375
  Re  Re10  1  0.957960  0.599990  0.013250  1.0  -0.2427
  Re  Re11  1  0.028870  0.525250  0.900780  1.0  -0.2495
  Re  Re12  1  0.099690  0.034750  0.465130  1.0  -0.2382
  Re  Re13  1  0.042040  0.900010  0.513250  1.0  -0.2433
  Re  Re14  1  0.971130  0.974750  0.400780  1.0  -0.2496
  Re  Re15  1  0.400310  0.534750  0.534870  1.0  -0.2375
  Re  Re16  1  0.457960  0.400010  0.486750  1.0  -0.2427
  Re  Re17  1  0.528870  0.474750  0.599220  1.0  -0.2493
  Re  Re18  1  0.599690  0.965250  0.034870  1.0  -0.2382
  Re  Re19  1  0.542040  0.099990  0.986750  1.0  -0.2434
  Re  Re20  1  0.471130  0.025250  0.099220  1.0  -0.2488
  Re  Re21  1  0.099690  0.534750  0.034870  1.0  -0.2382
  Re  Re22  1  0.042040  0.400010  0.986750  1.0  -0.2433
  Re  Re23  1  0.971130  0.474750  0.099220  1.0  -0.2491
  Re  Re24  1  0.900310  0.965250  0.534870  1.0  -0.2375
  Re  Re25  1  0.957960  0.099990  0.486750  1.0  -0.2427
  Re  Re26  1  0.028870  0.025250  0.599220  1.0  -0.249
  Re  Re27  1  0.599690  0.465250  0.465130  1.0  -0.2382
  Re  Re28  1  0.542040  0.599990  0.513250  1.0  -0.2434
  Re  Re29  1  0.471130  0.525250  0.400780  1.0  -0.2494
  Re  Re30  1  0.400310  0.034750  0.965130  1.0  -0.2376
  Re  Re31  1  0.457960  0.900010  0.013250  1.0  -0.2427
  Re  Re32  1  0.528870  0.974750  0.900780  1.0  -0.2498
  Te  Te33  1  0.887720  0.591870  0.879240  1.0  0.1432
  Te  Te34  1  0.971950  0.390390  0.853180  1.0  0.1326
  Te  Te35  1  0.829650  0.538850  0.077750  1.0  0.1541
  Te  Te36  1  0.913770  0.340340  0.052130  1.0  0.1478
  Te  Te37  1  0.112280  0.908130  0.379240  1.0  0.1432
  Te  Te38  1  0.028050  0.109610  0.353180  1.0  0.1324
  Te  Te39  1  0.170350  0.961150  0.577750  1.0  0.1544
  Te  Te40  1  0.086230  0.159660  0.552130  1.0  0.1483
  Te  Te41  1  0.387720  0.408130  0.620760  1.0  0.1444
  Te  Te42  1  0.471950  0.609610  0.646820  1.0  0.1335
  Te  Te43  1  0.329650  0.461150  0.422250  1.0  0.1536
  Te  Te44  1  0.413770  0.659660  0.447870  1.0  0.1482
  Te  Te45  1  0.612280  0.091870  0.120760  1.0  0.1442
  Te  Te46  1  0.528050  0.890390  0.146820  1.0  0.1338
  Te  Te47  1  0.670350  0.038850  0.922250  1.0  0.1542
  Te  Te48  1  0.586230  0.840340  0.947870  1.0  0.1478
  Te  Te49  1  0.112280  0.408130  0.120760  1.0  0.1444
  Te  Te50  1  0.028050  0.609610  0.146820  1.0  0.1337
  Te  Te51  1  0.170350  0.461150  0.922250  1.0  0.154
  Te  Te52  1  0.086230  0.659660  0.947870  1.0  0.1485
  Te  Te53  1  0.887720  0.091870  0.620760  1.0  0.1442
  Te  Te54  1  0.971950  0.890390  0.646820  1.0  0.1339
  Te  Te55  1  0.829650  0.038850  0.422250  1.0  0.1539
  Te  Te56  1  0.913770  0.840340  0.447870  1.0  0.1479
  Te  Te57  1  0.612280  0.591870  0.379240  1.0  0.1433
  Te  Te58  1  0.528050  0.390390  0.353180  1.0  0.1322
  Te  Te59  1  0.670350  0.538850  0.577750  1.0  0.1547
  Te  Te60  1  0.586230  0.340340  0.552130  1.0  0.1476
  Te  Te61  1  0.387720  0.908130  0.879240  1.0  0.1433
  Te  Te62  1  0.471950  0.109610  0.853180  1.0  0.1325
  Te  Te63  1  0.329650  0.961150  0.077750  1.0  0.1541
  Te  Te64  1  0.413770  0.159660  0.052130  1.0  0.1481
  C  C65  1  0.790900  0.425900  0.925500  1.0  0.2146
  C  C66  1  0.064500  0.550900  0.790200  1.0  0.2262
  C  C67  1  0.912900  0.712400  0.032800  1.0  0.2019
  C  C68  1  0.209100  0.074100  0.425500  1.0  0.2142
  C  C69  1  0.935500  0.949100  0.290200  1.0  0.2269
  C  C70  1  0.087100  0.787600  0.532800  1.0  0.2026
  C  C71  1  0.290900  0.574100  0.574500  1.0  0.2144
  C  C72  1  0.564500  0.449100  0.709800  1.0  0.2267
  C  C73  1  0.412900  0.287600  0.467200  1.0  0.2012
  C  C74  1  0.709100  0.925900  0.074500  1.0  0.2153
  C  C75  1  0.435500  0.050900  0.209800  1.0  0.2266
  C  C76  1  0.587100  0.212400  0.967200  1.0  0.202
  C  C77  1  0.209100  0.574100  0.074500  1.0  0.2148
  C  C78  1  0.935500  0.449100  0.209800  1.0  0.2271
  C  C79  1  0.087100  0.287600  0.967200  1.0  0.202
  C  C80  1  0.790900  0.925900  0.574500  1.0  0.215
  C  C81  1  0.064500  0.050900  0.709800  1.0  0.227
  C  C82  1  0.912900  0.212400  0.467200  1.0  0.2014
  C  C83  1  0.709100  0.425900  0.425500  1.0  0.2147
  C  C84  1  0.435500  0.550900  0.290200  1.0  0.227
  C  C85  1  0.587100  0.712400  0.532800  1.0  0.2025
  C  C86  1  0.290900  0.074100  0.925500  1.0  0.2141
  C  C87  1  0.564500  0.949100  0.790200  1.0  0.2269
  C  C88  1  0.412900  0.787600  0.032800  1.0  0.2018
  N  N89  1  0.733700  0.403000  0.901900  1.0  -0.5286
  N  N90  1  0.085300  0.568600  0.734600  1.0  -0.5499
  N  N91  1  0.891400  0.774000  0.045700  1.0  -0.551
  N  N92  1  0.266300  0.097000  0.401900  1.0  -0.5284
  N  N93  1  0.914700  0.931400  0.234600  1.0  -0.5505
  N  N94  1  0.108600  0.726000  0.545700  1.0  -0.5499
  N  N95  1  0.233700  0.597000  0.598100  1.0  -0.5284
  N  N96  1  0.585300  0.431400  0.765400  1.0  -0.5498
  N  N97  1  0.391400  0.226000  0.454300  1.0  -0.5501
  N  N98  1  0.766300  0.903000  0.098100  1.0  -0.5287
  N  N99  1  0.414700  0.068600  0.265400  1.0  -0.5503
  N  N100  1  0.608600  0.274000  0.954300  1.0  -0.5509
  N  N101  1  0.266300  0.597000  0.098100  1.0  -0.5286
  N  N102  1  0.914700  0.431400  0.265400  1.0  -0.55
  N  N103  1  0.108600  0.226000  0.954300  1.0  -0.5499
  N  N104  1  0.733700  0.903000  0.598100  1.0  -0.5285
  N  N105  1  0.085300  0.068600  0.765400  1.0  -0.5499
  N  N106  1  0.891400  0.274000  0.454300  1.0  -0.5511
  N  N107  1  0.766300  0.403000  0.401900  1.0  -0.5287
  N  N108  1  0.414700  0.568600  0.234600  1.0  -0.5504
  N  N109  1  0.608600  0.774000  0.545700  1.0  -0.5507
  N  N110  1  0.233700  0.097000  0.901900  1.0  -0.5283
  N  N111  1  0.585300  0.931400  0.734600  1.0  -0.5501
  N  N112  1  0.391400  0.726000  0.045700  1.0  -0.5502
