# generated using pymatgen
data_MnRe3C3S4N3
_symmetry_space_group_name_H-M   'P 1'
_cell_length_a   16.57800000
_cell_length_b   16.68000000
_cell_length_c   18.00600000
_cell_angle_alpha   90.00000000
_cell_angle_beta   90.00000000
_cell_angle_gamma   90.00000000
_symmetry_Int_Tables_number   1
_chemical_formula_structural   MnRe3C3S4N3
_chemical_formula_sum   'Mn8 Re24 C24 S32 N24'
_cell_volume   4979.03784624
_cell_formula_units_Z   8
loop_
 _symmetry_equiv_pos_site_id
 _symmetry_equiv_pos_as_xyz
  1  'x, y, z'
loop_
 _atom_site_type_symbol
 _atom_site_label
 _atom_site_symmetry_multiplicity
 _atom_site_fract_x
 _atom_site_fract_y
 _atom_site_fract_z
 _atom_site_occupancy
 _atom_site_charge
  Mn  Mn1  1  0.605330  0.870070  0.868650  1.0  1.1655
  Mn  Mn2  1  0.394670  0.629930  0.368650  1.0  1.1663
  Mn  Mn3  1  0.105330  0.129930  0.631350  1.0  1.1653
  Mn  Mn4  1  0.894670  0.370070  0.131350  1.0  1.1662
  Mn  Mn5  1  0.394670  0.129930  0.131350  1.0  1.1661
  Mn  Mn6  1  0.605330  0.370070  0.631350  1.0  1.1654
  Mn  Mn7  1  0.894670  0.870070  0.368650  1.0  1.1668
  Mn  Mn8  1  0.105330  0.629930  0.868650  1.0  1.166
  Re  Re9  1  0.901020  0.964680  0.966690  1.0  -0.0053
  Re  Re10  1  0.040850  0.897870  0.990550  1.0  -0.0243
  Re  Re11  1  0.029680  0.022030  0.903790  1.0  -0.0301
  Re  Re12  1  0.098980  0.535320  0.466690  1.0  -0.0056
  Re  Re13  1  0.959150  0.602130  0.490550  1.0  -0.0236
  Re  Re14  1  0.970320  0.477970  0.403790  1.0  -0.0294
  Re  Re15  1  0.401020  0.035320  0.533310  1.0  -0.0048
  Re  Re16  1  0.540850  0.102130  0.509450  1.0  -0.024
  Re  Re17  1  0.529680  0.977970  0.596210  1.0  -0.0293
  Re  Re18  1  0.598980  0.464680  0.033310  1.0  -0.0053
  Re  Re19  1  0.459150  0.397870  0.009450  1.0  -0.0242
  Re  Re20  1  0.470320  0.522030  0.096210  1.0  -0.0289
  Re  Re21  1  0.098980  0.035320  0.033310  1.0  -0.0054
  Re  Re22  1  0.959150  0.102130  0.009450  1.0  -0.0237
  Re  Re23  1  0.970320  0.977970  0.096210  1.0  -0.0289
  Re  Re24  1  0.901020  0.464680  0.533310  1.0  -0.0048
  Re  Re25  1  0.040850  0.397870  0.509450  1.0  -0.0243
  Re  Re26  1  0.029680  0.522030  0.596210  1.0  -0.0293
  Re  Re27  1  0.598980  0.964680  0.466690  1.0  -0.0055
  Re  Re28  1  0.459150  0.897870  0.490550  1.0  -0.0241
  Re  Re29  1  0.470320  0.022030  0.403790  1.0  -0.0292
  Re  Re30  1  0.401020  0.535320  0.966690  1.0  -0.0052
  Re  Re31  1  0.540850  0.602130  0.990550  1.0  -0.024
  Re  Re32  1  0.529680  0.477970  0.903790  1.0  -0.0302
  C  C33  1  0.788300  0.924800  0.925000  1.0  0.239
  C  C34  1  0.084800  0.780400  0.977300  1.0  0.2304
  C  C35  1  0.066200  0.046200  0.791600  1.0  0.251
  C  C36  1  0.211700  0.575200  0.425000  1.0  0.239
  C  C37  1  0.915200  0.719600  0.477300  1.0  0.2299
  C  C38  1  0.933800  0.453800  0.291600  1.0  0.2514
  C  C39  1  0.288300  0.075200  0.575000  1.0  0.2393
  C  C40  1  0.584800  0.219600  0.522700  1.0  0.2311
  C  C41  1  0.566200  0.953800  0.708400  1.0  0.252
  C  C42  1  0.711700  0.424800  0.075000  1.0  0.2395
  C  C43  1  0.415200  0.280400  0.022700  1.0  0.2307
  C  C44  1  0.433800  0.546200  0.208400  1.0  0.2525
  C  C45  1  0.211700  0.075200  0.075000  1.0  0.2395
  C  C46  1  0.915200  0.219600  0.022700  1.0  0.2308
  C  C47  1  0.933800  0.953800  0.208400  1.0  0.252
  C  C48  1  0.788300  0.424800  0.575000  1.0  0.2393
  C  C49  1  0.084800  0.280400  0.522700  1.0  0.2311
  C  C50  1  0.066200  0.546200  0.708400  1.0  0.2525
  C  C51  1  0.711700  0.924800  0.425000  1.0  0.2391
  C  C52  1  0.415200  0.780400  0.477300  1.0  0.2298
  C  C53  1  0.433800  0.046200  0.291600  1.0  0.2519
  C  C54  1  0.288300  0.575200  0.925000  1.0  0.239
  C  C55  1  0.584800  0.719600  0.977300  1.0  0.2301
  C  C56  1  0.566200  0.453800  0.791600  1.0  0.2506
  S  S57  1  0.974700  0.892900  0.872000  1.0  -0.0799
  S  S58  1  0.898400  0.082800  0.889100  1.0  -0.0646
  S  S59  1  0.918800  0.852600  0.050100  1.0  -0.0628
  S  S60  1  0.843500  0.040700  0.067300  1.0  -0.0572
  S  S61  1  0.025300  0.607100  0.372000  1.0  -0.0805
  S  S62  1  0.101600  0.417200  0.389100  1.0  -0.0647
  S  S63  1  0.081200  0.647400  0.550100  1.0  -0.0625
  S  S64  1  0.156500  0.459300  0.567300  1.0  -0.0568
  S  S65  1  0.474700  0.107100  0.628000  1.0  -0.08
  S  S66  1  0.398400  0.917200  0.610900  1.0  -0.0651
  S  S67  1  0.418800  0.147400  0.449900  1.0  -0.0627
  S  S68  1  0.343500  0.959300  0.432700  1.0  -0.0576
  S  S69  1  0.525300  0.392900  0.128000  1.0  -0.0794
  S  S70  1  0.601600  0.582800  0.110900  1.0  -0.0648
  S  S71  1  0.581200  0.352600  0.949900  1.0  -0.0629
  S  S72  1  0.656500  0.540700  0.932700  1.0  -0.0568
  S  S73  1  0.025300  0.107100  0.128000  1.0  -0.079
  S  S74  1  0.101600  0.917200  0.110900  1.0  -0.0653
  S  S75  1  0.081200  0.147400  0.949900  1.0  -0.0621
  S  S76  1  0.156500  0.959300  0.932700  1.0  -0.057
  S  S77  1  0.974700  0.392900  0.628000  1.0  -0.0799
  S  S78  1  0.898400  0.582800  0.610900  1.0  -0.0652
  S  S79  1  0.918800  0.352600  0.449900  1.0  -0.0633
  S  S80  1  0.843500  0.540700  0.432700  1.0  -0.0574
  S  S81  1  0.525300  0.892900  0.372000  1.0  -0.08
  S  S82  1  0.601600  0.082800  0.389100  1.0  -0.0643
  S  S83  1  0.581200  0.852600  0.550100  1.0  -0.0627
  S  S84  1  0.656500  0.040700  0.567300  1.0  -0.057
  S  S85  1  0.474700  0.607100  0.872000  1.0  -0.0808
  S  S86  1  0.398400  0.417200  0.889100  1.0  -0.0649
  S  S87  1  0.418800  0.647400  0.050100  1.0  -0.063
  S  S88  1  0.343500  0.459300  0.067300  1.0  -0.0572
  N  N89  1  0.729200  0.906800  0.898700  1.0  -0.4971
  N  N90  1  0.105900  0.714800  0.965100  1.0  -0.5282
  N  N91  1  0.086400  0.060800  0.734100  1.0  -0.5392
  N  N92  1  0.270800  0.593200  0.398700  1.0  -0.4972
  N  N93  1  0.894100  0.785200  0.465100  1.0  -0.5281
  N  N94  1  0.913600  0.439200  0.234100  1.0  -0.5393
  N  N95  1  0.229200  0.093200  0.601300  1.0  -0.4969
  N  N96  1  0.605900  0.285200  0.534900  1.0  -0.528
  N  N97  1  0.586400  0.939200  0.765900  1.0  -0.538
  N  N98  1  0.770800  0.406800  0.101300  1.0  -0.4974
  N  N99  1  0.394100  0.214800  0.034900  1.0  -0.5281
  N  N100  1  0.413600  0.560800  0.265900  1.0  -0.5386
  N  N101  1  0.270800  0.093200  0.101300  1.0  -0.4973
  N  N102  1  0.894100  0.285200  0.034900  1.0  -0.5278
  N  N103  1  0.913600  0.939200  0.265900  1.0  -0.5382
  N  N104  1  0.729200  0.406800  0.601300  1.0  -0.4968
  N  N105  1  0.105900  0.214800  0.534900  1.0  -0.5281
  N  N106  1  0.086400  0.560800  0.765900  1.0  -0.5385
  N  N107  1  0.770800  0.906800  0.398700  1.0  -0.4974
  N  N108  1  0.394100  0.714800  0.465100  1.0  -0.5278
  N  N109  1  0.413600  0.060800  0.234100  1.0  -0.5397
  N  N110  1  0.229200  0.593200  0.898700  1.0  -0.497
  N  N111  1  0.605900  0.785200  0.965100  1.0  -0.5286
  N  N112  1  0.586400  0.439200  0.734100  1.0  -0.5392
