# generated using pymatgen
data_MnRe3C3Se4N3
_symmetry_space_group_name_H-M   'P 1'
_cell_length_a   16.59600000
_cell_length_b   16.79300000
_cell_length_c   17.94000000
_cell_angle_alpha   90.00000000
_cell_angle_beta   90.00000000
_cell_angle_gamma   90.00000000
_symmetry_Int_Tables_number   1
_chemical_formula_structural   MnRe3C3Se4N3
_chemical_formula_sum   'Mn8 Re24 C24 Se32 N24'
_cell_volume   4999.81750632
_cell_formula_units_Z   8
loop_
 _symmetry_equiv_pos_site_id
 _symmetry_equiv_pos_as_xyz
  1  'x, y, z'
loop_
 _atom_site_type_symbol
 _atom_site_label
 _atom_site_symmetry_multiplicity
 _atom_site_fract_x
 _atom_site_fract_y
 _atom_site_fract_z
 _atom_site_occupancy
 _atom_site_charge
  Mn  Mn1  1  0.105330  0.630120  0.868920  1.0  1.1346
  Mn  Mn2  1  0.894670  0.869880  0.368920  1.0  1.1355
  Mn  Mn3  1  0.605330  0.369880  0.631080  1.0  1.1346
  Mn  Mn4  1  0.394670  0.130120  0.131080  1.0  1.1354
  Mn  Mn5  1  0.894670  0.369880  0.131080  1.0  1.1355
  Mn  Mn6  1  0.105330  0.130120  0.631080  1.0  1.1346
  Mn  Mn7  1  0.394670  0.630120  0.368920  1.0  1.1354
  Mn  Mn8  1  0.605330  0.869880  0.868920  1.0  1.1346
  Re  Re9  1  0.399370  0.535080  0.967450  1.0  -0.1325
  Re  Re10  1  0.540880  0.602460  0.989420  1.0  -0.1402
  Re  Re11  1  0.471630  0.522690  0.097770  1.0  -0.1538
  Re  Re12  1  0.600630  0.964920  0.467450  1.0  -0.1327
  Re  Re13  1  0.459120  0.897540  0.489420  1.0  -0.1392
  Re  Re14  1  0.528370  0.977310  0.597770  1.0  -0.1545
  Re  Re15  1  0.899370  0.464920  0.532550  1.0  -0.132
  Re  Re16  1  0.040880  0.397540  0.510580  1.0  -0.14
  Re  Re17  1  0.971630  0.477310  0.402230  1.0  -0.154
  Re  Re18  1  0.100630  0.035080  0.032550  1.0  -0.1326
  Re  Re19  1  0.959120  0.102460  0.010580  1.0  -0.1397
  Re  Re20  1  0.028370  0.022690  0.902230  1.0  -0.1548
  Re  Re21  1  0.600630  0.464920  0.032550  1.0  -0.1325
  Re  Re22  1  0.459120  0.397540  0.010580  1.0  -0.1393
  Re  Re23  1  0.528370  0.477310  0.902230  1.0  -0.1549
  Re  Re24  1  0.399370  0.035080  0.532550  1.0  -0.1322
  Re  Re25  1  0.540880  0.102460  0.510580  1.0  -0.1402
  Re  Re26  1  0.471630  0.022690  0.402230  1.0  -0.154
  Re  Re27  1  0.100630  0.535080  0.467450  1.0  -0.1328
  Re  Re28  1  0.959120  0.602460  0.489420  1.0  -0.1396
  Re  Re29  1  0.028370  0.522690  0.597770  1.0  -0.1545
  Re  Re30  1  0.899370  0.964920  0.967450  1.0  -0.1324
  Re  Re31  1  0.040880  0.897540  0.989420  1.0  -0.1399
  Re  Re32  1  0.971630  0.977310  0.097770  1.0  -0.1538
  C  C33  1  0.284800  0.572800  0.925700  1.0  0.2275
  C  C34  1  0.085600  0.778600  0.975300  1.0  0.2201
  C  C35  1  0.062900  0.547700  0.709000  1.0  0.2536
  C  C36  1  0.715200  0.927200  0.425700  1.0  0.2273
  C  C37  1  0.914400  0.721400  0.475300  1.0  0.2197
  C  C38  1  0.937100  0.952300  0.209000  1.0  0.2532
  C  C39  1  0.784800  0.427200  0.574300  1.0  0.2284
  C  C40  1  0.585600  0.221400  0.524700  1.0  0.2201
  C  C41  1  0.562900  0.452300  0.791000  1.0  0.2526
  C  C42  1  0.215200  0.072800  0.074300  1.0  0.2271
  C  C43  1  0.414400  0.278600  0.024700  1.0  0.2207
  C  C44  1  0.437100  0.047700  0.291000  1.0  0.2527
  C  C45  1  0.715200  0.427200  0.074300  1.0  0.2277
  C  C46  1  0.914400  0.221400  0.024700  1.0  0.2202
  C  C47  1  0.937100  0.452300  0.291000  1.0  0.2528
  C  C48  1  0.284800  0.072800  0.574300  1.0  0.228
  C  C49  1  0.085600  0.278600  0.524700  1.0  0.2206
  C  C50  1  0.062900  0.047700  0.791000  1.0  0.2525
  C  C51  1  0.215200  0.572800  0.425700  1.0  0.2267
  C  C52  1  0.414400  0.778600  0.475300  1.0  0.2203
  C  C53  1  0.437100  0.547700  0.209000  1.0  0.2533
  C  C54  1  0.784800  0.927200  0.925700  1.0  0.2279
  C  C55  1  0.585600  0.721400  0.975300  1.0  0.2194
  C  C56  1  0.562900  0.952300  0.709000  1.0  0.2536
  Se  Se57  1  0.415760  0.653270  0.053110  1.0  0.0331
  Se  Se58  1  0.337720  0.458280  0.073550  1.0  0.0382
  Se  Se59  1  0.392000  0.412940  0.885620  1.0  0.039
  Se  Se60  1  0.470550  0.610510  0.865600  1.0  0.0246
  Se  Se61  1  0.584240  0.846730  0.553110  1.0  0.0329
  Se  Se62  1  0.662280  0.041720  0.573550  1.0  0.0379
  Se  Se63  1  0.608000  0.087060  0.385620  1.0  0.0389
  Se  Se64  1  0.529450  0.889490  0.365600  1.0  0.0258
  Se  Se65  1  0.915760  0.346730  0.446890  1.0  0.0331
  Se  Se66  1  0.837720  0.541720  0.426450  1.0  0.0378
  Se  Se67  1  0.892000  0.587060  0.614380  1.0  0.0389
  Se  Se68  1  0.970550  0.389490  0.634400  1.0  0.0288
  Se  Se69  1  0.084240  0.153270  0.946890  1.0  0.033
  Se  Se70  1  0.162280  0.958280  0.926450  1.0  0.0378
  Se  Se71  1  0.108000  0.912940  0.114380  1.0  0.0382
  Se  Se72  1  0.029450  0.110510  0.134400  1.0  0.029
  Se  Se73  1  0.584240  0.346730  0.946890  1.0  0.0328
  Se  Se74  1  0.662280  0.541720  0.926450  1.0  0.0381
  Se  Se75  1  0.608000  0.587060  0.114380  1.0  0.0389
  Se  Se76  1  0.529450  0.389490  0.134400  1.0  0.0291
  Se  Se77  1  0.415760  0.153270  0.446890  1.0  0.0331
  Se  Se78  1  0.337720  0.958280  0.426450  1.0  0.0377
  Se  Se79  1  0.392000  0.912940  0.614380  1.0  0.0383
  Se  Se80  1  0.470550  0.110510  0.634400  1.0  0.0282
  Se  Se81  1  0.084240  0.653270  0.553110  1.0  0.0329
  Se  Se82  1  0.162280  0.458280  0.573550  1.0  0.038
  Se  Se83  1  0.108000  0.412940  0.385620  1.0  0.0392
  Se  Se84  1  0.029450  0.610510  0.365600  1.0  0.0248
  Se  Se85  1  0.915760  0.846730  0.053110  1.0  0.0332
  Se  Se86  1  0.837720  0.041720  0.073550  1.0  0.0381
  Se  Se87  1  0.892000  0.087060  0.885620  1.0  0.0387
  Se  Se88  1  0.970550  0.889490  0.865600  1.0  0.0261
  N  N89  1  0.228000  0.593300  0.901100  1.0  -0.5106
  N  N90  1  0.104900  0.717400  0.963800  1.0  -0.513
  N  N91  1  0.081900  0.561400  0.766500  1.0  -0.5213
  N  N92  1  0.772000  0.906700  0.401100  1.0  -0.5111
  N  N93  1  0.895100  0.782600  0.463800  1.0  -0.5126
  N  N94  1  0.918100  0.938600  0.266500  1.0  -0.5213
  N  N95  1  0.728000  0.406700  0.598900  1.0  -0.5107
  N  N96  1  0.604900  0.282600  0.536200  1.0  -0.5129
  N  N97  1  0.581900  0.438600  0.733500  1.0  -0.523
  N  N98  1  0.272000  0.093300  0.098900  1.0  -0.5114
  N  N99  1  0.395100  0.217400  0.036200  1.0  -0.5132
  N  N100  1  0.418100  0.061400  0.233500  1.0  -0.523
  N  N101  1  0.772000  0.406700  0.098900  1.0  -0.5113
  N  N102  1  0.895100  0.282600  0.036200  1.0  -0.5127
  N  N103  1  0.918100  0.438600  0.233500  1.0  -0.5231
  N  N104  1  0.228000  0.093300  0.598900  1.0  -0.5108
  N  N105  1  0.104900  0.217400  0.536200  1.0  -0.5134
  N  N106  1  0.081900  0.061400  0.733500  1.0  -0.5229
  N  N107  1  0.272000  0.593300  0.401100  1.0  -0.511
  N  N108  1  0.395100  0.717400  0.463800  1.0  -0.5127
  N  N109  1  0.418100  0.561400  0.266500  1.0  -0.5216
  N  N110  1  0.728000  0.906700  0.901100  1.0  -0.5108
  N  N111  1  0.604900  0.782600  0.963800  1.0  -0.513
  N  N112  1  0.581900  0.938600  0.766500  1.0  -0.5211
