# generated using pymatgen
data_LaH12C9(SO2)3
_symmetry_space_group_name_H-M   'P 1'
_cell_length_a   9.12580000
_cell_length_b   11.13800000
_cell_length_c   11.32620000
_cell_angle_alpha   77.31700000
_cell_angle_beta   68.68100000
_cell_angle_gamma   79.25000000
_symmetry_Int_Tables_number   1
_chemical_formula_structural   LaH12C9(SO2)3
_chemical_formula_sum   'La2 H24 C18 S6 O12'
_cell_volume   1039.04880662
_cell_formula_units_Z   2
loop_
 _symmetry_equiv_pos_site_id
 _symmetry_equiv_pos_as_xyz
  1  'x, y, z'
loop_
 _atom_site_type_symbol
 _atom_site_label
 _atom_site_symmetry_multiplicity
 _atom_site_fract_x
 _atom_site_fract_y
 _atom_site_fract_z
 _atom_site_occupancy
 _atom_site_charge
  La  La1  1  0.234630  0.519220  0.518400  1.0  2.1332
  La  La2  1  0.765370  0.480780  0.481600  1.0  2.1325
  H  H3  1  0.375900  0.081100  0.565100  1.0  0.1436
  H  H4  1  0.366100  0.940300  0.573100  1.0  0.1441
  H  H5  1  0.288500  0.533400  0.162700  1.0  0.1304
  H  H6  1  0.238200  0.675500  0.162800  1.0  0.1605
  H  H7  1  0.418900  0.407000  0.019800  1.0  0.1561
  H  H8  1  0.445200  0.442700  0.872600  1.0  0.1517
  H  H9  1  0.144600  0.413800  0.062800  1.0  0.1475
  H  H10  1  0.172000  0.452000  0.915100  1.0  0.1464
  H  H11  1  0.408400  0.159600  0.766900  1.0  0.18
  H  H12  1  0.284600  0.277500  0.790000  1.0  0.1618
  H  H13  1  0.530000  0.185700  0.278300  1.0  0.1471
  H  H14  1  0.391100  0.220900  0.223000  1.0  0.1575
  H  H15  1  0.624100  0.918900  0.434900  1.0  0.1433
  H  H16  1  0.633900  0.059700  0.426900  1.0  0.1453
  H  H17  1  0.711500  0.466600  0.837300  1.0  0.1296
  H  H18  1  0.761800  0.324500  0.837200  1.0  0.1606
  H  H19  1  0.581100  0.593000  0.980200  1.0  0.1569
  H  H20  1  0.554800  0.557300  0.127400  1.0  0.1516
  H  H21  1  0.855400  0.586200  0.937200  1.0  0.1469
  H  H22  1  0.828000  0.548000  0.084900  1.0  0.1466
  H  H23  1  0.591600  0.840400  0.233100  1.0  0.1789
  H  H24  1  0.715400  0.722500  0.210000  1.0  0.1601
  H  H25  1  0.470000  0.814300  0.721700  1.0  0.149
  H  H26  1  0.608900  0.779100  0.777000  1.0  0.1574
  C  C27  1  0.413500  0.012600  0.517400  1.0  -0.3212
  C  C28  1  0.206000  0.600300  0.154600  1.0  -0.2933
  C  C29  1  0.381100  0.397900  0.952900  1.0  -0.3406
  C  C30  1  0.210500  0.457700  0.982800  1.0  -0.3244
  C  C31  1  0.392000  0.243100  0.785200  1.0  -0.3937
  C  C32  1  0.415600  0.196200  0.302000  1.0  -0.37
  C  C33  1  0.056000  0.573300  0.265400  1.0  0.7572
  C  C34  1  0.350400  0.302100  0.378500  1.0  0.7639
  C  C35  1  0.506000  0.320000  0.675400  1.0  0.7491
  C  C36  1  0.586500  0.987400  0.482600  1.0  -0.3205
  C  C37  1  0.794000  0.399700  0.845400  1.0  -0.2965
  C  C38  1  0.618900  0.602100  0.047100  1.0  -0.3406
  C  C39  1  0.789500  0.542300  0.017200  1.0  -0.3243
  C  C40  1  0.608000  0.756900  0.214800  1.0  -0.3929
  C  C41  1  0.584400  0.803800  0.698000  1.0  -0.3699
  C  C42  1  0.944000  0.426700  0.734600  1.0  0.7568
  C  C43  1  0.649600  0.697900  0.621500  1.0  0.7622
  C  C44  1  0.494000  0.680000  0.324600  1.0  0.7497
  S  S45  1  0.196400  0.619000  0.996090  1.0  0.0004
  S  S46  1  0.411810  0.235350  0.939750  1.0  0.0145
  S  S47  1  0.348380  0.050740  0.376360  1.0  0.0304
  S  S48  1  0.803600  0.381000  0.003910  1.0  0.0006
  S  S49  1  0.588190  0.764650  0.060250  1.0  0.0144
  S  S50  1  0.651620  0.949260  0.623640  1.0  0.0267
  O  O51  1  0.067500  0.546700  0.376400  1.0  -0.8107
  O  O52  1  0.416900  0.400300  0.331700  1.0  -0.6509
  O  O53  1  0.927700  0.575600  0.249800  1.0  -0.647
  O  O54  1  0.236700  0.292700  0.482300  1.0  -0.6677
  O  O55  1  0.648100  0.308300  0.665800  1.0  -0.6464
  O  O56  1  0.453400  0.395200  0.595100  1.0  -0.8031
  O  O57  1  0.932500  0.453300  0.623600  1.0  -0.8144
  O  O58  1  0.583100  0.599700  0.668300  1.0  -0.6506
  O  O59  1  0.072300  0.424400  0.750200  1.0  -0.6471
  O  O60  1  0.763300  0.707300  0.517700  1.0  -0.6696
  O  O61  1  0.351900  0.691700  0.334200  1.0  -0.6467
  O  O62  1  0.546600  0.604800  0.404900  1.0  -0.802
