# generated using pymatgen
data_NdH12C9(SO2)3
_symmetry_space_group_name_H-M   'P 1'
_cell_length_a   9.14000000
_cell_length_b   11.15380000
_cell_length_c   11.27160000
_cell_angle_alpha   77.26100000
_cell_angle_beta   68.45300000
_cell_angle_gamma   78.84300000
_symmetry_Int_Tables_number   1
_chemical_formula_structural   NdH12C9(SO2)3
_chemical_formula_sum   'Nd2 H24 C18 S6 O12'
_cell_volume   1034.43241759
_cell_formula_units_Z   2
loop_
 _symmetry_equiv_pos_site_id
 _symmetry_equiv_pos_as_xyz
  1  'x, y, z'
loop_
 _atom_site_type_symbol
 _atom_site_label
 _atom_site_symmetry_multiplicity
 _atom_site_fract_x
 _atom_site_fract_y
 _atom_site_fract_z
 _atom_site_occupancy
 _atom_site_charge
  Nd  Nd1  1  0.730630  0.017910  0.019350  1.0  2.2373
  Nd  Nd2  1  0.269370  0.982090  0.980650  1.0  2.2363
  H  H3  1  0.790200  0.035000  0.660400  1.0  0.1233
  H  H4  1  0.737100  0.176700  0.661500  1.0  0.1549
  H  H5  1  0.646100  0.914800  0.562200  1.0  0.1453
  H  H6  1  0.672900  0.953000  0.413800  1.0  0.1374
  H  H7  1  0.920800  0.908000  0.517500  1.0  0.151
  H  H8  1  0.946300  0.943300  0.369700  1.0  0.1491
  H  H9  1  0.916000  0.658700  0.264100  1.0  0.1739
  H  H10  1  0.785100  0.772500  0.290700  1.0  0.1545
  H  H11  1  0.875500  0.581800  0.066400  1.0  0.1452
  H  H12  1  0.864600  0.441700  0.073400  1.0  0.147
  H  H13  1  0.030800  0.688000  0.780700  1.0  0.1416
  H  H14  1  0.894500  0.724600  0.722400  1.0  0.1486
  H  H15  1  0.209800  0.965000  0.339600  1.0  0.123
  H  H16  1  0.262900  0.823300  0.338500  1.0  0.1546
  H  H17  1  0.353900  0.085200  0.437800  1.0  0.1449
  H  H18  1  0.327100  0.047000  0.586200  1.0  0.1371
  H  H19  1  0.079200  0.092000  0.482500  1.0  0.1514
  H  H20  1  0.053700  0.056700  0.630300  1.0  0.1487
  H  H21  1  0.084000  0.341300  0.735900  1.0  0.1725
  H  H22  1  0.214900  0.227500  0.709300  1.0  0.1543
  H  H23  1  0.124500  0.418200  0.933600  1.0  0.1448
  H  H24  1  0.135400  0.558300  0.926600  1.0  0.1472
  H  H25  1  0.969200  0.312000  0.219300  1.0  0.1427
  H  H26  1  0.105500  0.275400  0.277600  1.0  0.149
  C  C27  1  0.557500  0.072900  0.766500  1.0  0.7644
  C  C28  1  0.706200  0.101200  0.653400  1.0  -0.2995
  C  C29  1  0.711400  0.958800  0.481600  1.0  -0.3346
  C  C30  1  0.882800  0.898500  0.450600  1.0  -0.3619
  C  C31  1  0.894400  0.742200  0.283400  1.0  -0.4069
  C  C32  1  0.000900  0.823000  0.171800  1.0  0.7468
  C  C33  1  0.912700  0.513600  0.017900  1.0  -0.318
  C  C34  1  0.916600  0.699200  0.802800  1.0  -0.3652
  C  C35  1  0.848800  0.805400  0.880500  1.0  0.7328
  C  C36  1  0.442500  0.927100  0.233500  1.0  0.7637
  C  C37  1  0.293800  0.898800  0.346600  1.0  -0.3029
  C  C38  1  0.288600  0.041200  0.518400  1.0  -0.3348
  C  C39  1  0.117200  0.101500  0.549400  1.0  -0.3615
  C  C40  1  0.105600  0.257800  0.716600  1.0  -0.4072
  C  C41  1  0.999100  0.177000  0.828200  1.0  0.7472
  C  C42  1  0.087300  0.486400  0.982100  1.0  -0.3197
  C  C43  1  0.083400  0.300800  0.197200  1.0  -0.3645
  C  C44  1  0.151200  0.194600  0.119500  1.0  0.7315
  S  S45  1  0.694990  0.119810  0.495230  1.0  -0.0027
  S  S46  1  0.916450  0.736100  0.437420  1.0  0.008
  S  S47  1  0.848600  0.553920  0.875400  1.0  0.0212
  S  S48  1  0.305010  0.880190  0.504770  1.0  -0.0018
  S  S49  1  0.083550  0.263900  0.562580  1.0  0.0067
  S  S50  1  0.151400  0.446080  0.124600  1.0  0.019
  O  O51  1  0.428700  0.072000  0.752800  1.0  -0.6627
  O  O52  1  0.570300  0.046400  0.878100  1.0  -0.8249
  O  O53  1  0.941600  0.896000  0.094000  1.0  -0.7647
  O  O54  1  0.144300  0.817000  0.157800  1.0  -0.6294
  O  O55  1  0.914900  0.903600  0.834500  1.0  -0.6473
  O  O56  1  0.733500  0.795800  0.984500  1.0  -0.6548
  O  O57  1  0.571300  0.928000  0.247200  1.0  -0.663
  O  O58  1  0.429700  0.953600  0.121900  1.0  -0.8295
  O  O59  1  0.058400  0.104000  0.906000  1.0  -0.7657
  O  O60  1  0.855700  0.183000  0.842200  1.0  -0.6305
  O  O61  1  0.085100  0.096400  0.165500  1.0  -0.6469
  O  O62  1  0.266500  0.204200  0.015500  1.0  -0.6562
