# generated using pymatgen
data_GdH12C9(SO2)3
_symmetry_space_group_name_H-M   'P 1'
_cell_length_a   9.17420000
_cell_length_b   11.11530000
_cell_length_c   11.17140000
_cell_angle_alpha   77.00900000
_cell_angle_beta   68.08200000
_cell_angle_gamma   78.22200000
_symmetry_Int_Tables_number   1
_chemical_formula_structural   GdH12C9(SO2)3
_chemical_formula_sum   'Gd2 H24 C18 S6 O12'
_cell_volume   1020.65506844
_cell_formula_units_Z   2
loop_
 _symmetry_equiv_pos_site_id
 _symmetry_equiv_pos_as_xyz
  1  'x, y, z'
loop_
 _atom_site_type_symbol
 _atom_site_label
 _atom_site_symmetry_multiplicity
 _atom_site_fract_x
 _atom_site_fract_y
 _atom_site_fract_z
 _atom_site_occupancy
 _atom_site_charge
  Gd  Gd1  1  0.725400  0.515980  0.020280  1.0  2.1792
  Gd  Gd2  1  0.274600  0.484020  0.979720  1.0  2.177
  H  H3  1  0.214600  0.730700  0.707600  1.0  0.1548
  H  H4  1  0.077500  0.841200  0.739500  1.0  0.167
  H  H5  1  0.052700  0.554300  0.635600  1.0  0.1369
  H  H6  1  0.076700  0.588700  0.486500  1.0  0.1381
  H  H7  1  0.325100  0.547700  0.588600  1.0  0.143
  H  H8  1  0.350600  0.586000  0.438700  1.0  0.1378
  H  H9  1  0.265400  0.320700  0.339300  1.0  0.146
  H  H10  1  0.206800  0.462600  0.341800  1.0  0.1214
  H  H11  1  0.877300  0.084700  0.066100  1.0  0.1375
  H  H12  1  0.863400  0.944300  0.075800  1.0  0.1754
  H  H13  1  0.029300  0.189600  0.781200  1.0  0.1378
  H  H14  1  0.894000  0.227200  0.721600  1.0  0.1444
  H  H15  1  0.785400  0.269300  0.292400  1.0  0.1556
  H  H16  1  0.922500  0.158800  0.260500  1.0  0.169
  H  H17  1  0.947300  0.445700  0.364400  1.0  0.1379
  H  H18  1  0.923300  0.411300  0.513500  1.0  0.1386
  H  H19  1  0.674900  0.452300  0.411400  1.0  0.1424
  H  H20  1  0.649400  0.414000  0.561300  1.0  0.1377
  H  H21  1  0.734600  0.679300  0.660700  1.0  0.1453
  H  H22  1  0.793200  0.537400  0.658200  1.0  0.1224
  H  H23  1  0.122700  0.915300  0.933900  1.0  0.1375
  H  H24  1  0.136600  0.055700  0.924200  1.0  0.1752
  H  H25  1  0.970700  0.810400  0.218800  1.0  0.1398
  H  H26  1  0.106000  0.772800  0.278400  1.0  0.1448
  C  C27  1  0.006000  0.672800  0.833300  1.0  0.7535
  C  C28  1  0.103500  0.757500  0.718800  1.0  -0.3801
  C  C29  1  0.114400  0.599500  0.553200  1.0  -0.3528
  C  C30  1  0.286700  0.541300  0.520600  1.0  -0.3369
  C  C31  1  0.293200  0.397400  0.347400  1.0  -0.3041
  C  C32  1  0.438900  0.428300  0.232700  1.0  0.773
  C  C33  1  0.912800  0.015300  0.018200  1.0  -0.3161
  C  C34  1  0.915100  0.201300  0.803100  1.0  -0.3734
  C  C35  1  0.845800  0.307400  0.881900  1.0  0.7313
  C  C36  1  0.994000  0.327200  0.166700  1.0  0.7522
  C  C37  1  0.896500  0.242500  0.281200  1.0  -0.3808
  C  C38  1  0.885600  0.400500  0.446800  1.0  -0.3525
  C  C39  1  0.713300  0.458700  0.479400  1.0  -0.3366
  C  C40  1  0.706800  0.602600  0.652600  1.0  -0.3012
  C  C41  1  0.561100  0.571700  0.767300  1.0  0.7735
  C  C42  1  0.087200  0.984700  0.981800  1.0  -0.3176
  C  C43  1  0.084900  0.798700  0.196900  1.0  -0.3736
  C  C44  1  0.154200  0.692600  0.118100  1.0  0.7309
  S  S45  1  0.847800  0.055700  0.876110  1.0  0.0175
  S  S46  1  0.306420  0.379080  0.506740  1.0  -0.0077
  S  S47  1  0.076670  0.762910  0.565630  1.0  0.0011
  S  S48  1  0.152200  0.944300  0.123890  1.0  0.0167
  S  S49  1  0.693580  0.620920  0.493260  1.0  -0.0055
  S  S50  1  0.923330  0.237090  0.434370  1.0  0.0037
  O  O51  1  0.912300  0.405100  0.837700  1.0  -0.6424
  O  O52  1  0.729400  0.298500  0.984200  1.0  -0.6105
  O  O53  1  0.567700  0.431900  0.244500  1.0  -0.6512
  O  O54  1  0.863500  0.672500  0.851600  1.0  -0.6576
  O  O55  1  0.075100  0.605200  0.907400  1.0  -0.7311
  O  O56  1  0.425000  0.453200  0.121400  1.0  -0.8349
  O  O57  1  0.087700  0.594900  0.162300  1.0  -0.641
  O  O58  1  0.270600  0.701500  0.015800  1.0  -0.6106
  O  O59  1  0.432300  0.568100  0.755500  1.0  -0.6511
  O  O60  1  0.136500  0.327500  0.148400  1.0  -0.6569
  O  O61  1  0.924900  0.394800  0.092600  1.0  -0.7337
  O  O62  1  0.575000  0.546800  0.878600  1.0  -0.8361
