# generated using pymatgen
data_EuH12C9(SO2)3
_symmetry_space_group_name_H-M   'P 1'
_cell_length_a   9.16860000
_cell_length_b   11.11450000
_cell_length_c   11.18990000
_cell_angle_alpha   77.15600000
_cell_angle_beta   68.19500000
_cell_angle_gamma   78.35000000
_symmetry_Int_Tables_number   1
_chemical_formula_structural   EuH12C9(SO2)3
_chemical_formula_sum   'Eu2 H24 C18 S6 O12'
_cell_volume   1023.21260256
_cell_formula_units_Z   2
loop_
 _symmetry_equiv_pos_site_id
 _symmetry_equiv_pos_as_xyz
  1  'x, y, z'
loop_
 _atom_site_type_symbol
 _atom_site_label
 _atom_site_symmetry_multiplicity
 _atom_site_fract_x
 _atom_site_fract_y
 _atom_site_fract_z
 _atom_site_occupancy
 _atom_site_charge
  Eu  Eu1  1  0.726410  0.516350  0.520120  1.0  2.1419
  Eu  Eu2  1  0.273590  0.483650  0.479880  1.0  2.1399
  H  H3  1  0.214400  0.731800  0.206500  1.0  0.166
  H  H4  1  0.077200  0.842100  0.237600  1.0  0.1728
  H  H5  1  0.052000  0.555400  0.133000  1.0  0.1452
  H  H6  1  0.077400  0.590700  0.984100  1.0  0.1486
  H  H7  1  0.324300  0.546800  0.087900  1.0  0.1494
  H  H8  1  0.350800  0.584600  0.938300  1.0  0.1508
  H  H9  1  0.264900  0.321800  0.838900  1.0  0.1582
  H  H10  1  0.208100  0.463800  0.841400  1.0  0.1345
  H  H11  1  0.030000  0.188500  0.281300  1.0  0.1452
  H  H12  1  0.895100  0.225600  0.221200  1.0  0.1615
  H  H13  1  0.876800  0.083200  0.566500  1.0  0.1396
  H  H14  1  0.865000  0.942800  0.574200  1.0  0.1426
  H  H15  1  0.785600  0.268200  0.793500  1.0  0.1679
  H  H16  1  0.922800  0.157900  0.762400  1.0  0.175
  H  H17  1  0.948000  0.444600  0.867000  1.0  0.146
  H  H18  1  0.922600  0.409300  0.015900  1.0  0.1489
  H  H19  1  0.675700  0.453200  0.912100  1.0  0.1498
  H  H20  1  0.649200  0.415400  0.061700  1.0  0.1513
  H  H21  1  0.735100  0.678200  0.161100  1.0  0.1572
  H  H22  1  0.791900  0.536200  0.158600  1.0  0.1358
  H  H23  1  0.970000  0.811500  0.718700  1.0  0.1475
  H  H24  1  0.104900  0.774400  0.778800  1.0  0.1615
  H  H25  1  0.123200  0.916800  0.433500  1.0  0.1398
  H  H26  1  0.135000  0.057200  0.425800  1.0  0.1433
  C  C27  1  0.005500  0.673600  0.331900  1.0  0.7724
  C  C28  1  0.103400  0.758300  0.217200  1.0  -0.4055
  C  C29  1  0.114800  0.600600  0.051400  1.0  -0.3576
  C  C30  1  0.286100  0.540400  0.019800  1.0  -0.343
  C  C31  1  0.293900  0.398000  0.847100  1.0  -0.3054
  C  C32  1  0.438900  0.427900  0.732700  1.0  0.7821
  C  C33  1  0.845500  0.307600  0.382000  1.0  0.7163
  C  C34  1  0.915900  0.200100  0.302700  1.0  -0.3674
  C  C35  1  0.913500  0.014400  0.517700  1.0  -0.3259
  C  C36  1  0.994500  0.326400  0.668100  1.0  0.7707
  C  C37  1  0.896600  0.241700  0.782800  1.0  -0.4073
  C  C38  1  0.885200  0.399400  0.948600  1.0  -0.3584
  C  C39  1  0.713900  0.459600  0.980200  1.0  -0.3421
  C  C40  1  0.706100  0.602000  0.152900  1.0  -0.3034
  C  C41  1  0.561100  0.572100  0.267300  1.0  0.7828
  C  C42  1  0.154500  0.692400  0.618000  1.0  0.7158
  C  C43  1  0.084100  0.799900  0.697300  1.0  -0.3672
  C  C44  1  0.086500  0.985600  0.482300  1.0  -0.3272
  S  S45  1  0.077800  0.762990  0.065030  1.0  -0.0022
  S  S46  1  0.305900  0.379200  0.006180  1.0  0.0086
  S  S47  1  0.848500  0.055500  0.375400  1.0  0.0257
  S  S48  1  0.922200  0.237010  0.934970  1.0  -0.0004
  S  S49  1  0.694100  0.620800  0.993820  1.0  0.0106
  S  S50  1  0.151500  0.944500  0.624600  1.0  0.0255
  O  O51  1  0.861900  0.674400  0.348900  1.0  -0.6566
  O  O52  1  0.072100  0.605000  0.405700  1.0  -0.7539
  O  O53  1  0.425900  0.453200  0.621500  1.0  -0.8288
  O  O54  1  0.567900  0.431500  0.744900  1.0  -0.6636
  O  O55  1  0.729200  0.298600  0.485200  1.0  -0.6049
  O  O56  1  0.913100  0.405500  0.336700  1.0  -0.6505
  O  O57  1  0.138100  0.325600  0.651100  1.0  -0.6568
  O  O58  1  0.927900  0.395000  0.594300  1.0  -0.7544
  O  O59  1  0.574100  0.546800  0.378500  1.0  -0.8297
  O  O60  1  0.432100  0.568500  0.255100  1.0  -0.6626
  O  O61  1  0.270800  0.701400  0.514800  1.0  -0.605
  O  O62  1  0.086900  0.594500  0.663300  1.0  -0.6509
