# generated using pymatgen
data_ZnCoH3C9NO10
_symmetry_space_group_name_H-M   'P 1'
_cell_length_a   14.15200000
_cell_length_b   14.15200000
_cell_length_c   14.15200000
_cell_angle_alpha   90.00000000
_cell_angle_beta   90.00000000
_cell_angle_gamma   90.00000000
_symmetry_Int_Tables_number   1
_chemical_formula_structural   ZnCoH3C9NO10
_chemical_formula_sum   'Zn4 Co4 H12 C36 N4 O40'
_cell_volume   2834.34987981
_cell_formula_units_Z   4
loop_
 _symmetry_equiv_pos_site_id
 _symmetry_equiv_pos_as_xyz
  1  'x, y, z'
loop_
 _atom_site_type_symbol
 _atom_site_label
 _atom_site_symmetry_multiplicity
 _atom_site_fract_x
 _atom_site_fract_y
 _atom_site_fract_z
 _atom_site_occupancy
 _atom_site_charge
  Zn  Zn1  1  0.728270  0.271730  0.771730  1.0  1.0757
  Zn  Zn2  1  0.771730  0.728270  0.271730  1.0  1.0771
  Zn  Zn3  1  0.271730  0.771730  0.728270  1.0  1.0788
  Zn  Zn4  1  0.228270  0.228270  0.228270  1.0  1.0749
  Co  Co5  1  0.579700  0.420300  0.920300  1.0  0.893
  Co  Co6  1  0.920300  0.579700  0.420300  1.0  0.8951
  Co  Co7  1  0.420300  0.920300  0.579700  1.0  0.8952
  Co  Co8  1  0.079700  0.079700  0.079700  1.0  0.8975
  H  H9  1  0.708400  0.482000  0.553900  1.0  0.175
  H  H10  1  0.791600  0.518000  0.053900  1.0  0.1754
  H  H11  1  0.291600  0.982000  0.946100  1.0  0.1756
  H  H12  1  0.208400  0.018000  0.446100  1.0  0.1754
  H  H13  1  0.553900  0.708400  0.482000  1.0  0.1757
  H  H14  1  0.053900  0.791600  0.518000  1.0  0.1754
  H  H15  1  0.946100  0.291600  0.982000  1.0  0.1755
  H  H16  1  0.446100  0.208400  0.018000  1.0  0.1755
  H  H17  1  0.482000  0.553900  0.708400  1.0  0.1768
  H  H18  1  0.518000  0.053900  0.791600  1.0  0.1769
  H  H19  1  0.982000  0.946100  0.291600  1.0  0.1769
  H  H20  1  0.018000  0.446100  0.208400  1.0  0.1765
  C  C21  1  0.623900  0.424200  0.708900  1.0  0.7744
  C  C22  1  0.599700  0.504100  0.641100  1.0  -0.0566
  C  C23  1  0.656400  0.522600  0.565700  1.0  0.0807
  C  C24  1  0.876100  0.575800  0.208900  1.0  0.7751
  C  C25  1  0.900300  0.495900  0.141100  1.0  -0.0564
  C  C26  1  0.843600  0.477400  0.065700  1.0  0.0812
  C  C27  1  0.376100  0.924200  0.791100  1.0  0.775
  C  C28  1  0.400300  0.004100  0.858900  1.0  -0.0571
  C  C29  1  0.343600  0.022600  0.934300  1.0  0.0814
  C  C30  1  0.123900  0.075800  0.291100  1.0  0.7749
  C  C31  1  0.099700  0.995900  0.358900  1.0  -0.0561
  C  C32  1  0.156400  0.977400  0.434300  1.0  0.0811
  C  C33  1  0.708900  0.623900  0.424200  1.0  0.7751
  C  C34  1  0.641100  0.599700  0.504100  1.0  -0.0567
  C  C35  1  0.565700  0.656400  0.522600  1.0  0.0789
  C  C36  1  0.208900  0.876100  0.575800  1.0  0.7755
  C  C37  1  0.141100  0.900300  0.495900  1.0  -0.0565
  C  C38  1  0.065700  0.843600  0.477400  1.0  0.0795
  C  C39  1  0.791100  0.376100  0.924200  1.0  0.7734
  C  C40  1  0.858900  0.400300  0.004100  1.0  -0.0568
  C  C41  1  0.934300  0.343600  0.022600  1.0  0.0788
  C  C42  1  0.291100  0.123900  0.075800  1.0  0.774
  C  C43  1  0.358900  0.099700  0.995900  1.0  -0.0566
  C  C44  1  0.434300  0.156400  0.977400  1.0  0.0793
  C  C45  1  0.424200  0.708900  0.623900  1.0  0.7729
  C  C46  1  0.504100  0.641100  0.599700  1.0  -0.0567
  C  C47  1  0.522600  0.565700  0.656400  1.0  0.0806
  C  C48  1  0.575800  0.208900  0.876100  1.0  0.7738
  C  C49  1  0.495900  0.141100  0.900300  1.0  -0.0578
  C  C50  1  0.477400  0.065700  0.843600  1.0  0.0809
  C  C51  1  0.924200  0.791100  0.376100  1.0  0.7727
  C  C52  1  0.004100  0.858900  0.400300  1.0  -0.0575
  C  C53  1  0.022600  0.934300  0.343600  1.0  0.0811
  C  C54  1  0.075800  0.291100  0.123900  1.0  0.7732
  C  C55  1  0.995900  0.358900  0.099700  1.0  -0.0573
  C  C56  1  0.977400  0.434300  0.156400  1.0  0.0803
  N  N57  1  0.809500  0.190500  0.690500  1.0  0.0453
  N  N58  1  0.690500  0.809500  0.190500  1.0  0.0439
  N  N59  1  0.190500  0.690500  0.809500  1.0  0.0474
  N  N60  1  0.309500  0.309500  0.309500  1.0  0.0457
  O  O61  1  0.565200  0.412000  0.775900  1.0  -0.5458
  O  O62  1  0.693200  0.373900  0.687800  1.0  -0.4724
  O  O63  1  0.808000  0.154000  0.776000  1.0  -0.4826
  O  O64  1  0.934800  0.588000  0.275900  1.0  -0.5472
  O  O65  1  0.806800  0.626100  0.187800  1.0  -0.4718
  O  O66  1  0.692000  0.846000  0.276000  1.0  -0.4853
  O  O67  1  0.434800  0.912000  0.724100  1.0  -0.548
  O  O68  1  0.306800  0.873900  0.812200  1.0  -0.4719
  O  O69  1  0.192000  0.654000  0.724000  1.0  -0.484
  O  O70  1  0.065200  0.088000  0.224100  1.0  -0.5463
  O  O71  1  0.193200  0.126100  0.312200  1.0  -0.4723
  O  O72  1  0.308000  0.346000  0.224000  1.0  -0.4848
  O  O73  1  0.775900  0.565200  0.412000  1.0  -0.5496
  O  O74  1  0.687800  0.693200  0.373900  1.0  -0.4723
  O  O75  1  0.776000  0.808000  0.154000  1.0  -0.483
  O  O76  1  0.275900  0.934800  0.588000  1.0  -0.5499
  O  O77  1  0.187800  0.806800  0.626100  1.0  -0.4717
  O  O78  1  0.276000  0.692000  0.846000  1.0  -0.4813
  O  O79  1  0.724100  0.434800  0.912000  1.0  -0.55
  O  O80  1  0.812200  0.306800  0.873900  1.0  -0.4731
  O  O81  1  0.724000  0.192000  0.654000  1.0  -0.4813
  O  O82  1  0.224100  0.065200  0.088000  1.0  -0.5499
  O  O83  1  0.312200  0.193200  0.126100  1.0  -0.4726
  O  O84  1  0.224000  0.308000  0.346000  1.0  -0.4807
  O  O85  1  0.412000  0.775900  0.565200  1.0  -0.5547
  O  O86  1  0.373900  0.687800  0.693200  1.0  -0.4721
  O  O87  1  0.154000  0.776000  0.808000  1.0  -0.4805
  O  O88  1  0.588000  0.275900  0.934800  1.0  -0.5533
  O  O89  1  0.626100  0.187800  0.806800  1.0  -0.472
  O  O90  1  0.846000  0.276000  0.692000  1.0  -0.4792
  O  O91  1  0.912000  0.724100  0.434800  1.0  -0.5536
  O  O92  1  0.873900  0.812200  0.306800  1.0  -0.4719
  O  O93  1  0.654000  0.724000  0.192000  1.0  -0.4801
  O  O94  1  0.088000  0.224100  0.065200  1.0  -0.5546
  O  O95  1  0.126100  0.312200  0.193200  1.0  -0.4714
  O  O96  1  0.346000  0.224000  0.308000  1.0  -0.4797
  O  O97  1  0.868100  0.131900  0.631900  1.0  -0.4246
  O  O98  1  0.631900  0.868100  0.131900  1.0  -0.4239
  O  O99  1  0.131900  0.631900  0.868100  1.0  -0.4255
  O  O100  1  0.368100  0.368100  0.368100  1.0  -0.4272
