# generated using pymatgen
data_Zn2NiH35C59NO13
_symmetry_space_group_name_H-M   'P 1'
_cell_length_a   17.05440000
_cell_length_b   22.18160000
_cell_length_c   24.86320000
_cell_angle_alpha   90.00000000
_cell_angle_beta   90.00000000
_cell_angle_gamma   90.00000000
_symmetry_Int_Tables_number   1
_chemical_formula_structural   Zn2NiH35C59NO13
_chemical_formula_sum   'Zn8 Ni4 H140 C236 N4 O52'
_cell_volume   9405.59637335
_cell_formula_units_Z   4
loop_
 _symmetry_equiv_pos_site_id
 _symmetry_equiv_pos_as_xyz
  1  'x, y, z'
loop_
 _atom_site_type_symbol
 _atom_site_label
 _atom_site_symmetry_multiplicity
 _atom_site_fract_x
 _atom_site_fract_y
 _atom_site_fract_z
 _atom_site_occupancy
 _atom_site_charge
  Zn  Zn1  1  0.010310  0.666860  0.386190  1.0  1.0391
  Zn  Zn2  1  0.489690  0.333140  0.886190  1.0  1.0382
  Zn  Zn3  1  0.010310  0.833140  0.386190  1.0  1.0382
  Zn  Zn4  1  0.489690  0.166860  0.886190  1.0  1.039
  Zn  Zn5  1  0.989690  0.166860  0.613810  1.0  1.0383
  Zn  Zn6  1  0.510310  0.833140  0.113810  1.0  1.0372
  Zn  Zn7  1  0.989690  0.333140  0.613810  1.0  1.0372
  Zn  Zn8  1  0.510310  0.666860  0.113810  1.0  1.0383
  Ni  Ni9  1  0.125600  0.750000  0.313200  1.0  0.9278
  Ni  Ni10  1  0.374400  0.250000  0.813200  1.0  0.9275
  Ni  Ni11  1  0.874400  0.250000  0.686800  1.0  0.9271
  Ni  Ni12  1  0.625600  0.750000  0.186800  1.0  0.9275
  H  H13  1  0.665200  0.022800  0.992000  1.0  0.109
  H  H14  1  0.786900  0.006900  0.027900  1.0  0.1055
  H  H15  1  0.852400  0.172400  0.982200  1.0  0.1156
  H  H16  1  0.729300  0.188000  0.946500  1.0  0.1013
  H  H17  1  0.880500  0.026900  0.094400  1.0  0.1114
  H  H18  1  0.114200  0.040100  0.079300  1.0  0.1143
  H  H19  1  0.972300  0.122800  0.973700  1.0  0.1115
  H  H20  1  0.919200  0.016200  0.186200  1.0  0.118
  H  H21  1  0.934200  0.951100  0.256900  1.0  0.1107
  H  H22  1  0.118200  0.875800  0.183500  1.0  0.0984
  H  H23  1  0.104200  0.941800  0.113400  1.0  0.1129
  H  H24  1  0.197200  0.114100  0.055500  1.0  0.1183
  H  H25  1  0.307100  0.144100  0.009900  1.0  0.1151
  H  H26  1  0.185800  0.140500  0.872000  1.0  0.1037
  H  H27  1  0.077100  0.107200  0.917600  1.0  0.1104
  H  H28  1  0.233000  0.662700  0.255900  1.0  0.0832
  H  H29  1  0.315000  0.659900  0.182800  1.0  0.1244
  H  H30  1  0.834800  0.977200  0.492000  1.0  0.1092
  H  H31  1  0.713100  0.993100  0.527900  1.0  0.1052
  H  H32  1  0.647600  0.827600  0.482200  1.0  0.1162
  H  H33  1  0.770700  0.812000  0.446500  1.0  0.1012
  H  H34  1  0.619500  0.973100  0.594400  1.0  0.1119
  H  H35  1  0.385800  0.959900  0.579300  1.0  0.1157
  H  H36  1  0.527700  0.877200  0.473700  1.0  0.1108
  H  H37  1  0.580800  0.983800  0.686200  1.0  0.1176
  H  H38  1  0.565800  0.048900  0.756900  1.0  0.1107
  H  H39  1  0.381800  0.124200  0.683500  1.0  0.0987
  H  H40  1  0.395800  0.058200  0.613400  1.0  0.1124
  H  H41  1  0.302800  0.885900  0.555500  1.0  0.1192
  H  H42  1  0.192900  0.855900  0.509900  1.0  0.1154
  H  H43  1  0.314200  0.859500  0.372000  1.0  0.1038
  H  H44  1  0.422900  0.892800  0.417600  1.0  0.11
  H  H45  1  0.267000  0.337300  0.755900  1.0  0.083
  H  H46  1  0.185000  0.340100  0.682800  1.0  0.1247
  H  H47  1  0.665200  0.477200  0.992000  1.0  0.1094
  H  H48  1  0.786900  0.493100  0.027900  1.0  0.1058
  H  H49  1  0.852400  0.327600  0.982200  1.0  0.1162
  H  H50  1  0.729300  0.312000  0.946500  1.0  0.101
  H  H51  1  0.880500  0.473100  0.094400  1.0  0.1119
  H  H52  1  0.114200  0.459900  0.079300  1.0  0.1152
  H  H53  1  0.972300  0.377200  0.973700  1.0  0.1114
  H  H54  1  0.919200  0.483800  0.186200  1.0  0.1177
  H  H55  1  0.934200  0.548900  0.256900  1.0  0.1106
  H  H56  1  0.118200  0.624200  0.183500  1.0  0.0985
  H  H57  1  0.104200  0.558200  0.113400  1.0  0.1129
  H  H58  1  0.197200  0.385900  0.055500  1.0  0.1188
  H  H59  1  0.307100  0.355900  0.009900  1.0  0.1153
  H  H60  1  0.185800  0.359500  0.872000  1.0  0.1038
  H  H61  1  0.077100  0.392800  0.917600  1.0  0.1103
  H  H62  1  0.233000  0.837300  0.255900  1.0  0.083
  H  H63  1  0.315000  0.840100  0.182800  1.0  0.1241
  H  H64  1  0.834800  0.522800  0.492000  1.0  0.1093
  H  H65  1  0.713100  0.506900  0.527900  1.0  0.1052
  H  H66  1  0.647600  0.672400  0.482200  1.0  0.116
  H  H67  1  0.770700  0.688000  0.446500  1.0  0.1012
  H  H68  1  0.619500  0.526900  0.594400  1.0  0.1112
  H  H69  1  0.385800  0.540100  0.579300  1.0  0.1148
  H  H70  1  0.527700  0.622800  0.473700  1.0  0.1111
  H  H71  1  0.580800  0.516200  0.686200  1.0  0.1174
  H  H72  1  0.565800  0.451100  0.756900  1.0  0.1107
  H  H73  1  0.381800  0.375800  0.683500  1.0  0.0982
  H  H74  1  0.395800  0.441800  0.613400  1.0  0.1122
  H  H75  1  0.302800  0.614100  0.555500  1.0  0.1187
  H  H76  1  0.192900  0.644100  0.509900  1.0  0.1152
  H  H77  1  0.314200  0.640500  0.372000  1.0  0.1037
  H  H78  1  0.422900  0.607200  0.417600  1.0  0.1101
  H  H79  1  0.267000  0.162700  0.755900  1.0  0.0834
  H  H80  1  0.185000  0.159900  0.682800  1.0  0.124
  H  H81  1  0.356000  0.750000  0.145000  1.0  0.1088
  H  H82  1  0.144000  0.250000  0.645000  1.0  0.1085
  H  H83  1  0.334800  0.522800  0.008000  1.0  0.1093
  H  H84  1  0.213100  0.506900  0.972100  1.0  0.1053
  H  H85  1  0.147600  0.672400  0.017800  1.0  0.1159
  H  H86  1  0.270700  0.688000  0.053500  1.0  0.1006
  H  H87  1  0.119500  0.526900  0.905600  1.0  0.1114
  H  H88  1  0.885800  0.540100  0.920700  1.0  0.1138
  H  H89  1  0.027700  0.622800  0.026300  1.0  0.1105
  H  H90  1  0.080800  0.516200  0.813800  1.0  0.1179
  H  H91  1  0.065800  0.451100  0.743100  1.0  0.1103
  H  H92  1  0.881800  0.375800  0.816500  1.0  0.0982
  H  H93  1  0.895800  0.441800  0.886600  1.0  0.1113
  H  H94  1  0.802800  0.614100  0.944500  1.0  0.1178
  H  H95  1  0.692900  0.644100  0.990100  1.0  0.1151
  H  H96  1  0.814200  0.640500  0.128000  1.0  0.1041
  H  H97  1  0.922900  0.607200  0.082400  1.0  0.1106
  H  H98  1  0.767000  0.162700  0.744100  1.0  0.0833
  H  H99  1  0.685000  0.159900  0.817200  1.0  0.1244
  H  H100  1  0.165200  0.477200  0.508000  1.0  0.1094
  H  H101  1  0.286900  0.493100  0.472100  1.0  0.1055
  H  H102  1  0.352400  0.327600  0.517800  1.0  0.116
  H  H103  1  0.229300  0.312000  0.553500  1.0  0.1002
  H  H104  1  0.380500  0.473100  0.405600  1.0  0.1115
  H  H105  1  0.614200  0.459900  0.420700  1.0  0.115
  H  H106  1  0.472300  0.377200  0.526300  1.0  0.1111
  H  H107  1  0.419200  0.483800  0.313800  1.0  0.1172
  H  H108  1  0.434200  0.548900  0.243100  1.0  0.1106
  H  H109  1  0.618200  0.624200  0.316500  1.0  0.0978
  H  H110  1  0.604200  0.558200  0.386600  1.0  0.1117
  H  H111  1  0.697200  0.385900  0.444500  1.0  0.1193
  H  H112  1  0.807100  0.355900  0.490100  1.0  0.1154
  H  H113  1  0.685800  0.359500  0.628000  1.0  0.1041
  H  H114  1  0.577100  0.392800  0.582400  1.0  0.1107
  H  H115  1  0.733000  0.837300  0.244100  1.0  0.083
  H  H116  1  0.815000  0.840100  0.317200  1.0  0.1247
  H  H117  1  0.334800  0.977200  0.008000  1.0  0.1093
  H  H118  1  0.213100  0.993100  0.972100  1.0  0.1052
  H  H119  1  0.147600  0.827600  0.017800  1.0  0.1159
  H  H120  1  0.270700  0.812000  0.053500  1.0  0.1006
  H  H121  1  0.119500  0.973100  0.905600  1.0  0.1118
  H  H122  1  0.885800  0.959900  0.920700  1.0  0.1146
  H  H123  1  0.027700  0.877200  0.026300  1.0  0.1106
  H  H124  1  0.080800  0.983800  0.813800  1.0  0.1178
  H  H125  1  0.065800  0.048900  0.743100  1.0  0.1106
  H  H126  1  0.881800  0.124200  0.816500  1.0  0.0982
  H  H127  1  0.895800  0.058200  0.886600  1.0  0.1113
  H  H128  1  0.802800  0.885900  0.944500  1.0  0.1184
  H  H129  1  0.692900  0.855900  0.990100  1.0  0.115
  H  H130  1  0.814200  0.859500  0.128000  1.0  0.1042
  H  H131  1  0.922900  0.892800  0.082400  1.0  0.1108
  H  H132  1  0.767000  0.337300  0.744100  1.0  0.083
  H  H133  1  0.685000  0.340100  0.817200  1.0  0.1247
  H  H134  1  0.165200  0.022800  0.508000  1.0  0.1089
  H  H135  1  0.286900  0.006900  0.472100  1.0  0.1053
  H  H136  1  0.352400  0.172400  0.517800  1.0  0.1157
  H  H137  1  0.229300  0.188000  0.553500  1.0  0.1006
  H  H138  1  0.380500  0.026900  0.405600  1.0  0.1112
  H  H139  1  0.614200  0.040100  0.420700  1.0  0.1148
  H  H140  1  0.472300  0.122800  0.526300  1.0  0.1108
  H  H141  1  0.419200  0.016200  0.313800  1.0  0.1178
  H  H142  1  0.434200  0.951100  0.243100  1.0  0.1103
  H  H143  1  0.618200  0.875800  0.316500  1.0  0.0985
  H  H144  1  0.604200  0.941800  0.386600  1.0  0.1118
  H  H145  1  0.697200  0.114100  0.444500  1.0  0.1188
  H  H146  1  0.807100  0.144100  0.490100  1.0  0.1156
  H  H147  1  0.685800  0.140500  0.628000  1.0  0.104
  H  H148  1  0.577100  0.107200  0.582400  1.0  0.1104
  H  H149  1  0.733000  0.662700  0.244100  1.0  0.0832
  H  H150  1  0.815000  0.659900  0.317200  1.0  0.1243
  H  H151  1  0.644000  0.250000  0.855000  1.0  0.1103
  H  H152  1  0.856000  0.750000  0.355000  1.0  0.111
  C  C153  1  0.604800  0.116700  0.940400  1.0  0.6866
  C  C154  1  0.684070  0.106330  0.965390  1.0  -0.124
  C  C155  1  0.702700  0.053100  0.989900  1.0  -0.0381
  C  C156  1  0.775700  0.043520  0.011400  1.0  -0.1142
  C  C157  1  0.833510  0.088030  0.008940  1.0  0.051
  C  C158  1  0.814900  0.142050  0.984330  1.0  -0.1209
  C  C159  1  0.741100  0.151370  0.962800  1.0  -0.0336
  C  C160  1  0.913690  0.075980  0.030470  1.0  -0.0216
  C  C161  1  0.924220  0.041010  0.075920  1.0  -0.1166
  C  C162  1  0.998950  0.026380  0.094800  1.0  0.0538
  C  C163  1  0.064010  0.049180  0.067090  1.0  -0.1285
  C  C164  1  0.055150  0.085290  0.021540  1.0  0.0416
  C  C165  1  0.979110  0.098490  0.003840  1.0  -0.1139
  C  C166  1  0.009720  0.986580  0.141710  1.0  0.0633
  C  C167  1  0.959700  0.988100  0.185480  1.0  -0.1056
  C  C168  1  0.968700  0.949100  0.227950  1.0  -0.0669
  C  C169  1  0.028400  0.906770  0.228250  1.0  -0.1157
  C  C170  1  0.078300  0.904380  0.184400  1.0  -0.029
  C  C171  1  0.069500  0.943760  0.142190  1.0  -0.0987
  C  C172  1  0.038350  0.863740  0.274450  1.0  0.7119
  C  C173  1  0.125020  0.107490  0.992230  1.0  0.0546
  C  C174  1  0.194800  0.118900  0.018400  1.0  -0.1201
  C  C175  1  0.260800  0.137200  0.991180  1.0  -0.0569
  C  C176  1  0.258570  0.145620  0.935670  1.0  -0.13
  C  C177  1  0.188600  0.134630  0.908990  1.0  -0.0344
  C  C178  1  0.123050  0.115220  0.936400  1.0  -0.1432
  C  C179  1  0.329200  0.165140  0.905940  1.0  0.7261
  C  C180  1  0.248800  0.698900  0.240340  1.0  0.1655
  C  C181  1  0.298500  0.696700  0.196830  1.0  -0.159
  C  C182  1  0.895200  0.883300  0.440400  1.0  0.6869
  C  C183  1  0.815930  0.893670  0.465390  1.0  -0.1239
  C  C184  1  0.797300  0.946900  0.489900  1.0  -0.0374
  C  C185  1  0.724300  0.956480  0.511400  1.0  -0.1146
  C  C186  1  0.666490  0.911970  0.508940  1.0  0.0507
  C  C187  1  0.685100  0.857950  0.484330  1.0  -0.1228
  C  C188  1  0.758900  0.848630  0.462800  1.0  -0.0303
  C  C189  1  0.586310  0.924020  0.530470  1.0  -0.0209
  C  C190  1  0.575780  0.958990  0.575920  1.0  -0.1149
  C  C191  1  0.501050  0.973620  0.594800  1.0  0.053
  C  C192  1  0.435990  0.950820  0.567090  1.0  -0.1307
  C  C193  1  0.444850  0.914710  0.521540  1.0  0.0434
  C  C194  1  0.520890  0.901510  0.503840  1.0  -0.115
  C  C195  1  0.490280  0.013420  0.641710  1.0  0.0649
  C  C196  1  0.540300  0.011900  0.685480  1.0  -0.1054
  C  C197  1  0.531300  0.050900  0.727950  1.0  -0.0683
  C  C198  1  0.471600  0.093230  0.728250  1.0  -0.1179
  C  C199  1  0.421700  0.095620  0.684400  1.0  -0.029
  C  C200  1  0.430500  0.056240  0.642190  1.0  -0.0987
  C  C201  1  0.461650  0.136260  0.774450  1.0  0.7122
  C  C202  1  0.374980  0.892510  0.492230  1.0  0.0543
  C  C203  1  0.305200  0.881100  0.518400  1.0  -0.1198
  C  C204  1  0.239200  0.862800  0.491180  1.0  -0.0591
  C  C205  1  0.241430  0.854380  0.435670  1.0  -0.1311
  C  C206  1  0.311400  0.865370  0.408990  1.0  -0.034
  C  C207  1  0.376950  0.884780  0.436400  1.0  -0.1442
  C  C208  1  0.170800  0.834860  0.405940  1.0  0.7251
  C  C209  1  0.251200  0.301100  0.740340  1.0  0.166
  C  C210  1  0.201500  0.303300  0.696830  1.0  -0.1578
  C  C211  1  0.604800  0.383300  0.940400  1.0  0.6868
  C  C212  1  0.684070  0.393670  0.965390  1.0  -0.1235
  C  C213  1  0.702700  0.446900  0.989900  1.0  -0.039
  C  C214  1  0.775700  0.456480  0.011400  1.0  -0.115
  C  C215  1  0.833510  0.411970  0.008940  1.0  0.0512
  C  C216  1  0.814900  0.357950  0.984330  1.0  -0.1214
  C  C217  1  0.741100  0.348630  0.962800  1.0  -0.0335
  C  C218  1  0.913690  0.424020  0.030470  1.0  -0.0213
  C  C219  1  0.924220  0.458990  0.075920  1.0  -0.117
  C  C220  1  0.998950  0.473620  0.094800  1.0  0.0533
  C  C221  1  0.064010  0.450820  0.067090  1.0  -0.128
  C  C222  1  0.055150  0.414710  0.021540  1.0  0.043
  C  C223  1  0.979110  0.401510  0.003840  1.0  -0.1151
  C  C224  1  0.009720  0.513420  0.141710  1.0  0.0654
  C  C225  1  0.959700  0.511900  0.185480  1.0  -0.1069
  C  C226  1  0.968700  0.550900  0.227950  1.0  -0.0673
  C  C227  1  0.028400  0.593230  0.228250  1.0  -0.1169
  C  C228  1  0.078300  0.595620  0.184400  1.0  -0.0293
  C  C229  1  0.069500  0.556240  0.142190  1.0  -0.0986
  C  C230  1  0.038350  0.636260  0.274450  1.0  0.7119
  C  C231  1  0.125020  0.392510  0.992230  1.0  0.0547
  C  C232  1  0.194800  0.381100  0.018400  1.0  -0.1211
  C  C233  1  0.260800  0.362800  0.991180  1.0  -0.0577
  C  C234  1  0.258570  0.354380  0.935670  1.0  -0.1296
  C  C235  1  0.188600  0.365370  0.908990  1.0  -0.0339
  C  C236  1  0.123050  0.384780  0.936400  1.0  -0.1433
  C  C237  1  0.329200  0.334860  0.905940  1.0  0.726
  C  C238  1  0.248800  0.801100  0.240340  1.0  0.1651
  C  C239  1  0.298500  0.803300  0.196830  1.0  -0.1619
  C  C240  1  0.895200  0.616700  0.440400  1.0  0.6862
  C  C241  1  0.815930  0.606330  0.465390  1.0  -0.1241
  C  C242  1  0.797300  0.553100  0.489900  1.0  -0.0379
  C  C243  1  0.724300  0.543520  0.511400  1.0  -0.1143
  C  C244  1  0.666490  0.588030  0.508940  1.0  0.0508
  C  C245  1  0.685100  0.642050  0.484330  1.0  -0.1227
  C  C246  1  0.758900  0.651370  0.462800  1.0  -0.0302
  C  C247  1  0.586310  0.575980  0.530470  1.0  -0.0216
  C  C248  1  0.575780  0.541010  0.575920  1.0  -0.114
  C  C249  1  0.501050  0.526380  0.594800  1.0  0.0537
  C  C250  1  0.435990  0.549180  0.567090  1.0  -0.1316
  C  C251  1  0.444850  0.585290  0.521540  1.0  0.0417
  C  C252  1  0.520890  0.598490  0.503840  1.0  -0.1131
  C  C253  1  0.490280  0.486580  0.641710  1.0  0.0629
  C  C254  1  0.540300  0.488100  0.685480  1.0  -0.1031
  C  C255  1  0.531300  0.449100  0.727950  1.0  -0.0679
  C  C256  1  0.471600  0.406770  0.728250  1.0  -0.1165
  C  C257  1  0.421700  0.404380  0.684400  1.0  -0.029
  C  C258  1  0.430500  0.443760  0.642190  1.0  -0.099
  C  C259  1  0.461650  0.363740  0.774450  1.0  0.7123
  C  C260  1  0.374980  0.607490  0.492230  1.0  0.054
  C  C261  1  0.305200  0.618900  0.518400  1.0  -0.1196
  C  C262  1  0.239200  0.637200  0.491180  1.0  -0.0589
  C  C263  1  0.241430  0.645620  0.435670  1.0  -0.1308
  C  C264  1  0.311400  0.634630  0.408990  1.0  -0.0347
  C  C265  1  0.376950  0.615220  0.436400  1.0  -0.1439
  C  C266  1  0.170800  0.665140  0.405940  1.0  0.7251
  C  C267  1  0.251200  0.198900  0.740340  1.0  0.1667
  C  C268  1  0.201500  0.196700  0.696830  1.0  -0.1635
  C  C269  1  0.323000  0.750000  0.174800  1.0  -0.0457
  C  C270  1  0.177000  0.250000  0.674800  1.0  -0.0467
  C  C271  1  0.395200  0.616700  0.059600  1.0  0.6857
  C  C272  1  0.315930  0.606330  0.034610  1.0  -0.1244
  C  C273  1  0.297300  0.553100  0.010100  1.0  -0.0386
  C  C274  1  0.224300  0.543520  0.988600  1.0  -0.1144
  C  C275  1  0.166490  0.588030  0.991060  1.0  0.0508
  C  C276  1  0.185100  0.642050  0.015670  1.0  -0.1221
  C  C277  1  0.258900  0.651370  0.037200  1.0  -0.0337
  C  C278  1  0.086310  0.575980  0.969530  1.0  -0.0219
  C  C279  1  0.075780  0.541010  0.924080  1.0  -0.1168
  C  C280  1  0.001050  0.526380  0.905200  1.0  0.054
  C  C281  1  0.935990  0.549180  0.932910  1.0  -0.1315
  C  C282  1  0.944850  0.585290  0.978460  1.0  0.0409
  C  C283  1  0.020890  0.598490  0.996160  1.0  -0.1134
  C  C284  1  0.990280  0.486580  0.858290  1.0  0.0627
  C  C285  1  0.040300  0.488100  0.814520  1.0  -0.1074
  C  C286  1  0.031300  0.449100  0.772050  1.0  -0.0696
  C  C287  1  0.971600  0.406770  0.771750  1.0  -0.1168
  C  C288  1  0.921700  0.404380  0.815600  1.0  -0.0286
  C  C289  1  0.930500  0.443760  0.857810  1.0  -0.0973
  C  C290  1  0.961650  0.363740  0.725550  1.0  0.7132
  C  C291  1  0.874980  0.607490  0.007770  1.0  0.0553
  C  C292  1  0.805200  0.618900  0.981600  1.0  -0.1185
  C  C293  1  0.739200  0.637200  0.008820  1.0  -0.0594
  C  C294  1  0.741430  0.645620  0.064330  1.0  -0.1311
  C  C295  1  0.811400  0.634630  0.091010  1.0  -0.0349
  C  C296  1  0.876950  0.615220  0.063600  1.0  -0.1455
  C  C297  1  0.670800  0.665140  0.094060  1.0  0.7248
  C  C298  1  0.751200  0.198900  0.759660  1.0  0.1659
  C  C299  1  0.701500  0.196700  0.803170  1.0  -0.1593
  C  C300  1  0.104800  0.383300  0.559600  1.0  0.6872
  C  C301  1  0.184070  0.393670  0.534610  1.0  -0.1229
  C  C302  1  0.202700  0.446900  0.510100  1.0  -0.0397
  C  C303  1  0.275700  0.456480  0.488600  1.0  -0.1143
  C  C304  1  0.333510  0.411970  0.491060  1.0  0.0504
  C  C305  1  0.314900  0.357950  0.515670  1.0  -0.1237
  C  C306  1  0.241100  0.348630  0.537200  1.0  -0.0305
  C  C307  1  0.413690  0.424020  0.469530  1.0  -0.0231
  C  C308  1  0.424220  0.458990  0.424080  1.0  -0.1169
  C  C309  1  0.498950  0.473620  0.405200  1.0  0.0516
  C  C310  1  0.564010  0.450820  0.432910  1.0  -0.1297
  C  C311  1  0.555150  0.414710  0.478460  1.0  0.0413
  C  C312  1  0.479110  0.401510  0.496160  1.0  -0.1149
  C  C313  1  0.509720  0.513420  0.358290  1.0  0.0631
  C  C314  1  0.459700  0.511900  0.314520  1.0  -0.1053
  C  C315  1  0.468700  0.550900  0.272050  1.0  -0.0674
  C  C316  1  0.528400  0.593230  0.271750  1.0  -0.1154
  C  C317  1  0.578300  0.595620  0.315600  1.0  -0.0292
  C  C318  1  0.569500  0.556240  0.357810  1.0  -0.0977
  C  C319  1  0.538350  0.636260  0.225550  1.0  0.7128
  C  C320  1  0.625020  0.392510  0.507770  1.0  0.0551
  C  C321  1  0.694800  0.381100  0.481600  1.0  -0.1187
  C  C322  1  0.760800  0.362800  0.508820  1.0  -0.058
  C  C323  1  0.758570  0.354380  0.564330  1.0  -0.1305
  C  C324  1  0.688600  0.365370  0.591010  1.0  -0.0349
  C  C325  1  0.623050  0.384780  0.563600  1.0  -0.1437
  C  C326  1  0.829200  0.334860  0.594060  1.0  0.7254
  C  C327  1  0.748800  0.801100  0.259660  1.0  0.1656
  C  C328  1  0.798500  0.803300  0.303170  1.0  -0.158
  C  C329  1  0.395200  0.883300  0.059600  1.0  0.6866
  C  C330  1  0.315930  0.893670  0.034610  1.0  -0.1243
  C  C331  1  0.297300  0.946900  0.010100  1.0  -0.0379
  C  C332  1  0.224300  0.956480  0.988600  1.0  -0.1143
  C  C333  1  0.166490  0.911970  0.991060  1.0  0.0502
  C  C334  1  0.185100  0.857950  0.015670  1.0  -0.1225
  C  C335  1  0.258900  0.848630  0.037200  1.0  -0.0324
  C  C336  1  0.086310  0.924020  0.969530  1.0  -0.0223
  C  C337  1  0.075780  0.958990  0.924080  1.0  -0.117
  C  C338  1  0.001050  0.973620  0.905200  1.0  0.0518
  C  C339  1  0.935990  0.950820  0.932910  1.0  -0.1307
  C  C340  1  0.944850  0.914710  0.978460  1.0  0.0416
  C  C341  1  0.020890  0.901510  0.996160  1.0  -0.1147
  C  C342  1  0.990280  0.013420  0.858290  1.0  0.0631
  C  C343  1  0.040300  0.011900  0.814520  1.0  -0.1053
  C  C344  1  0.031300  0.050900  0.772050  1.0  -0.0695
  C  C345  1  0.971600  0.093230  0.771750  1.0  -0.1165
  C  C346  1  0.921700  0.095620  0.815600  1.0  -0.0287
  C  C347  1  0.930500  0.056240  0.857810  1.0  -0.0973
  C  C348  1  0.961650  0.136260  0.725550  1.0  0.7131
  C  C349  1  0.874980  0.892510  0.007770  1.0  0.0548
  C  C350  1  0.805200  0.881100  0.981600  1.0  -0.1172
  C  C351  1  0.739200  0.862800  0.008820  1.0  -0.059
  C  C352  1  0.741430  0.854380  0.064330  1.0  -0.1318
  C  C353  1  0.811400  0.865370  0.091010  1.0  -0.0346
  C  C354  1  0.876950  0.884780  0.063600  1.0  -0.1452
  C  C355  1  0.670800  0.834860  0.094060  1.0  0.7248
  C  C356  1  0.751200  0.301100  0.759660  1.0  0.1665
  C  C357  1  0.701500  0.303300  0.803170  1.0  -0.1623
  C  C358  1  0.104800  0.116700  0.559600  1.0  0.6868
  C  C359  1  0.184070  0.106330  0.534610  1.0  -0.1233
  C  C360  1  0.202700  0.053100  0.510100  1.0  -0.039
  C  C361  1  0.275700  0.043520  0.488600  1.0  -0.1135
  C  C362  1  0.333510  0.088030  0.491060  1.0  0.0506
  C  C363  1  0.314900  0.142050  0.515670  1.0  -0.1234
  C  C364  1  0.241100  0.151370  0.537200  1.0  -0.0309
  C  C365  1  0.413690  0.075980  0.469530  1.0  -0.0221
  C  C366  1  0.424220  0.041010  0.424080  1.0  -0.117
  C  C367  1  0.498950  0.026380  0.405200  1.0  0.0539
  C  C368  1  0.564010  0.049180  0.432910  1.0  -0.1303
  C  C369  1  0.555150  0.085290  0.478460  1.0  0.0408
  C  C370  1  0.479110  0.098490  0.496160  1.0  -0.1141
  C  C371  1  0.509720  0.986580  0.358290  1.0  0.0627
  C  C372  1  0.459700  0.988100  0.314520  1.0  -0.1085
  C  C373  1  0.468700  0.949100  0.272050  1.0  -0.0676
  C  C374  1  0.528400  0.906770  0.271750  1.0  -0.1159
  C  C375  1  0.578300  0.904380  0.315600  1.0  -0.0289
  C  C376  1  0.569500  0.943760  0.357810  1.0  -0.0976
  C  C377  1  0.538350  0.863740  0.225550  1.0  0.7128
  C  C378  1  0.625020  0.107490  0.507770  1.0  0.0556
  C  C379  1  0.694800  0.118900  0.481600  1.0  -0.1201
  C  C380  1  0.760800  0.137200  0.508820  1.0  -0.0574
  C  C381  1  0.758570  0.145620  0.564330  1.0  -0.1307
  C  C382  1  0.688600  0.134630  0.591010  1.0  -0.0347
  C  C383  1  0.623050  0.115220  0.563600  1.0  -0.1443
  C  C384  1  0.829200  0.165140  0.594060  1.0  0.7255
  C  C385  1  0.748800  0.698900  0.259660  1.0  0.1646
  C  C386  1  0.798500  0.696700  0.303170  1.0  -0.164
  C  C387  1  0.677000  0.250000  0.825200  1.0  -0.0467
  C  C388  1  0.823000  0.750000  0.325200  1.0  -0.0459
  N  N389  1  0.222400  0.750000  0.261190  1.0  -0.2989
  N  N390  1  0.277600  0.250000  0.761190  1.0  -0.2984
  N  N391  1  0.777600  0.250000  0.738810  1.0  -0.301
  N  N392  1  0.722400  0.750000  0.238810  1.0  -0.3007
  O  O393  1  0.592350  0.167530  0.919630  1.0  -0.593
  O  O394  1  0.555100  0.076640  0.940910  1.0  -0.527
  O  O395  1  0.006950  0.878810  0.318670  1.0  -0.6048
  O  O396  1  0.076840  0.816920  0.265220  1.0  -0.596
  O  O397  1  0.394880  0.159730  0.928890  1.0  -0.5875
  O  O398  1  0.320040  0.184680  0.859080  1.0  -0.6274
  O  O399  1  0.907650  0.832470  0.419630  1.0  -0.5923
  O  O400  1  0.944900  0.923360  0.440910  1.0  -0.5273
  O  O401  1  0.493050  0.121190  0.818670  1.0  -0.6035
  O  O402  1  0.423160  0.183080  0.765220  1.0  -0.5965
  O  O403  1  0.105120  0.840270  0.428890  1.0  -0.5886
  O  O404  1  0.179960  0.815320  0.359080  1.0  -0.6268
  O  O405  1  0.592350  0.332470  0.919630  1.0  -0.5921
  O  O406  1  0.555100  0.423360  0.940910  1.0  -0.5274
  O  O407  1  0.006950  0.621190  0.318670  1.0  -0.6047
  O  O408  1  0.076840  0.683080  0.265220  1.0  -0.5964
  O  O409  1  0.394880  0.340270  0.928890  1.0  -0.5874
  O  O410  1  0.320040  0.315320  0.859080  1.0  -0.627
  O  O411  1  0.907650  0.667530  0.419630  1.0  -0.5924
  O  O412  1  0.944900  0.576640  0.440910  1.0  -0.5278
  O  O413  1  0.493050  0.378810  0.818670  1.0  -0.6038
  O  O414  1  0.423160  0.316920  0.765220  1.0  -0.5959
  O  O415  1  0.105120  0.659730  0.428890  1.0  -0.5884
  O  O416  1  0.179960  0.684680  0.359080  1.0  -0.6267
  O  O417  1  0.018890  0.750000  0.355220  1.0  -0.7705
  O  O418  1  0.481110  0.250000  0.855220  1.0  -0.7717
  O  O419  1  0.407650  0.667530  0.080370  1.0  -0.5926
  O  O420  1  0.444900  0.576640  0.059090  1.0  -0.5276
  O  O421  1  0.993050  0.378810  0.681330  1.0  -0.6049
  O  O422  1  0.923160  0.316920  0.734780  1.0  -0.5969
  O  O423  1  0.605120  0.659730  0.071110  1.0  -0.5884
  O  O424  1  0.679960  0.684680  0.140920  1.0  -0.6274
  O  O425  1  0.092350  0.332470  0.580370  1.0  -0.5919
  O  O426  1  0.055100  0.423360  0.559090  1.0  -0.5275
  O  O427  1  0.506950  0.621190  0.181330  1.0  -0.6043
  O  O428  1  0.576840  0.683080  0.234780  1.0  -0.5969
  O  O429  1  0.894880  0.340270  0.571110  1.0  -0.5898
  O  O430  1  0.820040  0.315320  0.640920  1.0  -0.6285
  O  O431  1  0.407650  0.832470  0.080370  1.0  -0.5918
  O  O432  1  0.444900  0.923360  0.059090  1.0  -0.5272
  O  O433  1  0.993050  0.121190  0.681330  1.0  -0.6034
  O  O434  1  0.923160  0.183080  0.734780  1.0  -0.597
  O  O435  1  0.605120  0.840270  0.071110  1.0  -0.5885
  O  O436  1  0.679960  0.815320  0.140920  1.0  -0.6284
  O  O437  1  0.092350  0.167530  0.580370  1.0  -0.5933
  O  O438  1  0.055100  0.076640  0.559090  1.0  -0.5271
  O  O439  1  0.506950  0.878810  0.181330  1.0  -0.6054
  O  O440  1  0.576840  0.816920  0.234780  1.0  -0.5969
  O  O441  1  0.894880  0.159730  0.571110  1.0  -0.5896
  O  O442  1  0.820040  0.184680  0.640920  1.0  -0.628
  O  O443  1  0.981110  0.250000  0.644780  1.0  -0.7715
  O  O444  1  0.518890  0.750000  0.144780  1.0  -0.7704
