# generated using pymatgen
data_ZnCoH2(C5O4)2
_symmetry_space_group_name_H-M   'P 1'
_cell_length_a   11.76030000
_cell_length_b   18.71070000
_cell_length_c   18.71070000
_cell_angle_alpha   90.00000000
_cell_angle_beta   90.00000000
_cell_angle_gamma   90.00000000
_symmetry_Int_Tables_number   1
_chemical_formula_structural   ZnCoH2(C5O4)2
_chemical_formula_sum   'Zn8 Co8 H16 C80 O64'
_cell_volume   4117.16689029
_cell_formula_units_Z   8
loop_
 _symmetry_equiv_pos_site_id
 _symmetry_equiv_pos_as_xyz
  1  'x, y, z'
loop_
 _atom_site_type_symbol
 _atom_site_label
 _atom_site_symmetry_multiplicity
 _atom_site_fract_x
 _atom_site_fract_y
 _atom_site_fract_z
 _atom_site_occupancy
 _atom_site_charge
  Zn  Zn1  1  0.643860  0.285710  0.781620  1.0  1.0477
  Zn  Zn2  1  0.643860  0.714290  0.218380  1.0  1.0469
  Zn  Zn3  1  0.143860  0.218380  0.285710  1.0  1.0475
  Zn  Zn4  1  0.143860  0.781620  0.714290  1.0  1.0477
  Zn  Zn5  1  0.643860  0.785710  0.718380  1.0  1.0475
  Zn  Zn6  1  0.643860  0.214290  0.281620  1.0  1.047
  Zn  Zn7  1  0.143860  0.718380  0.214290  1.0  1.0474
  Zn  Zn8  1  0.143860  0.281620  0.785710  1.0  1.0477
  Co  Co9  1  0.817940  0.153890  0.821680  1.0  1.0907
  Co  Co10  1  0.817940  0.846110  0.178320  1.0  1.0907
  Co  Co11  1  0.317940  0.178320  0.153890  1.0  1.0903
  Co  Co12  1  0.317940  0.821680  0.846110  1.0  1.09
  Co  Co13  1  0.817940  0.653890  0.678320  1.0  1.0906
  Co  Co14  1  0.817940  0.346110  0.321680  1.0  1.0901
  Co  Co15  1  0.317940  0.678320  0.346110  1.0  1.0893
  Co  Co16  1  0.317940  0.321680  0.653890  1.0  1.0899
  H  H17  1  0.089800  0.271700  0.508700  1.0  0.1248
  H  H18  1  0.709800  0.221000  0.556700  1.0  0.1185
  H  H19  1  0.089800  0.728300  0.491300  1.0  0.1245
  H  H20  1  0.709800  0.779000  0.443300  1.0  0.1185
  H  H21  1  0.589800  0.491300  0.271700  1.0  0.1242
  H  H22  1  0.209800  0.443300  0.221000  1.0  0.1191
  H  H23  1  0.589800  0.508700  0.728300  1.0  0.1244
  H  H24  1  0.209800  0.556700  0.779000  1.0  0.119
  H  H25  1  0.089800  0.771700  0.991300  1.0  0.1244
  H  H26  1  0.709800  0.721000  0.943300  1.0  0.1188
  H  H27  1  0.089800  0.228300  0.008700  1.0  0.1243
  H  H28  1  0.709800  0.279000  0.056700  1.0  0.1181
  H  H29  1  0.589800  0.991300  0.228300  1.0  0.1248
  H  H30  1  0.209800  0.943300  0.279000  1.0  0.1193
  H  H31  1  0.589800  0.008700  0.771700  1.0  0.1243
  H  H32  1  0.209800  0.056700  0.721000  1.0  0.119
  C  C33  1  0.810100  0.240900  0.678300  1.0  0.7226
  C  C34  1  0.859400  0.245800  0.604700  1.0  -0.0422
  C  C35  1  0.971500  0.262000  0.588700  1.0  -0.1187
  C  C36  1  0.011900  0.262100  0.518000  1.0  -0.0307
  C  C37  1  0.939000  0.248200  0.462400  1.0  -0.0952
  C  C38  1  0.822900  0.233200  0.475500  1.0  -0.1184
  C  C39  1  0.787100  0.231900  0.547000  1.0  -0.0349
  C  C40  1  0.057700  0.282100  0.644800  1.0  0.7233
  C  C41  1  0.992500  0.251800  0.389400  1.0  0.7012
  C  C42  1  0.733300  0.220800  0.419900  1.0  0.673
  C  C43  1  0.810100  0.759100  0.321700  1.0  0.7225
  C  C44  1  0.859400  0.754200  0.395300  1.0  -0.0422
  C  C45  1  0.971500  0.738000  0.411300  1.0  -0.119
  C  C46  1  0.011900  0.737900  0.482000  1.0  -0.031
  C  C47  1  0.939000  0.751800  0.537600  1.0  -0.0945
  C  C48  1  0.822900  0.766800  0.524500  1.0  -0.1177
  C  C49  1  0.787100  0.768100  0.453000  1.0  -0.0352
  C  C50  1  0.057700  0.717900  0.355200  1.0  0.7229
  C  C51  1  0.992500  0.748200  0.610600  1.0  0.7015
  C  C52  1  0.733300  0.779200  0.580100  1.0  0.6738
  C  C53  1  0.310100  0.321700  0.240900  1.0  0.7209
  C  C54  1  0.359400  0.395300  0.245800  1.0  -0.0412
  C  C55  1  0.471500  0.411300  0.262000  1.0  -0.1195
  C  C56  1  0.511900  0.482000  0.262100  1.0  -0.0309
  C  C57  1  0.439000  0.537600  0.248200  1.0  -0.0953
  C  C58  1  0.322900  0.524500  0.233200  1.0  -0.1187
  C  C59  1  0.287100  0.453000  0.231900  1.0  -0.0356
  C  C60  1  0.557700  0.355200  0.282100  1.0  0.7239
  C  C61  1  0.492500  0.610600  0.251800  1.0  0.6995
  C  C62  1  0.233300  0.580100  0.220800  1.0  0.6738
  C  C63  1  0.310100  0.678300  0.759100  1.0  0.7213
  C  C64  1  0.359400  0.604700  0.754200  1.0  -0.0412
  C  C65  1  0.471500  0.588700  0.738000  1.0  -0.1197
  C  C66  1  0.511900  0.518000  0.737900  1.0  -0.0314
  C  C67  1  0.439000  0.462400  0.751800  1.0  -0.0959
  C  C68  1  0.322900  0.475500  0.766800  1.0  -0.1187
  C  C69  1  0.287100  0.547000  0.768100  1.0  -0.0361
  C  C70  1  0.557700  0.644800  0.717900  1.0  0.7231
  C  C71  1  0.492500  0.389400  0.748200  1.0  0.6997
  C  C72  1  0.233300  0.419900  0.779200  1.0  0.6732
  C  C73  1  0.810100  0.740900  0.821700  1.0  0.7223
  C  C74  1  0.859400  0.745800  0.895300  1.0  -0.0421
  C  C75  1  0.971500  0.762000  0.911300  1.0  -0.1188
  C  C76  1  0.011900  0.762100  0.982000  1.0  -0.0312
  C  C77  1  0.939000  0.748200  0.037600  1.0  -0.0947
  C  C78  1  0.822900  0.733200  0.024500  1.0  -0.1176
  C  C79  1  0.787100  0.731900  0.953000  1.0  -0.0347
  C  C80  1  0.057700  0.782100  0.855200  1.0  0.7229
  C  C81  1  0.992500  0.751800  0.110600  1.0  0.7015
  C  C82  1  0.733300  0.720800  0.080100  1.0  0.6733
  C  C83  1  0.810100  0.259100  0.178300  1.0  0.7226
  C  C84  1  0.859400  0.254200  0.104700  1.0  -0.0423
  C  C85  1  0.971500  0.238000  0.088700  1.0  -0.1186
  C  C86  1  0.011900  0.237900  0.018000  1.0  -0.0305
  C  C87  1  0.939000  0.251800  0.962400  1.0  -0.0951
  C  C88  1  0.822900  0.266800  0.975500  1.0  -0.1183
  C  C89  1  0.787100  0.268100  0.047000  1.0  -0.0353
  C  C90  1  0.057700  0.217900  0.144800  1.0  0.7234
  C  C91  1  0.992500  0.248200  0.889400  1.0  0.7012
  C  C92  1  0.733300  0.279200  0.919900  1.0  0.6734
  C  C93  1  0.310100  0.821700  0.259100  1.0  0.721
  C  C94  1  0.359400  0.895300  0.254200  1.0  -0.0413
  C  C95  1  0.471500  0.911300  0.238000  1.0  -0.1194
  C  C96  1  0.511900  0.982000  0.237900  1.0  -0.0315
  C  C97  1  0.439000  0.037600  0.251800  1.0  -0.0954
  C  C98  1  0.322900  0.024500  0.266800  1.0  -0.1184
  C  C99  1  0.287100  0.953000  0.268100  1.0  -0.0356
  C  C100  1  0.557700  0.855200  0.217900  1.0  0.7232
  C  C101  1  0.492500  0.110600  0.248200  1.0  0.6994
  C  C102  1  0.233300  0.080100  0.279200  1.0  0.6736
  C  C103  1  0.310100  0.178300  0.740900  1.0  0.7213
  C  C104  1  0.359400  0.104700  0.745800  1.0  -0.0412
  C  C105  1  0.471500  0.088700  0.762000  1.0  -0.1197
  C  C106  1  0.511900  0.018000  0.762100  1.0  -0.0309
  C  C107  1  0.439000  0.962400  0.748200  1.0  -0.0958
  C  C108  1  0.322900  0.975500  0.733200  1.0  -0.1189
  C  C109  1  0.287100  0.047000  0.731900  1.0  -0.0361
  C  C110  1  0.557700  0.144800  0.782100  1.0  0.7237
  C  C111  1  0.492500  0.889400  0.751800  1.0  0.6997
  C  C112  1  0.233300  0.919900  0.720800  1.0  0.6733
  O  O113  1  0.826800  0.187100  0.714900  1.0  -0.5882
  O  O114  1  0.740400  0.292000  0.695200  1.0  -0.6112
  O  O115  1  0.031200  0.277400  0.709000  1.0  -0.5563
  O  O116  1  0.153100  0.305300  0.622600  1.0  -0.6656
  O  O117  1  0.073000  0.207500  0.379500  1.0  -0.53
  O  O118  1  0.971300  0.302100  0.345400  1.0  -0.6246
  O  O119  1  0.759800  0.237400  0.354400  1.0  -0.6826
  O  O120  1  0.638800  0.199600  0.435400  1.0  -0.4988
  O  O121  1  0.826800  0.812900  0.285100  1.0  -0.5895
  O  O122  1  0.740400  0.708000  0.304800  1.0  -0.611
  O  O123  1  0.031200  0.722600  0.291000  1.0  -0.5557
  O  O124  1  0.153100  0.694700  0.377400  1.0  -0.6636
  O  O125  1  0.073000  0.792500  0.620500  1.0  -0.5295
  O  O126  1  0.971300  0.697900  0.654600  1.0  -0.6254
  O  O127  1  0.759800  0.762600  0.645600  1.0  -0.6827
  O  O128  1  0.638800  0.800400  0.564600  1.0  -0.5008
  O  O129  1  0.326800  0.285100  0.187100  1.0  -0.5889
  O  O130  1  0.240400  0.304800  0.292000  1.0  -0.6118
  O  O131  1  0.531200  0.291000  0.277400  1.0  -0.5568
  O  O132  1  0.653100  0.377400  0.305300  1.0  -0.6674
  O  O133  1  0.573000  0.620500  0.207500  1.0  -0.5285
  O  O134  1  0.471300  0.654600  0.302100  1.0  -0.6277
  O  O135  1  0.259800  0.645600  0.237400  1.0  -0.6821
  O  O136  1  0.138800  0.564600  0.199600  1.0  -0.4998
  O  O137  1  0.326800  0.714900  0.812900  1.0  -0.5888
  O  O138  1  0.240400  0.695200  0.708000  1.0  -0.6112
  O  O139  1  0.531200  0.709000  0.722600  1.0  -0.558
  O  O140  1  0.653100  0.622600  0.694700  1.0  -0.6642
  O  O141  1  0.573000  0.379500  0.792500  1.0  -0.5285
  O  O142  1  0.471300  0.345400  0.697900  1.0  -0.6269
  O  O143  1  0.259800  0.354400  0.762600  1.0  -0.6826
  O  O144  1  0.138800  0.435400  0.800400  1.0  -0.4997
  O  O145  1  0.826800  0.687100  0.785100  1.0  -0.5883
  O  O146  1  0.740400  0.792000  0.804800  1.0  -0.6104
  O  O147  1  0.031200  0.777400  0.791000  1.0  -0.5559
  O  O148  1  0.153100  0.805300  0.877400  1.0  -0.6662
  O  O149  1  0.073000  0.707500  0.120500  1.0  -0.5299
  O  O150  1  0.971300  0.802100  0.154600  1.0  -0.6242
  O  O151  1  0.759800  0.737400  0.145600  1.0  -0.6823
  O  O152  1  0.638800  0.699600  0.064600  1.0  -0.5004
  O  O153  1  0.826800  0.312900  0.214900  1.0  -0.5895
  O  O154  1  0.740400  0.208000  0.195200  1.0  -0.6105
  O  O155  1  0.031200  0.222600  0.209000  1.0  -0.5557
  O  O156  1  0.153100  0.194700  0.122600  1.0  -0.6633
  O  O157  1  0.073000  0.292500  0.879500  1.0  -0.5295
  O  O158  1  0.971300  0.197900  0.845400  1.0  -0.6255
  O  O159  1  0.759800  0.262600  0.854400  1.0  -0.6827
  O  O160  1  0.638800  0.300400  0.935400  1.0  -0.4998
  O  O161  1  0.326800  0.785100  0.312900  1.0  -0.5896
  O  O162  1  0.240400  0.804800  0.208000  1.0  -0.6112
  O  O163  1  0.531200  0.791000  0.222600  1.0  -0.557
  O  O164  1  0.653100  0.877400  0.194700  1.0  -0.6672
  O  O165  1  0.573000  0.120500  0.292500  1.0  -0.5286
  O  O166  1  0.471300  0.154600  0.197900  1.0  -0.6256
  O  O167  1  0.259800  0.145600  0.262600  1.0  -0.6821
  O  O168  1  0.138800  0.064600  0.300400  1.0  -0.4986
  O  O169  1  0.326800  0.214900  0.687100  1.0  -0.5882
  O  O170  1  0.240400  0.195200  0.792000  1.0  -0.6115
  O  O171  1  0.531200  0.209000  0.777400  1.0  -0.5575
  O  O172  1  0.653100  0.122600  0.805300  1.0  -0.6646
  O  O173  1  0.573000  0.879500  0.707500  1.0  -0.5284
  O  O174  1  0.471300  0.845400  0.802100  1.0  -0.6261
  O  O175  1  0.259800  0.854400  0.737400  1.0  -0.6829
  O  O176  1  0.138800  0.935400  0.699600  1.0  -0.5003
