# generated using pymatgen
data_Zn2CoH35C59NO13
_symmetry_space_group_name_H-M   'P 1'
_cell_length_a   16.98920000
_cell_length_b   20.62710000
_cell_length_c   25.83090000
_cell_angle_alpha   90.00000000
_cell_angle_beta   90.00000000
_cell_angle_gamma   90.00000000
_symmetry_Int_Tables_number   1
_chemical_formula_structural   Zn2CoH35C59NO13
_chemical_formula_sum   'Zn8 Co4 H140 C236 N4 O52'
_cell_volume   9052.12705681
_cell_formula_units_Z   4
loop_
 _symmetry_equiv_pos_site_id
 _symmetry_equiv_pos_as_xyz
  1  'x, y, z'
loop_
 _atom_site_type_symbol
 _atom_site_label
 _atom_site_symmetry_multiplicity
 _atom_site_fract_x
 _atom_site_fract_y
 _atom_site_fract_z
 _atom_site_occupancy
 _atom_site_charge
  Zn  Zn1  1  0.484680  0.838950  0.881470  1.0  1.052
  Zn  Zn2  1  0.015320  0.161050  0.381470  1.0  1.0528
  Zn  Zn3  1  0.484680  0.661050  0.881470  1.0  1.0527
  Zn  Zn4  1  0.015320  0.338950  0.381470  1.0  1.052
  Zn  Zn5  1  0.515320  0.338950  0.118530  1.0  1.0513
  Zn  Zn6  1  0.984680  0.661050  0.618530  1.0  1.0526
  Zn  Zn7  1  0.515320  0.161050  0.118530  1.0  1.0526
  Zn  Zn8  1  0.984680  0.838950  0.618530  1.0  1.0514
  Co  Co9  1  0.368470  0.750000  0.811340  1.0  1.1069
  Co  Co10  1  0.131530  0.250000  0.311340  1.0  1.1088
  Co  Co11  1  0.631530  0.250000  0.188660  1.0  1.1086
  Co  Co12  1  0.868470  0.750000  0.688660  1.0  1.1067
  H  H13  1  0.841700  0.484100  0.496300  1.0  0.102
  H  H14  1  0.719900  0.496900  0.533100  1.0  0.1054
  H  H15  1  0.653900  0.324700  0.474200  1.0  0.1105
  H  H16  1  0.775900  0.313800  0.436800  1.0  0.1032
  H  H17  1  0.623700  0.467900  0.594500  1.0  0.1135
  H  H18  1  0.390400  0.450600  0.578500  1.0  0.1133
  H  H19  1  0.534100  0.378900  0.469800  1.0  0.1122
  H  H20  1  0.583500  0.470000  0.685200  1.0  0.1171
  H  H21  1  0.563400  0.532100  0.756500  1.0  0.1131
  H  H22  1  0.377700  0.616200  0.687000  1.0  0.1031
  H  H23  1  0.395300  0.551400  0.616400  1.0  0.1108
  H  H24  1  0.308400  0.370000  0.550400  1.0  0.1216
  H  H25  1  0.197200  0.347500  0.503500  1.0  0.1097
  H  H26  1  0.318600  0.366900  0.372200  1.0  0.1026
  H  H27  1  0.429200  0.395800  0.418500  1.0  0.1089
  H  H28  1  0.259500  0.655400  0.754800  1.0  0.0903
  H  H29  1  0.178600  0.653200  0.683400  1.0  0.12
  H  H30  1  0.658300  0.515900  0.996300  1.0  0.102
  H  H31  1  0.780100  0.503100  0.033100  1.0  0.1052
  H  H32  1  0.846100  0.675300  0.974200  1.0  0.1108
  H  H33  1  0.724100  0.686200  0.936800  1.0  0.104
  H  H34  1  0.876300  0.532100  0.094500  1.0  0.1134
  H  H35  1  0.109600  0.549400  0.078500  1.0  0.1126
  H  H36  1  0.965900  0.621100  0.969800  1.0  0.1119
  H  H37  1  0.916500  0.530000  0.185200  1.0  0.1179
  H  H38  1  0.936600  0.467900  0.256500  1.0  0.1127
  H  H39  1  0.122300  0.383800  0.187000  1.0  0.1024
  H  H40  1  0.104700  0.448600  0.116400  1.0  0.1091
  H  H41  1  0.191600  0.630000  0.050400  1.0  0.121
  H  H42  1  0.302800  0.652500  0.003500  1.0  0.1096
  H  H43  1  0.181400  0.633100  0.872200  1.0  0.1027
  H  H44  1  0.070800  0.604200  0.918500  1.0  0.1098
  H  H45  1  0.240500  0.344600  0.254800  1.0  0.0902
  H  H46  1  0.321400  0.346800  0.183400  1.0  0.1201
  H  H47  1  0.841700  0.015900  0.496300  1.0  0.1022
  H  H48  1  0.719900  0.003100  0.533100  1.0  0.1054
  H  H49  1  0.653900  0.175300  0.474200  1.0  0.1109
  H  H50  1  0.775900  0.186200  0.436800  1.0  0.1032
  H  H51  1  0.623700  0.032100  0.594500  1.0  0.1131
  H  H52  1  0.390400  0.049400  0.578500  1.0  0.1128
  H  H53  1  0.534100  0.121100  0.469800  1.0  0.1117
  H  H54  1  0.583500  0.030000  0.685200  1.0  0.1174
  H  H55  1  0.563400  0.967900  0.756500  1.0  0.1125
  H  H56  1  0.377700  0.883800  0.687000  1.0  0.1028
  H  H57  1  0.395300  0.948600  0.616400  1.0  0.1104
  H  H58  1  0.308400  0.130000  0.550400  1.0  0.1215
  H  H59  1  0.197200  0.152500  0.503500  1.0  0.1098
  H  H60  1  0.318600  0.133100  0.372200  1.0  0.1026
  H  H61  1  0.429200  0.104200  0.418500  1.0  0.1095
  H  H62  1  0.259500  0.844600  0.754800  1.0  0.0903
  H  H63  1  0.178600  0.846800  0.683400  1.0  0.1202
  H  H64  1  0.658300  0.984100  0.996300  1.0  0.1018
  H  H65  1  0.780100  0.996900  0.033100  1.0  0.1052
  H  H66  1  0.846100  0.824700  0.974200  1.0  0.1106
  H  H67  1  0.724100  0.813800  0.936800  1.0  0.1037
  H  H68  1  0.876300  0.967900  0.094500  1.0  0.1139
  H  H69  1  0.109600  0.950600  0.078500  1.0  0.1133
  H  H70  1  0.965900  0.878900  0.969800  1.0  0.1125
  H  H71  1  0.916500  0.970000  0.185200  1.0  0.1173
  H  H72  1  0.936600  0.032100  0.256500  1.0  0.1134
  H  H73  1  0.122300  0.116200  0.187000  1.0  0.1023
  H  H74  1  0.104700  0.051400  0.116400  1.0  0.1092
  H  H75  1  0.191600  0.870000  0.050400  1.0  0.1209
  H  H76  1  0.302800  0.847500  0.003500  1.0  0.1096
  H  H77  1  0.181400  0.866900  0.872200  1.0  0.1027
  H  H78  1  0.070800  0.895800  0.918500  1.0  0.1091
  H  H79  1  0.240500  0.155400  0.254800  1.0  0.0903
  H  H80  1  0.321400  0.153200  0.183400  1.0  0.12
  H  H81  1  0.140000  0.750000  0.646200  1.0  0.1078
  H  H82  1  0.360000  0.250000  0.146200  1.0  0.1091
  H  H83  1  0.158300  0.984100  0.503700  1.0  0.102
  H  H84  1  0.280100  0.996900  0.466900  1.0  0.105
  H  H85  1  0.346100  0.824700  0.525800  1.0  0.1105
  H  H86  1  0.224100  0.813800  0.563200  1.0  0.1046
  H  H87  1  0.376300  0.967900  0.405500  1.0  0.1134
  H  H88  1  0.609600  0.950600  0.421500  1.0  0.1128
  H  H89  1  0.465900  0.878900  0.530200  1.0  0.1121
  H  H90  1  0.416500  0.970000  0.314800  1.0  0.1178
  H  H91  1  0.436600  0.032100  0.243500  1.0  0.1131
  H  H92  1  0.622300  0.116200  0.313000  1.0  0.1023
  H  H93  1  0.604700  0.051400  0.383600  1.0  0.1095
  H  H94  1  0.691600  0.870000  0.449600  1.0  0.1216
  H  H95  1  0.802800  0.847500  0.496500  1.0  0.1097
  H  H96  1  0.681400  0.866900  0.627800  1.0  0.1027
  H  H97  1  0.570800  0.895800  0.581500  1.0  0.1095
  H  H98  1  0.740500  0.155400  0.245200  1.0  0.0898
  H  H99  1  0.821400  0.153200  0.316600  1.0  0.1203
  H  H100  1  0.341700  0.015900  0.003700  1.0  0.1022
  H  H101  1  0.219900  0.003100  0.966900  1.0  0.1056
  H  H102  1  0.153900  0.175300  0.025800  1.0  0.1109
  H  H103  1  0.275900  0.186200  0.063200  1.0  0.1034
  H  H104  1  0.123700  0.032100  0.905500  1.0  0.1131
  H  H105  1  0.890400  0.049400  0.921500  1.0  0.1118
  H  H106  1  0.034100  0.121100  0.030200  1.0  0.1112
  H  H107  1  0.083500  0.030000  0.814800  1.0  0.118
  H  H108  1  0.063400  0.967900  0.743500  1.0  0.1128
  H  H109  1  0.877700  0.883800  0.813000  1.0  0.1031
  H  H110  1  0.895300  0.948600  0.883600  1.0  0.1091
  H  H111  1  0.808400  0.130000  0.949600  1.0  0.1213
  H  H112  1  0.697200  0.152500  0.996500  1.0  0.1093
  H  H113  1  0.818600  0.133100  0.127800  1.0  0.1026
  H  H114  1  0.929200  0.104200  0.081500  1.0  0.1102
  H  H115  1  0.759500  0.844600  0.745200  1.0  0.09
  H  H116  1  0.678600  0.846800  0.816600  1.0  0.1205
  H  H117  1  0.158300  0.515900  0.503700  1.0  0.1019
  H  H118  1  0.280100  0.503100  0.466900  1.0  0.1049
  H  H119  1  0.346100  0.675300  0.525800  1.0  0.1109
  H  H120  1  0.224100  0.686200  0.563200  1.0  0.1042
  H  H121  1  0.376300  0.532100  0.405500  1.0  0.1128
  H  H122  1  0.609600  0.549400  0.421500  1.0  0.1124
  H  H123  1  0.465900  0.621100  0.530200  1.0  0.1113
  H  H124  1  0.416500  0.530000  0.314800  1.0  0.1183
  H  H125  1  0.436600  0.467900  0.243500  1.0  0.1128
  H  H126  1  0.622300  0.383800  0.313000  1.0  0.1028
  H  H127  1  0.604700  0.448600  0.383600  1.0  0.1096
  H  H128  1  0.691600  0.630000  0.449600  1.0  0.1218
  H  H129  1  0.802800  0.652500  0.496500  1.0  0.1101
  H  H130  1  0.681400  0.633100  0.627800  1.0  0.1025
  H  H131  1  0.570800  0.604200  0.581500  1.0  0.1098
  H  H132  1  0.740500  0.344600  0.245200  1.0  0.0901
  H  H133  1  0.821400  0.346800  0.316600  1.0  0.1199
  H  H134  1  0.341700  0.484100  0.003700  1.0  0.1023
  H  H135  1  0.219900  0.496900  0.966900  1.0  0.1055
  H  H136  1  0.153900  0.324700  0.025800  1.0  0.1103
  H  H137  1  0.275900  0.313800  0.063200  1.0  0.1035
  H  H138  1  0.123700  0.467900  0.905500  1.0  0.1133
  H  H139  1  0.890400  0.450600  0.921500  1.0  0.1123
  H  H140  1  0.034100  0.378900  0.030200  1.0  0.1118
  H  H141  1  0.083500  0.470000  0.814800  1.0  0.1177
  H  H142  1  0.063400  0.532100  0.743500  1.0  0.1131
  H  H143  1  0.877700  0.616200  0.813000  1.0  0.103
  H  H144  1  0.895300  0.551400  0.883600  1.0  0.1092
  H  H145  1  0.808400  0.370000  0.949600  1.0  0.1211
  H  H146  1  0.697200  0.347500  0.996500  1.0  0.1089
  H  H147  1  0.818600  0.366900  0.127800  1.0  0.1028
  H  H148  1  0.929200  0.395800  0.081500  1.0  0.1099
  H  H149  1  0.759500  0.655400  0.745200  1.0  0.0897
  H  H150  1  0.678600  0.653200  0.816600  1.0  0.1198
  H  H151  1  0.860000  0.250000  0.353800  1.0  0.1109
  H  H152  1  0.640000  0.750000  0.853800  1.0  0.1093
  C  C153  1  0.900500  0.390900  0.437600  1.0  0.6771
  C  C154  1  0.822100  0.398500  0.462980  1.0  -0.1305
  C  C155  1  0.803800  0.452100  0.491600  1.0  -0.0387
  C  C156  1  0.730700  0.460000  0.513780  1.0  -0.1372
  C  C157  1  0.672300  0.412300  0.507350  1.0  0.049
  C  C158  1  0.691200  0.357300  0.478530  1.0  -0.1328
  C  C159  1  0.764500  0.350500  0.456330  1.0  -0.0389
  C  C160  1  0.591900  0.420900  0.529250  1.0  0.0107
  C  C161  1  0.580300  0.453600  0.575700  1.0  -0.0923
  C  C162  1  0.505000  0.465400  0.594400  1.0  -0.0074
  C  C163  1  0.440900  0.442800  0.566200  1.0  -0.1407
  C  C164  1  0.450500  0.408700  0.519940  1.0  0.0397
  C  C165  1  0.526600  0.399600  0.501370  1.0  -0.1257
  C  C166  1  0.491800  0.503300  0.642300  1.0  0.057
  C  C167  1  0.541700  0.499200  0.685640  1.0  -0.1121
  C  C168  1  0.530300  0.536800  0.728130  1.0  -0.0522
  C  C169  1  0.469600  0.582200  0.729800  1.0  -0.1238
  C  C170  1  0.419000  0.586600  0.686600  1.0  -0.053
  C  C171  1  0.429700  0.548000  0.644340  1.0  -0.1119
  C  C172  1  0.457900  0.626400  0.774830  1.0  0.7216
  C  C173  1  0.381200  0.388100  0.489970  1.0  0.0673
  C  C174  1  0.310500  0.371100  0.514480  1.0  -0.1345
  C  C175  1  0.244200  0.356100  0.486370  1.0  -0.0636
  C  C176  1  0.247000  0.353500  0.432980  1.0  -0.143
  C  C177  1  0.316400  0.368400  0.408120  1.0  -0.0181
  C  C178  1  0.382900  0.385700  0.435970  1.0  -0.1163
  C  C179  1  0.175600  0.338300  0.402000  1.0  0.7229
  C  C180  1  0.244400  0.694400  0.739550  1.0  0.1581
  C  C181  1  0.195300  0.692500  0.697060  1.0  -0.0993
  C  C182  1  0.599500  0.609100  0.937600  1.0  0.6783
  C  C183  1  0.677900  0.601500  0.962980  1.0  -0.1325
  C  C184  1  0.696200  0.547900  0.991600  1.0  -0.0392
  C  C185  1  0.769300  0.540000  0.013780  1.0  -0.1365
  C  C186  1  0.827700  0.587700  0.007350  1.0  0.0495
  C  C187  1  0.808800  0.642700  0.978530  1.0  -0.1333
  C  C188  1  0.735500  0.649500  0.956330  1.0  -0.0392
  C  C189  1  0.908100  0.579100  0.029250  1.0  0.0098
  C  C190  1  0.919700  0.546400  0.075700  1.0  -0.0956
  C  C191  1  0.995000  0.534600  0.094400  1.0  -0.007
  C  C192  1  0.059100  0.557200  0.066200  1.0  -0.1369
  C  C193  1  0.049500  0.591300  0.019940  1.0  0.0378
  C  C194  1  0.973400  0.600400  0.001370  1.0  -0.1236
  C  C195  1  0.008200  0.496700  0.142300  1.0  0.0548
  C  C196  1  0.958300  0.500800  0.185640  1.0  -0.1129
  C  C197  1  0.969700  0.463200  0.228130  1.0  -0.0519
  C  C198  1  0.030400  0.417800  0.229800  1.0  -0.1232
  C  C199  1  0.081000  0.413400  0.186600  1.0  -0.0539
  C  C200  1  0.070300  0.452000  0.144340  1.0  -0.112
  C  C201  1  0.042100  0.373600  0.274830  1.0  0.7207
  C  C202  1  0.118800  0.611900  0.989970  1.0  0.0684
  C  C203  1  0.189500  0.628900  0.014480  1.0  -0.1349
  C  C204  1  0.255800  0.643900  0.986370  1.0  -0.0644
  C  C205  1  0.253000  0.646500  0.932980  1.0  -0.1425
  C  C206  1  0.183600  0.631600  0.908120  1.0  -0.0191
  C  C207  1  0.117100  0.614300  0.935970  1.0  -0.1143
  C  C208  1  0.324400  0.661700  0.902000  1.0  0.7223
  C  C209  1  0.255600  0.305600  0.239550  1.0  0.1564
  C  C210  1  0.304700  0.307500  0.197060  1.0  -0.0902
  C  C211  1  0.900500  0.109100  0.437600  1.0  0.6781
  C  C212  1  0.822100  0.101500  0.462980  1.0  -0.1306
  C  C213  1  0.803800  0.047900  0.491600  1.0  -0.0404
  C  C214  1  0.730700  0.040000  0.513780  1.0  -0.1373
  C  C215  1  0.672300  0.087700  0.507350  1.0  0.049
  C  C216  1  0.691200  0.142700  0.478530  1.0  -0.1338
  C  C217  1  0.764500  0.149500  0.456330  1.0  -0.0391
  C  C218  1  0.591900  0.079100  0.529250  1.0  0.0108
  C  C219  1  0.580300  0.046400  0.575700  1.0  -0.0927
  C  C220  1  0.505000  0.034600  0.594400  1.0  -0.0071
  C  C221  1  0.440900  0.057200  0.566200  1.0  -0.1403
  C  C222  1  0.450500  0.091300  0.519940  1.0  0.0385
  C  C223  1  0.526600  0.100400  0.501370  1.0  -0.1242
  C  C224  1  0.491800  0.996700  0.642300  1.0  0.0552
  C  C225  1  0.541700  0.000800  0.685640  1.0  -0.1101
  C  C226  1  0.530300  0.963200  0.728130  1.0  -0.0514
  C  C227  1  0.469600  0.917800  0.729800  1.0  -0.1236
  C  C228  1  0.419000  0.913400  0.686600  1.0  -0.0534
  C  C229  1  0.429700  0.952000  0.644340  1.0  -0.1115
  C  C230  1  0.457900  0.873600  0.774830  1.0  0.7209
  C  C231  1  0.381200  0.111900  0.489970  1.0  0.0679
  C  C232  1  0.310500  0.128900  0.514480  1.0  -0.1354
  C  C233  1  0.244200  0.143900  0.486370  1.0  -0.0647
  C  C234  1  0.247000  0.146500  0.432980  1.0  -0.1423
  C  C235  1  0.316400  0.131600  0.408120  1.0  -0.0194
  C  C236  1  0.382900  0.114300  0.435970  1.0  -0.1157
  C  C237  1  0.175600  0.161700  0.402000  1.0  0.7223
  C  C238  1  0.244400  0.805600  0.739550  1.0  0.1567
  C  C239  1  0.195300  0.807500  0.697060  1.0  -0.0957
  C  C240  1  0.599500  0.890900  0.937600  1.0  0.6823
  C  C241  1  0.677900  0.898500  0.962980  1.0  -0.1321
  C  C242  1  0.696200  0.952100  0.991600  1.0  -0.0398
  C  C243  1  0.769300  0.960000  0.013780  1.0  -0.1369
  C  C244  1  0.827700  0.912300  0.007350  1.0  0.0493
  C  C245  1  0.808800  0.857300  0.978530  1.0  -0.1332
  C  C246  1  0.735500  0.850500  0.956330  1.0  -0.0394
  C  C247  1  0.908100  0.920900  0.029250  1.0  0.0095
  C  C248  1  0.919700  0.953600  0.075700  1.0  -0.0944
  C  C249  1  0.995000  0.965400  0.094400  1.0  -0.0071
  C  C250  1  0.059100  0.942800  0.066200  1.0  -0.1379
  C  C251  1  0.049500  0.908700  0.019940  1.0  0.039
  C  C252  1  0.973400  0.899600  0.001370  1.0  -0.1257
  C  C253  1  0.008200  0.003300  0.142300  1.0  0.0566
  C  C254  1  0.958300  0.999200  0.185640  1.0  -0.1132
  C  C255  1  0.969700  0.036800  0.228130  1.0  -0.0515
  C  C256  1  0.030400  0.082200  0.229800  1.0  -0.1234
  C  C257  1  0.081000  0.086600  0.186600  1.0  -0.0534
  C  C258  1  0.070300  0.048000  0.144340  1.0  -0.1118
  C  C259  1  0.042100  0.126400  0.274830  1.0  0.7211
  C  C260  1  0.118800  0.888100  0.989970  1.0  0.068
  C  C261  1  0.189500  0.871100  0.014480  1.0  -0.1349
  C  C262  1  0.255800  0.856100  0.986370  1.0  -0.0635
  C  C263  1  0.253000  0.853500  0.932980  1.0  -0.1425
  C  C264  1  0.183600  0.868400  0.908120  1.0  -0.0177
  C  C265  1  0.117100  0.885700  0.935970  1.0  -0.1146
  C  C266  1  0.324400  0.838300  0.902000  1.0  0.7227
  C  C267  1  0.255600  0.194400  0.239550  1.0  0.1576
  C  C268  1  0.304700  0.192500  0.197060  1.0  -0.0921
  C  C269  1  0.171800  0.750000  0.675400  1.0  -0.0798
  C  C270  1  0.328200  0.250000  0.175400  1.0  -0.0737
  C  C271  1  0.099500  0.890900  0.562400  1.0  0.678
  C  C272  1  0.177900  0.898500  0.537020  1.0  -0.1318
  C  C273  1  0.196200  0.952100  0.508400  1.0  -0.0407
  C  C274  1  0.269300  0.960000  0.486220  1.0  -0.1371
  C  C275  1  0.327700  0.912300  0.492650  1.0  0.0486
  C  C276  1  0.308800  0.857300  0.521470  1.0  -0.1315
  C  C277  1  0.235500  0.850500  0.543670  1.0  -0.0387
  C  C278  1  0.408100  0.920900  0.470750  1.0  0.0082
  C  C279  1  0.419700  0.953600  0.424300  1.0  -0.0941
  C  C280  1  0.495000  0.965400  0.405600  1.0  -0.0083
  C  C281  1  0.559100  0.942800  0.433800  1.0  -0.1394
  C  C282  1  0.549500  0.908700  0.480060  1.0  0.0392
  C  C283  1  0.473400  0.899600  0.498630  1.0  -0.1248
  C  C284  1  0.508200  0.003300  0.357700  1.0  0.0556
  C  C285  1  0.458300  0.999200  0.314360  1.0  -0.1122
  C  C286  1  0.469700  0.036800  0.271870  1.0  -0.0516
  C  C287  1  0.530400  0.082200  0.270200  1.0  -0.1223
  C  C288  1  0.581000  0.086600  0.313400  1.0  -0.0532
  C  C289  1  0.570300  0.048000  0.355660  1.0  -0.1107
  C  C290  1  0.542100  0.126400  0.225170  1.0  0.722
  C  C291  1  0.618800  0.888100  0.510030  1.0  0.0683
  C  C292  1  0.689500  0.871100  0.485520  1.0  -0.1334
  C  C293  1  0.755800  0.856100  0.513630  1.0  -0.0633
  C  C294  1  0.753000  0.853500  0.567020  1.0  -0.143
  C  C295  1  0.683600  0.868400  0.591880  1.0  -0.0191
  C  C296  1  0.617100  0.885700  0.564030  1.0  -0.1137
  C  C297  1  0.824400  0.838300  0.598000  1.0  0.7219
  C  C298  1  0.755600  0.194400  0.260450  1.0  0.157
  C  C299  1  0.804700  0.192500  0.302940  1.0  -0.0932
  C  C300  1  0.400500  0.109100  0.062400  1.0  0.6779
  C  C301  1  0.322100  0.101500  0.037020  1.0  -0.1309
  C  C302  1  0.303800  0.047900  0.008400  1.0  -0.0408
  C  C303  1  0.230700  0.040000  0.986220  1.0  -0.1373
  C  C304  1  0.172300  0.087700  0.992650  1.0  0.0486
  C  C305  1  0.191200  0.142700  0.021470  1.0  -0.1334
  C  C306  1  0.264500  0.149500  0.043670  1.0  -0.0395
  C  C307  1  0.091900  0.079100  0.970750  1.0  0.0103
  C  C308  1  0.080300  0.046400  0.924300  1.0  -0.0948
  C  C309  1  0.005000  0.034600  0.905600  1.0  -0.0061
  C  C310  1  0.940900  0.057200  0.933800  1.0  -0.1394
  C  C311  1  0.950500  0.091300  0.980060  1.0  0.0387
  C  C312  1  0.026600  0.100400  0.998630  1.0  -0.1239
  C  C313  1  0.991800  0.996700  0.857700  1.0  0.0559
  C  C314  1  0.041700  0.000800  0.814360  1.0  -0.1138
  C  C315  1  0.030300  0.963200  0.771870  1.0  -0.0533
  C  C316  1  0.969600  0.917800  0.770200  1.0  -0.1236
  C  C317  1  0.919000  0.913400  0.813400  1.0  -0.0529
  C  C318  1  0.929700  0.952000  0.855660  1.0  -0.1102
  C  C319  1  0.957900  0.873600  0.725170  1.0  0.721
  C  C320  1  0.881200  0.111900  0.010030  1.0  0.0685
  C  C321  1  0.810500  0.128900  0.985520  1.0  -0.1322
  C  C322  1  0.744200  0.143900  0.013630  1.0  -0.0679
  C  C323  1  0.747000  0.146500  0.067020  1.0  -0.1423
  C  C324  1  0.816400  0.131600  0.091880  1.0  -0.0188
  C  C325  1  0.882900  0.114300  0.064030  1.0  -0.1138
  C  C326  1  0.675600  0.161700  0.098000  1.0  0.7217
  C  C327  1  0.744400  0.805600  0.760450  1.0  0.1577
  C  C328  1  0.695300  0.807500  0.802940  1.0  -0.0963
  C  C329  1  0.099500  0.609100  0.562400  1.0  0.6779
  C  C330  1  0.177900  0.601500  0.537020  1.0  -0.1321
  C  C331  1  0.196200  0.547900  0.508400  1.0  -0.039
  C  C332  1  0.269300  0.540000  0.486220  1.0  -0.1362
  C  C333  1  0.327700  0.587700  0.492650  1.0  0.0491
  C  C334  1  0.308800  0.642700  0.521470  1.0  -0.1333
  C  C335  1  0.235500  0.649500  0.543670  1.0  -0.0393
  C  C336  1  0.408100  0.579100  0.470750  1.0  0.0092
  C  C337  1  0.419700  0.546400  0.424300  1.0  -0.095
  C  C338  1  0.495000  0.534600  0.405600  1.0  -0.006
  C  C339  1  0.559100  0.557200  0.433800  1.0  -0.1381
  C  C340  1  0.549500  0.591300  0.480060  1.0  0.038
  C  C341  1  0.473400  0.600400  0.498630  1.0  -0.1234
  C  C342  1  0.508200  0.496700  0.357700  1.0  0.055
  C  C343  1  0.458300  0.500800  0.314360  1.0  -0.1151
  C  C344  1  0.469700  0.463200  0.271870  1.0  -0.0525
  C  C345  1  0.530400  0.417800  0.270200  1.0  -0.1231
  C  C346  1  0.581000  0.413400  0.313400  1.0  -0.0536
  C  C347  1  0.570300  0.452000  0.355660  1.0  -0.1106
  C  C348  1  0.542100  0.373600  0.225170  1.0  0.7206
  C  C349  1  0.618800  0.611900  0.510030  1.0  0.069
  C  C350  1  0.689500  0.628900  0.485520  1.0  -0.134
  C  C351  1  0.755800  0.643900  0.513630  1.0  -0.0639
  C  C352  1  0.753000  0.646500  0.567020  1.0  -0.1431
  C  C353  1  0.683600  0.631600  0.591880  1.0  -0.0184
  C  C354  1  0.617100  0.614300  0.564030  1.0  -0.1133
  C  C355  1  0.824400  0.661700  0.598000  1.0  0.7228
  C  C356  1  0.755600  0.305600  0.260450  1.0  0.1573
  C  C357  1  0.804700  0.307500  0.302940  1.0  -0.0912
  C  C358  1  0.400500  0.390900  0.062400  1.0  0.6764
  C  C359  1  0.322100  0.398500  0.037020  1.0  -0.1307
  C  C360  1  0.303800  0.452100  0.008400  1.0  -0.0382
  C  C361  1  0.230700  0.460000  0.986220  1.0  -0.1379
  C  C362  1  0.172300  0.412300  0.992650  1.0  0.0482
  C  C363  1  0.191200  0.357300  0.021470  1.0  -0.1306
  C  C364  1  0.264500  0.350500  0.043670  1.0  -0.0386
  C  C365  1  0.091900  0.420900  0.970750  1.0  0.0096
  C  C366  1  0.080300  0.453600  0.924300  1.0  -0.0941
  C  C367  1  0.005000  0.465400  0.905600  1.0  -0.0085
  C  C368  1  0.940900  0.442800  0.933800  1.0  -0.1406
  C  C369  1  0.950500  0.408700  0.980060  1.0  0.04
  C  C370  1  0.026600  0.399600  0.998630  1.0  -0.1249
  C  C371  1  0.991800  0.503300  0.857700  1.0  0.0562
  C  C372  1  0.041700  0.499200  0.814360  1.0  -0.1125
  C  C373  1  0.030300  0.536800  0.771870  1.0  -0.0539
  C  C374  1  0.969600  0.582200  0.770200  1.0  -0.1225
  C  C375  1  0.919000  0.586600  0.813400  1.0  -0.0526
  C  C376  1  0.929700  0.548000  0.855660  1.0  -0.1108
  C  C377  1  0.957900  0.626400  0.725170  1.0  0.7215
  C  C378  1  0.881200  0.388100  0.010030  1.0  0.0678
  C  C379  1  0.810500  0.371100  0.985520  1.0  -0.1311
  C  C380  1  0.744200  0.356100  0.013630  1.0  -0.0671
  C  C381  1  0.747000  0.353500  0.067020  1.0  -0.143
  C  C382  1  0.816400  0.368400  0.091880  1.0  -0.0193
  C  C383  1  0.882900  0.385700  0.064030  1.0  -0.115
  C  C384  1  0.675600  0.338300  0.098000  1.0  0.7217
  C  C385  1  0.744400  0.694400  0.760450  1.0  0.1576
  C  C386  1  0.695300  0.692500  0.802940  1.0  -0.0983
  C  C387  1  0.828200  0.250000  0.324600  1.0  -0.0742
  C  C388  1  0.671800  0.750000  0.824600  1.0  -0.0798
  N  N389  1  0.271100  0.750000  0.759760  1.0  -0.3144
  N  N390  1  0.228900  0.250000  0.259760  1.0  -0.3146
  N  N391  1  0.728900  0.250000  0.240240  1.0  -0.3145
  N  N392  1  0.771100  0.750000  0.740240  1.0  -0.3153
  O  O393  1  0.912390  0.338130  0.413600  1.0  -0.5927
  O  O394  1  0.951160  0.434030  0.439880  1.0  -0.5525
  O  O395  1  0.488290  0.610070  0.817330  1.0  -0.5789
  O  O396  1  0.418240  0.677720  0.765910  1.0  -0.6139
  O  O397  1  0.108690  0.343630  0.424490  1.0  -0.6099
  O  O398  1  0.183890  0.321030  0.355960  1.0  -0.6209
  O  O399  1  0.587610  0.661870  0.913600  1.0  -0.5938
  O  O400  1  0.548840  0.565970  0.939880  1.0  -0.5532
  O  O401  1  0.011710  0.389930  0.317330  1.0  -0.5819
  O  O402  1  0.081760  0.322280  0.265910  1.0  -0.6133
  O  O403  1  0.391310  0.656370  0.924490  1.0  -0.61
  O  O404  1  0.316110  0.678970  0.855960  1.0  -0.6203
  O  O405  1  0.912390  0.161870  0.413600  1.0  -0.5937
  O  O406  1  0.951160  0.065970  0.439880  1.0  -0.5525
  O  O407  1  0.488290  0.889930  0.817330  1.0  -0.5795
  O  O408  1  0.418240  0.822280  0.765910  1.0  -0.6135
  O  O409  1  0.108690  0.156370  0.424490  1.0  -0.6104
  O  O410  1  0.183890  0.178970  0.355960  1.0  -0.6205
  O  O411  1  0.587610  0.838130  0.913600  1.0  -0.5915
  O  O412  1  0.548840  0.934030  0.939880  1.0  -0.5533
  O  O413  1  0.011710  0.110070  0.317330  1.0  -0.5823
  O  O414  1  0.081760  0.177720  0.265910  1.0  -0.6139
  O  O415  1  0.391310  0.843630  0.924490  1.0  -0.6098
  O  O416  1  0.316110  0.821030  0.855960  1.0  -0.6207
  O  O417  1  0.477790  0.750000  0.851150  1.0  -0.7658
  O  O418  1  0.022210  0.250000  0.351150  1.0  -0.7648
  O  O419  1  0.087610  0.838130  0.586400  1.0  -0.5915
  O  O420  1  0.048840  0.934030  0.560120  1.0  -0.5533
  O  O421  1  0.511710  0.110070  0.182670  1.0  -0.5811
  O  O422  1  0.581760  0.177720  0.234090  1.0  -0.6141
  O  O423  1  0.891310  0.843630  0.575510  1.0  -0.6117
  O  O424  1  0.816110  0.821030  0.644040  1.0  -0.6208
  O  O425  1  0.412390  0.161870  0.086400  1.0  -0.5935
  O  O426  1  0.451160  0.065970  0.060120  1.0  -0.5527
  O  O427  1  0.988290  0.889930  0.682670  1.0  -0.581
  O  O428  1  0.918240  0.822280  0.734090  1.0  -0.614
  O  O429  1  0.608690  0.156370  0.075510  1.0  -0.6115
  O  O430  1  0.683890  0.178970  0.144040  1.0  -0.6205
  O  O431  1  0.087610  0.661870  0.586400  1.0  -0.5939
  O  O432  1  0.048840  0.565970  0.560120  1.0  -0.5536
  O  O433  1  0.511710  0.389930  0.182670  1.0  -0.5834
  O  O434  1  0.581760  0.322280  0.234090  1.0  -0.614
  O  O435  1  0.891310  0.656370  0.575510  1.0  -0.6119
  O  O436  1  0.816110  0.678970  0.644040  1.0  -0.6202
  O  O437  1  0.412390  0.338130  0.086400  1.0  -0.5916
  O  O438  1  0.451160  0.434030  0.060120  1.0  -0.5526
  O  O439  1  0.988290  0.610070  0.682670  1.0  -0.5784
  O  O440  1  0.918240  0.677720  0.734090  1.0  -0.6137
  O  O441  1  0.608690  0.343630  0.075510  1.0  -0.6113
  O  O442  1  0.683890  0.321030  0.144040  1.0  -0.6214
  O  O443  1  0.522210  0.250000  0.148850  1.0  -0.7651
  O  O444  1  0.977790  0.750000  0.648850  1.0  -0.7661
