# generated using pymatgen
data_Zn4H24C42O13
_symmetry_space_group_name_H-M   'P 1'
_cell_length_a   16.99810000
_cell_length_b   16.99810000
_cell_length_c   17.12000000
_cell_angle_alpha   95.49350000
_cell_angle_beta   95.49350000
_cell_angle_gamma   95.76800000
_symmetry_Int_Tables_number   1
_chemical_formula_structural   Zn4H24C42O13
_chemical_formula_sum   'Zn8 H48 C84 O26'
_cell_volume   4871.12725083
_cell_formula_units_Z   2
loop_
 _symmetry_equiv_pos_site_id
 _symmetry_equiv_pos_as_xyz
  1  'x, y, z'
loop_
 _atom_site_type_symbol
 _atom_site_label
 _atom_site_symmetry_multiplicity
 _atom_site_fract_x
 _atom_site_fract_y
 _atom_site_fract_z
 _atom_site_occupancy
 _atom_site_charge
  Zn  Zn1  1  0.903340  0.786150  0.678140  1.0  1.1962
  Zn  Zn2  1  0.785150  0.902600  0.675920  1.0  1.1951
  Zn  Zn3  1  0.915480  0.918650  0.812280  1.0  1.1814
  Zn  Zn4  1  0.783560  0.784650  0.795490  1.0  1.1946
  Zn  Zn5  1  0.213850  0.096660  0.321860  1.0  1.1973
  Zn  Zn6  1  0.097400  0.214850  0.324080  1.0  1.1973
  Zn  Zn7  1  0.081350  0.084520  0.187720  1.0  1.1791
  Zn  Zn8  1  0.215350  0.216440  0.204510  1.0  1.1924
  H  H9  1  0.131110  0.812200  0.628250  1.0  0.1171
  H  H10  1  0.274010  0.811400  0.625380  1.0  0.1165
  H  H11  1  0.314140  0.925500  0.863980  1.0  0.1154
  H  H12  1  0.169760  0.927700  0.866680  1.0  0.1163
  H  H13  1  0.397690  0.908950  0.629430  1.0  0.1176
  H  H14  1  0.539250  0.896490  0.623440  1.0  0.116
  H  H15  1  0.550670  0.800760  0.848350  1.0  0.1159
  H  H16  1  0.409060  0.814400  0.854620  1.0  0.116
  H  H17  1  0.799280  0.952560  0.299760  1.0  0.11
  H  H18  1  0.790000  0.948750  0.441280  1.0  0.1136
  H  H19  1  0.812680  0.131620  0.624980  1.0  0.1169
  H  H20  1  0.811890  0.274630  0.621690  1.0  0.1169
  H  H21  1  0.905030  0.313900  0.867260  1.0  0.117
  H  H22  1  0.906890  0.169720  0.870510  1.0  0.116
  H  H23  1  0.909560  0.398450  0.633450  1.0  0.1197
  H  H24  1  0.900680  0.540650  0.627510  1.0  0.1139
  H  H25  1  0.787100  0.550750  0.842720  1.0  0.1158
  H  H26  1  0.796980  0.408630  0.848920  1.0  0.1161
  H  H27  1  0.906030  0.732670  0.291000  1.0  0.1144
  H  H28  1  0.897920  0.729240  0.432870  1.0  0.1167
  H  H29  1  0.187800  0.868890  0.371750  1.0  0.1175
  H  H30  1  0.188600  0.725990  0.374620  1.0  0.116
  H  H31  1  0.074500  0.685860  0.136020  1.0  0.1155
  H  H32  1  0.072300  0.830240  0.133320  1.0  0.1161
  H  H33  1  0.091050  0.602310  0.370570  1.0  0.1183
  H  H34  1  0.103510  0.460750  0.376560  1.0  0.1171
  H  H35  1  0.199240  0.449330  0.151650  1.0  0.1159
  H  H36  1  0.185600  0.590940  0.145380  1.0  0.1136
  H  H37  1  0.047440  0.200720  0.700240  1.0  0.1113
  H  H38  1  0.051250  0.210000  0.558720  1.0  0.1126
  H  H39  1  0.868380  0.187320  0.375020  1.0  0.1178
  H  H40  1  0.725370  0.188110  0.378310  1.0  0.1179
  H  H41  1  0.686100  0.094970  0.132740  1.0  0.1147
  H  H42  1  0.830280  0.093110  0.129490  1.0  0.1152
  H  H43  1  0.601550  0.090440  0.366550  1.0  0.1204
  H  H44  1  0.459350  0.099320  0.372490  1.0  0.1142
  H  H45  1  0.449250  0.212900  0.157280  1.0  0.1164
  H  H46  1  0.591370  0.203020  0.151080  1.0  0.1157
  H  H47  1  0.267330  0.093970  0.709000  1.0  0.1135
  H  H48  1  0.270760  0.102080  0.567130  1.0  0.1149
  H  H49  1  0.810350  0.727340  0.023100  1.0  0.1177
  H  H50  1  0.808700  0.722350  0.165280  1.0  0.1136
  H  H51  1  0.907920  0.967140  0.207370  1.0  0.1088
  H  H52  1  0.911820  0.972690  0.064360  1.0  0.1109
  H  H53  1  0.272660  0.189650  0.976900  1.0  0.1183
  H  H54  1  0.277650  0.191300  0.834720  1.0  0.1149
  H  H55  1  0.032860  0.092080  0.792630  1.0  0.109
  H  H56  1  0.027310  0.088180  0.935640  1.0  0.1103
  C  C57  1  0.050930  0.864120  0.749560  1.0  0.6961
  C  C58  1  0.138780  0.869300  0.748050  1.0  -0.1002
  C  C59  1  0.170170  0.837600  0.680170  1.0  -0.0725
  C  C60  1  0.252180  0.837450  0.678240  1.0  -0.158
  C  C61  1  0.305340  0.867890  0.744530  1.0  0.0752
  C  C62  1  0.274440  0.900890  0.812250  1.0  -0.1568
  C  C63  1  0.191970  0.902480  0.813680  1.0  -0.0702
  C  C64  1  0.392320  0.863020  0.742680  1.0  0.0639
  C  C65  1  0.430530  0.885240  0.677540  1.0  -0.1613
  C  C66  1  0.511590  0.878000  0.674110  1.0  -0.0556
  C  C67  1  0.556300  0.846930  0.735070  1.0  -0.1238
  C  C68  1  0.517900  0.824150  0.800020  1.0  -0.0638
  C  C69  1  0.437050  0.832770  0.804090  1.0  -0.1567
  C  C70  1  0.643230  0.842440  0.732890  1.0  0.7093
  C  C71  1  0.820930  0.903480  0.328200  1.0  -0.1517
  C  C72  1  0.815020  0.900900  0.409210  1.0  -0.0614
  C  C73  1  0.856050  0.051500  0.749300  1.0  0.713
  C  C74  1  0.859290  0.139160  0.748250  1.0  -0.1311
  C  C75  1  0.833250  0.170600  0.678380  1.0  -0.0647
  C  C76  1  0.833210  0.252600  0.676250  1.0  -0.1659
  C  C77  1  0.858050  0.305490  0.744230  1.0  0.0801
  C  C78  1  0.884870  0.274410  0.814130  1.0  -0.169
  C  C79  1  0.886310  0.192070  0.815910  1.0  -0.0669
  C  C80  1  0.854280  0.392470  0.741850  1.0  0.084
  C  C81  1  0.882570  0.431140  0.679340  1.0  -0.159
  C  C82  1  0.877460  0.512550  0.675970  1.0  -0.0616
  C  C83  1  0.842620  0.557060  0.734300  1.0  -0.1158
  C  C84  1  0.813640  0.518150  0.796450  1.0  -0.0616
  C  C85  1  0.820010  0.436980  0.800510  1.0  -0.1508
  C  C86  1  0.840200  0.644220  0.732620  1.0  0.7072
  C  C87  1  0.832370  0.780290  0.062500  1.0  -0.0748
  C  C88  1  0.831710  0.777180  0.144030  1.0  -0.1457
  C  C89  1  0.886970  0.914820  0.167210  1.0  -0.1349
  C  C90  1  0.889440  0.917630  0.085600  1.0  -0.0652
  C  C91  1  0.880190  0.779880  0.323180  1.0  -0.1455
  C  C92  1  0.875620  0.778040  0.404510  1.0  -0.0619
  C  C93  1  0.857630  0.853340  0.944770  1.0  0.7111
  C  C94  1  0.860830  0.850620  0.032010  1.0  -0.1081
  C  C95  1  0.857880  0.844810  0.197410  1.0  0.0629
  C  C96  1  0.853230  0.842810  0.284040  1.0  0.085
  C  C97  1  0.842600  0.838320  0.448650  1.0  -0.1183
  C  C98  1  0.840470  0.838120  0.535780  1.0  0.7156
  C  C99  1  0.135880  0.949070  0.250440  1.0  0.6955
  C  C100  1  0.130700  0.861220  0.251950  1.0  -0.101
  C  C101  1  0.162400  0.829830  0.319830  1.0  -0.0759
  C  C102  1  0.162550  0.747820  0.321760  1.0  -0.1543
  C  C103  1  0.132110  0.694660  0.255470  1.0  0.0757
  C  C104  1  0.099110  0.725560  0.187750  1.0  -0.1574
  C  C105  1  0.097520  0.808030  0.186320  1.0  -0.068
  C  C106  1  0.136980  0.607680  0.257320  1.0  0.0662
  C  C107  1  0.114760  0.569470  0.322460  1.0  -0.1599
  C  C108  1  0.122000  0.488410  0.325890  1.0  -0.056
  C  C109  1  0.153070  0.443700  0.264930  1.0  -0.1234
  C  C110  1  0.175850  0.482100  0.199980  1.0  -0.0622
  C  C111  1  0.167230  0.562950  0.195910  1.0  -0.1542
  C  C112  1  0.157560  0.356770  0.267110  1.0  0.7083
  C  C113  1  0.096520  0.179070  0.671800  1.0  -0.1495
  C  C114  1  0.099100  0.184980  0.590790  1.0  -0.0598
  C  C115  1  0.948500  0.143950  0.250700  1.0  0.7116
  C  C116  1  0.860840  0.140710  0.251750  1.0  -0.1301
  C  C117  1  0.829400  0.166750  0.321620  1.0  -0.0654
  C  C118  1  0.747400  0.166790  0.323750  1.0  -0.1688
  C  C119  1  0.694510  0.141950  0.255770  1.0  0.0799
  C  C120  1  0.725590  0.115130  0.185870  1.0  -0.1727
  C  C121  1  0.807930  0.113690  0.184090  1.0  -0.0677
  C  C122  1  0.607530  0.145720  0.258150  1.0  0.0842
  C  C123  1  0.568860  0.117430  0.320660  1.0  -0.1615
  C  C124  1  0.487450  0.122540  0.324030  1.0  -0.0639
  C  C125  1  0.442940  0.157380  0.265700  1.0  -0.1159
  C  C126  1  0.481850  0.186360  0.203550  1.0  -0.0636
  C  C127  1  0.563020  0.179990  0.199490  1.0  -0.1476
  C  C128  1  0.355780  0.159800  0.267380  1.0  0.7081
  C  C129  1  0.219710  0.167630  0.937500  1.0  -0.0708
  C  C130  1  0.222820  0.168290  0.855970  1.0  -0.1452
  C  C131  1  0.085180  0.113030  0.832790  1.0  -0.1339
  C  C132  1  0.082370  0.110560  0.914400  1.0  -0.066
  C  C133  1  0.220120  0.119810  0.676820  1.0  -0.1405
  C  C134  1  0.221960  0.124380  0.595490  1.0  -0.0582
  C  C135  1  0.146660  0.142370  0.055230  1.0  0.7117
  C  C136  1  0.149380  0.139170  0.967990  1.0  -0.1039
  C  C137  1  0.155190  0.142120  0.802590  1.0  0.0619
  C  C138  1  0.157190  0.146770  0.715960  1.0  0.0839
  C  C139  1  0.161680  0.157400  0.551350  1.0  -0.1177
  C  C140  1  0.161880  0.159530  0.464220  1.0  0.7152
  O  O141  1  0.019820  0.909640  0.798700  1.0  -0.6089
  O  O142  1  0.007940  0.813040  0.700260  1.0  -0.6404
  O  O143  1  0.679310  0.798810  0.777630  1.0  -0.6373
  O  O144  1  0.885730  0.681960  0.690750  1.0  -0.6304
  O  O145  1  0.884170  0.795060  0.573640  1.0  -0.6271
  O  O146  1  0.900070  0.021560  0.800540  1.0  -0.6173
  O  O147  1  0.808960  0.007510  0.697210  1.0  -0.6256
  O  O148  1  0.794590  0.680310  0.774900  1.0  -0.633
  O  O149  1  0.680790  0.884410  0.687820  1.0  -0.6341
  O  O150  1  0.796970  0.882840  0.571920  1.0  -0.6308
  O  O151  1  0.847180  0.848270  0.740800  1.0  -1.3611
  O  O152  1  0.903840  0.903760  0.915400  1.0  -0.6343
  O  O153  1  0.807710  0.804010  0.900390  1.0  -0.6346
  O  O154  1  0.090360  0.980180  0.201300  1.0  -0.6078
  O  O155  1  0.186960  0.992060  0.299740  1.0  -0.6402
  O  O156  1  0.201190  0.320690  0.222370  1.0  -0.6348
  O  O157  1  0.318040  0.114270  0.309250  1.0  -0.6314
  O  O158  1  0.204940  0.115830  0.426360  1.0  -0.6264
  O  O159  1  0.978440  0.099930  0.199460  1.0  -0.6166
  O  O160  1  0.992490  0.191040  0.302790  1.0  -0.6272
  O  O161  1  0.319690  0.205410  0.225100  1.0  -0.6352
  O  O162  1  0.115590  0.319210  0.312180  1.0  -0.6319
  O  O163  1  0.117160  0.203030  0.428080  1.0  -0.6306
  O  O164  1  0.151730  0.152820  0.259200  1.0  -1.3614
  O  O165  1  0.096240  0.096160  0.084600  1.0  -0.6335
  O  O166  1  0.195990  0.192290  0.099610  1.0  -0.6352
