# generated using pymatgen
data_AlH5C8O5
_symmetry_space_group_name_H-M   'P 1'
_cell_length_a   6.62180000
_cell_length_b   16.21480000
_cell_length_c   13.58860000
_cell_angle_alpha   90.00000000
_cell_angle_beta   90.00000000
_cell_angle_gamma   90.00000000
_symmetry_Int_Tables_number   1
_chemical_formula_structural   AlH5C8O5
_chemical_formula_sum   'Al4 H20 C32 O20'
_cell_volume   1459.02378065
_cell_formula_units_Z   4
loop_
 _symmetry_equiv_pos_site_id
 _symmetry_equiv_pos_as_xyz
  1  'x, y, z'
loop_
 _atom_site_type_symbol
 _atom_site_label
 _atom_site_symmetry_multiplicity
 _atom_site_fract_x
 _atom_site_fract_y
 _atom_site_fract_z
 _atom_site_occupancy
 _atom_site_charge
  Al  Al1  1  0.243890  0.251690  0.751340  1.0  1.8451
  Al  Al2  1  0.744090  0.251750  0.752060  1.0  1.8471
  Al  Al3  1  0.745850  0.751820  0.251530  1.0  1.8469
  Al  Al4  1  0.246010  0.751850  0.251880  1.0  1.8452
  H  H5  1  0.670340  0.058810  0.943420  1.0  0.11
  H  H6  1  0.171220  0.559150  0.442600  1.0  0.1144
  H  H7  1  0.320340  0.442440  0.945360  1.0  0.1123
  H  H8  1  0.821170  0.942680  0.446200  1.0  0.1093
  H  H9  1  0.321220  0.560360  0.058130  1.0  0.1123
  H  H10  1  0.820250  0.061160  0.558130  1.0  0.1109
  H  H11  1  0.671350  0.941660  0.057130  1.0  0.1119
  H  H12  1  0.170270  0.442230  0.556710  1.0  0.1113
  H  H13  1  0.321060  0.942200  0.056680  1.0  0.1117
  H  H14  1  0.819920  0.442160  0.557920  1.0  0.1137
  H  H15  1  0.671540  0.560740  0.058620  1.0  0.1132
  H  H16  1  0.170560  0.060600  0.557650  1.0  0.1094
  H  H17  1  0.670640  0.442950  0.945880  1.0  0.1115
  H  H18  1  0.171450  0.942260  0.445750  1.0  0.1119
  H  H19  1  0.320080  0.059400  0.942920  1.0  0.1127
  H  H20  1  0.820920  0.559090  0.443750  1.0  0.1175
  H  H21  1  0.493290  0.251480  0.867920  1.0  0.4742
  H  H22  1  0.993280  0.252950  0.635560  1.0  0.4725
  H  H23  1  0.995610  0.753420  0.367830  1.0  0.4704
  H  H24  1  0.495630  0.754670  0.135550  1.0  0.475
  C  C25  1  0.813560  0.034380  0.967830  1.0  -0.0701
  C  C26  1  0.314050  0.534640  0.467500  1.0  -0.0707
  C  C27  1  0.177510  0.467400  0.969620  1.0  -0.0695
  C  C28  1  0.677970  0.967560  0.470050  1.0  -0.0752
  C  C29  1  0.178020  0.535550  0.034140  1.0  -0.075
  C  C30  1  0.677450  0.036010  0.534100  1.0  -0.0682
  C  C31  1  0.814160  0.966650  0.032870  1.0  -0.0668
  C  C32  1  0.313460  0.467000  0.532730  1.0  -0.0683
  C  C33  1  0.177860  0.966950  0.032640  1.0  -0.0711
  C  C34  1  0.677140  0.466970  0.533390  1.0  -0.07
  C  C35  1  0.814350  0.535770  0.034410  1.0  -0.0706
  C  C36  1  0.313750  0.035730  0.533830  1.0  -0.0704
  C  C37  1  0.813840  0.467660  0.969910  1.0  -0.0694
  C  C38  1  0.314270  0.967320  0.469810  1.0  -0.0685
  C  C39  1  0.177280  0.034690  0.967550  1.0  -0.0705
  C  C40  1  0.677730  0.534600  0.468110  1.0  -0.077
  C  C41  1  0.996250  0.931670  0.066590  1.0  -0.0997
  C  C42  1  0.996560  0.860120  0.137650  1.0  0.7215
  C  C43  1  0.495020  0.431880  0.566940  1.0  -0.0987
  C  C44  1  0.494440  0.360240  0.637930  1.0  0.7228
  C  C45  1  0.996390  0.571190  0.067560  1.0  -0.1056
  C  C46  1  0.996480  0.643360  0.137810  1.0  0.7167
  C  C47  1  0.495280  0.071530  0.567030  1.0  -0.1041
  C  C48  1  0.494520  0.143690  0.637230  1.0  0.7183
  C  C49  1  0.995360  0.432010  0.936450  1.0  -0.1015
  C  C50  1  0.994560  0.359950  0.866030  1.0  0.726
  C  C51  1  0.496330  0.931810  0.436810  1.0  -0.1014
  C  C52  1  0.496450  0.859730  0.366460  1.0  0.7275
  C  C53  1  0.995110  0.070120  0.934510  1.0  -0.0947
  C  C54  1  0.994490  0.142620  0.864780  1.0  0.7217
  C  C55  1  0.496130  0.570170  0.434530  1.0  -0.0952
  C  C56  1  0.496490  0.642660  0.364750  1.0  0.7244
  O  O57  1  0.166010  0.171840  0.835430  1.0  -0.6515
  O  O58  1  0.668250  0.671800  0.335540  1.0  -0.6513
  O  O59  1  0.822580  0.330770  0.837190  1.0  -0.6521
  O  O60  1  0.324780  0.830630  0.337210  1.0  -0.652
  O  O61  1  0.824630  0.672550  0.166860  1.0  -0.6494
  O  O62  1  0.322480  0.172850  0.666040  1.0  -0.6519
  O  O63  1  0.168090  0.831400  0.167460  1.0  -0.6519
  O  O64  1  0.665790  0.331320  0.667750  1.0  -0.6534
  O  O65  1  0.824980  0.830860  0.166710  1.0  -0.6508
  O  O66  1  0.322650  0.331020  0.666790  1.0  -0.6535
  O  O67  1  0.168200  0.672510  0.167040  1.0  -0.651
  O  O68  1  0.665950  0.172720  0.666920  1.0  -0.653
  O  O69  1  0.165900  0.330880  0.836330  1.0  -0.6546
  O  O70  1  0.668010  0.830700  0.337000  1.0  -0.652
  O  O71  1  0.822510  0.172130  0.836410  1.0  -0.6446
  O  O72  1  0.324720  0.672320  0.336260  1.0  -0.6521
  O  O73  1  0.993620  0.252190  0.699000  1.0  -1.1246
  O  O74  1  0.495790  0.752990  0.198970  1.0  -1.1237
  O  O75  1  0.995780  0.752510  0.304400  1.0  -1.1222
  O  O76  1  0.493630  0.251630  0.804460  1.0  -1.1214
