# generated using pymatgen
data_AlH5C8O5
_symmetry_space_group_name_H-M   'P 1'
_cell_length_a   16.24300000
_cell_length_b   6.63520000
_cell_length_c   13.49430000
_cell_angle_alpha   90.00000000
_cell_angle_beta   90.00000000
_cell_angle_gamma   90.00000000
_symmetry_Int_Tables_number   1
_chemical_formula_structural   AlH5C8O5
_chemical_formula_sum   'Al4 H20 C32 O20'
_cell_volume   1454.35565294
_cell_formula_units_Z   4
loop_
 _symmetry_equiv_pos_site_id
 _symmetry_equiv_pos_as_xyz
  1  'x, y, z'
loop_
 _atom_site_type_symbol
 _atom_site_label
 _atom_site_symmetry_multiplicity
 _atom_site_fract_x
 _atom_site_fract_y
 _atom_site_fract_z
 _atom_site_occupancy
 _atom_site_charge
  Al  Al1  1  0.999720  0.000660  0.000690  1.0  1.8407
  Al  Al2  1  0.499260  0.993960  0.501240  1.0  1.8473
  Al  Al3  1  0.999840  0.494800  0.000830  1.0  1.8454
  Al  Al4  1  0.499590  0.494310  0.500470  1.0  1.8463
  H  H5  1  0.185820  0.922190  0.800170  1.0  0.1069
  H  H6  1  0.306390  0.922010  0.691610  1.0  0.1132
  H  H7  1  0.313920  0.069150  0.302190  1.0  0.0996
  H  H8  1  0.195320  0.072620  0.190450  1.0  0.1085
  H  H9  1  0.812540  0.422140  0.200560  1.0  0.1056
  H  H10  1  0.692620  0.422030  0.310160  1.0  0.1138
  H  H11  1  0.686850  0.569110  0.697260  1.0  0.1039
  H  H12  1  0.805400  0.572640  0.809160  1.0  0.1142
  H  H13  1  0.812330  0.070850  0.200270  1.0  0.1058
  H  H14  1  0.692340  0.070770  0.310180  1.0  0.1111
  H  H15  1  0.688690  0.920450  0.699020  1.0  0.1105
  H  H16  1  0.807310  0.923890  0.810900  1.0  0.1066
  H  H17  1  0.186090  0.570860  0.800470  1.0  0.1092
  H  H18  1  0.306720  0.570790  0.691590  1.0  0.1083
  H  H19  1  0.312090  0.420450  0.300510  1.0  0.1108
  H  H20  1  0.193410  0.423840  0.188780  1.0  0.1062
  H  H21  1  0.497410  0.743400  0.617910  1.0  0.4731
  H  H22  1  0.497090  0.243410  0.384040  1.0  0.4694
  H  H23  1  0.002030  0.247300  0.119710  1.0  0.4695
  H  H24  1  0.999350  0.747650  0.885910  1.0  0.37
  C  C25  1  0.211490  0.064950  0.777200  1.0  -0.0734
  C  C26  1  0.280990  0.064820  0.714820  1.0  -0.0758
  C  C27  1  0.288110  0.927140  0.278330  1.0  -0.0749
  C  C28  1  0.219780  0.929180  0.214190  1.0  -0.0729
  C  C29  1  0.786790  0.564950  0.223390  1.0  -0.0729
  C  C30  1  0.717770  0.564820  0.286480  1.0  -0.0723
  C  C31  1  0.712700  0.427120  0.721050  1.0  -0.0736
  C  C32  1  0.781010  0.429160  0.785320  1.0  -0.0751
  C  C33  1  0.786640  0.928090  0.223210  1.0  -0.0744
  C  C34  1  0.717600  0.927980  0.286450  1.0  -0.0734
  C  C35  1  0.713670  0.063980  0.722000  1.0  -0.0713
  C  C36  1  0.782040  0.066000  0.786270  1.0  -0.0743
  C  C37  1  0.211670  0.428110  0.777410  1.0  -0.0733
  C  C38  1  0.281180  0.428010  0.714860  1.0  -0.0752
  C  C39  1  0.287140  0.563920  0.277420  1.0  -0.0755
  C  C40  1  0.218740  0.565950  0.213280  1.0  -0.0723
  C  C41  1  0.175820  0.246320  0.810100  1.0  -0.105
  C  C42  1  0.317250  0.246340  0.682710  1.0  -0.1058
  C  C43  1  0.104380  0.246040  0.881360  1.0  0.7172
  C  C44  1  0.390260  0.245480  0.613850  1.0  0.7172
  C  C45  1  0.322590  0.744690  0.311770  1.0  -0.1081
  C  C46  1  0.183360  0.748730  0.181240  1.0  -0.1002
  C  C47  1  0.393300  0.743450  0.383920  1.0  0.7199
  C  C48  1  0.110280  0.750450  0.112660  1.0  0.6892
  C  C49  1  0.822000  0.746330  0.189690  1.0  -0.1093
  C  C50  1  0.681570  0.746330  0.318800  1.0  -0.1009
  C  C51  1  0.893000  0.746060  0.117800  1.0  0.6925
  C  C52  1  0.608630  0.745470  0.387840  1.0  0.7174
  C  C53  1  0.678060  0.244650  0.687690  1.0  -0.1048
  C  C54  1  0.817370  0.248760  0.818580  1.0  -0.1005
  C  C55  1  0.606700  0.243530  0.616310  1.0  0.7215
  C  C56  1  0.890140  0.250430  0.888010  1.0  0.716
  O  O57  1  0.074920  0.074140  0.910000  1.0  -0.6485
  O  O58  1  0.419530  0.073650  0.585330  1.0  -0.6499
  O  O59  1  0.421510  0.914730  0.414620  1.0  -0.6562
  O  O60  1  0.081110  0.923680  0.083910  1.0  -0.6419
  O  O61  1  0.922250  0.572840  0.089030  1.0  -0.6496
  O  O62  1  0.579360  0.573610  0.416360  1.0  -0.6497
  O  O63  1  0.578140  0.414680  0.586000  1.0  -0.6564
  O  O64  1  0.919320  0.422380  0.916620  1.0  -0.6474
  O  O65  1  0.920560  0.918570  0.086360  1.0  -0.6484
  O  O66  1  0.579150  0.916700  0.416960  1.0  -0.6527
  O  O67  1  0.577710  0.071950  0.587210  1.0  -0.6524
  O  O68  1  0.919730  0.079140  0.916800  1.0  -0.6536
  O  O69  1  0.076990  0.417220  0.913080  1.0  -0.653
  O  O70  1  0.419730  0.416690  0.584710  1.0  -0.6559
  O  O71  1  0.421940  0.571950  0.413390  1.0  -0.6556
  O  O72  1  0.080290  0.577950  0.084290  1.0  -0.647
  O  O73  1  0.001010  0.247360  0.055670  1.0  -1.1229
  O  O74  1  0.498400  0.743800  0.554060  1.0  -1.1216
  O  O75  1  0.999350  0.747650  0.960020  1.0  -0.7835
  O  O76  1  0.498690  0.243810  0.447860  1.0  -1.1251
