# generated using pymatgen
data_Cd2H24C31S3N2
_symmetry_space_group_name_H-M   'P 1'
_cell_length_a   27.15600000
_cell_length_b   26.24200000
_cell_length_c   13.29490000
_cell_angle_alpha   90.00000000
_cell_angle_beta   90.57000000
_cell_angle_gamma   90.00000000
_symmetry_Int_Tables_number   1
_chemical_formula_structural   Cd2H24C31S3N2
_chemical_formula_sum   'Cd16 H192 C248 S24 N16'
_cell_volume   9473.84586652
_cell_formula_units_Z   8
loop_
 _symmetry_equiv_pos_site_id
 _symmetry_equiv_pos_as_xyz
  1  'x, y, z'
loop_
 _atom_site_type_symbol
 _atom_site_label
 _atom_site_symmetry_multiplicity
 _atom_site_fract_x
 _atom_site_fract_y
 _atom_site_fract_z
 _atom_site_occupancy
 _atom_site_charge
  Cd  Cd1  1  0.061740  0.420340  0.178770  1.0  0.7345
  Cd  Cd2  1  0.087050  0.420140  0.874410  1.0  0.6973
  Cd  Cd3  1  0.561740  0.920340  0.178770  1.0  0.7345
  Cd  Cd4  1  0.587050  0.920140  0.874410  1.0  0.6973
  Cd  Cd5  1  0.938260  0.420340  0.821230  1.0  0.7354
  Cd  Cd6  1  0.912950  0.420140  0.125590  1.0  0.6966
  Cd  Cd7  1  0.438260  0.920340  0.821230  1.0  0.7354
  Cd  Cd8  1  0.412950  0.920140  0.125590  1.0  0.6966
  Cd  Cd9  1  0.938260  0.579660  0.821230  1.0  0.7354
  Cd  Cd10  1  0.912950  0.579860  0.125590  1.0  0.6966
  Cd  Cd11  1  0.438260  0.079660  0.821230  1.0  0.7354
  Cd  Cd12  1  0.412950  0.079860  0.125590  1.0  0.6966
  Cd  Cd13  1  0.061740  0.579660  0.178770  1.0  0.734
  Cd  Cd14  1  0.087050  0.579860  0.874410  1.0  0.6974
  Cd  Cd15  1  0.561740  0.079660  0.178770  1.0  0.734
  Cd  Cd16  1  0.587050  0.079860  0.874410  1.0  0.6974
  H  H17  1  0.127200  0.302500  0.837100  1.0  0.0533
  H  H18  1  0.172400  0.407100  0.239700  1.0  0.0432
  H  H19  1  0.120300  0.287900  0.459300  1.0  0.0898
  H  H20  1  0.166300  0.252500  0.720400  1.0  0.1144
  H  H21  1  0.245900  0.258500  0.326600  1.0  0.0893
  H  H22  1  0.230700  0.362600  0.329000  1.0  0.1201
  H  H23  1  0.200500  0.380100  0.571400  1.0  0.1075
  H  H24  1  0.160700  0.425600  0.691700  1.0  0.0584
  H  H25  1  0.065200  0.334700  0.361400  1.0  0.0535
  H  H26  1  0.955700  0.344700  0.424400  1.0  0.0818
  H  H27  1  0.951800  0.258700  0.455600  1.0  0.1014
  H  H28  1  0.967300  0.201400  0.326800  1.0  0.0866
  H  H29  1  0.990500  0.231000  0.168700  1.0  0.0934
  H  H30  1  0.993500  0.317800  0.140800  1.0  0.0711
  H  H31  1  0.182600  0.391000  0.996000  1.0  0.0706
  H  H32  1  0.256400  0.350800  0.025800  1.0  0.0802
  H  H33  1  0.261300  0.274900  0.113200  1.0  0.0918
  H  H34  1  0.187100  0.234300  0.144100  1.0  0.0817
  H  H35  1  0.113500  0.275400  0.121900  1.0  0.0801
  H  H36  1  0.627200  0.802500  0.837100  1.0  0.0533
  H  H37  1  0.672400  0.907100  0.239700  1.0  0.0432
  H  H38  1  0.620300  0.787900  0.459300  1.0  0.0898
  H  H39  1  0.666300  0.752500  0.720400  1.0  0.1144
  H  H40  1  0.745900  0.758500  0.326600  1.0  0.0893
  H  H41  1  0.730700  0.862600  0.329000  1.0  0.1201
  H  H42  1  0.700500  0.880100  0.571400  1.0  0.1075
  H  H43  1  0.660700  0.925600  0.691700  1.0  0.0584
  H  H44  1  0.565200  0.834700  0.361400  1.0  0.0535
  H  H45  1  0.455700  0.844700  0.424400  1.0  0.0818
  H  H46  1  0.451800  0.758700  0.455600  1.0  0.1014
  H  H47  1  0.467300  0.701400  0.326800  1.0  0.0866
  H  H48  1  0.490500  0.731000  0.168700  1.0  0.0934
  H  H49  1  0.493500  0.817800  0.140800  1.0  0.0711
  H  H50  1  0.682600  0.891000  0.996000  1.0  0.0706
  H  H51  1  0.756400  0.850800  0.025800  1.0  0.0802
  H  H52  1  0.761300  0.774900  0.113200  1.0  0.0918
  H  H53  1  0.687100  0.734300  0.144100  1.0  0.0817
  H  H54  1  0.613500  0.775400  0.121900  1.0  0.0801
  H  H55  1  0.872800  0.302500  0.162900  1.0  0.0539
  H  H56  1  0.827600  0.407100  0.760300  1.0  0.043
  H  H57  1  0.879700  0.287900  0.540700  1.0  0.0893
  H  H58  1  0.833700  0.252500  0.279600  1.0  0.1146
  H  H59  1  0.754100  0.258500  0.673400  1.0  0.0895
  H  H60  1  0.769300  0.362600  0.671000  1.0  0.1209
  H  H61  1  0.799500  0.380100  0.428600  1.0  0.1072
  H  H62  1  0.839300  0.425600  0.308300  1.0  0.0589
  H  H63  1  0.934800  0.334700  0.638600  1.0  0.0526
  H  H64  1  0.044300  0.344700  0.575600  1.0  0.0813
  H  H65  1  0.048200  0.258700  0.544400  1.0  0.1011
  H  H66  1  0.032700  0.201400  0.673200  1.0  0.0865
  H  H67  1  0.009500  0.231000  0.831300  1.0  0.0946
  H  H68  1  0.006500  0.317800  0.859200  1.0  0.0714
  H  H69  1  0.817400  0.391000  0.004000  1.0  0.0706
  H  H70  1  0.743600  0.350800  0.974200  1.0  0.0797
  H  H71  1  0.738700  0.274900  0.886800  1.0  0.0922
  H  H72  1  0.812900  0.234300  0.855900  1.0  0.0812
  H  H73  1  0.886500  0.275400  0.878100  1.0  0.0801
  H  H74  1  0.372800  0.802500  0.162900  1.0  0.0539
  H  H75  1  0.327600  0.907100  0.760300  1.0  0.043
  H  H76  1  0.379700  0.787900  0.540700  1.0  0.0893
  H  H77  1  0.333700  0.752500  0.279600  1.0  0.1146
  H  H78  1  0.254100  0.758500  0.673400  1.0  0.0895
  H  H79  1  0.269300  0.862600  0.671000  1.0  0.1209
  H  H80  1  0.299500  0.880100  0.428600  1.0  0.1072
  H  H81  1  0.339300  0.925600  0.308300  1.0  0.0589
  H  H82  1  0.434800  0.834700  0.638600  1.0  0.0526
  H  H83  1  0.544300  0.844700  0.575600  1.0  0.0813
  H  H84  1  0.548200  0.758700  0.544400  1.0  0.1011
  H  H85  1  0.532700  0.701400  0.673200  1.0  0.0865
  H  H86  1  0.509500  0.731000  0.831300  1.0  0.0946
  H  H87  1  0.506500  0.817800  0.859200  1.0  0.0714
  H  H88  1  0.317400  0.891000  0.004000  1.0  0.0706
  H  H89  1  0.243600  0.850800  0.974200  1.0  0.0797
  H  H90  1  0.238700  0.774900  0.886800  1.0  0.0922
  H  H91  1  0.312900  0.734300  0.855900  1.0  0.0812
  H  H92  1  0.386500  0.775400  0.878100  1.0  0.0801
  H  H93  1  0.872800  0.697500  0.162900  1.0  0.0537
  H  H94  1  0.827600  0.592900  0.760300  1.0  0.043
  H  H95  1  0.879700  0.712100  0.540700  1.0  0.0895
  H  H96  1  0.833700  0.747500  0.279600  1.0  0.1141
  H  H97  1  0.754100  0.741500  0.673400  1.0  0.0893
  H  H98  1  0.769300  0.637400  0.671000  1.0  0.1212
  H  H99  1  0.799500  0.619900  0.428600  1.0  0.1074
  H  H100  1  0.839300  0.574400  0.308300  1.0  0.0587
  H  H101  1  0.934800  0.665300  0.638600  1.0  0.0526
  H  H102  1  0.044300  0.655300  0.575600  1.0  0.0812
  H  H103  1  0.048200  0.741300  0.544400  1.0  0.1016
  H  H104  1  0.032700  0.798600  0.673200  1.0  0.0848
  H  H105  1  0.009500  0.769000  0.831300  1.0  0.0946
  H  H106  1  0.006500  0.682200  0.859200  1.0  0.0717
  H  H107  1  0.817400  0.609000  0.004000  1.0  0.0706
  H  H108  1  0.743600  0.649200  0.974200  1.0  0.0812
  H  H109  1  0.738700  0.725100  0.886800  1.0  0.0921
  H  H110  1  0.812900  0.765700  0.855900  1.0  0.081
  H  H111  1  0.886500  0.724600  0.878100  1.0  0.0799
  H  H112  1  0.372800  0.197500  0.162900  1.0  0.0537
  H  H113  1  0.327600  0.092900  0.760300  1.0  0.043
  H  H114  1  0.379700  0.212100  0.540700  1.0  0.0895
  H  H115  1  0.333700  0.247500  0.279600  1.0  0.1141
  H  H116  1  0.254100  0.241500  0.673400  1.0  0.0893
  H  H117  1  0.269300  0.137400  0.671000  1.0  0.1212
  H  H118  1  0.299500  0.119900  0.428600  1.0  0.1074
  H  H119  1  0.339300  0.074400  0.308300  1.0  0.0587
  H  H120  1  0.434800  0.165300  0.638600  1.0  0.0526
  H  H121  1  0.544300  0.155300  0.575600  1.0  0.0812
  H  H122  1  0.548200  0.241300  0.544400  1.0  0.1016
  H  H123  1  0.532700  0.298600  0.673200  1.0  0.086
  H  H124  1  0.509500  0.269000  0.831300  1.0  0.0946
  H  H125  1  0.506500  0.182200  0.859200  1.0  0.0717
  H  H126  1  0.317400  0.109000  0.004000  1.0  0.0706
  H  H127  1  0.243600  0.149200  0.974200  1.0  0.0812
  H  H128  1  0.238700  0.225100  0.886800  1.0  0.0921
  H  H129  1  0.312900  0.265700  0.855900  1.0  0.081
  H  H130  1  0.386500  0.224600  0.878100  1.0  0.0799
  H  H131  1  0.127200  0.697500  0.837100  1.0  0.0531
  H  H132  1  0.172400  0.592900  0.239700  1.0  0.0425
  H  H133  1  0.120300  0.712100  0.459300  1.0  0.0898
  H  H134  1  0.166300  0.747500  0.720400  1.0  0.1141
  H  H135  1  0.245900  0.741500  0.326600  1.0  0.0894
  H  H136  1  0.230700  0.637400  0.329000  1.0  0.1201
  H  H137  1  0.200500  0.619900  0.571400  1.0  0.1073
  H  H138  1  0.160700  0.574400  0.691700  1.0  0.0582
  H  H139  1  0.065200  0.665300  0.361400  1.0  0.0535
  H  H140  1  0.955700  0.655300  0.424400  1.0  0.082
  H  H141  1  0.951800  0.741300  0.455600  1.0  0.1017
  H  H142  1  0.967300  0.798600  0.326800  1.0  0.0846
  H  H143  1  0.990500  0.769000  0.168700  1.0  0.0945
  H  H144  1  0.993500  0.682200  0.140800  1.0  0.0715
  H  H145  1  0.182600  0.609000  0.996000  1.0  0.0702
  H  H146  1  0.256400  0.649200  0.025800  1.0  0.0808
  H  H147  1  0.261300  0.725100  0.113200  1.0  0.0914
  H  H148  1  0.187100  0.765700  0.144100  1.0  0.0813
  H  H149  1  0.113500  0.724600  0.121900  1.0  0.08
  H  H150  1  0.627200  0.197500  0.837100  1.0  0.0531
  H  H151  1  0.672400  0.092900  0.239700  1.0  0.0425
  H  H152  1  0.620300  0.212100  0.459300  1.0  0.0898
  H  H153  1  0.666300  0.247500  0.720400  1.0  0.1141
  H  H154  1  0.745900  0.241500  0.326600  1.0  0.0894
  H  H155  1  0.730700  0.137400  0.329000  1.0  0.1201
  H  H156  1  0.700500  0.119900  0.571400  1.0  0.1073
  H  H157  1  0.660700  0.074400  0.691700  1.0  0.0582
  H  H158  1  0.565200  0.165300  0.361400  1.0  0.0535
  H  H159  1  0.455700  0.155300  0.424400  1.0  0.082
  H  H160  1  0.451800  0.241300  0.455600  1.0  0.1017
  H  H161  1  0.467300  0.298600  0.326800  1.0  0.0859
  H  H162  1  0.490500  0.269000  0.168700  1.0  0.0945
  H  H163  1  0.493500  0.182200  0.140800  1.0  0.0715
  H  H164  1  0.682600  0.109000  0.996000  1.0  0.0702
  H  H165  1  0.756400  0.149200  0.025800  1.0  0.0808
  H  H166  1  0.761300  0.225100  0.113200  1.0  0.0914
  H  H167  1  0.687100  0.265700  0.144100  1.0  0.0813
  H  H168  1  0.613500  0.224600  0.121900  1.0  0.08
  H  H169  1  0.162200  0.500000  0.047000  1.0  0.078
  H  H170  1  0.239200  0.500000  0.131000  1.0  0.1041
  H  H171  1  0.228400  0.500000  0.778400  1.0  0.0844
  H  H172  1  0.306500  0.500000  0.856800  1.0  0.1142
  H  H173  1  0.307700  0.500000  0.029600  1.0  0.1119
  H  H174  1  0.038500  0.500000  0.369800  1.0  0.0483
  H  H175  1  0.036600  0.500000  0.541100  1.0  0.0707
  H  H176  1  0.110700  0.500000  0.623900  1.0  0.0613
  H  H177  1  0.184300  0.500000  0.543500  1.0  0.1012
  H  H178  1  0.180700  0.500000  0.370300  1.0  0.0532
  H  H179  1  0.662200  0.000000  0.047000  1.0  0.078
  H  H180  1  0.739200  0.000000  0.131000  1.0  0.1041
  H  H181  1  0.728400  0.000000  0.778400  1.0  0.0844
  H  H182  1  0.806500  0.000000  0.856800  1.0  0.1148
  H  H183  1  0.807700  0.000000  0.029600  1.0  0.1119
  H  H184  1  0.538500  0.000000  0.369800  1.0  0.0483
  H  H185  1  0.536600  0.000000  0.541100  1.0  0.0707
  H  H186  1  0.610700  0.000000  0.623900  1.0  0.0613
  H  H187  1  0.684300  0.000000  0.543500  1.0  0.1012
  H  H188  1  0.680700  0.000000  0.370300  1.0  0.0532
  H  H189  1  0.837800  0.500000  0.953000  1.0  0.0781
  H  H190  1  0.760800  0.500000  0.869000  1.0  0.105
  H  H191  1  0.771600  0.500000  0.221600  1.0  0.0849
  H  H192  1  0.693500  0.500000  0.143200  1.0  0.1141
  H  H193  1  0.692300  0.500000  0.970400  1.0  0.1112
  H  H194  1  0.961500  0.500000  0.630200  1.0  0.0479
  H  H195  1  0.963400  0.500000  0.458900  1.0  0.0711
  H  H196  1  0.889300  0.500000  0.376100  1.0  0.0606
  H  H197  1  0.815700  0.500000  0.456500  1.0  0.1
  H  H198  1  0.819300  0.500000  0.629700  1.0  0.0532
  H  H199  1  0.337800  0.000000  0.953000  1.0  0.0781
  H  H200  1  0.260800  0.000000  0.869000  1.0  0.105
  H  H201  1  0.271600  0.000000  0.221600  1.0  0.0849
  H  H202  1  0.193500  0.000000  0.143200  1.0  0.115
  H  H203  1  0.192300  0.000000  0.970400  1.0  0.1112
  H  H204  1  0.461500  0.000000  0.630200  1.0  0.0479
  H  H205  1  0.463400  0.000000  0.458900  1.0  0.0711
  H  H206  1  0.389300  0.000000  0.376100  1.0  0.0606
  H  H207  1  0.315700  0.000000  0.456500  1.0  0.1
  H  H208  1  0.319300  0.000000  0.629700  1.0  0.0532
  C  C209  1  0.180500  0.318900  0.405100  1.0  0.0672
  C  C210  1  0.190200  0.311100  0.633100  1.0  0.0703
  C  C211  1  0.142400  0.318300  0.783100  1.0  0.1703
  C  C212  1  0.161700  0.382000  0.283600  1.0  0.156
  C  C213  1  0.132100  0.311800  0.413800  1.0  -0.1676
  C  C214  1  0.166300  0.287800  0.713600  1.0  -0.2404
  C  C215  1  0.248100  0.255600  0.396200  1.0  -0.1156
  C  C216  1  0.218500  0.279100  0.560100  1.0  -0.0048
  C  C217  1  0.197400  0.356000  0.337200  1.0  -0.2456
  C  C218  1  0.186500  0.363200  0.625600  1.0  -0.1707
  C  C219  1  0.162100  0.390300  0.697900  1.0  0.1543
  C  C220  1  0.217200  0.286700  0.459500  1.0  -0.0232
  C  C221  1  0.098800  0.340300  0.354300  1.0  0.1606
  C  C222  1  0.975200  0.340800  0.278100  1.0  -0.0526
  C  C223  1  0.962500  0.321900  0.372900  1.0  -0.0825
  C  C224  1  0.960000  0.270400  0.391900  1.0  -0.1034
  C  C225  1  0.969700  0.236200  0.314900  1.0  -0.1193
  C  C226  1  0.983100  0.253700  0.220000  1.0  -0.1459
  C  C227  1  0.985100  0.305900  0.204300  1.0  -0.0528
  C  C228  1  0.139500  0.337400  0.052900  1.0  -0.0345
  C  C229  1  0.182800  0.359300  0.027300  1.0  -0.1176
  C  C230  1  0.227600  0.335100  0.047000  1.0  -0.1019
  C  C231  1  0.231200  0.289600  0.095800  1.0  -0.1587
  C  C232  1  0.187100  0.267000  0.117200  1.0  -0.1163
  C  C233  1  0.142300  0.291000  0.100500  1.0  -0.0794
  C  C234  1  0.680500  0.818900  0.405100  1.0  0.0672
  C  C235  1  0.690200  0.811100  0.633100  1.0  0.0703
  C  C236  1  0.642400  0.818300  0.783100  1.0  0.1703
  C  C237  1  0.661700  0.882000  0.283600  1.0  0.156
  C  C238  1  0.632100  0.811800  0.413800  1.0  -0.1676
  C  C239  1  0.666300  0.787800  0.713600  1.0  -0.2404
  C  C240  1  0.748100  0.755600  0.396200  1.0  -0.1156
  C  C241  1  0.718500  0.779100  0.560100  1.0  -0.0048
  C  C242  1  0.697400  0.856000  0.337200  1.0  -0.2456
  C  C243  1  0.686500  0.863200  0.625600  1.0  -0.1707
  C  C244  1  0.662100  0.890300  0.697900  1.0  0.1543
  C  C245  1  0.717200  0.786700  0.459500  1.0  -0.0232
  C  C246  1  0.598800  0.840300  0.354300  1.0  0.1606
  C  C247  1  0.475200  0.840800  0.278100  1.0  -0.0526
  C  C248  1  0.462500  0.821900  0.372900  1.0  -0.0825
  C  C249  1  0.460000  0.770400  0.391900  1.0  -0.1034
  C  C250  1  0.469700  0.736200  0.314900  1.0  -0.1193
  C  C251  1  0.483100  0.753700  0.220000  1.0  -0.1459
  C  C252  1  0.485100  0.805900  0.204300  1.0  -0.0528
  C  C253  1  0.639500  0.837400  0.052900  1.0  -0.0345
  C  C254  1  0.682800  0.859300  0.027300  1.0  -0.1176
  C  C255  1  0.727600  0.835100  0.047000  1.0  -0.1019
  C  C256  1  0.731200  0.789600  0.095800  1.0  -0.1587
  C  C257  1  0.687100  0.767000  0.117200  1.0  -0.1163
  C  C258  1  0.642300  0.791000  0.100500  1.0  -0.0794
  C  C259  1  0.819500  0.318900  0.594900  1.0  0.0663
  C  C260  1  0.809800  0.311100  0.366900  1.0  0.0685
  C  C261  1  0.857600  0.318300  0.216900  1.0  0.17
  C  C262  1  0.838300  0.382000  0.716400  1.0  0.1557
  C  C263  1  0.867900  0.311800  0.586200  1.0  -0.1682
  C  C264  1  0.833700  0.287800  0.286400  1.0  -0.2412
  C  C265  1  0.751900  0.255600  0.603800  1.0  -0.1159
  C  C266  1  0.781500  0.279100  0.439900  1.0  -0.0056
  C  C267  1  0.802600  0.356000  0.662800  1.0  -0.2467
  C  C268  1  0.813500  0.363200  0.374400  1.0  -0.17
  C  C269  1  0.837900  0.390300  0.302100  1.0  0.1536
  C  C270  1  0.782800  0.286700  0.540500  1.0  -0.024
  C  C271  1  0.901200  0.340300  0.645700  1.0  0.161
  C  C272  1  0.024800  0.340800  0.721900  1.0  -0.0526
  C  C273  1  0.037500  0.321900  0.627100  1.0  -0.0806
  C  C274  1  0.040000  0.270400  0.608100  1.0  -0.103
  C  C275  1  0.030300  0.236200  0.685100  1.0  -0.1181
  C  C276  1  0.016900  0.253700  0.780000  1.0  -0.1476
  C  C277  1  0.014900  0.305900  0.795700  1.0  -0.0532
  C  C278  1  0.860500  0.337400  0.947100  1.0  -0.0311
  C  C279  1  0.817200  0.359300  0.972700  1.0  -0.118
  C  C280  1  0.772400  0.335100  0.953000  1.0  -0.1024
  C  C281  1  0.768800  0.289600  0.904200  1.0  -0.1601
  C  C282  1  0.812900  0.267000  0.882800  1.0  -0.1164
  C  C283  1  0.857700  0.291000  0.899500  1.0  -0.0781
  C  C284  1  0.319500  0.818900  0.594900  1.0  0.0663
  C  C285  1  0.309800  0.811100  0.366900  1.0  0.0685
  C  C286  1  0.357600  0.818300  0.216900  1.0  0.17
  C  C287  1  0.338300  0.882000  0.716400  1.0  0.1557
  C  C288  1  0.367900  0.811800  0.586200  1.0  -0.1682
  C  C289  1  0.333700  0.787800  0.286400  1.0  -0.2412
  C  C290  1  0.251900  0.755600  0.603800  1.0  -0.1159
  C  C291  1  0.281500  0.779100  0.439900  1.0  -0.0056
  C  C292  1  0.302600  0.856000  0.662800  1.0  -0.2467
  C  C293  1  0.313500  0.863200  0.374400  1.0  -0.17
  C  C294  1  0.337900  0.890300  0.302100  1.0  0.1536
  C  C295  1  0.282800  0.786700  0.540500  1.0  -0.024
  C  C296  1  0.401200  0.840300  0.645700  1.0  0.161
  C  C297  1  0.524800  0.840800  0.721900  1.0  -0.0526
  C  C298  1  0.537500  0.821900  0.627100  1.0  -0.0806
  C  C299  1  0.540000  0.770400  0.608100  1.0  -0.103
  C  C300  1  0.530300  0.736200  0.685100  1.0  -0.1181
  C  C301  1  0.516900  0.753700  0.780000  1.0  -0.1476
  C  C302  1  0.514900  0.805900  0.795700  1.0  -0.0532
  C  C303  1  0.360500  0.837400  0.947100  1.0  -0.0311
  C  C304  1  0.317200  0.859300  0.972700  1.0  -0.118
  C  C305  1  0.272400  0.835100  0.953000  1.0  -0.1024
  C  C306  1  0.268800  0.789600  0.904200  1.0  -0.1601
  C  C307  1  0.312900  0.767000  0.882800  1.0  -0.1164
  C  C308  1  0.357700  0.791000  0.899500  1.0  -0.0781
  C  C309  1  0.819500  0.681100  0.594900  1.0  0.0659
  C  C310  1  0.809800  0.688900  0.366900  1.0  0.0686
  C  C311  1  0.857600  0.681700  0.216900  1.0  0.1701
  C  C312  1  0.838300  0.618000  0.716400  1.0  0.1573
  C  C313  1  0.867900  0.688200  0.586200  1.0  -0.168
  C  C314  1  0.833700  0.712200  0.286400  1.0  -0.2414
  C  C315  1  0.751900  0.744400  0.603800  1.0  -0.1157
  C  C316  1  0.781500  0.720900  0.439900  1.0  -0.0056
  C  C317  1  0.802600  0.644000  0.662800  1.0  -0.2455
  C  C318  1  0.813500  0.636800  0.374400  1.0  -0.17
  C  C319  1  0.837900  0.609700  0.302100  1.0  0.1543
  C  C320  1  0.782800  0.713300  0.540500  1.0  -0.0238
  C  C321  1  0.901200  0.659700  0.645700  1.0  0.1614
  C  C322  1  0.024800  0.659200  0.721900  1.0  -0.0564
  C  C323  1  0.037500  0.678100  0.627100  1.0  -0.0808
  C  C324  1  0.040000  0.729600  0.608100  1.0  -0.1025
  C  C325  1  0.030300  0.763800  0.685100  1.0  -0.11
  C  C326  1  0.016900  0.746300  0.780000  1.0  -0.1472
  C  C327  1  0.014900  0.694100  0.795700  1.0  -0.0529
  C  C328  1  0.860500  0.662600  0.947100  1.0  -0.0305
  C  C329  1  0.817200  0.640700  0.972700  1.0  -0.1174
  C  C330  1  0.772400  0.664900  0.953000  1.0  -0.1025
  C  C331  1  0.768800  0.710400  0.904200  1.0  -0.1602
  C  C332  1  0.812900  0.733000  0.882800  1.0  -0.1151
  C  C333  1  0.857700  0.709000  0.899500  1.0  -0.0793
  C  C334  1  0.319500  0.181100  0.594900  1.0  0.0659
  C  C335  1  0.309800  0.188900  0.366900  1.0  0.0686
  C  C336  1  0.357600  0.181700  0.216900  1.0  0.1701
  C  C337  1  0.338300  0.118000  0.716400  1.0  0.1573
  C  C338  1  0.367900  0.188200  0.586200  1.0  -0.168
  C  C339  1  0.333700  0.212200  0.286400  1.0  -0.2414
  C  C340  1  0.251900  0.244400  0.603800  1.0  -0.1157
  C  C341  1  0.281500  0.220900  0.439900  1.0  -0.0056
  C  C342  1  0.302600  0.144000  0.662800  1.0  -0.2455
  C  C343  1  0.313500  0.136800  0.374400  1.0  -0.17
  C  C344  1  0.337900  0.109700  0.302100  1.0  0.1543
  C  C345  1  0.282800  0.213300  0.540500  1.0  -0.0238
  C  C346  1  0.401200  0.159700  0.645700  1.0  0.1614
  C  C347  1  0.524800  0.159200  0.721900  1.0  -0.0564
  C  C348  1  0.537500  0.178100  0.627100  1.0  -0.0808
  C  C349  1  0.540000  0.229600  0.608100  1.0  -0.1025
  C  C350  1  0.530300  0.263800  0.685100  1.0  -0.11
  C  C351  1  0.516900  0.246300  0.780000  1.0  -0.1472
  C  C352  1  0.514900  0.194100  0.795700  1.0  -0.0529
  C  C353  1  0.360500  0.162600  0.947100  1.0  -0.0305
  C  C354  1  0.317200  0.140700  0.972700  1.0  -0.1174
  C  C355  1  0.272400  0.164900  0.953000  1.0  -0.1025
  C  C356  1  0.268800  0.210400  0.904200  1.0  -0.1602
  C  C357  1  0.312900  0.233000  0.882800  1.0  -0.1151
  C  C358  1  0.357700  0.209000  0.899500  1.0  -0.0793
  C  C359  1  0.180500  0.681100  0.405100  1.0  0.0669
  C  C360  1  0.190200  0.688900  0.633100  1.0  0.0702
  C  C361  1  0.142400  0.681700  0.783100  1.0  0.1702
  C  C362  1  0.161700  0.618000  0.283600  1.0  0.1575
  C  C363  1  0.132100  0.688200  0.413800  1.0  -0.1678
  C  C364  1  0.166300  0.712200  0.713600  1.0  -0.2415
  C  C365  1  0.248100  0.744400  0.396200  1.0  -0.1156
  C  C366  1  0.218500  0.720900  0.560100  1.0  -0.0047
  C  C367  1  0.197400  0.644000  0.337200  1.0  -0.2445
  C  C368  1  0.186500  0.636800  0.625600  1.0  -0.1712
  C  C369  1  0.162100  0.609700  0.697900  1.0  0.1546
  C  C370  1  0.217200  0.713300  0.459500  1.0  -0.0227
  C  C371  1  0.098800  0.659700  0.354300  1.0  0.1613
  C  C372  1  0.975200  0.659200  0.278100  1.0  -0.0565
  C  C373  1  0.962500  0.678100  0.372900  1.0  -0.0822
  C  C374  1  0.960000  0.729600  0.391900  1.0  -0.1031
  C  C375  1  0.969700  0.763800  0.314900  1.0  -0.1108
  C  C376  1  0.983100  0.746300  0.220000  1.0  -0.1435
  C  C377  1  0.985100  0.694100  0.204300  1.0  -0.0528
  C  C378  1  0.139500  0.662600  0.052900  1.0  -0.0348
  C  C379  1  0.182800  0.640700  0.027300  1.0  -0.1176
  C  C380  1  0.227600  0.664900  0.047000  1.0  -0.1024
  C  C381  1  0.231200  0.710400  0.095800  1.0  -0.1588
  C  C382  1  0.187100  0.733000  0.117200  1.0  -0.1146
  C  C383  1  0.142300  0.709000  0.100500  1.0  -0.0802
  C  C384  1  0.680500  0.181100  0.405100  1.0  0.0669
  C  C385  1  0.690200  0.188900  0.633100  1.0  0.0702
  C  C386  1  0.642400  0.181700  0.783100  1.0  0.1702
  C  C387  1  0.661700  0.118000  0.283600  1.0  0.1575
  C  C388  1  0.632100  0.188200  0.413800  1.0  -0.1678
  C  C389  1  0.666300  0.212200  0.713600  1.0  -0.2415
  C  C390  1  0.748100  0.244400  0.396200  1.0  -0.1156
  C  C391  1  0.718500  0.220900  0.560100  1.0  -0.0047
  C  C392  1  0.697400  0.144000  0.337200  1.0  -0.2445
  C  C393  1  0.686500  0.136800  0.625600  1.0  -0.1712
  C  C394  1  0.662100  0.109700  0.697900  1.0  0.1546
  C  C395  1  0.717200  0.213300  0.459500  1.0  -0.0227
  C  C396  1  0.598800  0.159700  0.354300  1.0  0.1613
  C  C397  1  0.475200  0.159200  0.278100  1.0  -0.0565
  C  C398  1  0.462500  0.178100  0.372900  1.0  -0.0822
  C  C399  1  0.460000  0.229600  0.391900  1.0  -0.1031
  C  C400  1  0.469700  0.263800  0.314900  1.0  -0.1108
  C  C401  1  0.483100  0.246300  0.220000  1.0  -0.1435
  C  C402  1  0.485100  0.194100  0.204300  1.0  -0.0528
  C  C403  1  0.639500  0.162600  0.052900  1.0  -0.0348
  C  C404  1  0.682800  0.140700  0.027300  1.0  -0.1176
  C  C405  1  0.727600  0.164900  0.047000  1.0  -0.1024
  C  C406  1  0.731200  0.210400  0.095800  1.0  -0.1588
  C  C407  1  0.687100  0.233000  0.117200  1.0  -0.1146
  C  C408  1  0.642300  0.209000  0.100500  1.0  -0.0802
  C  C409  1  0.189100  0.500000  0.906000  1.0  -0.1075
  C  C410  1  0.191300  0.500000  0.010500  1.0  -0.0571
  C  C411  1  0.236400  0.500000  0.061000  1.0  -0.1717
  C  C412  1  0.231200  0.500000  0.848000  1.0  -0.0753
  C  C413  1  0.277500  0.500000  0.893000  1.0  -0.1781
  C  C414  1  0.277000  0.500000  0.998000  1.0  -0.1528
  C  C415  1  0.109600  0.500000  0.350600  1.0  -0.0278
  C  C416  1  0.068300  0.500000  0.404900  1.0  -0.0499
  C  C417  1  0.066200  0.500000  0.506500  1.0  -0.1795
  C  C418  1  0.110700  0.500000  0.554000  1.0  -0.1017
  C  C419  1  0.154500  0.500000  0.508500  1.0  -0.1543
  C  C420  1  0.151300  0.500000  0.405300  1.0  -0.0426
  C  C421  1  0.689100  0.000000  0.906000  1.0  -0.1075
  C  C422  1  0.691300  0.000000  0.010500  1.0  -0.0571
  C  C423  1  0.736400  0.000000  0.061000  1.0  -0.1717
  C  C424  1  0.731200  0.000000  0.848000  1.0  -0.0753
  C  C425  1  0.777500  0.000000  0.893000  1.0  -0.1781
  C  C426  1  0.777000  0.000000  0.998000  1.0  -0.1528
  C  C427  1  0.609600  0.000000  0.350600  1.0  -0.0278
  C  C428  1  0.568300  0.000000  0.404900  1.0  -0.0499
  C  C429  1  0.566200  0.000000  0.506500  1.0  -0.1795
  C  C430  1  0.610700  0.000000  0.554000  1.0  -0.1017
  C  C431  1  0.654500  0.000000  0.508500  1.0  -0.1543
  C  C432  1  0.651300  0.000000  0.405300  1.0  -0.0426
  C  C433  1  0.810900  0.500000  0.094000  1.0  -0.1071
  C  C434  1  0.808700  0.500000  0.989500  1.0  -0.0559
  C  C435  1  0.763600  0.500000  0.939000  1.0  -0.1753
  C  C436  1  0.768800  0.500000  0.152000  1.0  -0.0771
  C  C437  1  0.722500  0.500000  0.107000  1.0  -0.1799
  C  C438  1  0.723000  0.500000  0.002000  1.0  -0.1539
  C  C439  1  0.890400  0.500000  0.649400  1.0  -0.0225
  C  C440  1  0.931700  0.500000  0.595100  1.0  -0.0503
  C  C441  1  0.933800  0.500000  0.493500  1.0  -0.1751
  C  C442  1  0.889300  0.500000  0.446000  1.0  -0.1045
  C  C443  1  0.845500  0.500000  0.491500  1.0  -0.1557
  C  C444  1  0.848700  0.500000  0.594700  1.0  -0.0413
  C  C445  1  0.310900  0.000000  0.094000  1.0  -0.1071
  C  C446  1  0.308700  0.000000  0.989500  1.0  -0.0559
  C  C447  1  0.263600  0.000000  0.939000  1.0  -0.1753
  C  C448  1  0.268800  0.000000  0.152000  1.0  -0.0771
  C  C449  1  0.222500  0.000000  0.107000  1.0  -0.1799
  C  C450  1  0.223000  0.000000  0.002000  1.0  -0.1539
  C  C451  1  0.390400  0.000000  0.649400  1.0  -0.0225
  C  C452  1  0.431700  0.000000  0.595100  1.0  -0.0503
  C  C453  1  0.433800  0.000000  0.493500  1.0  -0.1751
  C  C454  1  0.389300  0.000000  0.446000  1.0  -0.1045
  C  C455  1  0.345500  0.000000  0.491500  1.0  -0.1557
  C  C456  1  0.348700  0.000000  0.594700  1.0  -0.0413
  S  S457  1  0.979480  0.407760  0.259600  1.0  -0.2453
  S  S458  1  0.080780  0.365020  0.026650  1.0  -0.265
  S  S459  1  0.479480  0.907760  0.259600  1.0  -0.2453
  S  S460  1  0.580780  0.865020  0.026650  1.0  -0.265
  S  S461  1  0.020520  0.407760  0.740400  1.0  -0.2439
  S  S462  1  0.919220  0.365020  0.973350  1.0  -0.2663
  S  S463  1  0.520520  0.907760  0.740400  1.0  -0.2439
  S  S464  1  0.419220  0.865020  0.973350  1.0  -0.2663
  S  S465  1  0.020520  0.592240  0.740400  1.0  -0.246
  S  S466  1  0.919220  0.634980  0.973350  1.0  -0.2659
  S  S467  1  0.520520  0.092240  0.740400  1.0  -0.246
  S  S468  1  0.419220  0.134980  0.973350  1.0  -0.2659
  S  S469  1  0.979480  0.592240  0.259600  1.0  -0.2463
  S  S470  1  0.080780  0.634980  0.026650  1.0  -0.2651
  S  S471  1  0.479480  0.092240  0.259600  1.0  -0.2463
  S  S472  1  0.580780  0.134980  0.026650  1.0  -0.2651
  S  S473  1  0.134900  0.500000  0.836700  1.0  -0.153
  S  S474  1  0.110320  0.500000  0.215200  1.0  -0.1901
  S  S475  1  0.634900  0.000000  0.836700  1.0  -0.153
  S  S476  1  0.610320  0.000000  0.215200  1.0  -0.1901
  S  S477  1  0.865100  0.500000  0.163300  1.0  -0.1541
  S  S478  1  0.889680  0.500000  0.784800  1.0  -0.1907
  S  S479  1  0.365100  0.000000  0.163300  1.0  -0.1541
  S  S480  1  0.389680  0.000000  0.784800  1.0  -0.1907
  N  N481  1  0.113800  0.374800  0.288700  1.0  -0.3666
  N  N482  1  0.140100  0.368600  0.777200  1.0  -0.3638
  N  N483  1  0.613800  0.874800  0.288700  1.0  -0.3666
  N  N484  1  0.640100  0.868600  0.777200  1.0  -0.3638
  N  N485  1  0.886200  0.374800  0.711300  1.0  -0.3668
  N  N486  1  0.859900  0.368600  0.222800  1.0  -0.3641
  N  N487  1  0.386200  0.874800  0.711300  1.0  -0.3668
  N  N488  1  0.359900  0.868600  0.222800  1.0  -0.3641
  N  N489  1  0.886200  0.625200  0.711300  1.0  -0.3655
  N  N490  1  0.859900  0.631400  0.222800  1.0  -0.3646
  N  N491  1  0.386200  0.125200  0.711300  1.0  -0.3655
  N  N492  1  0.359900  0.131400  0.222800  1.0  -0.3646
  N  N493  1  0.113800  0.625200  0.288700  1.0  -0.3678
  N  N494  1  0.140100  0.631400  0.777200  1.0  -0.3625
  N  N495  1  0.613800  0.125200  0.288700  1.0  -0.3678
  N  N496  1  0.640100  0.131400  0.777200  1.0  -0.3625
