# generated using pymatgen
data_Zn4P6H7O18
_symmetry_space_group_name_H-M   'P 1'
_cell_length_a   18.61800000
_cell_length_b   8.76010000
_cell_length_c   17.48400000
_cell_angle_alpha   90.00000000
_cell_angle_beta   93.43000000
_cell_angle_gamma   90.00000000
_symmetry_Int_Tables_number   1
_chemical_formula_structural   Zn4P6H7O18
_chemical_formula_sum   'Zn16 P24 H28 O72'
_cell_volume   2846.45427319
_cell_formula_units_Z   4
loop_
 _symmetry_equiv_pos_site_id
 _symmetry_equiv_pos_as_xyz
  1  'x, y, z'
loop_
 _atom_site_type_symbol
 _atom_site_label
 _atom_site_symmetry_multiplicity
 _atom_site_fract_x
 _atom_site_fract_y
 _atom_site_fract_z
 _atom_site_occupancy
 _atom_site_charge
  Zn  Zn1  1  0.320580  0.974500  0.096840  1.0  1.1767
  Zn  Zn2  1  0.015560  0.991220  0.115500  1.0  1.1043
  Zn  Zn3  1  0.407250  0.481560  0.262410  1.0  1.1559
  Zn  Zn4  1  0.159880  0.487740  0.089210  1.0  1.1339
  Zn  Zn5  1  0.679420  0.474500  0.403160  1.0  1.1755
  Zn  Zn6  1  0.984440  0.491220  0.384500  1.0  1.1018
  Zn  Zn7  1  0.592750  0.981560  0.237590  1.0  1.1552
  Zn  Zn8  1  0.840120  0.987740  0.410790  1.0  1.1371
  Zn  Zn9  1  0.679420  0.025500  0.903160  1.0  1.1757
  Zn  Zn10  1  0.984440  0.008780  0.884500  1.0  1.1018
  Zn  Zn11  1  0.592750  0.518440  0.737590  1.0  1.1549
  Zn  Zn12  1  0.840120  0.512260  0.910790  1.0  1.1331
  Zn  Zn13  1  0.320580  0.525500  0.596840  1.0  1.1768
  Zn  Zn14  1  0.015560  0.508780  0.615500  1.0  1.1043
  Zn  Zn15  1  0.407250  0.018440  0.762410  1.0  1.1557
  Zn  Zn16  1  0.159880  0.012260  0.589210  1.0  1.1365
  P  P17  1  0.165240  0.845470  0.082240  1.0  1.5582
  P  P18  1  0.310700  0.333960  0.133060  1.0  1.4669
  P  P19  1  0.953640  0.740200  0.997680  1.0  1.5596
  P  P20  1  0.963330  0.019670  0.292590  1.0  1.5708
  P  P21  1  0.386410  0.017580  0.938140  1.0  1.5286
  P  P22  1  0.451050  0.800030  0.176050  1.0  1.6147
  P  P23  1  0.834760  0.345470  0.417760  1.0  1.5547
  P  P24  1  0.689300  0.833960  0.366940  1.0  1.4588
  P  P25  1  0.046360  0.240200  0.502320  1.0  1.5536
  P  P26  1  0.036670  0.519670  0.207410  1.0  1.5701
  P  P27  1  0.613590  0.517580  0.561860  1.0  1.5235
  P  P28  1  0.548950  0.300030  0.323950  1.0  1.613
  P  P29  1  0.834760  0.154530  0.917760  1.0  1.5548
  P  P30  1  0.689300  0.666040  0.866940  1.0  1.4588
  P  P31  1  0.046360  0.259800  0.002320  1.0  1.5497
  P  P32  1  0.036670  0.980330  0.707410  1.0  1.5697
  P  P33  1  0.613590  0.982420  0.061860  1.0  1.5273
  P  P34  1  0.548950  0.199970  0.823950  1.0  1.6125
  P  P35  1  0.165240  0.654530  0.582240  1.0  1.5584
  P  P36  1  0.310700  0.166040  0.633060  1.0  1.4668
  P  P37  1  0.953640  0.759800  0.497680  1.0  1.5559
  P  P38  1  0.963330  0.480330  0.792590  1.0  1.5697
  P  P39  1  0.386410  0.482420  0.438140  1.0  1.5323
  P  P40  1  0.451050  0.699970  0.676050  1.0  1.6143
  H  H41  1  0.165000  0.940000  0.025000  1.0  -0.0959
  H  H42  1  0.372000  0.339000  0.100000  1.0  -0.0685
  H  H43  1  0.004000  0.653000  0.023000  1.0  -0.0982
  H  H44  1  0.984000  0.159000  0.319000  1.0  -0.0959
  H  H45  1  0.451000  0.988000  0.968000  1.0  -0.0155
  H  H46  1  0.471000  0.780000  0.103000  1.0  -0.0642
  H  H47  1  0.003600  0.850500  0.357500  1.0  0.4119
  H  H48  1  0.835000  0.440000  0.475000  1.0  -0.099
  H  H49  1  0.628000  0.839000  0.400000  1.0  -0.0677
  H  H50  1  0.996000  0.153000  0.477000  1.0  -0.0985
  H  H51  1  0.016000  0.659000  0.181000  1.0  -0.0956
  H  H52  1  0.549000  0.488000  0.532000  1.0  -0.0173
  H  H53  1  0.529000  0.280000  0.397000  1.0  -0.0692
  H  H54  1  0.996400  0.350500  0.142500  1.0  0.4123
  H  H55  1  0.835000  0.060000  0.975000  1.0  -0.0988
  H  H56  1  0.628000  0.661000  0.900000  1.0  -0.0676
  H  H57  1  0.996000  0.347000  0.977000  1.0  -0.0984
  H  H58  1  0.016000  0.841000  0.681000  1.0  -0.0957
  H  H59  1  0.549000  0.012000  0.032000  1.0  -0.0172
  H  H60  1  0.529000  0.220000  0.897000  1.0  -0.0686
  H  H61  1  0.996400  0.149500  0.642500  1.0  0.4114
  H  H62  1  0.165000  0.560000  0.525000  1.0  -0.0959
  H  H63  1  0.372000  0.161000  0.600000  1.0  -0.0685
  H  H64  1  0.004000  0.847000  0.523000  1.0  -0.0984
  H  H65  1  0.984000  0.341000  0.819000  1.0  -0.0966
  H  H66  1  0.451000  0.512000  0.468000  1.0  -0.0155
  H  H67  1  0.471000  0.720000  0.603000  1.0  -0.0638
  H  H68  1  0.003600  0.649500  0.857500  1.0  0.4116
  O  O69  1  0.239100  0.848000  0.123900  1.0  -0.7429
  O  O70  1  0.283400  0.172300  0.123600  1.0  -0.8077
  O  O71  1  0.339200  0.930600  0.992300  1.0  -0.7462
  O  O72  1  0.394900  0.926400  0.175800  1.0  -0.7529
  O  O73  1  0.108200  0.896100  0.135800  1.0  -0.7712
  O  O74  1  0.947800  0.870900  0.053600  1.0  -0.8076
  O  O75  1  0.968600  0.024700  0.208100  1.0  -0.8495
  O  O76  1  0.977300  0.796200  0.919800  1.0  -0.8559
  O  O77  1  0.323000  0.373300  0.217100  1.0  -0.7243
  O  O78  1  0.380000  0.937400  0.860600  1.0  -0.7476
  O  O79  1  0.515800  0.835500  0.229200  1.0  -0.7838
  O  O80  1  0.418700  0.647700  0.192500  1.0  -0.859
  O  O81  1  0.885800  0.645400  0.990200  1.0  -0.7894
  O  O82  1  0.148300  0.692600  0.045100  1.0  -0.7661
  O  O83  1  0.261100  0.446700  0.088900  1.0  -0.7569
  O  O84  1  0.889700  0.978500  0.317600  1.0  -0.8029
  O  O85  1  0.022300  0.912300  0.329600  1.0  -0.6693
  O  O86  1  0.373800  0.184900  0.935300  1.0  -0.5945
  O  O87  1  0.760900  0.348000  0.376100  1.0  -0.7426
  O  O88  1  0.716600  0.672300  0.376400  1.0  -0.8059
  O  O89  1  0.660800  0.430600  0.507700  1.0  -0.7475
  O  O90  1  0.605100  0.426400  0.324200  1.0  -0.7553
  O  O91  1  0.891800  0.396100  0.364200  1.0  -0.7734
  O  O92  1  0.052200  0.370900  0.446400  1.0  -0.8053
  O  O93  1  0.031400  0.524700  0.291900  1.0  -0.8498
  O  O94  1  0.022700  0.296200  0.580200  1.0  -0.8545
  O  O95  1  0.677000  0.873300  0.282900  1.0  -0.7216
  O  O96  1  0.620000  0.437400  0.639400  1.0  -0.7476
  O  O97  1  0.484200  0.335500  0.270800  1.0  -0.7837
  O  O98  1  0.581300  0.147700  0.307500  1.0  -0.8575
  O  O99  1  0.114200  0.145400  0.509800  1.0  -0.7896
  O  O100  1  0.851700  0.192600  0.454900  1.0  -0.7663
  O  O101  1  0.738900  0.946700  0.411100  1.0  -0.7569
  O  O102  1  0.110300  0.478500  0.182400  1.0  -0.8013
  O  O103  1  0.977700  0.412300  0.170400  1.0  -0.6698
  O  O104  1  0.626200  0.684900  0.564700  1.0  -0.5936
  O  O105  1  0.760900  0.152000  0.876100  1.0  -0.743
  O  O106  1  0.716600  0.827700  0.876400  1.0  -0.8058
  O  O107  1  0.660800  0.069400  0.007700  1.0  -0.7465
  O  O108  1  0.605100  0.073600  0.824200  1.0  -0.7571
  O  O109  1  0.891800  0.103900  0.864200  1.0  -0.7733
  O  O110  1  0.052200  0.129100  0.946400  1.0  -0.8063
  O  O111  1  0.031400  0.975300  0.791900  1.0  -0.8496
  O  O112  1  0.022700  0.203800  0.080200  1.0  -0.855
  O  O113  1  0.677000  0.626700  0.782900  1.0  -0.7221
  O  O114  1  0.620000  0.062600  0.139400  1.0  -0.748
  O  O115  1  0.484200  0.164500  0.770800  1.0  -0.7833
  O  O116  1  0.581300  0.352300  0.807500  1.0  -0.8581
  O  O117  1  0.114200  0.354600  0.009800  1.0  -0.7894
  O  O118  1  0.851700  0.307400  0.954900  1.0  -0.766
  O  O119  1  0.738900  0.553300  0.911100  1.0  -0.757
  O  O120  1  0.110300  0.021500  0.682400  1.0  -0.8002
  O  O121  1  0.977700  0.087700  0.670400  1.0  -0.6686
  O  O122  1  0.626200  0.815100  0.064700  1.0  -0.592
  O  O123  1  0.239100  0.652000  0.623900  1.0  -0.7428
  O  O124  1  0.283400  0.327700  0.623600  1.0  -0.8074
  O  O125  1  0.339200  0.569400  0.492300  1.0  -0.7469
  O  O126  1  0.394900  0.573600  0.675800  1.0  -0.7545
  O  O127  1  0.108200  0.603900  0.635800  1.0  -0.7711
  O  O128  1  0.947800  0.629100  0.553600  1.0  -0.8082
  O  O129  1  0.968600  0.475300  0.708100  1.0  -0.8494
  O  O130  1  0.977300  0.703800  0.419800  1.0  -0.8552
  O  O131  1  0.323000  0.126700  0.717100  1.0  -0.7244
  O  O132  1  0.380000  0.562600  0.360600  1.0  -0.7481
  O  O133  1  0.515800  0.664500  0.729200  1.0  -0.7841
  O  O134  1  0.418700  0.852300  0.692500  1.0  -0.8601
  O  O135  1  0.885800  0.854600  0.490200  1.0  -0.7895
  O  O136  1  0.148300  0.807400  0.545100  1.0  -0.7659
  O  O137  1  0.261100  0.053300  0.588900  1.0  -0.758
  O  O138  1  0.889700  0.521500  0.817600  1.0  -0.801
  O  O139  1  0.022300  0.587700  0.829600  1.0  -0.6688
  O  O140  1  0.373800  0.315100  0.435300  1.0  -0.5921
