# generated using pymatgen
data_Cu2H12C18(NO2)3
_symmetry_space_group_name_H-M   'P 1'
_cell_length_a   20.93350000
_cell_length_b   20.93350000
_cell_length_c   20.93350000
_cell_angle_alpha   115.80800000
_cell_angle_beta   115.80800000
_cell_angle_gamma   115.80800000
_symmetry_Int_Tables_number   1
_chemical_formula_structural   Cu2H12C18(NO2)3
_chemical_formula_sum   'Cu12 H72 C108 N18 O36'
_cell_volume   4734.36592981
_cell_formula_units_Z   6
loop_
 _symmetry_equiv_pos_site_id
 _symmetry_equiv_pos_as_xyz
  1  'x, y, z'
loop_
 _atom_site_type_symbol
 _atom_site_label
 _atom_site_symmetry_multiplicity
 _atom_site_fract_x
 _atom_site_fract_y
 _atom_site_fract_z
 _atom_site_occupancy
 _atom_site_charge
  Cu  Cu1  1  0.595380  0.923750  0.752240  1.0  0.8203
  Cu  Cu2  1  0.547750  0.012710  0.651210  1.0  0.8827
  Cu  Cu3  1  0.752240  0.595380  0.923750  1.0  0.8213
  Cu  Cu4  1  0.651210  0.547750  0.012710  1.0  0.8842
  Cu  Cu5  1  0.923750  0.752240  0.595380  1.0  0.8199
  Cu  Cu6  1  0.012710  0.651210  0.547750  1.0  0.8794
  Cu  Cu7  1  0.404620  0.076250  0.247760  1.0  0.8193
  Cu  Cu8  1  0.452250  0.987290  0.348790  1.0  0.8827
  Cu  Cu9  1  0.247760  0.404620  0.076250  1.0  0.8204
  Cu  Cu10  1  0.348790  0.452250  0.987290  1.0  0.8832
  Cu  Cu11  1  0.076250  0.247760  0.404620  1.0  0.8194
  Cu  Cu12  1  0.987290  0.348790  0.452250  1.0  0.8808
  H  H13  1  0.442800  0.838500  0.752200  1.0  0.0645
  H  H14  1  0.279700  0.669700  0.653600  1.0  0.1185
  H  H15  1  0.330600  0.524800  0.519300  1.0  0.1097
  H  H16  1  0.485200  0.694200  0.612100  1.0  0.097
  H  H17  1  0.675500  0.106300  0.946800  1.0  0.0791
  H  H18  1  0.871800  0.217100  0.792500  1.0  0.1108
  H  H19  1  0.920100  0.178700  0.974000  1.0  0.1187
  H  H20  1  0.705700  0.924400  0.898000  1.0  0.0816
  H  H21  1  0.262800  0.858900  0.750900  1.0  0.091
  H  H22  1  0.414200  0.956800  0.792300  1.0  0.1182
  H  H23  1  0.201600  0.730700  0.464100  1.0  0.1192
  H  H24  1  0.056800  0.635600  0.430300  1.0  0.0832
  H  H25  1  0.752200  0.442800  0.838500  1.0  0.0644
  H  H26  1  0.653600  0.279700  0.669700  1.0  0.1187
  H  H27  1  0.519300  0.330600  0.524800  1.0  0.1099
  H  H28  1  0.612100  0.485200  0.694200  1.0  0.0967
  H  H29  1  0.946800  0.675500  0.106300  1.0  0.0799
  H  H30  1  0.792500  0.871800  0.217100  1.0  0.1118
  H  H31  1  0.974000  0.920100  0.178700  1.0  0.1185
  H  H32  1  0.898000  0.705700  0.924400  1.0  0.0809
  H  H33  1  0.750900  0.262800  0.858900  1.0  0.0901
  H  H34  1  0.792300  0.414200  0.956800  1.0  0.1178
  H  H35  1  0.464100  0.201600  0.730700  1.0  0.122
  H  H36  1  0.430300  0.056800  0.635600  1.0  0.0823
  H  H37  1  0.838500  0.752200  0.442800  1.0  0.0633
  H  H38  1  0.669700  0.653600  0.279700  1.0  0.1207
  H  H39  1  0.524800  0.519300  0.330600  1.0  0.11
  H  H40  1  0.694200  0.612100  0.485200  1.0  0.098
  H  H41  1  0.106300  0.946800  0.675500  1.0  0.0789
  H  H42  1  0.217100  0.792500  0.871800  1.0  0.1116
  H  H43  1  0.178700  0.974000  0.920100  1.0  0.1184
  H  H44  1  0.924400  0.898000  0.705700  1.0  0.0815
  H  H45  1  0.858900  0.750900  0.262800  1.0  0.0915
  H  H46  1  0.956800  0.792300  0.414200  1.0  0.1188
  H  H47  1  0.730700  0.464100  0.201600  1.0  0.1198
  H  H48  1  0.635600  0.430300  0.056800  1.0  0.0834
  H  H49  1  0.557200  0.161500  0.247800  1.0  0.064
  H  H50  1  0.720300  0.330300  0.346400  1.0  0.1191
  H  H51  1  0.669400  0.475200  0.480700  1.0  0.1096
  H  H52  1  0.514800  0.305800  0.387900  1.0  0.0964
  H  H53  1  0.324500  0.893700  0.053200  1.0  0.0786
  H  H54  1  0.128200  0.782900  0.207500  1.0  0.1112
  H  H55  1  0.079900  0.821300  0.026000  1.0  0.1183
  H  H56  1  0.294300  0.075600  0.102000  1.0  0.0814
  H  H57  1  0.737200  0.141100  0.249100  1.0  0.0914
  H  H58  1  0.585800  0.043200  0.207700  1.0  0.1179
  H  H59  1  0.798400  0.269300  0.535900  1.0  0.1198
  H  H60  1  0.943200  0.364400  0.569700  1.0  0.084
  H  H61  1  0.247800  0.557200  0.161500  1.0  0.0639
  H  H62  1  0.346400  0.720300  0.330300  1.0  0.119
  H  H63  1  0.480700  0.669400  0.475200  1.0  0.1102
  H  H64  1  0.387900  0.514800  0.305800  1.0  0.097
  H  H65  1  0.053200  0.324500  0.893700  1.0  0.0807
  H  H66  1  0.207500  0.128200  0.782900  1.0  0.1112
  H  H67  1  0.026000  0.079900  0.821300  1.0  0.119
  H  H68  1  0.102000  0.294300  0.075600  1.0  0.0802
  H  H69  1  0.249100  0.737200  0.141100  1.0  0.0908
  H  H70  1  0.207700  0.585800  0.043200  1.0  0.118
  H  H71  1  0.535900  0.798400  0.269300  1.0  0.121
  H  H72  1  0.569700  0.943200  0.364400  1.0  0.0822
  H  H73  1  0.161500  0.247800  0.557200  1.0  0.0637
  H  H74  1  0.330300  0.346400  0.720300  1.0  0.1196
  H  H75  1  0.475200  0.480700  0.669400  1.0  0.1097
  H  H76  1  0.305800  0.387900  0.514800  1.0  0.0985
  H  H77  1  0.893700  0.053200  0.324500  1.0  0.0799
  H  H78  1  0.782900  0.207500  0.128200  1.0  0.1119
  H  H79  1  0.821300  0.026000  0.079900  1.0  0.1177
  H  H80  1  0.075600  0.102000  0.294300  1.0  0.0803
  H  H81  1  0.141100  0.249100  0.737200  1.0  0.0913
  H  H82  1  0.043200  0.207700  0.585800  1.0  0.1195
  H  H83  1  0.269300  0.535900  0.798400  1.0  0.1205
  H  H84  1  0.364400  0.569700  0.943200  1.0  0.083
  C  C85  1  0.417600  0.773500  0.701800  1.0  0.1431
  C  C86  1  0.320900  0.673100  0.644600  1.0  -0.1451
  C  C87  1  0.286700  0.577900  0.573500  1.0  -0.1047
  C  C88  1  0.350200  0.587100  0.564000  1.0  -0.1222
  C  C89  1  0.443300  0.689000  0.620700  1.0  0.1366
  C  C90  1  0.487900  0.816600  0.531600  1.0  0.7024
  C  C91  1  0.704600  0.089300  0.973800  1.0  0.1565
  C  C92  1  0.917000  0.230100  0.848800  1.0  -0.1581
  C  C93  1  0.876100  0.184700  0.871400  1.0  -0.1248
  C  C94  1  0.945700  0.208300  0.956600  1.0  -0.1272
  C  C95  1  0.723600  0.984000  0.946000  1.0  0.1467
  C  C96  1  0.757000  0.109200  0.804700  1.0  0.6799
  C  C97  1  0.250500  0.832300  0.692400  1.0  0.1511
  C  C98  1  0.341400  0.891700  0.717800  1.0  -0.1369
  C  C99  1  0.323300  0.853800  0.632000  1.0  -0.0999
  C  C100  1  0.216000  0.757800  0.523900  1.0  -0.1692
  C  C101  1  0.129800  0.701800  0.504500  1.0  0.1539
  C  C102  1  0.419800  0.915700  0.656100  1.0  0.6915
  C  C103  1  0.701800  0.417600  0.773500  1.0  0.1434
  C  C104  1  0.644600  0.320900  0.673100  1.0  -0.142
  C  C105  1  0.573500  0.286700  0.577900  1.0  -0.1039
  C  C106  1  0.564000  0.350200  0.587100  1.0  -0.1235
  C  C107  1  0.620700  0.443300  0.689000  1.0  0.1338
  C  C108  1  0.531600  0.487900  0.816600  1.0  0.7015
  C  C109  1  0.973800  0.704600  0.089300  1.0  0.1561
  C  C110  1  0.848800  0.917000  0.230100  1.0  -0.1576
  C  C111  1  0.871400  0.876100  0.184700  1.0  -0.123
  C  C112  1  0.956600  0.945700  0.208300  1.0  -0.1275
  C  C113  1  0.946000  0.723600  0.984000  1.0  0.1455
  C  C114  1  0.804700  0.757000  0.109200  1.0  0.6824
  C  C115  1  0.692400  0.250500  0.832300  1.0  0.1499
  C  C116  1  0.717800  0.341400  0.891700  1.0  -0.1369
  C  C117  1  0.632000  0.323300  0.853800  1.0  -0.0986
  C  C118  1  0.523900  0.216000  0.757800  1.0  -0.1685
  C  C119  1  0.504500  0.129800  0.701800  1.0  0.1549
  C  C120  1  0.656100  0.419800  0.915700  1.0  0.6915
  C  C121  1  0.773500  0.701800  0.417600  1.0  0.1429
  C  C122  1  0.673100  0.644600  0.320900  1.0  -0.1454
  C  C123  1  0.577900  0.573500  0.286700  1.0  -0.1044
  C  C124  1  0.587100  0.564000  0.350200  1.0  -0.1255
  C  C125  1  0.689000  0.620700  0.443300  1.0  0.1313
  C  C126  1  0.816600  0.531600  0.487900  1.0  0.7022
  C  C127  1  0.089300  0.973800  0.704600  1.0  0.1561
  C  C128  1  0.230100  0.848800  0.917000  1.0  -0.1584
  C  C129  1  0.184700  0.871400  0.876100  1.0  -0.1248
  C  C130  1  0.208300  0.956600  0.945700  1.0  -0.1227
  C  C131  1  0.984000  0.946000  0.723600  1.0  0.1463
  C  C132  1  0.109200  0.804700  0.757000  1.0  0.6806
  C  C133  1  0.832300  0.692400  0.250500  1.0  0.1526
  C  C134  1  0.891700  0.717800  0.341400  1.0  -0.1368
  C  C135  1  0.853800  0.632000  0.323300  1.0  -0.1027
  C  C136  1  0.757800  0.523900  0.216000  1.0  -0.1662
  C  C137  1  0.701800  0.504500  0.129800  1.0  0.1541
  C  C138  1  0.915700  0.656100  0.419800  1.0  0.6899
  C  C139  1  0.582400  0.226500  0.298200  1.0  0.143
  C  C140  1  0.679100  0.326900  0.355400  1.0  -0.1455
  C  C141  1  0.713300  0.422100  0.426500  1.0  -0.1041
  C  C142  1  0.649800  0.412900  0.436000  1.0  -0.1236
  C  C143  1  0.556700  0.311000  0.379300  1.0  0.1351
  C  C144  1  0.512100  0.183400  0.468400  1.0  0.7023
  C  C145  1  0.295400  0.910700  0.026200  1.0  0.1561
  C  C146  1  0.083000  0.769900  0.151200  1.0  -0.1586
  C  C147  1  0.123900  0.815300  0.128600  1.0  -0.124
  C  C148  1  0.054300  0.791700  0.043400  1.0  -0.127
  C  C149  1  0.276400  0.016000  0.054000  1.0  0.1466
  C  C150  1  0.243000  0.890800  0.195300  1.0  0.6813
  C  C151  1  0.749500  0.167700  0.307600  1.0  0.1521
  C  C152  1  0.658600  0.108300  0.282200  1.0  -0.1376
  C  C153  1  0.676700  0.146200  0.368000  1.0  -0.1008
  C  C154  1  0.784000  0.242200  0.476100  1.0  -0.1676
  C  C155  1  0.870200  0.298200  0.495500  1.0  0.1529
  C  C156  1  0.580200  0.084300  0.343900  1.0  0.6927
  C  C157  1  0.298200  0.582400  0.226500  1.0  0.1426
  C  C158  1  0.355400  0.679100  0.326900  1.0  -0.1423
  C  C159  1  0.426500  0.713300  0.422100  1.0  -0.1033
  C  C160  1  0.436000  0.649800  0.412900  1.0  -0.1245
  C  C161  1  0.379300  0.556700  0.311000  1.0  0.1341
  C  C162  1  0.468400  0.512100  0.183400  1.0  0.7009
  C  C163  1  0.026200  0.295400  0.910700  1.0  0.1578
  C  C164  1  0.151200  0.083000  0.769900  1.0  -0.1588
  C  C165  1  0.128600  0.123900  0.815300  1.0  -0.1231
  C  C166  1  0.043400  0.054300  0.791700  1.0  -0.1272
  C  C167  1  0.054000  0.276400  0.016000  1.0  0.1432
  C  C168  1  0.195300  0.243000  0.890800  1.0  0.6824
  C  C169  1  0.307600  0.749500  0.167700  1.0  0.148
  C  C170  1  0.282200  0.658600  0.108300  1.0  -0.1362
  C  C171  1  0.368000  0.676700  0.146200  1.0  -0.0981
  C  C172  1  0.476100  0.784000  0.242200  1.0  -0.1658
  C  C173  1  0.495500  0.870200  0.298200  1.0  0.1546
  C  C174  1  0.343900  0.580200  0.084300  1.0  0.691
  C  C175  1  0.226500  0.298200  0.582400  1.0  0.1435
  C  C176  1  0.326900  0.355400  0.679100  1.0  -0.1448
  C  C177  1  0.422100  0.426500  0.713300  1.0  -0.1056
  C  C178  1  0.412900  0.436000  0.649800  1.0  -0.1259
  C  C179  1  0.311000  0.379300  0.556700  1.0  0.1327
  C  C180  1  0.183400  0.468400  0.512100  1.0  0.7014
  C  C181  1  0.910700  0.026200  0.295400  1.0  0.1556
  C  C182  1  0.769900  0.151200  0.083000  1.0  -0.1593
  C  C183  1  0.815300  0.128600  0.123900  1.0  -0.124
  C  C184  1  0.791700  0.043400  0.054300  1.0  -0.1218
  C  C185  1  0.016000  0.054000  0.276400  1.0  0.1448
  C  C186  1  0.890800  0.195300  0.243000  1.0  0.6808
  C  C187  1  0.167700  0.307600  0.749500  1.0  0.1518
  C  C188  1  0.108300  0.282200  0.658600  1.0  -0.1364
  C  C189  1  0.146200  0.368000  0.676700  1.0  -0.1017
  C  C190  1  0.242200  0.476100  0.784000  1.0  -0.1657
  C  C191  1  0.298200  0.495500  0.870200  1.0  0.1536
  C  C192  1  0.084300  0.343900  0.580200  1.0  0.6901
  N  N193  1  0.475700  0.781000  0.688100  1.0  -0.3192
  N  N194  1  0.681700  0.007300  0.906200  1.0  -0.3162
  N  N195  1  0.144800  0.737100  0.585900  1.0  -0.334
  N  N196  1  0.688100  0.475700  0.781000  1.0  -0.3214
  N  N197  1  0.906200  0.681700  0.007300  1.0  -0.316
  N  N198  1  0.585900  0.144800  0.737100  1.0  -0.3337
  N  N199  1  0.781000  0.688100  0.475700  1.0  -0.3219
  N  N200  1  0.007300  0.906200  0.681700  1.0  -0.3162
  N  N201  1  0.737100  0.585900  0.144800  1.0  -0.335
  N  N202  1  0.524300  0.219000  0.311900  1.0  -0.3192
  N  N203  1  0.318300  0.992700  0.093800  1.0  -0.3132
  N  N204  1  0.855200  0.262900  0.414100  1.0  -0.3344
  N  N205  1  0.311900  0.524300  0.219000  1.0  -0.3219
  N  N206  1  0.093800  0.318300  0.992700  1.0  -0.3166
  N  N207  1  0.414100  0.855200  0.262900  1.0  -0.3321
  N  N208  1  0.219000  0.311900  0.524300  1.0  -0.3204
  N  N209  1  0.992700  0.093800  0.318300  1.0  -0.316
  N  N210  1  0.262900  0.414100  0.855200  1.0  -0.334
  O  O211  1  0.493600  0.881400  0.537300  1.0  -0.6296
  O  O212  1  0.527200  0.827900  0.606100  1.0  -0.6267
  O  O213  1  0.724400  0.058500  0.820200  1.0  -0.6287
  O  O214  1  0.701700  0.104700  0.740400  1.0  -0.574
  O  O215  1  0.510700  0.965900  0.740300  1.0  -0.6479
  O  O216  1  0.403300  0.913800  0.589100  1.0  -0.5956
  O  O217  1  0.537300  0.493600  0.881400  1.0  -0.6323
  O  O218  1  0.606100  0.527200  0.827900  1.0  -0.6251
  O  O219  1  0.820200  0.724400  0.058500  1.0  -0.6327
  O  O220  1  0.740400  0.701700  0.104700  1.0  -0.5705
  O  O221  1  0.740300  0.510700  0.965900  1.0  -0.6461
  O  O222  1  0.589100  0.403300  0.913800  1.0  -0.5912
  O  O223  1  0.881400  0.537300  0.493600  1.0  -0.6308
  O  O224  1  0.827900  0.606100  0.527200  1.0  -0.6263
  O  O225  1  0.058500  0.820200  0.724400  1.0  -0.6279
  O  O226  1  0.104700  0.740400  0.701700  1.0  -0.571
  O  O227  1  0.965900  0.740300  0.510700  1.0  -0.647
  O  O228  1  0.913800  0.589100  0.403300  1.0  -0.5899
  O  O229  1  0.506400  0.118600  0.462700  1.0  -0.6332
  O  O230  1  0.472800  0.172100  0.393900  1.0  -0.627
  O  O231  1  0.275600  0.941500  0.179800  1.0  -0.6281
  O  O232  1  0.298300  0.895300  0.259600  1.0  -0.5738
  O  O233  1  0.489300  0.034100  0.259700  1.0  -0.6472
  O  O234  1  0.596700  0.086200  0.410900  1.0  -0.5935
  O  O235  1  0.462700  0.506400  0.118600  1.0  -0.6307
  O  O236  1  0.393900  0.472800  0.172100  1.0  -0.6267
  O  O237  1  0.179800  0.275600  0.941500  1.0  -0.6332
  O  O238  1  0.259600  0.298300  0.895300  1.0  -0.5728
  O  O239  1  0.259700  0.489300  0.034100  1.0  -0.6469
  O  O240  1  0.410900  0.596700  0.086200  1.0  -0.5929
  O  O241  1  0.118600  0.462700  0.506400  1.0  -0.6305
  O  O242  1  0.172100  0.393900  0.472800  1.0  -0.6248
  O  O243  1  0.941500  0.179800  0.275600  1.0  -0.6295
  O  O244  1  0.895300  0.259600  0.298300  1.0  -0.5701
  O  O245  1  0.034100  0.259700  0.489300  1.0  -0.6466
  O  O246  1  0.086200  0.410900  0.596700  1.0  -0.5896
