# generated using pymatgen
data_MnP2H10(C4O3)2
_symmetry_space_group_name_H-M   'P 1'
_cell_length_a   18.82500000
_cell_length_b   8.39120000
_cell_length_c   9.29010000
_cell_angle_alpha   90.00000000
_cell_angle_beta   94.06400000
_cell_angle_gamma   90.00000000
_symmetry_Int_Tables_number   1
_chemical_formula_structural   MnP2H10(C4O3)2
_chemical_formula_sum   'Mn4 P8 H40 C32 O24'
_cell_volume   1463.81448845
_cell_formula_units_Z   4
loop_
 _symmetry_equiv_pos_site_id
 _symmetry_equiv_pos_as_xyz
  1  'x, y, z'
loop_
 _atom_site_type_symbol
 _atom_site_label
 _atom_site_symmetry_multiplicity
 _atom_site_fract_x
 _atom_site_fract_y
 _atom_site_fract_z
 _atom_site_occupancy
 _atom_site_charge
  Mn  Mn1  1  0.500000  0.338670  0.250000  1.0  1.0886
  Mn  Mn2  1  0.000000  0.838670  0.250000  1.0  1.0886
  Mn  Mn3  1  0.500000  0.661330  0.750000  1.0  1.0818
  Mn  Mn4  1  0.000000  0.161330  0.750000  1.0  1.0818
  P  P5  1  0.602140  0.560560  0.479530  1.0  1.4306
  P  P6  1  0.102140  0.060560  0.479530  1.0  1.4306
  P  P7  1  0.397860  0.560560  0.020470  1.0  1.4281
  P  P8  1  0.897860  0.060560  0.020470  1.0  1.4281
  P  P9  1  0.397860  0.439440  0.520470  1.0  1.4276
  P  P10  1  0.897860  0.939440  0.520470  1.0  1.4276
  P  P11  1  0.602140  0.439440  0.979530  1.0  1.4297
  P  P12  1  0.102140  0.939440  0.979530  1.0  1.4297
  H  H13  1  0.606700  0.415800  0.652200  1.0  0.4129
  H  H14  1  0.798100  0.414000  0.337300  1.0  0.1192
  H  H15  1  0.719000  0.436000  0.275500  1.0  0.1181
  H  H16  1  0.735400  0.355400  0.426500  1.0  0.118
  H  H17  1  0.648200  0.856800  0.582600  1.0  0.1078
  H  H18  1  0.106700  0.915800  0.652200  1.0  0.4129
  H  H19  1  0.298100  0.914000  0.337300  1.0  0.1192
  H  H20  1  0.219000  0.936000  0.275500  1.0  0.1181
  H  H21  1  0.235400  0.855400  0.426500  1.0  0.118
  H  H22  1  0.148200  0.356800  0.582600  1.0  0.1078
  H  H23  1  0.393300  0.415800  0.847800  1.0  0.4135
  H  H24  1  0.201900  0.414000  0.162700  1.0  0.118
  H  H25  1  0.281000  0.436000  0.224500  1.0  0.1182
  H  H26  1  0.264600  0.355400  0.073500  1.0  0.1171
  H  H27  1  0.351800  0.856800  0.917400  1.0  0.1085
  H  H28  1  0.893300  0.915800  0.847800  1.0  0.4135
  H  H29  1  0.701900  0.914000  0.162700  1.0  0.118
  H  H30  1  0.781000  0.936000  0.224500  1.0  0.1182
  H  H31  1  0.764600  0.855400  0.073500  1.0  0.1171
  H  H32  1  0.851800  0.356800  0.917400  1.0  0.1085
  H  H33  1  0.393300  0.584200  0.347800  1.0  0.4125
  H  H34  1  0.201900  0.586000  0.662700  1.0  0.1181
  H  H35  1  0.281000  0.564000  0.724500  1.0  0.1176
  H  H36  1  0.264600  0.644600  0.573500  1.0  0.1178
  H  H37  1  0.351800  0.143200  0.417400  1.0  0.1083
  H  H38  1  0.893300  0.084200  0.347800  1.0  0.4125
  H  H39  1  0.701900  0.086000  0.662700  1.0  0.1181
  H  H40  1  0.781000  0.064000  0.724500  1.0  0.1176
  H  H41  1  0.764600  0.144600  0.573500  1.0  0.1178
  H  H42  1  0.851800  0.643200  0.417400  1.0  0.1083
  H  H43  1  0.606700  0.584200  0.152200  1.0  0.4121
  H  H44  1  0.798100  0.586000  0.837300  1.0  0.1194
  H  H45  1  0.719000  0.564000  0.775500  1.0  0.1176
  H  H46  1  0.735400  0.644600  0.926500  1.0  0.1179
  H  H47  1  0.648200  0.143200  0.082600  1.0  0.108
  H  H48  1  0.106700  0.084200  0.152200  1.0  0.4121
  H  H49  1  0.298100  0.086000  0.837300  1.0  0.1194
  H  H50  1  0.219000  0.064000  0.775500  1.0  0.1176
  H  H51  1  0.235400  0.144600  0.926500  1.0  0.1179
  H  H52  1  0.148200  0.643200  0.082600  1.0  0.108
  C  C53  1  0.750350  0.436000  0.361700  1.0  -0.3879
  C  C54  1  0.748030  0.597000  0.433600  1.0  0.0951
  C  C55  1  0.686310  0.664100  0.484900  1.0  -0.1469
  C  C56  1  0.689660  0.814200  0.549400  1.0  -0.0746
  C  C57  1  0.250350  0.936000  0.361700  1.0  -0.3879
  C  C58  1  0.248030  0.097000  0.433600  1.0  0.0951
  C  C59  1  0.186310  0.164100  0.484900  1.0  -0.1469
  C  C60  1  0.189660  0.314200  0.549400  1.0  -0.0746
  C  C61  1  0.249650  0.436000  0.138300  1.0  -0.3874
  C  C62  1  0.251970  0.597000  0.066400  1.0  0.0946
  C  C63  1  0.313690  0.664100  0.015100  1.0  -0.1459
  C  C64  1  0.310340  0.814200  0.950600  1.0  -0.0736
  C  C65  1  0.749650  0.936000  0.138300  1.0  -0.3874
  C  C66  1  0.751970  0.097000  0.066400  1.0  0.0946
  C  C67  1  0.813690  0.164100  0.015100  1.0  -0.1459
  C  C68  1  0.810340  0.314200  0.950600  1.0  -0.0736
  C  C69  1  0.249650  0.564000  0.638300  1.0  -0.3848
  C  C70  1  0.251970  0.403000  0.566400  1.0  0.0955
  C  C71  1  0.313690  0.335900  0.515100  1.0  -0.1457
  C  C72  1  0.310340  0.185800  0.450600  1.0  -0.0731
  C  C73  1  0.749650  0.064000  0.638300  1.0  -0.3848
  C  C74  1  0.751970  0.903000  0.566400  1.0  0.0955
  C  C75  1  0.813690  0.835900  0.515100  1.0  -0.1457
  C  C76  1  0.810340  0.685800  0.450600  1.0  -0.0731
  C  C77  1  0.750350  0.564000  0.861700  1.0  -0.3858
  C  C78  1  0.748030  0.403000  0.933600  1.0  0.0959
  C  C79  1  0.686310  0.335900  0.984900  1.0  -0.1467
  C  C80  1  0.689660  0.185800  0.049400  1.0  -0.0747
  C  C81  1  0.250350  0.064000  0.861700  1.0  -0.3858
  C  C82  1  0.248030  0.903000  0.933600  1.0  0.0959
  C  C83  1  0.186310  0.835900  0.984900  1.0  -0.1467
  C  C84  1  0.189660  0.685800  0.049400  1.0  -0.0747
  O  O85  1  0.580450  0.511100  0.326250  1.0  -0.8505
  O  O86  1  0.549130  0.663500  0.549500  1.0  -0.7954
  O  O87  1  0.616340  0.401700  0.568400  1.0  -0.6903
  O  O88  1  0.080450  0.011100  0.326250  1.0  -0.8505
  O  O89  1  0.049130  0.163500  0.549500  1.0  -0.7954
  O  O90  1  0.116340  0.901700  0.568400  1.0  -0.6903
  O  O91  1  0.419550  0.511100  0.173750  1.0  -0.8513
  O  O92  1  0.450870  0.663500  0.950500  1.0  -0.7946
  O  O93  1  0.383660  0.401700  0.931600  1.0  -0.6898
  O  O94  1  0.919550  0.011100  0.173750  1.0  -0.8513
  O  O95  1  0.950870  0.163500  0.950500  1.0  -0.7946
  O  O96  1  0.883660  0.901700  0.931600  1.0  -0.6898
  O  O97  1  0.419550  0.488900  0.673750  1.0  -0.851
  O  O98  1  0.450870  0.336500  0.450500  1.0  -0.7934
  O  O99  1  0.383660  0.598300  0.431600  1.0  -0.6901
  O  O100  1  0.919550  0.988900  0.673750  1.0  -0.851
  O  O101  1  0.950870  0.836500  0.450500  1.0  -0.7934
  O  O102  1  0.883660  0.098300  0.431600  1.0  -0.6901
  O  O103  1  0.580450  0.488900  0.826250  1.0  -0.8504
  O  O104  1  0.549130  0.336500  0.049500  1.0  -0.7939
  O  O105  1  0.616340  0.598300  0.068400  1.0  -0.6902
  O  O106  1  0.080450  0.988900  0.826250  1.0  -0.8504
  O  O107  1  0.049130  0.836500  0.049500  1.0  -0.7939
  O  O108  1  0.116340  0.098300  0.068400  1.0  -0.6902
