# generated using pymatgen
data_Nd2U3H6(C5O4)6
_symmetry_space_group_name_H-M   'P 1'
_cell_length_a   10.87610000
_cell_length_b   11.48660000
_cell_length_c   13.42250000
_cell_angle_alpha   69.49900000
_cell_angle_beta   79.99200000
_cell_angle_gamma   62.50600000
_symmetry_Int_Tables_number   1
_chemical_formula_structural   Nd2U3H6(C5O4)6
_chemical_formula_sum   'Nd2 U3 H6 C30 O24'
_cell_volume   1393.12283534
_cell_formula_units_Z   1
loop_
 _symmetry_equiv_pos_site_id
 _symmetry_equiv_pos_as_xyz
  1  'x, y, z'
loop_
 _atom_site_type_symbol
 _atom_site_label
 _atom_site_symmetry_multiplicity
 _atom_site_fract_x
 _atom_site_fract_y
 _atom_site_fract_z
 _atom_site_occupancy
 _atom_site_charge
  Nd  Nd1  1  0.620630  0.215190  0.774980  1.0  1.5824
  Nd  Nd2  1  0.379370  0.784810  0.225020  1.0  1.5823
  U  U3  1  0.631560  0.702860  0.833060  1.0  1.7911
  U  U4  1  0.368440  0.297140  0.166940  1.0  1.7907
  U  U5  1  0.000000  0.500000  0.500000  1.0  1.981
  H  H6  1  0.099200  0.362900  0.951000  1.0  0.1097
  H  H7  1  0.181500  0.098400  0.734200  1.0  0.1053
  H  H8  1  0.703600  0.002500  0.419800  1.0  0.1122
  H  H9  1  0.900800  0.637100  0.049000  1.0  0.1093
  H  H10  1  0.818500  0.901600  0.265800  1.0  0.1047
  H  H11  1  0.296400  0.997500  0.580200  1.0  0.1118
  C  C12  1  0.008300  0.337100  0.845900  1.0  -0.1363
  C  C13  1  0.117200  0.312400  0.904800  1.0  -0.0119
  C  C14  1  0.250700  0.214600  0.895700  1.0  -0.1228
  C  C15  1  0.277300  0.134500  0.828100  1.0  -0.0837
  C  C16  1  0.166000  0.155100  0.774800  1.0  -0.077
  C  C17  1  0.032700  0.257600  0.780100  1.0  -0.0912
  C  C18  1  0.620800  0.002000  0.451800  1.0  -0.0696
  C  C19  1  0.615200  0.875500  0.503300  1.0  -0.122
  C  C20  1  0.492300  0.874800  0.552800  1.0  -0.073
  C  C21  1  0.872100  0.455500  0.850000  1.0  0.6583
  C  C22  1  0.356900  0.198600  0.962200  1.0  0.7201
  C  C23  1  0.418800  0.029700  0.808700  1.0  0.7028
  C  C24  1  0.919100  0.277500  0.717000  1.0  0.7357
  C  C25  1  0.474500  0.745800  0.615400  1.0  0.7543
  C  C26  1  0.742600  0.744400  0.505600  1.0  0.6683
  C  C27  1  0.991700  0.662900  0.154100  1.0  -0.1368
  C  C28  1  0.882800  0.687600  0.095200  1.0  -0.0116
  C  C29  1  0.749300  0.785400  0.104300  1.0  -0.1286
  C  C30  1  0.722700  0.865500  0.171900  1.0  -0.0838
  C  C31  1  0.834000  0.844900  0.225200  1.0  -0.0771
  C  C32  1  0.967300  0.742400  0.219900  1.0  -0.0908
  C  C33  1  0.379200  0.998000  0.548200  1.0  -0.0703
  C  C34  1  0.384800  0.124500  0.496700  1.0  -0.1207
  C  C35  1  0.507700  0.125200  0.447200  1.0  -0.0724
  C  C36  1  0.127900  0.544500  0.150000  1.0  0.6615
  C  C37  1  0.643100  0.801400  0.037800  1.0  0.7186
  C  C38  1  0.581200  0.970300  0.191300  1.0  0.704
  C  C39  1  0.080900  0.722500  0.283000  1.0  0.7351
  C  C40  1  0.525500  0.254200  0.384600  1.0  0.7522
  C  C41  1  0.257400  0.255600  0.494400  1.0  0.6671
  O  O42  1  0.857100  0.528300  0.907000  1.0  -0.6793
  O  O43  1  0.774200  0.485300  0.794300  1.0  -0.6179
  O  O44  1  0.853500  0.207400  0.761200  1.0  -0.728
  O  O45  1  0.898300  0.356700  0.622700  1.0  -0.6905
  O  O46  1  0.427000  0.909500  0.827100  1.0  -0.6661
  O  O47  1  0.517000  0.059400  0.776000  1.0  -0.7048
  O  O48  1  0.476300  0.176000  0.931500  1.0  -0.731
  O  O49  1  0.312100  0.213500  0.054400  1.0  -0.7133
  O  O50  1  0.506800  0.691500  0.712400  1.0  -0.7226
  O  O51  1  0.425200  0.700100  0.569800  1.0  -0.5678
  O  O52  1  0.736200  0.631400  0.531800  1.0  -0.6277
  O  O53  1  0.857500  0.751200  0.477300  1.0  -0.689
  O  O54  1  0.142900  0.471700  0.093000  1.0  -0.6796
  O  O55  1  0.225800  0.514700  0.205700  1.0  -0.619
  O  O56  1  0.146500  0.792600  0.238800  1.0  -0.7291
  O  O57  1  0.101700  0.643300  0.377300  1.0  -0.6908
  O  O58  1  0.573000  0.090500  0.172900  1.0  -0.6668
  O  O59  1  0.483000  0.940600  0.224000  1.0  -0.7041
  O  O60  1  0.523700  0.824000  0.068500  1.0  -0.7304
  O  O61  1  0.687900  0.786500  0.945600  1.0  -0.7109
  O  O62  1  0.493200  0.308500  0.287600  1.0  -0.7244
  O  O63  1  0.574800  0.299900  0.430200  1.0  -0.5724
  O  O64  1  0.263800  0.368600  0.468200  1.0  -0.6258
  O  O65  1  0.142500  0.248800  0.522700  1.0  -0.6877
