# generated using pymatgen
data_Pr2U3H6(C5O4)6
_symmetry_space_group_name_H-M   'P 1'
_cell_length_a   10.88600000
_cell_length_b   11.47370000
_cell_length_c   13.47340000
_cell_angle_alpha   69.54400000
_cell_angle_beta   80.14900000
_cell_angle_gamma   62.65200000
_symmetry_Int_Tables_number   1
_chemical_formula_structural   Pr2U3H6(C5O4)6
_chemical_formula_sum   'Pr2 U3 H6 C30 O24'
_cell_volume   1400.40339750
_cell_formula_units_Z   1
loop_
 _symmetry_equiv_pos_site_id
 _symmetry_equiv_pos_as_xyz
  1  'x, y, z'
loop_
 _atom_site_type_symbol
 _atom_site_label
 _atom_site_symmetry_multiplicity
 _atom_site_fract_x
 _atom_site_fract_y
 _atom_site_fract_z
 _atom_site_occupancy
 _atom_site_charge
  Pr  Pr1  1  0.619750  0.215720  0.774690  1.0  1.5362
  Pr  Pr2  1  0.380250  0.784280  0.225310  1.0  1.5358
  U  U3  1  0.631710  0.702530  0.833360  1.0  1.7773
  U  U4  1  0.368290  0.297470  0.166640  1.0  1.778
  U  U5  1  0.000000  0.500000  0.500000  1.0  1.9817
  H  H6  1  0.097900  0.361600  0.950700  1.0  0.1083
  H  H7  1  0.183400  0.099100  0.733600  1.0  0.1082
  H  H8  1  0.702500  0.003200  0.418700  1.0  0.1082
  H  H9  1  0.902100  0.638400  0.049300  1.0  0.1087
  H  H10  1  0.816600  0.900900  0.266400  1.0  0.1069
  H  H11  1  0.297500  0.996800  0.581300  1.0  0.1075
  C  C12  1  0.009300  0.337000  0.844900  1.0  -0.1358
  C  C13  1  0.116600  0.311600  0.904100  1.0  -0.0241
  C  C14  1  0.251100  0.213900  0.896100  1.0  -0.1308
  C  C15  1  0.277400  0.135500  0.827100  1.0  -0.0884
  C  C16  1  0.167400  0.155500  0.774400  1.0  -0.081
  C  C17  1  0.032300  0.257800  0.780000  1.0  -0.0496
  C  C18  1  0.620500  0.002000  0.451500  1.0  -0.1032
  C  C19  1  0.616900  0.875500  0.504100  1.0  -0.1275
  C  C20  1  0.493600  0.873900  0.553800  1.0  -0.0679
  C  C21  1  0.871800  0.454600  0.849600  1.0  0.6581
  C  C22  1  0.356100  0.198300  0.963200  1.0  0.7365
  C  C23  1  0.418400  0.029200  0.808200  1.0  0.7008
  C  C24  1  0.918600  0.276500  0.717200  1.0  0.7687
  C  C25  1  0.477700  0.744300  0.614400  1.0  0.7302
  C  C26  1  0.744100  0.745100  0.506300  1.0  0.6638
  C  C27  1  0.990700  0.663000  0.155100  1.0  -0.1375
  C  C28  1  0.883400  0.688400  0.095900  1.0  -0.0256
  C  C29  1  0.748900  0.786100  0.103900  1.0  -0.1368
  C  C30  1  0.722600  0.864500  0.172900  1.0  -0.0878
  C  C31  1  0.832600  0.844500  0.225600  1.0  -0.0814
  C  C32  1  0.967700  0.742200  0.220000  1.0  -0.049
  C  C33  1  0.379500  0.998000  0.548500  1.0  -0.1048
  C  C34  1  0.383100  0.124500  0.495900  1.0  -0.1256
  C  C35  1  0.506400  0.126100  0.446200  1.0  -0.0685
  C  C36  1  0.128200  0.545400  0.150400  1.0  0.6592
  C  C37  1  0.643900  0.801700  0.036800  1.0  0.7352
  C  C38  1  0.581600  0.970800  0.191800  1.0  0.702
  C  C39  1  0.081400  0.723500  0.282800  1.0  0.7669
  C  C40  1  0.522300  0.255700  0.385600  1.0  0.7286
  C  C41  1  0.255900  0.254900  0.493700  1.0  0.6623
  O  O42  1  0.858100  0.529500  0.905600  1.0  -0.6671
  O  O43  1  0.774300  0.484200  0.794800  1.0  -0.6178
  O  O44  1  0.852800  0.207500  0.761100  1.0  -0.7057
  O  O45  1  0.899900  0.355700  0.622600  1.0  -0.7032
  O  O46  1  0.427000  0.908900  0.827400  1.0  -0.6689
  O  O47  1  0.515100  0.060600  0.774800  1.0  -0.6951
  O  O48  1  0.475600  0.175000  0.931500  1.0  -0.7409
  O  O49  1  0.312400  0.213300  0.054500  1.0  -0.7132
  O  O50  1  0.508000  0.691000  0.712800  1.0  -0.718
  O  O51  1  0.428400  0.696200  0.569700  1.0  -0.5415
  O  O52  1  0.739100  0.631700  0.535000  1.0  -0.6202
  O  O53  1  0.858300  0.751200  0.477200  1.0  -0.6766
  O  O54  1  0.141900  0.470500  0.094400  1.0  -0.6671
  O  O55  1  0.225700  0.515800  0.205200  1.0  -0.6193
  O  O56  1  0.147200  0.792500  0.238900  1.0  -0.7065
  O  O57  1  0.100100  0.644300  0.377400  1.0  -0.7049
  O  O58  1  0.573000  0.091100  0.172600  1.0  -0.6679
  O  O59  1  0.484900  0.939400  0.225200  1.0  -0.6984
  O  O60  1  0.524400  0.825000  0.068500  1.0  -0.7402
  O  O61  1  0.687600  0.786700  0.945500  1.0  -0.7094
  O  O62  1  0.492000  0.309000  0.287200  1.0  -0.7185
  O  O63  1  0.571600  0.303800  0.430300  1.0  -0.5474
  O  O64  1  0.260900  0.368300  0.465000  1.0  -0.6208
  O  O65  1  0.141700  0.248800  0.522800  1.0  -0.6752
