# generated using pymatgen
data_Yb2U3H6(C5O4)6
_symmetry_space_group_name_H-M   'P 1'
_cell_length_a   10.50900000
_cell_length_b   11.48000000
_cell_length_c   13.42600000
_cell_angle_alpha   69.13700000
_cell_angle_beta   78.67100000
_cell_angle_gamma   63.56400000
_symmetry_Int_Tables_number   1
_chemical_formula_structural   Yb2U3H6(C5O4)6
_chemical_formula_sum   'Yb2 U3 H6 C30 O24'
_cell_volume   1353.89747275
_cell_formula_units_Z   1
loop_
 _symmetry_equiv_pos_site_id
 _symmetry_equiv_pos_as_xyz
  1  'x, y, z'
loop_
 _atom_site_type_symbol
 _atom_site_label
 _atom_site_symmetry_multiplicity
 _atom_site_fract_x
 _atom_site_fract_y
 _atom_site_fract_z
 _atom_site_occupancy
 _atom_site_charge
  Yb  Yb1  1  0.597790  0.231170  0.750740  1.0  1.46
  Yb  Yb2  1  0.402210  0.768830  0.249260  1.0  1.4579
  U  U3  1  0.622330  0.714000  0.836030  1.0  1.7797
  U  U4  1  0.377670  0.286000  0.163970  1.0  1.7793
  U  U5  1  0.000000  0.500000  0.500000  1.0  1.8221
  H  H6  1  0.094400  0.359100  0.958800  1.0  0.1111
  H  H7  1  0.157400  0.112100  0.730800  1.0  0.1035
  H  H8  1  0.714500  0.001700  0.413300  1.0  0.1171
  H  H9  1  0.905600  0.640900  0.041200  1.0  0.1113
  H  H10  1  0.842600  0.887900  0.269200  1.0  0.1027
  H  H11  1  0.285500  0.998300  0.586700  1.0  0.1167
  C  C12  1  0.997000  0.342600  0.852300  1.0  -0.1085
  C  C13  1  0.109600  0.313000  0.910000  1.0  -0.0367
  C  C14  1  0.245700  0.214900  0.895800  1.0  -0.1097
  C  C15  1  0.265600  0.142700  0.823300  1.0  -0.0945
  C  C16  1  0.146700  0.165000  0.773200  1.0  -0.0328
  C  C17  1  0.012300  0.266800  0.787200  1.0  -0.0396
  C  C18  1  0.628700  0.001900  0.448000  1.0  -0.0777
  C  C19  1  0.616500  0.876200  0.504900  1.0  -0.1295
  C  C20  1  0.486200  0.876800  0.555600  1.0  -0.0581
  C  C21  1  0.862400  0.462500  0.857400  1.0  0.6866
  C  C22  1  0.360000  0.194600  0.956600  1.0  0.7502
  C  C23  1  0.407500  0.042000  0.795000  1.0  0.6968
  C  C24  1  0.892200  0.292900  0.724600  1.0  0.7299
  C  C25  1  0.465500  0.749200  0.620100  1.0  0.7322
  C  C26  1  0.743800  0.747500  0.506100  1.0  0.6295
  C  C27  1  0.003000  0.657400  0.147700  1.0  -0.1097
  C  C28  1  0.890400  0.687000  0.090000  1.0  -0.0357
  C  C29  1  0.754300  0.785100  0.104200  1.0  -0.1115
  C  C30  1  0.734400  0.857300  0.176700  1.0  -0.0943
  C  C31  1  0.853300  0.835000  0.226800  1.0  -0.033
  C  C32  1  0.987700  0.733200  0.212800  1.0  -0.0396
  C  C33  1  0.371300  0.998100  0.552000  1.0  -0.08
  C  C34  1  0.383500  0.123800  0.495100  1.0  -0.1278
  C  C35  1  0.513800  0.123200  0.444400  1.0  -0.0579
  C  C36  1  0.137600  0.537500  0.142600  1.0  0.6873
  C  C37  1  0.640000  0.805400  0.043400  1.0  0.7516
  C  C38  1  0.592500  0.958000  0.205000  1.0  0.6979
  C  C39  1  0.107800  0.707100  0.275400  1.0  0.7324
  C  C40  1  0.534500  0.250800  0.379900  1.0  0.7303
  C  C41  1  0.256200  0.252500  0.493900  1.0  0.6275
  O  O42  1  0.852300  0.534400  0.914000  1.0  -0.6747
  O  O43  1  0.761400  0.497100  0.799400  1.0  -0.603
  O  O44  1  0.812100  0.234200  0.772600  1.0  -0.7556
  O  O45  1  0.885400  0.362500  0.626200  1.0  -0.706
  O  O46  1  0.415300  0.921900  0.817000  1.0  -0.653
  O  O47  1  0.504600  0.079200  0.755300  1.0  -0.6967
  O  O48  1  0.482700  0.179900  0.915400  1.0  -0.7098
  O  O49  1  0.328400  0.195100  0.051200  1.0  -0.7158
  O  O50  1  0.498400  0.694400  0.719000  1.0  -0.7158
  O  O51  1  0.409500  0.702600  0.579200  1.0  -0.5394
  O  O52  1  0.734700  0.634100  0.533400  1.0  -0.6338
  O  O53  1  0.863400  0.748300  0.481400  1.0  -0.6123
  O  O54  1  0.147700  0.465600  0.086000  1.0  -0.6741
  O  O55  1  0.238600  0.502900  0.200600  1.0  -0.6052
  O  O56  1  0.187900  0.765800  0.227400  1.0  -0.7556
  O  O57  1  0.114600  0.637500  0.373800  1.0  -0.7075
  O  O58  1  0.584700  0.078100  0.183000  1.0  -0.6495
  O  O59  1  0.495400  0.920800  0.244700  1.0  -0.6992
  O  O60  1  0.517300  0.820100  0.084600  1.0  -0.7107
  O  O61  1  0.671600  0.804900  0.948800  1.0  -0.7148
  O  O62  1  0.501600  0.305600  0.281000  1.0  -0.7169
  O  O63  1  0.590500  0.297400  0.420800  1.0  -0.5445
  O  O64  1  0.265300  0.365900  0.466600  1.0  -0.6324
  O  O65  1  0.136600  0.251700  0.518600  1.0  -0.611
