# generated using pymatgen
data_Ce2U3H6(C5O4)6
_symmetry_space_group_name_H-M   'P 1'
_cell_length_a   10.94530000
_cell_length_b   11.48510000
_cell_length_c   13.45300000
_cell_angle_alpha   69.53900000
_cell_angle_beta   80.09500000
_cell_angle_gamma   62.42000000
_symmetry_Int_Tables_number   1
_chemical_formula_structural   Ce2U3H6(C5O4)6
_chemical_formula_sum   'Ce2 U3 H6 C30 O24'
_cell_volume   1404.29964662
_cell_formula_units_Z   1
loop_
 _symmetry_equiv_pos_site_id
 _symmetry_equiv_pos_as_xyz
  1  'x, y, z'
loop_
 _atom_site_type_symbol
 _atom_site_label
 _atom_site_symmetry_multiplicity
 _atom_site_fract_x
 _atom_site_fract_y
 _atom_site_fract_z
 _atom_site_occupancy
 _atom_site_charge
  Ce  Ce1  1  0.621990  0.213980  0.775130  1.0  1.5493
  Ce  Ce2  1  0.378010  0.786020  0.224870  1.0  1.5505
  U  U3  1  0.632660  0.701780  0.833520  1.0  1.7694
  U  U4  1  0.367340  0.298220  0.166480  1.0  1.7698
  U  U5  1  0.000000  0.500000  0.500000  1.0  1.9766
  H  H6  1  0.099700  0.361100  0.951500  1.0  0.105
  H  H7  1  0.183300  0.098700  0.732900  1.0  0.0997
  H  H8  1  0.701600  0.002600  0.418600  1.0  0.1094
  H  H9  1  0.900300  0.638900  0.048500  1.0  0.105
  H  H10  1  0.816700  0.901300  0.267100  1.0  0.0992
  H  H11  1  0.298400  0.997400  0.581400  1.0  0.1088
  C  C12  1  0.008300  0.335900  0.845800  1.0  -0.1169
  C  C13  1  0.118000  0.311200  0.904900  1.0  -0.0235
  C  C14  1  0.251000  0.215100  0.895200  1.0  -0.14
  C  C15  1  0.278000  0.136700  0.826700  1.0  -0.0827
  C  C16  1  0.167100  0.155300  0.773700  1.0  -0.0541
  C  C17  1  0.032600  0.256800  0.780600  1.0  -0.0667
  C  C18  1  0.620100  0.001100  0.451500  1.0  -0.1068
  C  C19  1  0.618100  0.874300  0.503600  1.0  -0.1314
  C  C20  1  0.494600  0.873600  0.553400  1.0  -0.0785
  C  C21  1  0.872700  0.454700  0.848700  1.0  0.6444
  C  C22  1  0.355900  0.198500  0.962200  1.0  0.7319
  C  C23  1  0.419100  0.027800  0.809000  1.0  0.7307
  C  C24  1  0.921100  0.274900  0.717100  1.0  0.7708
  C  C25  1  0.479600  0.744700  0.616400  1.0  0.7395
  C  C26  1  0.742200  0.744700  0.507800  1.0  0.6486
  C  C27  1  0.991700  0.664100  0.154200  1.0  -0.1191
  C  C28  1  0.882000  0.688800  0.095100  1.0  -0.0224
  C  C29  1  0.749000  0.784900  0.104800  1.0  -0.1463
  C  C30  1  0.722000  0.863300  0.173300  1.0  -0.0834
  C  C31  1  0.832900  0.844700  0.226300  1.0  -0.0543
  C  C32  1  0.967400  0.743200  0.219400  1.0  -0.0669
  C  C33  1  0.379900  0.998900  0.548500  1.0  -0.1091
  C  C34  1  0.381900  0.125700  0.496400  1.0  -0.1309
  C  C35  1  0.505400  0.126400  0.446600  1.0  -0.0784
  C  C36  1  0.127300  0.545300  0.151300  1.0  0.6459
  C  C37  1  0.644100  0.801500  0.037800  1.0  0.7311
  C  C38  1  0.580900  0.972200  0.191000  1.0  0.7317
  C  C39  1  0.078900  0.725100  0.282900  1.0  0.7716
  C  C40  1  0.520400  0.255300  0.383600  1.0  0.7381
  C  C41  1  0.257800  0.255300  0.492200  1.0  0.6481
  O  O42  1  0.858700  0.528700  0.905100  1.0  -0.6004
  O  O43  1  0.775300  0.484200  0.794400  1.0  -0.6149
  O  O44  1  0.856400  0.205900  0.761200  1.0  -0.6925
  O  O45  1  0.900900  0.355300  0.622600  1.0  -0.7016
  O  O46  1  0.428300  0.908100  0.827500  1.0  -0.6741
  O  O47  1  0.515500  0.060500  0.774900  1.0  -0.7347
  O  O48  1  0.475100  0.174100  0.931500  1.0  -0.7201
  O  O49  1  0.311800  0.214600  0.053800  1.0  -0.7185
  O  O50  1  0.508600  0.691400  0.712800  1.0  -0.7287
  O  O51  1  0.428800  0.698200  0.570400  1.0  -0.561
  O  O52  1  0.739100  0.629700  0.533900  1.0  -0.6424
  O  O53  1  0.856300  0.751300  0.478600  1.0  -0.6921
  O  O54  1  0.141300  0.471300  0.094900  1.0  -0.6019
  O  O55  1  0.224700  0.515800  0.205600  1.0  -0.6156
  O  O56  1  0.143600  0.794100  0.238800  1.0  -0.6916
  O  O57  1  0.099100  0.644700  0.377400  1.0  -0.7025
  O  O58  1  0.571700  0.091900  0.172500  1.0  -0.6759
  O  O59  1  0.484500  0.939500  0.225100  1.0  -0.7339
  O  O60  1  0.524900  0.825900  0.068500  1.0  -0.7202
  O  O61  1  0.688200  0.785400  0.946200  1.0  -0.716
  O  O62  1  0.491400  0.308600  0.287200  1.0  -0.7287
  O  O63  1  0.571200  0.301800  0.429600  1.0  -0.5656
  O  O64  1  0.260900  0.370300  0.466100  1.0  -0.6407
  O  O65  1  0.143700  0.248700  0.521400  1.0  -0.6901
