# generated using pymatgen
data_Sm2U3H6(C5O4)6
_symmetry_space_group_name_H-M   'P 1'
_cell_length_a   10.67000000
_cell_length_b   11.49110000
_cell_length_c   13.44480000
_cell_angle_alpha   69.15900000
_cell_angle_beta   78.91300000
_cell_angle_gamma   63.13200000
_symmetry_Int_Tables_number   1
_chemical_formula_structural   Sm2U3H6(C5O4)6
_chemical_formula_sum   'Sm2 U3 H6 C30 O24'
_cell_volume   1373.31956767
_cell_formula_units_Z   1
loop_
 _symmetry_equiv_pos_site_id
 _symmetry_equiv_pos_as_xyz
  1  'x, y, z'
loop_
 _atom_site_type_symbol
 _atom_site_label
 _atom_site_symmetry_multiplicity
 _atom_site_fract_x
 _atom_site_fract_y
 _atom_site_fract_z
 _atom_site_occupancy
 _atom_site_charge
  Sm  Sm1  1  0.605370  0.226110  0.752930  1.0  1.7841
  Sm  Sm2  1  0.394630  0.773890  0.247070  1.0  1.7855
  U  U3  1  0.626750  0.710240  0.836130  1.0  1.7583
  U  U4  1  0.373250  0.289760  0.163870  1.0  1.7573
  U  U5  1  0.000000  0.500000  0.500000  1.0  1.9134
  H  H6  1  0.099000  0.360300  0.956700  1.0  0.101
  H  H7  1  0.165300  0.105800  0.734900  1.0  0.0941
  H  H8  1  0.709800  0.999900  0.415400  1.0  0.1017
  H  H9  1  0.901000  0.639700  0.043300  1.0  0.1012
  H  H10  1  0.834700  0.894200  0.265100  1.0  0.0936
  H  H11  1  0.290200  0.000100  0.584600  1.0  0.1027
  C  C12  1  0.002400  0.340700  0.850800  1.0  -0.1449
  C  C13  1  0.114300  0.313700  0.908300  1.0  -0.0458
  C  C14  1  0.249200  0.216500  0.892500  1.0  -0.1157
  C  C15  1  0.269500  0.140500  0.824900  1.0  -0.0773
  C  C16  1  0.153300  0.161500  0.775100  1.0  -0.0605
  C  C17  1  0.020900  0.263900  0.784700  1.0  -0.0548
  C  C18  1  0.625500  0.000000  0.450100  1.0  -0.0598
  C  C19  1  0.618600  0.874700  0.507100  1.0  -0.1296
  C  C20  1  0.490000  0.875000  0.556400  1.0  -0.0796
  C  C21  1  0.866800  0.462600  0.857200  1.0  0.6676
  C  C22  1  0.361200  0.194900  0.957900  1.0  0.7352
  C  C23  1  0.410400  0.038100  0.799700  1.0  0.6591
  C  C24  1  0.902800  0.286800  0.724200  1.0  0.7366
  C  C25  1  0.471300  0.744900  0.621200  1.0  0.7373
  C  C26  1  0.746300  0.746300  0.509900  1.0  0.6549
  C  C27  1  0.997600  0.659300  0.149200  1.0  -0.1456
  C  C28  1  0.885700  0.686300  0.091700  1.0  -0.045
  C  C29  1  0.750800  0.783500  0.107500  1.0  -0.1202
  C  C30  1  0.730500  0.859500  0.175100  1.0  -0.0776
  C  C31  1  0.846700  0.838500  0.224900  1.0  -0.0613
  C  C32  1  0.979100  0.736100  0.215300  1.0  -0.0542
  C  C33  1  0.374500  0.000000  0.549900  1.0  -0.0628
  C  C34  1  0.381400  0.125300  0.492900  1.0  -0.1296
  C  C35  1  0.510000  0.125000  0.443600  1.0  -0.08
  C  C36  1  0.133200  0.537400  0.142800  1.0  0.6685
  C  C37  1  0.638800  0.805100  0.042100  1.0  0.7343
  C  C38  1  0.589600  0.961900  0.200300  1.0  0.6607
  C  C39  1  0.097200  0.713200  0.275800  1.0  0.7373
  C  C40  1  0.528700  0.255100  0.378800  1.0  0.7333
  C  C41  1  0.253700  0.253700  0.490100  1.0  0.6573
  O  O42  1  0.853600  0.534400  0.912800  1.0  -0.6936
  O  O43  1  0.767400  0.492600  0.800800  1.0  -0.6394
  O  O44  1  0.824700  0.228500  0.769100  1.0  -0.7554
  O  O45  1  0.891400  0.361300  0.626000  1.0  -0.7214
  O  O46  1  0.419700  0.917100  0.822000  1.0  -0.6948
  O  O47  1  0.504000  0.071900  0.756900  1.0  -0.6678
  O  O48  1  0.481800  0.174600  0.918900  1.0  -0.7509
  O  O49  1  0.324000  0.201100  0.052000  1.0  -0.6966
  O  O50  1  0.505900  0.694400  0.716900  1.0  -0.7356
  O  O51  1  0.415600  0.701300  0.578700  1.0  -0.5341
  O  O52  1  0.736100  0.632800  0.535600  1.0  -0.6562
  O  O53  1  0.862600  0.749900  0.478600  1.0  -0.6691
  O  O54  1  0.146400  0.465600  0.087200  1.0  -0.6923
  O  O55  1  0.232600  0.507400  0.199200  1.0  -0.6406
  O  O56  1  0.175300  0.771500  0.230900  1.0  -0.7553
  O  O57  1  0.108600  0.638700  0.374000  1.0  -0.7222
  O  O58  1  0.580300  0.082900  0.178000  1.0  -0.6936
  O  O59  1  0.496000  0.928100  0.243100  1.0  -0.6709
  O  O60  1  0.518200  0.825400  0.081100  1.0  -0.7499
  O  O61  1  0.676000  0.798900  0.948000  1.0  -0.6954
  O  O62  1  0.494100  0.305600  0.283100  1.0  -0.7361
  O  O63  1  0.584400  0.298700  0.421300  1.0  -0.5372
  O  O64  1  0.263900  0.367200  0.464400  1.0  -0.6556
  O  O65  1  0.137400  0.250100  0.521400  1.0  -0.667
