# generated using pymatgen
data_Dy2U3H6(C5O4)6
_symmetry_space_group_name_H-M   'P 1'
_cell_length_a   10.53630000
_cell_length_b   11.46980000
_cell_length_c   13.41140000
_cell_angle_alpha   69.02800000
_cell_angle_beta   78.40600000
_cell_angle_gamma   63.41400000
_symmetry_Int_Tables_number   1
_chemical_formula_structural   Dy2U3H6(C5O4)6
_chemical_formula_sum   'Dy2 U3 H6 C30 O24'
_cell_volume   1351.75468549
_cell_formula_units_Z   1
loop_
 _symmetry_equiv_pos_site_id
 _symmetry_equiv_pos_as_xyz
  1  'x, y, z'
loop_
 _atom_site_type_symbol
 _atom_site_label
 _atom_site_symmetry_multiplicity
 _atom_site_fract_x
 _atom_site_fract_y
 _atom_site_fract_z
 _atom_site_occupancy
 _atom_site_charge
  Dy  Dy1  1  0.600330  0.229420  0.749300  1.0  1.8235
  Dy  Dy2  1  0.399670  0.770580  0.250700  1.0  1.8252
  U  U3  1  0.623820  0.712450  0.836960  1.0  1.7968
  U  U4  1  0.376180  0.287550  0.163040  1.0  1.7969
  U  U5  1  0.000000  0.500000  0.500000  1.0  1.8244
  H  H6  1  0.095800  0.357700  0.959700  1.0  0.1021
  H  H7  1  0.155700  0.109600  0.734900  1.0  0.0889
  H  H8  1  0.712600  0.998000  0.418300  1.0  0.0933
  H  H9  1  0.904200  0.642300  0.040300  1.0  0.1016
  H  H10  1  0.844300  0.890400  0.265100  1.0  0.0876
  H  H11  1  0.287400  0.002000  0.581700  1.0  0.0942
  C  C12  1  0.996400  0.341500  0.853800  1.0  -0.1504
  C  C13  1  0.111000  0.312000  0.910500  1.0  -0.0603
  C  C14  1  0.247900  0.215100  0.894700  1.0  -0.1169
  C  C15  1  0.266600  0.141900  0.823700  1.0  -0.0939
  C  C16  1  0.145700  0.164800  0.775100  1.0  -0.1011
  C  C17  1  0.015500  0.265600  0.786100  1.0  -0.0474
  C  C18  1  0.626000  0.998700  0.451500  1.0  -0.0718
  C  C19  1  0.618600  0.875700  0.506000  1.0  -0.1661
  C  C20  1  0.487900  0.875900  0.557100  1.0  -0.0898
  C  C21  1  0.862100  0.463000  0.860700  1.0  0.6758
  C  C22  1  0.362300  0.192700  0.957900  1.0  0.7495
  C  C23  1  0.408300  0.041000  0.794800  1.0  0.676
  C  C24  1  0.896400  0.291300  0.725000  1.0  0.7046
  C  C25  1  0.468000  0.747400  0.622100  1.0  0.7328
  C  C26  1  0.743100  0.745500  0.508400  1.0  0.6836
  C  C27  1  0.003600  0.658500  0.146200  1.0  -0.1502
  C  C28  1  0.889000  0.688000  0.089500  1.0  -0.0605
  C  C29  1  0.752100  0.784900  0.105300  1.0  -0.1185
  C  C30  1  0.733400  0.858100  0.176300  1.0  -0.0936
  C  C31  1  0.854300  0.835200  0.224900  1.0  -0.0994
  C  C32  1  0.984500  0.734400  0.213900  1.0  -0.0469
  C  C33  1  0.374000  0.001300  0.548500  1.0  -0.0734
  C  C34  1  0.381400  0.124300  0.494000  1.0  -0.1613
  C  C35  1  0.512100  0.124100  0.442900  1.0  -0.0905
  C  C36  1  0.137900  0.537000  0.139300  1.0  0.6774
  C  C37  1  0.637700  0.807300  0.042100  1.0  0.7496
  C  C38  1  0.591700  0.959000  0.205200  1.0  0.6769
  C  C39  1  0.103600  0.708700  0.275000  1.0  0.7054
  C  C40  1  0.532000  0.252600  0.377900  1.0  0.7301
  C  C41  1  0.256900  0.254500  0.491600  1.0  0.6841
  O  O42  1  0.850400  0.535300  0.914800  1.0  -0.6787
  O  O43  1  0.761900  0.495000  0.803100  1.0  -0.6297
  O  O44  1  0.815000  0.233800  0.772000  1.0  -0.7729
  O  O45  1  0.887700  0.362300  0.628300  1.0  -0.7233
  O  O46  1  0.417000  0.920100  0.820000  1.0  -0.6699
  O  O47  1  0.502100  0.077100  0.751900  1.0  -0.652
  O  O48  1  0.483600  0.174800  0.916700  1.0  -0.7161
  O  O49  1  0.326300  0.196500  0.052400  1.0  -0.7277
  O  O50  1  0.502000  0.695100  0.718400  1.0  -0.7197
  O  O51  1  0.410700  0.701500  0.581600  1.0  -0.5161
  O  O52  1  0.733000  0.633600  0.533600  1.0  -0.6483
  O  O53  1  0.866100  0.750500  0.479100  1.0  -0.6877
  O  O54  1  0.149600  0.464700  0.085200  1.0  -0.6786
  O  O55  1  0.238100  0.505000  0.196900  1.0  -0.6312
  O  O56  1  0.185000  0.766200  0.228000  1.0  -0.7737
  O  O57  1  0.112300  0.637700  0.371700  1.0  -0.7227
  O  O58  1  0.583000  0.079900  0.180000  1.0  -0.6695
  O  O59  1  0.497900  0.922900  0.248100  1.0  -0.6548
  O  O60  1  0.516400  0.825200  0.083300  1.0  -0.7151
  O  O61  1  0.673700  0.803500  0.947600  1.0  -0.7238
  O  O62  1  0.498000  0.304900  0.281600  1.0  -0.7203
  O  O63  1  0.589300  0.298500  0.418400  1.0  -0.5237
  O  O64  1  0.267000  0.366400  0.466400  1.0  -0.6468
  O  O65  1  0.133900  0.249500  0.520900  1.0  -0.6863
