# generated using pymatgen
data_Tb2U3H6(C5O4)6
_symmetry_space_group_name_H-M   'P 1'
_cell_length_a   10.56750000
_cell_length_b   11.51480000
_cell_length_c   13.43060000
_cell_angle_alpha   69.15100000
_cell_angle_beta   78.56900000
_cell_angle_gamma   63.22800000
_symmetry_Int_Tables_number   1
_chemical_formula_structural   Tb2U3H6(C5O4)6
_chemical_formula_sum   'Tb2 U3 H6 C30 O24'
_cell_volume   1362.14292092
_cell_formula_units_Z   1
loop_
 _symmetry_equiv_pos_site_id
 _symmetry_equiv_pos_as_xyz
  1  'x, y, z'
loop_
 _atom_site_type_symbol
 _atom_site_label
 _atom_site_symmetry_multiplicity
 _atom_site_fract_x
 _atom_site_fract_y
 _atom_site_fract_z
 _atom_site_occupancy
 _atom_site_charge
  Tb  Tb1  1  0.600450  0.229540  0.750070  1.0  1.803
  Tb  Tb2  1  0.399550  0.770460  0.249930  1.0  1.8033
  U  U3  1  0.624280  0.713030  0.836170  1.0  1.7575
  U  U4  1  0.375720  0.286970  0.163830  1.0  1.7569
  U  U5  1  0.000000  0.500000  0.500000  1.0  1.8504
  H  H6  1  0.096500  0.358500  0.957700  1.0  0.0988
  H  H7  1  0.160100  0.111800  0.733400  1.0  0.0908
  H  H8  1  0.713400  0.998100  0.416400  1.0  0.101
  H  H9  1  0.903500  0.641500  0.042300  1.0  0.0992
  H  H10  1  0.839900  0.888200  0.266600  1.0  0.0902
  H  H11  1  0.286600  0.001900  0.583600  1.0  0.102
  C  C12  1  0.998300  0.343300  0.851300  1.0  -0.135
  C  C13  1  0.111600  0.312600  0.908800  1.0  -0.0396
  C  C14  1  0.246100  0.215500  0.894900  1.0  -0.1221
  C  C15  1  0.266400  0.142400  0.824000  1.0  -0.0857
  C  C16  1  0.148800  0.165900  0.774800  1.0  -0.0878
  C  C17  1  0.015800  0.267100  0.785600  1.0  -0.0621
  C  C18  1  0.627200  0.998900  0.449900  1.0  -0.0482
  C  C19  1  0.617200  0.875500  0.505000  1.0  -0.1411
  C  C20  1  0.488100  0.877000  0.556400  1.0  -0.0773
  C  C21  1  0.864300  0.462700  0.856700  1.0  0.6538
  C  C22  1  0.361400  0.194800  0.956600  1.0  0.7185
  C  C23  1  0.408200  0.039200  0.798300  1.0  0.7262
  C  C24  1  0.896600  0.291100  0.724100  1.0  0.7326
  C  C25  1  0.467000  0.748900  0.622000  1.0  0.7261
  C  C26  1  0.744200  0.746500  0.506600  1.0  0.6574
  C  C27  1  0.001700  0.656700  0.148700  1.0  -0.136
  C  C28  1  0.888400  0.687400  0.091200  1.0  -0.0388
  C  C29  1  0.753900  0.784500  0.105100  1.0  -0.1244
  C  C30  1  0.733600  0.857600  0.176000  1.0  -0.0863
  C  C31  1  0.851200  0.834100  0.225200  1.0  -0.0878
  C  C32  1  0.984200  0.732900  0.214400  1.0  -0.0622
  C  C33  1  0.372800  0.001100  0.550100  1.0  -0.0503
  C  C34  1  0.382800  0.124500  0.495000  1.0  -0.141
  C  C35  1  0.511900  0.123000  0.443600  1.0  -0.0785
  C  C36  1  0.135700  0.537300  0.143300  1.0  0.6524
  C  C37  1  0.638600  0.805200  0.043400  1.0  0.7184
  C  C38  1  0.591800  0.960800  0.201700  1.0  0.7283
  C  C39  1  0.103400  0.708900  0.275900  1.0  0.7341
  C  C40  1  0.533000  0.251100  0.378000  1.0  0.7236
  C  C41  1  0.255800  0.253500  0.493400  1.0  0.6578
  O  O42  1  0.851500  0.536100  0.913100  1.0  -0.6966
  O  O43  1  0.763000  0.495400  0.801600  1.0  -0.6274
  O  O44  1  0.817700  0.233000  0.770600  1.0  -0.7615
  O  O45  1  0.887300  0.363300  0.626500  1.0  -0.726
  O  O46  1  0.417900  0.920000  0.820900  1.0  -0.6624
  O  O47  1  0.503800  0.076800  0.754300  1.0  -0.7073
  O  O48  1  0.482300  0.176600  0.917800  1.0  -0.6897
  O  O49  1  0.324500  0.197800  0.052800  1.0  -0.7369
  O  O50  1  0.501400  0.696900  0.717600  1.0  -0.725
  O  O51  1  0.410500  0.703100  0.580900  1.0  -0.5236
  O  O52  1  0.733800  0.634000  0.534000  1.0  -0.6487
  O  O53  1  0.863800  0.748600  0.478000  1.0  -0.6806
  O  O54  1  0.148500  0.463900  0.086900  1.0  -0.6945
  O  O55  1  0.237000  0.504600  0.198400  1.0  -0.6288
  O  O56  1  0.182300  0.767000  0.229400  1.0  -0.7615
  O  O57  1  0.112700  0.636700  0.373500  1.0  -0.7275
  O  O58  1  0.582100  0.080000  0.179100  1.0  -0.6603
  O  O59  1  0.496200  0.923200  0.245700  1.0  -0.7106
  O  O60  1  0.517700  0.823400  0.082200  1.0  -0.6897
  O  O61  1  0.675500  0.802200  0.947200  1.0  -0.736
  O  O62  1  0.498600  0.303100  0.282400  1.0  -0.7262
  O  O63  1  0.589500  0.296900  0.419100  1.0  -0.5305
  O  O64  1  0.266200  0.366000  0.466000  1.0  -0.6476
  O  O65  1  0.136200  0.251400  0.522000  1.0  -0.6791
