# generated using pymatgen
data_Gd2U3H6(C5O4)6
_symmetry_space_group_name_H-M   'P 1'
_cell_length_a   10.58700000
_cell_length_b   11.48700000
_cell_length_c   13.37200000
_cell_angle_alpha   69.30100000
_cell_angle_beta   79.25000000
_cell_angle_gamma   63.14000000
_symmetry_Int_Tables_number   1
_chemical_formula_structural   Gd2U3H6(C5O4)6
_chemical_formula_sum   'Gd2 U3 H6 C30 O24'
_cell_volume   1356.41320337
_cell_formula_units_Z   1
loop_
 _symmetry_equiv_pos_site_id
 _symmetry_equiv_pos_as_xyz
  1  'x, y, z'
loop_
 _atom_site_type_symbol
 _atom_site_label
 _atom_site_symmetry_multiplicity
 _atom_site_fract_x
 _atom_site_fract_y
 _atom_site_fract_z
 _atom_site_occupancy
 _atom_site_charge
  Gd  Gd1  1  0.603810  0.227740  0.754570  1.0  1.8387
  Gd  Gd2  1  0.396190  0.772260  0.245430  1.0  1.8385
  U  U3  1  0.625330  0.712790  0.834660  1.0  1.8284
  U  U4  1  0.374670  0.287210  0.165340  1.0  1.8278
  U  U5  1  0.000000  0.500000  0.500000  1.0  1.9651
  H  H6  1  0.097400  0.361000  0.954300  1.0  0.0866
  H  H7  1  0.164500  0.107400  0.736700  1.0  0.089
  H  H8  1  0.709300  0.998900  0.416200  1.0  0.0969
  H  H9  1  0.902600  0.639000  0.045700  1.0  0.0871
  H  H10  1  0.835500  0.892600  0.263300  1.0  0.0887
  H  H11  1  0.290700  0.001100  0.583800  1.0  0.0978
  C  C12  1  0.001800  0.342200  0.849900  1.0  -0.1335
  C  C13  1  0.113400  0.313200  0.906400  1.0  -0.0649
  C  C14  1  0.247500  0.216900  0.895500  1.0  -0.1029
  C  C15  1  0.269300  0.141300  0.826300  1.0  -0.0864
  C  C16  1  0.152500  0.163600  0.776800  1.0  -0.0895
  C  C17  1  0.019400  0.265700  0.784500  1.0  -0.0728
  C  C18  1  0.623800  0.999800  0.449800  1.0  -0.1027
  C  C19  1  0.615300  0.875800  0.503700  1.0  -0.1384
  C  C20  1  0.490200  0.875200  0.555800  1.0  -0.0529
  C  C21  1  0.864200  0.464500  0.853400  1.0  0.653
  C  C22  1  0.360300  0.196900  0.957100  1.0  0.7232
  C  C23  1  0.410000  0.037300  0.803100  1.0  0.6969
  C  C24  1  0.900100  0.291400  0.724100  1.0  0.7007
  C  C25  1  0.468600  0.749700  0.619400  1.0  0.7406
  C  C26  1  0.743100  0.745700  0.503400  1.0  0.6741
  C  C27  1  0.998200  0.657800  0.150100  1.0  -0.1352
  C  C28  1  0.886600  0.686800  0.093600  1.0  -0.0636
  C  C29  1  0.752500  0.783100  0.104500  1.0  -0.105
  C  C30  1  0.730700  0.858700  0.173700  1.0  -0.0872
  C  C31  1  0.847500  0.836400  0.223200  1.0  -0.0901
  C  C32  1  0.980600  0.734300  0.215500  1.0  -0.0719
  C  C33  1  0.376200  0.000200  0.550200  1.0  -0.1042
  C  C34  1  0.384700  0.124200  0.496300  1.0  -0.138
  C  C35  1  0.509800  0.124800  0.444200  1.0  -0.053
  C  C36  1  0.135800  0.535500  0.146600  1.0  0.6536
  C  C37  1  0.639700  0.803100  0.042900  1.0  0.7222
  C  C38  1  0.590000  0.962700  0.196900  1.0  0.6975
  C  C39  1  0.099900  0.708600  0.275900  1.0  0.6993
  C  C40  1  0.531400  0.250300  0.380600  1.0  0.7381
  C  C41  1  0.256900  0.254300  0.496600  1.0  0.6733
  O  O42  1  0.852500  0.535700  0.909600  1.0  -0.6919
  O  O43  1  0.763900  0.495700  0.798900  1.0  -0.6226
  O  O44  1  0.824800  0.229500  0.767500  1.0  -0.761
  O  O45  1  0.889300  0.364000  0.625400  1.0  -0.7275
  O  O46  1  0.419200  0.917900  0.823300  1.0  -0.6822
  O  O47  1  0.507600  0.071200  0.762100  1.0  -0.7182
  O  O48  1  0.479400  0.179700  0.920100  1.0  -0.7407
  O  O49  1  0.322400  0.200400  0.053700  1.0  -0.7397
  O  O50  1  0.503800  0.696600  0.716300  1.0  -0.7244
  O  O51  1  0.414200  0.704500  0.577700  1.0  -0.556
  O  O52  1  0.732900  0.634600  0.532300  1.0  -0.6284
  O  O53  1  0.861000  0.748200  0.477000  1.0  -0.6682
  O  O54  1  0.147500  0.464300  0.090400  1.0  -0.692
  O  O55  1  0.236100  0.504300  0.201100  1.0  -0.6225
  O  O56  1  0.175200  0.770500  0.232500  1.0  -0.7618
  O  O57  1  0.110700  0.636000  0.374600  1.0  -0.7277
  O  O58  1  0.580800  0.082100  0.176700  1.0  -0.6815
  O  O59  1  0.492400  0.928800  0.237900  1.0  -0.7204
  O  O60  1  0.520600  0.820300  0.079900  1.0  -0.7403
  O  O61  1  0.677600  0.799600  0.946300  1.0  -0.7386
  O  O62  1  0.496200  0.303400  0.283700  1.0  -0.7253
  O  O63  1  0.585800  0.295500  0.422300  1.0  -0.5595
  O  O64  1  0.267100  0.365400  0.467700  1.0  -0.6275
  O  O65  1  0.139000  0.251800  0.523000  1.0  -0.6671
