# generated using pymatgen
data_Eu2U3H6(C5O4)6
_symmetry_space_group_name_H-M   'P 1'
_cell_length_a   10.64270000
_cell_length_b   11.50080000
_cell_length_c   13.47310000
_cell_angle_alpha   69.14200000
_cell_angle_beta   78.86500000
_cell_angle_gamma   63.20800000
_symmetry_Int_Tables_number   1
_chemical_formula_structural   Eu2U3H6(C5O4)6
_chemical_formula_sum   'Eu2 U3 H6 C30 O24'
_cell_volume   1374.54470853
_cell_formula_units_Z   1
loop_
 _symmetry_equiv_pos_site_id
 _symmetry_equiv_pos_as_xyz
  1  'x, y, z'
loop_
 _atom_site_type_symbol
 _atom_site_label
 _atom_site_symmetry_multiplicity
 _atom_site_fract_x
 _atom_site_fract_y
 _atom_site_fract_z
 _atom_site_occupancy
 _atom_site_charge
  Eu  Eu1  1  0.603290  0.228000  0.751400  1.0  1.7463
  Eu  Eu2  1  0.396710  0.772000  0.248600  1.0  1.7462
  U  U3  1  0.625790  0.711280  0.836500  1.0  1.7805
  U  U4  1  0.374210  0.288720  0.163500  1.0  1.7811
  U  U5  1  0.000000  0.500000  0.500000  1.0  1.8522
  H  H6  1  0.098800  0.360100  0.955800  1.0  0.1021
  H  H7  1  0.163100  0.108200  0.735000  1.0  0.0959
  H  H8  1  0.711200  0.001300  0.416600  1.0  0.1111
  H  H9  1  0.901200  0.639900  0.044200  1.0  0.1037
  H  H10  1  0.836900  0.891800  0.265000  1.0  0.1009
  H  H11  1  0.288800  0.998700  0.583400  1.0  0.1119
  C  C12  1  0.001700  0.342300  0.851200  1.0  -0.1372
  C  C13  1  0.113700  0.313200  0.907900  1.0  -0.0079
  C  C14  1  0.247700  0.215200  0.894500  1.0  -0.1026
  C  C15  1  0.267500  0.143100  0.824200  1.0  -0.0822
  C  C16  1  0.151400  0.163700  0.775200  1.0  -0.0553
  C  C17  1  0.019400  0.265300  0.785700  1.0  -0.0598
  C  C18  1  0.626000  0.001200  0.449600  1.0  -0.0462
  C  C19  1  0.615300  0.876300  0.505600  1.0  -0.1332
  C  C20  1  0.491600  0.875700  0.556200  1.0  -0.0794
  C  C21  1  0.866800  0.462900  0.856600  1.0  0.6393
  C  C22  1  0.362400  0.193700  0.958100  1.0  0.7028
  C  C23  1  0.410100  0.037700  0.797700  1.0  0.6638
  C  C24  1  0.900600  0.290400  0.723100  1.0  0.7139
  C  C25  1  0.470800  0.744500  0.621700  1.0  0.7191
  C  C26  1  0.746200  0.746200  0.507700  1.0  0.6787
  C  C27  1  0.998300  0.657700  0.148800  1.0  -0.1373
  C  C28  1  0.886300  0.686800  0.092100  1.0  -0.0082
  C  C29  1  0.752300  0.784800  0.105500  1.0  -0.1024
  C  C30  1  0.732500  0.856900  0.175800  1.0  -0.0826
  C  C31  1  0.848600  0.836300  0.224800  1.0  -0.0565
  C  C32  1  0.980600  0.734700  0.214300  1.0  -0.0596
  C  C33  1  0.374000  0.998800  0.550400  1.0  -0.0486
  C  C34  1  0.384700  0.123700  0.494400  1.0  -0.1323
  C  C35  1  0.508400  0.124300  0.443800  1.0  -0.0791
  C  C36  1  0.133200  0.537100  0.143400  1.0  0.6374
  C  C37  1  0.637600  0.806300  0.041900  1.0  0.7017
  C  C38  1  0.589900  0.962300  0.202300  1.0  0.6645
  C  C39  1  0.099400  0.709600  0.276900  1.0  0.7142
  C  C40  1  0.529200  0.255500  0.378300  1.0  0.7233
  C  C41  1  0.253800  0.253800  0.492300  1.0  0.6763
  O  O42  1  0.851000  0.536300  0.913200  1.0  -0.6387
  O  O43  1  0.765100  0.493700  0.802300  1.0  -0.6237
  O  O44  1  0.821100  0.231400  0.769900  1.0  -0.792
  O  O45  1  0.890500  0.362200  0.625900  1.0  -0.7293
  O  O46  1  0.418600  0.917300  0.820500  1.0  -0.6678
  O  O47  1  0.502600  0.076400  0.753600  1.0  -0.6733
  O  O48  1  0.482700  0.176300  0.918500  1.0  -0.7463
  O  O49  1  0.324600  0.198000  0.053900  1.0  -0.7233
  O  O50  1  0.503200  0.693400  0.718500  1.0  -0.7271
  O  O51  1  0.414900  0.700900  0.578400  1.0  -0.5357
  O  O52  1  0.736200  0.634000  0.535400  1.0  -0.6509
  O  O53  1  0.863600  0.749500  0.478200  1.0  -0.6698
  O  O54  1  0.149000  0.463700  0.086800  1.0  -0.6385
  O  O55  1  0.234900  0.506300  0.197700  1.0  -0.6248
  O  O56  1  0.178900  0.768600  0.230100  1.0  -0.7918
  O  O57  1  0.109500  0.637800  0.374100  1.0  -0.7312
  O  O58  1  0.581400  0.082700  0.179500  1.0  -0.6677
  O  O59  1  0.497400  0.923600  0.246400  1.0  -0.6726
  O  O60  1  0.517300  0.823700  0.081500  1.0  -0.7447
  O  O61  1  0.675400  0.802000  0.946100  1.0  -0.7142
  O  O62  1  0.496800  0.306600  0.281500  1.0  -0.7285
  O  O63  1  0.585100  0.299100  0.421600  1.0  -0.542
  O  O64  1  0.263800  0.366000  0.464600  1.0  -0.65
  O  O65  1  0.136400  0.250500  0.521800  1.0  -0.6728
