# generated using pymatgen
data_AlH5C8O5
_symmetry_space_group_name_H-M   'P 1'
_cell_length_a   15.94730000
_cell_length_b   6.63100000
_cell_length_c   13.92050000
_cell_angle_alpha   90.00000000
_cell_angle_beta   90.00000000
_cell_angle_gamma   90.00000000
_symmetry_Int_Tables_number   1
_chemical_formula_structural   AlH5C8O5
_chemical_formula_sum   'Al4 H20 C32 O20'
_cell_volume   1472.04479777
_cell_formula_units_Z   4
loop_
 _symmetry_equiv_pos_site_id
 _symmetry_equiv_pos_as_xyz
  1  'x, y, z'
loop_
 _atom_site_type_symbol
 _atom_site_label
 _atom_site_symmetry_multiplicity
 _atom_site_fract_x
 _atom_site_fract_y
 _atom_site_fract_z
 _atom_site_occupancy
 _atom_site_charge
  Al  Al1  1  0.001270  0.494580  0.500930  1.0  1.8474
  Al  Al2  1  0.500210  0.996410  0.000720  1.0  1.8479
  Al  Al3  1  0.001000  0.995150  0.500310  1.0  1.8486
  Al  Al4  1  0.500040  0.496380  0.000400  1.0  1.8479
  H  H5  1  0.191670  0.422230  0.694580  1.0  0.1137
  H  H6  1  0.692400  0.922790  0.192920  1.0  0.1136
  H  H7  1  0.808970  0.069800  0.692660  1.0  0.1143
  H  H8  1  0.309010  0.570650  0.194010  1.0  0.1103
  H  H9  1  0.809040  0.922470  0.307380  1.0  0.1178
  H  H10  1  0.309220  0.422390  0.807670  1.0  0.113
  H  H11  1  0.191250  0.569760  0.306890  1.0  0.113
  H  H12  1  0.691350  0.070800  0.805950  1.0  0.1142
  H  H13  1  0.809220  0.571240  0.307690  1.0  0.1137
  H  H14  1  0.309060  0.071480  0.807490  1.0  0.1099
  H  H15  1  0.191700  0.920740  0.306370  1.0  0.1102
  H  H16  1  0.690840  0.422010  0.806320  1.0  0.1139
  H  H17  1  0.191510  0.071090  0.694250  1.0  0.1121
  H  H18  1  0.692550  0.571480  0.193080  1.0  0.1089
  H  H19  1  0.808480  0.421090  0.693170  1.0  0.1127
  H  H20  1  0.309500  0.921730  0.193600  1.0  0.1138
  H  H21  1  0.005700  0.244410  0.613840  1.0  0.4681
  H  H22  1  0.006930  0.744360  0.387390  1.0  0.4867
  H  H23  1  0.498500  0.745970  0.113920  1.0  0.4722
  H  H24  1  0.495130  0.245990  0.887310  1.0  0.4787
  C  C25  1  0.216360  0.565100  0.718710  1.0  -0.0709
  C  C26  1  0.717220  0.065570  0.217190  1.0  -0.0713
  C  C27  1  0.783810  0.927290  0.716700  1.0  -0.0776
  C  C28  1  0.284340  0.427600  0.218080  1.0  -0.0703
  C  C29  1  0.784440  0.065320  0.282980  1.0  -0.0769
  C  C30  1  0.284000  0.565280  0.783890  1.0  -0.0722
  C  C31  1  0.216530  0.427180  0.283050  1.0  -0.0728
  C  C32  1  0.716070  0.927740  0.781880  1.0  -0.0749
  C  C33  1  0.784530  0.428460  0.283160  1.0  -0.0743
  C  C34  1  0.283920  0.928590  0.783780  1.0  -0.0721
  C  C35  1  0.216760  0.063860  0.282780  1.0  -0.0718
  C  C36  1  0.715800  0.564620  0.782080  1.0  -0.0722
  C  C37  1  0.216280  0.928310  0.718530  1.0  -0.0704
  C  C38  1  0.717310  0.428700  0.217290  1.0  -0.0744
  C  C39  1  0.783560  0.564180  0.716960  1.0  -0.0742
  C  C40  1  0.284600  0.064330  0.217870  1.0  -0.0722
  C  C41  1  0.682400  0.247270  0.182870  1.0  -0.0994
  C  C42  1  0.610650  0.247140  0.111800  1.0  0.7215
  C  C43  1  0.181110  0.746500  0.684950  1.0  -0.0997
  C  C44  1  0.109660  0.745950  0.614020  1.0  0.7187
  C  C45  1  0.319840  0.246210  0.184500  1.0  -0.1036
  C  C46  1  0.391490  0.246490  0.113770  1.0  0.7179
  C  C47  1  0.818950  0.745480  0.682990  1.0  -0.0996
  C  C48  1  0.891120  0.745080  0.612410  1.0  0.7164
  C  C49  1  0.318920  0.747100  0.817760  1.0  -0.1019
  C  C50  1  0.390470  0.747040  0.888520  1.0  0.718
  C  C51  1  0.819470  0.246680  0.317270  1.0  -0.1029
  C  C52  1  0.891090  0.246080  0.388550  1.0  0.7181
  C  C53  1  0.680840  0.746390  0.815990  1.0  -0.1079
  C  C54  1  0.609290  0.746590  0.887290  1.0  0.7194
  C  C55  1  0.181740  0.245330  0.316920  1.0  -0.1018
  C  C56  1  0.110490  0.244860  0.388080  1.0  0.7242
  O  O57  1  0.080620  0.574220  0.585050  1.0  -0.6492
  O  O58  1  0.581340  0.075420  0.082970  1.0  -0.6476
  O  O59  1  0.920250  0.916220  0.582890  1.0  -0.6486
  O  O60  1  0.420240  0.418080  0.084170  1.0  -0.6468
  O  O61  1  0.920450  0.074290  0.417330  1.0  -0.648
  O  O62  1  0.419550  0.575490  0.917580  1.0  -0.6512
  O  O63  1  0.081660  0.416470  0.417790  1.0  -0.6561
  O  O64  1  0.580380  0.918240  0.916890  1.0  -0.6445
  O  O65  1  0.920170  0.417430  0.418200  1.0  -0.6461
  O  O66  1  0.419530  0.918300  0.917970  1.0  -0.6524
  O  O67  1  0.081360  0.073120  0.416980  1.0  -0.6525
  O  O68  1  0.580030  0.574960  0.916430  1.0  -0.6435
  O  O69  1  0.080940  0.917320  0.584150  1.0  -0.6527
  O  O70  1  0.581330  0.418500  0.082580  1.0  -0.6476
  O  O71  1  0.920540  0.573380  0.583700  1.0  -0.647
  O  O72  1  0.420620  0.074950  0.084630  1.0  -0.652
  O  O73  1  0.003390  0.744560  0.449190  1.0  -1.1235
  O  O74  1  0.498280  0.246160  0.949210  1.0  -1.1219
  O  O75  1  0.002940  0.244600  0.551920  1.0  -1.1183
  O  O76  1  0.499570  0.746180  0.051990  1.0  -1.1217
