# generated using pymatgen
data_H28Ru2C38S(NO2)4
_symmetry_space_group_name_H-M   'P 1'
_cell_length_a   15.29780000
_cell_length_b   15.59270000
_cell_length_c   22.14800000
_cell_angle_alpha   88.84100000
_cell_angle_beta   86.53800000
_cell_angle_gamma   62.08500000
_symmetry_Int_Tables_number   1
_chemical_formula_structural   H28Ru2C38S(NO2)4
_chemical_formula_sum   'H112 Ru8 C152 S4 N16 O32'
_cell_volume   4659.61853065
_cell_formula_units_Z   4
loop_
 _symmetry_equiv_pos_site_id
 _symmetry_equiv_pos_as_xyz
  1  'x, y, z'
loop_
 _atom_site_type_symbol
 _atom_site_label
 _atom_site_symmetry_multiplicity
 _atom_site_fract_x
 _atom_site_fract_y
 _atom_site_fract_z
 _atom_site_occupancy
 _atom_site_charge
  H  H1  1  0.676200  0.213900  0.932200  1.0  0.1243
  H  H2  1  0.495000  0.367800  0.836400  1.0  0.132
  H  H3  1  0.493100  0.398700  0.902800  1.0  0.1876
  H  H4  1  0.514900  0.293500  0.888100  1.0  0.1357
  H  H5  1  0.625200  0.408400  0.797500  1.0  0.1293
  H  H6  1  0.791600  0.362400  0.786400  1.0  0.1104
  H  H7  1  0.903300  0.244500  0.848900  1.0  0.1126
  H  H8  1  0.093400  0.884100  0.798900  1.0  0.1193
  H  H9  1  0.112300  0.859800  0.688500  1.0  0.1282
  H  H10  1  0.093900  0.780200  0.659600  1.0  0.1286
  H  H11  1  0.191900  0.751700  0.690700  1.0  0.1334
  H  H12  1  0.042400  0.680400  0.721700  1.0  0.1176
  H  H13  1  0.975400  0.657500  0.814200  1.0  0.1098
  H  H14  1  0.966500  0.747600  0.899200  1.0  0.129
  H  H15  1  0.955900  0.452700  0.863300  1.0  0.1194
  H  H16  1  0.812200  0.516700  0.938000  1.0  0.1408
  H  H17  1  0.756900  0.469100  0.907400  1.0  0.1414
  H  H18  1  0.706200  0.580700  0.916800  1.0  0.1513
  H  H19  1  0.678400  0.620400  0.809500  1.0  0.1229
  H  H20  1  0.743600  0.642900  0.716500  1.0  0.1111
  H  H21  1  0.914300  0.574300  0.696900  1.0  0.1236
  H  H22  1  0.280500  0.074500  0.690100  1.0  0.114
  H  H23  1  0.280600  0.920700  0.669600  1.0  0.1355
  H  H24  1  0.382400  0.873500  0.633400  1.0  0.152
  H  H25  1  0.288300  0.885600  0.603500  1.0  0.1395
  H  H26  1  0.302200  0.981700  0.518500  1.0  0.1051
  H  H27  1  0.277800  0.132200  0.482300  1.0  0.1161
  H  H28  1  0.253900  0.255800  0.550100  1.0  0.1237
  H  H29  1  0.596200  0.160900  0.773700  1.0  0.1161
  H  H30  1  0.766800  0.070900  0.806200  1.0  0.1325
  H  H31  1  0.854200  0.069600  0.766100  1.0  0.1373
  H  H32  1  0.806700  0.005500  0.748700  1.0  0.1362
  H  H33  1  0.826500  0.156700  0.671600  1.0  0.1142
  H  H34  1  0.715400  0.283300  0.613200  1.0  0.1133
  H  H35  1  0.544800  0.350000  0.635400  1.0  0.1188
  H  H36  1  0.285700  0.662000  0.791500  1.0  0.1193
  H  H37  1  0.281500  0.818700  0.808100  1.0  0.1362
  H  H38  1  0.382800  0.778000  0.837300  1.0  0.1486
  H  H39  1  0.287000  0.851700  0.872800  1.0  0.1428
  H  H40  1  0.306100  0.745900  0.959200  1.0  0.109
  H  H41  1  0.288900  0.616000  0.000400  1.0  0.1099
  H  H42  1  0.272600  0.506000  0.937400  1.0  0.1201
  H  H43  1  0.680000  0.066200  0.587200  1.0  0.1161
  H  H44  1  0.516700  0.123200  0.637000  1.0  0.1408
  H  H45  1  0.495900  0.060700  0.685400  1.0  0.1433
  H  H46  1  0.500900  0.036800  0.617300  1.0  0.1316
  H  H47  1  0.629400  0.900700  0.711500  1.0  0.1112
  H  H48  1  0.800000  0.797100  0.714200  1.0  0.1179
  H  H49  1  0.911100  0.825900  0.650200  1.0  0.1148
  H  H50  1  0.901600  0.964400  0.307400  1.0  0.1155
  H  H51  1  0.822400  0.957300  0.214200  1.0  0.1355
  H  H52  1  0.853000  0.858500  0.182700  1.0  0.1357
  H  H53  1  0.920300  0.908000  0.174300  1.0  0.1356
  H  H54  1  0.977600  0.707800  0.223900  1.0  0.1144
  H  H55  1  0.062600  0.625300  0.307900  1.0  0.1101
  H  H56  1  0.067600  0.711100  0.391400  1.0  0.1287
  H  H57  1  0.323800  0.786100  0.067800  1.0  0.1242
  H  H58  1  0.505000  0.632200  0.163600  1.0  0.1316
  H  H59  1  0.506900  0.601300  0.097200  1.0  0.1863
  H  H60  1  0.485100  0.706500  0.111900  1.0  0.1363
  H  H61  1  0.374800  0.591600  0.202500  1.0  0.13
  H  H62  1  0.208400  0.637600  0.213600  1.0  0.1098
  H  H63  1  0.096700  0.755500  0.151100  1.0  0.1117
  H  H64  1  0.906600  0.115900  0.201100  1.0  0.1188
  H  H65  1  0.887700  0.140200  0.311500  1.0  0.1258
  H  H66  1  0.906100  0.219800  0.340400  1.0  0.1285
  H  H67  1  0.808100  0.248300  0.309300  1.0  0.1315
  H  H68  1  0.957600  0.319600  0.278300  1.0  0.1172
  H  H69  1  0.024600  0.342500  0.185800  1.0  0.1099
  H  H70  1  0.033500  0.252400  0.100800  1.0  0.1292
  H  H71  1  0.044100  0.547300  0.136700  1.0  0.1197
  H  H72  1  0.187800  0.483300  0.062000  1.0  0.141
  H  H73  1  0.243100  0.530900  0.092600  1.0  0.1403
  H  H74  1  0.293800  0.419300  0.083200  1.0  0.1503
  H  H75  1  0.321600  0.379600  0.190500  1.0  0.1225
  H  H76  1  0.256400  0.357100  0.283500  1.0  0.111
  H  H77  1  0.085700  0.425700  0.303100  1.0  0.1237
  H  H78  1  0.719500  0.925500  0.309900  1.0  0.1156
  H  H79  1  0.719400  0.079300  0.330400  1.0  0.1357
  H  H80  1  0.617600  0.126500  0.366600  1.0  0.1529
  H  H81  1  0.711700  0.114400  0.396500  1.0  0.1397
  H  H82  1  0.697800  0.018300  0.481500  1.0  0.1053
  H  H83  1  0.722200  0.867800  0.517700  1.0  0.1168
  H  H84  1  0.746100  0.744200  0.449900  1.0  0.124
  H  H85  1  0.403800  0.839100  0.226300  1.0  0.1164
  H  H86  1  0.233200  0.929100  0.193800  1.0  0.1343
  H  H87  1  0.145800  0.930400  0.233900  1.0  0.1345
  H  H88  1  0.193300  0.994500  0.251300  1.0  0.1387
  H  H89  1  0.173500  0.843300  0.328400  1.0  0.1147
  H  H90  1  0.284600  0.716700  0.386800  1.0  0.1133
  H  H91  1  0.455200  0.650000  0.364600  1.0  0.1187
  H  H92  1  0.714300  0.338000  0.208500  1.0  0.1186
  H  H93  1  0.718500  0.181300  0.191900  1.0  0.1357
  H  H94  1  0.617200  0.222000  0.162700  1.0  0.1491
  H  H95  1  0.713000  0.148300  0.127200  1.0  0.1432
  H  H96  1  0.693900  0.254100  0.040800  1.0  0.1095
  H  H97  1  0.711100  0.384000  0.999600  1.0  0.1104
  H  H98  1  0.727400  0.494000  0.062600  1.0  0.1202
  H  H99  1  0.320000  0.933800  0.412800  1.0  0.1159
  H  H100  1  0.483300  0.876800  0.363000  1.0  0.1384
  H  H101  1  0.504100  0.939300  0.314600  1.0  0.1421
  H  H102  1  0.499100  0.963200  0.382700  1.0  0.1327
  H  H103  1  0.370600  0.099300  0.288500  1.0  0.1115
  H  H104  1  0.200000  0.202900  0.285800  1.0  0.1177
  H  H105  1  0.088900  0.174100  0.349800  1.0  0.1151
  H  H106  1  0.098400  0.035600  0.692600  1.0  0.1154
  H  H107  1  0.177600  0.042700  0.785800  1.0  0.135
  H  H108  1  0.147000  0.141500  0.817300  1.0  0.136
  H  H109  1  0.079700  0.092000  0.825700  1.0  0.1341
  H  H110  1  0.022400  0.292200  0.776100  1.0  0.1143
  H  H111  1  0.937400  0.374700  0.692100  1.0  0.111
  H  H112  1  0.932400  0.288900  0.608600  1.0  0.1287
  Ru  Ru113  1  0.061840  0.013760  0.978160  1.0  1.059
  Ru  Ru114  1  0.265210  0.330410  0.784050  1.0  0.9913
  Ru  Ru115  1  0.241700  0.433710  0.704930  1.0  1.0468
  Ru  Ru116  1  0.064390  0.931380  0.517330  1.0  0.9464
  Ru  Ru117  1  0.938160  0.986240  0.021840  1.0  1.0593
  Ru  Ru118  1  0.734790  0.669590  0.215950  1.0  0.9912
  Ru  Ru119  1  0.758300  0.566290  0.295070  1.0  1.0465
  Ru  Ru120  1  0.935610  0.068620  0.482670  1.0  0.9461
  C  C121  1  0.871200  0.142000  0.935700  1.0  0.6859
  C  C122  1  0.801000  0.218300  0.896720  1.0  -0.1196
  C  C123  1  0.699700  0.245400  0.903120  1.0  -0.1404
  C  C124  1  0.632700  0.317000  0.866900  1.0  0.0973
  C  C125  1  0.523800  0.347800  0.874500  1.0  -0.2986
  C  C126  1  0.669200  0.359600  0.823200  1.0  -0.1257
  C  C127  1  0.768800  0.332200  0.816300  1.0  -0.1001
  C  C128  1  0.835000  0.262300  0.853400  1.0  -0.0541
  C  C129  1  0.022600  0.883300  0.909770  1.0  0.675
  C  C130  1  0.029200  0.824300  0.856800  1.0  -0.1201
  C  C131  1  0.069400  0.837700  0.801740  1.0  -0.1425
  C  C132  1  0.075600  0.783900  0.751030  1.0  0.0829
  C  C133  1  0.122300  0.795300  0.692080  1.0  -0.3614
  C  C134  1  0.039500  0.717300  0.756370  1.0  -0.1264
  C  C135  1  0.999000  0.704100  0.811100  1.0  -0.0834
  C  C136  1  0.993700  0.757500  0.861490  1.0  -0.04
  C  C137  1  0.247400  0.058900  0.935950  1.0  0.4358
  C  C138  1  0.317900  0.092500  0.933720  1.0  -0.1243
  C  C139  1  0.297700  0.171500  0.894940  1.0  0.4213
  C  C140  1  0.407100  0.046600  0.966850  1.0  -0.1322
  C  C141  1  0.455500  0.947600  0.979570  1.0  0.1215
  C  C142  1  0.546400  0.901000  0.011130  1.0  0.1178
  C  C143  1  0.060100  0.461000  0.766190  1.0  0.6801
  C  C144  1  0.951300  0.505600  0.778160  1.0  -0.0875
  C  C145  1  0.911800  0.492000  0.833890  1.0  -0.137
  C  C146  1  0.810900  0.535100  0.846980  1.0  0.1379
  C  C147  1  0.767500  0.524100  0.907600  1.0  -0.3856
  C  C148  1  0.748400  0.591200  0.802200  1.0  -0.1018
  C  C149  1  0.786500  0.605500  0.746600  1.0  -0.1454
  C  C150  1  0.888000  0.563400  0.734500  1.0  -0.0437
  C  C151  1  0.254100  0.252100  0.669870  1.0  0.6679
  C  C152  1  0.265100  0.176900  0.626780  1.0  -0.1464
  C  C153  1  0.280300  0.085700  0.647810  1.0  -0.1365
  C  C154  1  0.294800  0.012200  0.607990  1.0  0.0904
  C  C155  1  0.313600  0.913700  0.630500  1.0  -0.3893
  C  C156  1  0.293300  0.031300  0.546500  1.0  -0.1166
  C  C157  1  0.277500  0.121100  0.524920  1.0  -0.0739
  C  C158  1  0.263700  0.194000  0.564910  1.0  -0.034
  C  C159  1  0.446400  0.304300  0.721410  1.0  0.6602
  C  C160  1  0.555000  0.261900  0.707630  1.0  -0.1225
  C  C161  1  0.620700  0.186300  0.741340  1.0  -0.1324
  C  C162  1  0.722600  0.147000  0.729200  1.0  0.0733
  C  C163  1  0.794000  0.066000  0.765600  1.0  -0.3918
  C  C164  1  0.757000  0.183600  0.680900  1.0  -0.1086
  C  C165  1  0.691100  0.258800  0.646300  1.0  -0.0893
  C  C166  1  0.590200  0.298300  0.659200  1.0  -0.0664
  C  C167  1  0.265000  0.507000  0.817730  1.0  0.6869
  C  C168  1  0.276300  0.574600  0.858660  1.0  -0.134
  C  C169  1  0.286900  0.652600  0.833970  1.0  -0.1233
  C  C170  1  0.298900  0.716700  0.871100  1.0  0.0817
  C  C171  1  0.313200  0.799100  0.845000  1.0  -0.3788
  C  C172  1  0.298700  0.702400  0.933250  1.0  -0.1096
  C  C173  1  0.288700  0.624800  0.957750  1.0  -0.0803
  C  C174  1  0.278400  0.560000  0.920620  1.0  -0.0143
  C  C175  1  0.256200  0.569100  0.595020  1.0  0.4001
  C  C176  1  0.298800  0.612300  0.555910  1.0  -0.2006
  C  C177  1  0.241200  0.712600  0.549620  1.0  0.447
  C  C178  1  0.397100  0.557300  0.527520  1.0  -0.088
  C  C179  1  0.444600  0.455200  0.521910  1.0  0.1515
  C  C180  1  0.544700  0.399500  0.495040  1.0  0.1355
  C  C181  1  0.875100  0.966100  0.571290  1.0  0.6624
  C  C182  1  0.805400  0.948600  0.612250  1.0  -0.1243
  C  C183  1  0.704300  0.010800  0.612320  1.0  -0.0968
  C  C184  1  0.637400  0.992600  0.649030  1.0  0.0933
  C  C185  1  0.528000  0.058900  0.647300  1.0  -0.3729
  C  C186  1  0.674900  0.913200  0.686300  1.0  -0.1056
  C  C187  1  0.776300  0.851400  0.687900  1.0  -0.1005
  C  C188  1  0.841800  0.868700  0.650230  1.0  0.0055
  C  C189  1  0.986600  0.900900  0.409500  1.0  0.6828
  C  C190  1  0.984500  0.845500  0.356830  1.0  -0.1097
  C  C191  1  0.934100  0.895200  0.306920  1.0  -0.1368
  C  C192  1  0.931200  0.844900  0.256240  1.0  0.0945
  C  C193  1  0.876800  0.897300  0.201990  1.0  -0.3577
  C  C194  1  0.979200  0.744000  0.257450  1.0  -0.1184
  C  C195  1  0.029600  0.694600  0.307870  1.0  -0.1039
  C  C196  1  0.032700  0.745000  0.357160  1.0  0.0178
  C  C197  1  0.128800  0.858000  0.064300  1.0  0.6851
  C  C198  1  0.199000  0.781700  0.103280  1.0  -0.1193
  C  C199  1  0.300300  0.754600  0.096880  1.0  -0.1417
  C  C200  1  0.367300  0.683000  0.133100  1.0  0.0969
  C  C201  1  0.476200  0.652200  0.125500  1.0  -0.3009
  C  C202  1  0.330800  0.640400  0.176800  1.0  -0.1253
  C  C203  1  0.231200  0.667800  0.183700  1.0  -0.0976
  C  C204  1  0.165000  0.737700  0.146600  1.0  -0.0518
  C  C205  1  0.977400  0.116700  0.090230  1.0  0.6744
  C  C206  1  0.970800  0.175700  0.143200  1.0  -0.1204
  C  C207  1  0.930600  0.162300  0.198260  1.0  -0.1412
  C  C208  1  0.924400  0.216100  0.248970  1.0  0.0849
  C  C209  1  0.877700  0.204700  0.307920  1.0  -0.3624
  C  C210  1  0.960500  0.282700  0.243630  1.0  -0.1271
  C  C211  1  0.001000  0.295900  0.188900  1.0  -0.0818
  C  C212  1  0.006300  0.242500  0.138510  1.0  -0.0388
  C  C213  1  0.752600  0.941100  0.064050  1.0  0.4349
  C  C214  1  0.682100  0.907500  0.066280  1.0  -0.125
  C  C215  1  0.702300  0.828500  0.105060  1.0  0.4219
  C  C216  1  0.592900  0.953400  0.033150  1.0  -0.1322
  C  C217  1  0.544500  0.052400  0.020430  1.0  0.1213
  C  C218  1  0.453600  0.099000  0.988870  1.0  0.1187
  C  C219  1  0.939900  0.539000  0.233810  1.0  0.6803
  C  C220  1  0.048700  0.494400  0.221840  1.0  -0.087
  C  C221  1  0.088200  0.508000  0.166110  1.0  -0.136
  C  C222  1  0.189100  0.464900  0.153020  1.0  0.1368
  C  C223  1  0.232500  0.475900  0.092400  1.0  -0.3864
  C  C224  1  0.251600  0.408800  0.197800  1.0  -0.1026
  C  C225  1  0.213500  0.394500  0.253400  1.0  -0.1435
  C  C226  1  0.112000  0.436600  0.265500  1.0  -0.0468
  C  C227  1  0.745900  0.747900  0.330130  1.0  0.669
  C  C228  1  0.734900  0.823100  0.373220  1.0  -0.1469
  C  C229  1  0.719700  0.914300  0.352190  1.0  -0.135
  C  C230  1  0.705200  0.987800  0.392010  1.0  0.0894
  C  C231  1  0.686400  0.086300  0.369500  1.0  -0.3879
  C  C232  1  0.706700  0.968700  0.453500  1.0  -0.1137
  C  C233  1  0.722500  0.878900  0.475080  1.0  -0.0741
  C  C234  1  0.736300  0.806000  0.435090  1.0  -0.0338
  C  C235  1  0.553600  0.695700  0.278590  1.0  0.6609
  C  C236  1  0.445000  0.738100  0.292370  1.0  -0.1226
  C  C237  1  0.379300  0.813700  0.258660  1.0  -0.1324
  C  C238  1  0.277400  0.853000  0.270800  1.0  0.073
  C  C239  1  0.206000  0.934000  0.234400  1.0  -0.3928
  C  C240  1  0.243000  0.816400  0.319100  1.0  -0.109
  C  C241  1  0.308900  0.741200  0.353700  1.0  -0.0903
  C  C242  1  0.409800  0.701700  0.340800  1.0  -0.0669
  C  C243  1  0.735000  0.493000  0.182270  1.0  0.6865
  C  C244  1  0.723700  0.425400  0.141340  1.0  -0.134
  C  C245  1  0.713100  0.347400  0.166030  1.0  -0.1242
  C  C246  1  0.701100  0.283300  0.128900  1.0  0.0826
  C  C247  1  0.686800  0.200900  0.155000  1.0  -0.3792
  C  C248  1  0.701300  0.297600  0.066750  1.0  -0.1094
  C  C249  1  0.711300  0.375200  0.042250  1.0  -0.0813
  C  C250  1  0.721600  0.440000  0.079380  1.0  -0.0137
  C  C251  1  0.743800  0.430900  0.404980  1.0  0.4022
  C  C252  1  0.701200  0.387700  0.444090  1.0  -0.2016
  C  C253  1  0.758800  0.287400  0.450380  1.0  0.4454
  C  C254  1  0.602900  0.442700  0.472480  1.0  -0.089
  C  C255  1  0.555400  0.544800  0.478090  1.0  0.1506
  C  C256  1  0.455300  0.600500  0.504960  1.0  0.135
  C  C257  1  0.124900  0.033900  0.428710  1.0  0.6622
  C  C258  1  0.194600  0.051400  0.387750  1.0  -0.1236
  C  C259  1  0.295700  0.989200  0.387680  1.0  -0.0972
  C  C260  1  0.362600  0.007400  0.350970  1.0  0.0923
  C  C261  1  0.472000  0.941100  0.352700  1.0  -0.3746
  C  C262  1  0.325100  0.086800  0.313700  1.0  -0.1068
  C  C263  1  0.223700  0.148600  0.312100  1.0  -0.0985
  C  C264  1  0.158200  0.131300  0.349770  1.0  0.0076
  C  C265  1  0.013400  0.099100  0.590500  1.0  0.6835
  C  C266  1  0.015500  0.154500  0.643170  1.0  -0.1104
  C  C267  1  0.065900  0.104800  0.693080  1.0  -0.1383
  C  C268  1  0.068800  0.155100  0.743760  1.0  0.0935
  C  C269  1  0.123200  0.102700  0.798010  1.0  -0.3576
  C  C270  1  0.020800  0.256000  0.742550  1.0  -0.1181
  C  C271  1  0.970400  0.305400  0.692130  1.0  -0.1013
  C  C272  1  0.967300  0.255000  0.642840  1.0  0.0178
  S  S273  1  0.507170  0.777840  0.982250  1.0  0.1124
  S  S274  1  0.482170  0.288770  0.521110  1.0  0.0898
  S  S275  1  0.492830  0.222160  0.017750  1.0  0.1142
  S  S276  1  0.517830  0.711230  0.478890  1.0  0.0893
  N  N277  1  0.187100  0.034200  0.938410  1.0  -0.4516
  N  N278  1  0.425200  0.882500  0.960920  1.0  -0.3626
  N  N279  1  0.582600  0.803400  0.015430  1.0  -0.3485
  N  N280  1  0.281300  0.233200  0.861770  1.0  -0.4247
  N  N281  1  0.220400  0.535100  0.628050  1.0  -0.4513
  N  N282  1  0.402000  0.398300  0.538110  1.0  -0.3278
  N  N283  1  0.573600  0.302500  0.492320  1.0  -0.3359
  N  N284  1  0.190000  0.794800  0.546480  1.0  -0.4804
  N  N285  1  0.812900  0.965800  0.061590  1.0  -0.4522
  N  N286  1  0.574800  0.117500  0.039080  1.0  -0.3629
  N  N287  1  0.417400  0.196600  0.984570  1.0  -0.3388
  N  N288  1  0.718700  0.766800  0.138230  1.0  -0.422
  N  N289  1  0.779600  0.464900  0.371950  1.0  -0.4503
  N  N290  1  0.598000  0.601700  0.461890  1.0  -0.3305
  N  N291  1  0.426400  0.697500  0.507680  1.0  -0.3315
  N  N292  1  0.810000  0.205200  0.453520  1.0  -0.4803
  O  O293  1  0.961720  0.123740  0.930300  1.0  -0.5621
  O  O294  1  0.839710  0.097450  0.972490  1.0  -0.5623
  O  O295  1  0.077990  0.924010  0.909640  1.0  -0.5622
  O  O296  1  0.959710  0.893500  0.953330  1.0  -0.5738
  O  O297  1  0.115760  0.392920  0.800210  1.0  -0.5874
  O  O298  1  0.093310  0.491820  0.721580  1.0  -0.5864
  O  O299  1  0.263310  0.232230  0.726100  1.0  -0.5682
  O  O300  1  0.238950  0.334700  0.648850  1.0  -0.5733
  O  O301  1  0.414250  0.271240  0.765710  1.0  -0.5664
  O  O302  1  0.389370  0.373460  0.688290  1.0  -0.5818
  O  O303  1  0.271020  0.428010  0.839900  1.0  -0.5722
  O  O304  1  0.250680  0.528240  0.762190  1.0  -0.5682
  O  O305  1  0.967360  0.905870  0.570860  1.0  -0.566
  O  O306  1  0.840480  0.040690  0.536800  1.0  -0.5672
  O  O307  1  0.050990  0.855850  0.448510  1.0  -0.5756
  O  O308  1  0.925710  0.991040  0.414110  1.0  -0.5697
  O  O309  1  0.038280  0.876260  0.069700  1.0  -0.5619
  O  O310  1  0.160290  0.902550  0.027510  1.0  -0.5619
  O  O311  1  0.922010  0.075990  0.090360  1.0  -0.562
  O  O312  1  0.040290  0.106500  0.046670  1.0  -0.5725
  O  O313  1  0.884240  0.607080  0.199790  1.0  -0.5901
  O  O314  1  0.906690  0.508180  0.278420  1.0  -0.5853
  O  O315  1  0.736690  0.767770  0.273900  1.0  -0.5685
  O  O316  1  0.761050  0.665300  0.351150  1.0  -0.5719
  O  O317  1  0.585750  0.728760  0.234290  1.0  -0.5663
  O  O318  1  0.610630  0.626540  0.311710  1.0  -0.5837
  O  O319  1  0.728980  0.571990  0.160100  1.0  -0.5713
  O  O320  1  0.749320  0.471760  0.237810  1.0  -0.5671
  O  O321  1  0.032640  0.094130  0.429140  1.0  -0.5681
  O  O322  1  0.159520  0.959310  0.463200  1.0  -0.5674
  O  O323  1  0.949010  0.144150  0.551490  1.0  -0.5747
  O  O324  1  0.074290  0.008960  0.585890  1.0  -0.5688
