# generated using pymatgen
data_PrAg2H18C24N4O9
_symmetry_space_group_name_H-M   'P 1'
_cell_length_a   16.99150000
_cell_length_b   24.79900000
_cell_length_c   6.78330000
_cell_angle_alpha   90.00000000
_cell_angle_beta   95.78400000
_cell_angle_gamma   90.00000000
_symmetry_Int_Tables_number   1
_chemical_formula_structural   PrAg2H18C24N4O9
_chemical_formula_sum   'Pr4 Ag8 H72 C96 N16 O36'
_cell_volume   2843.74221303
_cell_formula_units_Z   4
loop_
 _symmetry_equiv_pos_site_id
 _symmetry_equiv_pos_as_xyz
  1  'x, y, z'
loop_
 _atom_site_type_symbol
 _atom_site_label
 _atom_site_symmetry_multiplicity
 _atom_site_fract_x
 _atom_site_fract_y
 _atom_site_fract_z
 _atom_site_occupancy
 _atom_site_charge
  Pr  Pr1  1  0.230710  0.662130  0.382400  1.0  2.2397
  Pr  Pr2  1  0.769290  0.162130  0.117600  1.0  2.2391
  Pr  Pr3  1  0.769290  0.337870  0.617600  1.0  2.2391
  Pr  Pr4  1  0.230710  0.837870  0.882400  1.0  2.2397
  Ag  Ag5  1  0.729400  0.771290  0.509810  1.0  0.2113
  Ag  Ag6  1  0.734880  0.510540  0.596600  1.0  0.3513
  Ag  Ag7  1  0.270600  0.271290  0.990190  1.0  0.212
  Ag  Ag8  1  0.265120  0.010540  0.903400  1.0  0.3522
  Ag  Ag9  1  0.270600  0.228710  0.490190  1.0  0.2113
  Ag  Ag10  1  0.265120  0.489460  0.403400  1.0  0.3519
  Ag  Ag11  1  0.729400  0.728710  0.009810  1.0  0.2106
  Ag  Ag12  1  0.734880  0.989460  0.096600  1.0  0.3507
  H  H13  1  0.239200  0.546800  0.212900  1.0  0.4018
  H  H14  1  0.245700  0.581600  0.039500  1.0  0.4526
  H  H15  1  0.008300  0.598200  0.624600  1.0  0.1127
  H  H16  1  0.890800  0.571600  0.733400  1.0  0.0832
  H  H17  1  0.834700  0.491500  0.244000  1.0  0.0737
  H  H18  1  0.948900  0.517800  0.119600  1.0  0.1125
  H  H19  1  0.003400  0.853700  0.516000  1.0  0.1089
  H  H20  1  0.869000  0.851300  0.505000  1.0  0.0862
  H  H21  1  0.869500  0.693600  0.493900  1.0  0.0731
  H  H22  1  0.004000  0.692400  0.494100  1.0  0.1103
  H  H23  1  0.487000  0.546200  0.945300  1.0  0.1092
  H  H24  1  0.611900  0.517400  0.904300  1.0  0.0784
  H  H25  1  0.589100  0.564200  0.352900  1.0  0.0768
  H  H26  1  0.461300  0.590700  0.376300  1.0  0.1093
  H  H27  1  0.457500  0.853600  0.548800  1.0  0.1111
  H  H28  1  0.589800  0.850800  0.512800  1.0  0.0788
  H  H29  1  0.588600  0.693400  0.519400  1.0  0.0758
  H  H30  1  0.455200  0.692400  0.542800  1.0  0.0994
  H  H31  1  0.760800  0.046800  0.287100  1.0  0.402
  H  H32  1  0.754300  0.081600  0.460500  1.0  0.454
  H  H33  1  0.991700  0.098200  0.875400  1.0  0.1132
  H  H34  1  0.109200  0.071600  0.766600  1.0  0.0831
  H  H35  1  0.165300  0.991500  0.256000  1.0  0.0742
  H  H36  1  0.051100  0.017800  0.380400  1.0  0.1125
  H  H37  1  0.996600  0.353700  0.984000  1.0  0.1092
  H  H38  1  0.131000  0.351300  0.995000  1.0  0.0858
  H  H39  1  0.130500  0.193600  0.006100  1.0  0.0736
  H  H40  1  0.996000  0.192400  0.005900  1.0  0.11
  H  H41  1  0.513000  0.046200  0.554700  1.0  0.1091
  H  H42  1  0.388100  0.017400  0.595700  1.0  0.0781
  H  H43  1  0.410900  0.064200  0.147100  1.0  0.0766
  H  H44  1  0.538700  0.090700  0.123700  1.0  0.1088
  H  H45  1  0.542500  0.353600  0.951200  1.0  0.1109
  H  H46  1  0.410200  0.350800  0.987200  1.0  0.0787
  H  H47  1  0.411400  0.193400  0.980600  1.0  0.0755
  H  H48  1  0.544800  0.192400  0.957200  1.0  0.0995
  H  H49  1  0.760800  0.453200  0.787100  1.0  0.4021
  H  H50  1  0.754300  0.418400  0.960500  1.0  0.4542
  H  H51  1  0.991700  0.401800  0.375400  1.0  0.1128
  H  H52  1  0.109200  0.428400  0.266600  1.0  0.083
  H  H53  1  0.165300  0.508500  0.756000  1.0  0.0736
  H  H54  1  0.051100  0.482200  0.880400  1.0  0.1124
  H  H55  1  0.996600  0.146300  0.484000  1.0  0.109
  H  H56  1  0.131000  0.148700  0.495000  1.0  0.0857
  H  H57  1  0.130500  0.306400  0.506100  1.0  0.0736
  H  H58  1  0.996000  0.307600  0.505900  1.0  0.1102
  H  H59  1  0.513000  0.453800  0.054700  1.0  0.109
  H  H60  1  0.388100  0.482600  0.095700  1.0  0.0779
  H  H61  1  0.410900  0.435800  0.647100  1.0  0.0766
  H  H62  1  0.538700  0.409300  0.623700  1.0  0.1091
  H  H63  1  0.542500  0.146400  0.451200  1.0  0.1111
  H  H64  1  0.410200  0.149200  0.487200  1.0  0.0785
  H  H65  1  0.411400  0.306600  0.480600  1.0  0.0755
  H  H66  1  0.544800  0.307600  0.457200  1.0  0.0998
  H  H67  1  0.239200  0.953200  0.712900  1.0  0.402
  H  H68  1  0.245700  0.918400  0.539500  1.0  0.4529
  H  H69  1  0.008300  0.901800  0.124600  1.0  0.1131
  H  H70  1  0.890800  0.928400  0.233400  1.0  0.0834
  H  H71  1  0.834700  0.008500  0.744000  1.0  0.0736
  H  H72  1  0.948900  0.982200  0.619600  1.0  0.1123
  H  H73  1  0.003400  0.646300  0.016000  1.0  0.1089
  H  H74  1  0.869000  0.648700  0.005000  1.0  0.0854
  H  H75  1  0.869500  0.806400  0.993900  1.0  0.0729
  H  H76  1  0.004000  0.807600  0.994100  1.0  0.1099
  H  H77  1  0.487000  0.953800  0.445300  1.0  0.1092
  H  H78  1  0.611900  0.982600  0.404300  1.0  0.0785
  H  H79  1  0.589100  0.935800  0.852900  1.0  0.0767
  H  H80  1  0.461300  0.909300  0.876300  1.0  0.109
  H  H81  1  0.457500  0.646400  0.048800  1.0  0.111
  H  H82  1  0.589800  0.649200  0.012800  1.0  0.079
  H  H83  1  0.588600  0.806600  0.019400  1.0  0.0761
  H  H84  1  0.455200  0.807600  0.042800  1.0  0.0999
  C  C85  1  0.071100  0.575620  0.286500  1.0  0.6482
  C  C86  1  0.992200  0.560640  0.358600  1.0  -0.1123
  C  C87  1  0.973500  0.576690  0.544500  1.0  -0.1479
  C  C88  1  0.902900  0.560450  0.609100  1.0  0.1586
  C  C89  1  0.869800  0.513630  0.320700  1.0  0.1615
  C  C90  1  0.938600  0.528850  0.245500  1.0  -0.1655
  C  C91  1  0.108340  0.772730  0.513600  1.0  0.7396
  C  C92  1  0.019680  0.773200  0.507900  1.0  -0.0771
  C  C93  1  0.977200  0.820710  0.510600  1.0  -0.1469
  C  C94  1  0.896700  0.818970  0.505400  1.0  0.1529
  C  C95  1  0.896800  0.726140  0.497400  1.0  0.1506
  C  C96  1  0.977600  0.725150  0.499000  1.0  -0.1433
  C  C97  1  0.373300  0.586670  0.683800  1.0  0.7012
  C  C98  1  0.458400  0.570840  0.665100  1.0  -0.0661
  C  C99  1  0.506000  0.549370  0.821900  1.0  -0.1671
  C  C100  1  0.581500  0.532620  0.796700  1.0  0.1726
  C  C101  1  0.567700  0.559590  0.472800  1.0  0.1674
  C  C102  1  0.491000  0.576140  0.486100  1.0  -0.1557
  C  C103  1  0.354590  0.772960  0.586900  1.0  0.7347
  C  C104  1  0.441120  0.772900  0.553100  1.0  -0.0775
  C  C105  1  0.483000  0.820570  0.542500  1.0  -0.1726
  C  C106  1  0.562600  0.818480  0.522700  1.0  0.1527
  C  C107  1  0.561900  0.726010  0.524800  1.0  0.1519
  C  C108  1  0.481800  0.725120  0.540600  1.0  -0.1501
  C  C109  1  0.928900  0.075620  0.213500  1.0  0.6487
  C  C110  1  0.007800  0.060640  0.141400  1.0  -0.1136
  C  C111  1  0.026500  0.076690  0.955500  1.0  -0.1479
  C  C112  1  0.097100  0.060450  0.890900  1.0  0.1599
  C  C113  1  0.130200  0.013630  0.179300  1.0  0.1622
  C  C114  1  0.061400  0.028850  0.254500  1.0  -0.1657
  C  C115  1  0.891660  0.272730  0.986400  1.0  0.7405
  C  C116  1  0.980320  0.273200  0.992100  1.0  -0.0777
  C  C117  1  0.022800  0.320710  0.989400  1.0  -0.1465
  C  C118  1  0.103300  0.318970  0.994600  1.0  0.152
  C  C119  1  0.103200  0.226140  0.002600  1.0  0.1507
  C  C120  1  0.022400  0.225150  0.001000  1.0  -0.1432
  C  C121  1  0.626700  0.086670  0.816200  1.0  0.6997
  C  C122  1  0.541600  0.070840  0.834900  1.0  -0.065
  C  C123  1  0.494000  0.049370  0.678100  1.0  -0.1666
  C  C124  1  0.418500  0.032620  0.703300  1.0  0.1722
  C  C125  1  0.432300  0.059590  0.027200  1.0  0.1658
  C  C126  1  0.509000  0.076140  0.013900  1.0  -0.1564
  C  C127  1  0.645410  0.272960  0.913100  1.0  0.7333
  C  C128  1  0.558880  0.272900  0.946900  1.0  -0.0772
  C  C129  1  0.517000  0.320570  0.957500  1.0  -0.1741
  C  C130  1  0.437400  0.318480  0.977300  1.0  0.1538
  C  C131  1  0.438100  0.226010  0.975200  1.0  0.1522
  C  C132  1  0.518200  0.225120  0.959400  1.0  -0.1505
  C  C133  1  0.928900  0.424380  0.713500  1.0  0.6487
  C  C134  1  0.007800  0.439360  0.641400  1.0  -0.1141
  C  C135  1  0.026500  0.423310  0.455500  1.0  -0.1476
  C  C136  1  0.097100  0.439550  0.390900  1.0  0.16
  C  C137  1  0.130200  0.486370  0.679300  1.0  0.1628
  C  C138  1  0.061400  0.471150  0.754500  1.0  -0.1655
  C  C139  1  0.891660  0.227270  0.486400  1.0  0.7404
  C  C140  1  0.980320  0.226800  0.492100  1.0  -0.0778
  C  C141  1  0.022800  0.179290  0.489400  1.0  -0.1471
  C  C142  1  0.103300  0.181030  0.494600  1.0  0.1528
  C  C143  1  0.103200  0.273860  0.502600  1.0  0.1511
  C  C144  1  0.022400  0.274850  0.501000  1.0  -0.1426
  C  C145  1  0.626700  0.413330  0.316200  1.0  0.6994
  C  C146  1  0.541600  0.429160  0.334900  1.0  -0.0651
  C  C147  1  0.494000  0.450630  0.178100  1.0  -0.1668
  C  C148  1  0.418500  0.467380  0.203300  1.0  0.1715
  C  C149  1  0.432300  0.440410  0.527200  1.0  0.1657
  C  C150  1  0.509000  0.423860  0.513900  1.0  -0.1555
  C  C151  1  0.645410  0.227040  0.413100  1.0  0.7333
  C  C152  1  0.558880  0.227100  0.446900  1.0  -0.0773
  C  C153  1  0.517000  0.179430  0.457500  1.0  -0.174
  C  C154  1  0.437400  0.181520  0.477300  1.0  0.154
  C  C155  1  0.438100  0.273990  0.475200  1.0  0.1521
  C  C156  1  0.518200  0.274880  0.459400  1.0  -0.1505
  C  C157  1  0.071100  0.924380  0.786500  1.0  0.6484
  C  C158  1  0.992200  0.939360  0.858600  1.0  -0.1127
  C  C159  1  0.973500  0.923310  0.044500  1.0  -0.1477
  C  C160  1  0.902900  0.939550  0.109100  1.0  0.1585
  C  C161  1  0.869800  0.986370  0.820700  1.0  0.1619
  C  C162  1  0.938600  0.971150  0.745500  1.0  -0.1657
  C  C163  1  0.108340  0.727270  0.013600  1.0  0.7393
  C  C164  1  0.019680  0.726800  0.007900  1.0  -0.0771
  C  C165  1  0.977200  0.679290  0.010600  1.0  -0.1468
  C  C166  1  0.896700  0.681030  0.005400  1.0  0.1532
  C  C167  1  0.896800  0.773860  0.997400  1.0  0.1503
  C  C168  1  0.977600  0.774850  0.999000  1.0  -0.1436
  C  C169  1  0.373300  0.913330  0.183800  1.0  0.7007
  C  C170  1  0.458400  0.929160  0.165100  1.0  -0.0667
  C  C171  1  0.506000  0.950630  0.321900  1.0  -0.1673
  C  C172  1  0.581500  0.967380  0.296700  1.0  0.1722
  C  C173  1  0.567700  0.940410  0.972800  1.0  0.1676
  C  C174  1  0.491000  0.923860  0.986100  1.0  -0.1554
  C  C175  1  0.354590  0.727040  0.086900  1.0  0.7345
  C  C176  1  0.441120  0.727100  0.053100  1.0  -0.078
  C  C177  1  0.483000  0.679430  0.042500  1.0  -0.1732
  C  C178  1  0.562600  0.681520  0.022700  1.0  0.1528
  C  C179  1  0.561900  0.773990  0.024800  1.0  0.1522
  C  C180  1  0.481800  0.774880  0.040600  1.0  -0.1497
  N  N181  1  0.850870  0.529110  0.499200  1.0  -0.3445
  N  N182  1  0.855670  0.772210  0.500800  1.0  -0.3016
  N  N183  1  0.613160  0.537130  0.624800  1.0  -0.3371
  N  N184  1  0.603170  0.772070  0.516700  1.0  -0.327
  N  N185  1  0.149130  0.029110  0.000800  1.0  -0.3404
  N  N186  1  0.144330  0.272210  0.999200  1.0  -0.3001
  N  N187  1  0.386840  0.037130  0.875200  1.0  -0.3366
  N  N188  1  0.396830  0.272070  0.983300  1.0  -0.328
  N  N189  1  0.149130  0.470890  0.500800  1.0  -0.3407
  N  N190  1  0.144330  0.227790  0.499200  1.0  -0.3001
  N  N191  1  0.386840  0.462870  0.375200  1.0  -0.3367
  N  N192  1  0.396830  0.227930  0.483300  1.0  -0.3281
  N  N193  1  0.850870  0.970890  0.999200  1.0  -0.3443
  N  N194  1  0.855670  0.727790  0.000800  1.0  -0.3019
  N  N195  1  0.613160  0.962870  0.124800  1.0  -0.3379
  N  N196  1  0.603170  0.727930  0.016700  1.0  -0.3267
  O  O197  1  0.114700  0.606460  0.397900  1.0  -0.7382
  O  O198  1  0.086810  0.556660  0.126000  1.0  -0.5532
  O  O199  1  0.138230  0.730280  0.458000  1.0  -0.7431
  O  O200  1  0.145590  0.814680  0.568700  1.0  -0.6983
  O  O201  1  0.334400  0.602080  0.527100  1.0  -0.7053
  O  O202  1  0.349750  0.583360  0.850900  1.0  -0.6049
  O  O203  1  0.316860  0.730560  0.548900  1.0  -0.7107
  O  O204  1  0.327980  0.815600  0.654500  1.0  -0.7272
  O  O205  1  0.240820  0.578090  0.162400  1.0  -0.871
  O  O206  1  0.885300  0.106460  0.102100  1.0  -0.7382
  O  O207  1  0.913190  0.056660  0.374000  1.0  -0.5519
  O  O208  1  0.861770  0.230280  0.042000  1.0  -0.7456
  O  O209  1  0.854410  0.314680  0.931300  1.0  -0.6996
  O  O210  1  0.665600  0.102080  0.972900  1.0  -0.7061
  O  O211  1  0.650250  0.083360  0.649100  1.0  -0.6056
  O  O212  1  0.683140  0.230560  0.951100  1.0  -0.7093
  O  O213  1  0.672020  0.315600  0.845500  1.0  -0.7271
  O  O214  1  0.759180  0.078090  0.337600  1.0  -0.8749
  O  O215  1  0.885300  0.393540  0.602100  1.0  -0.7382
  O  O216  1  0.913190  0.443340  0.874000  1.0  -0.5521
  O  O217  1  0.861770  0.269720  0.542000  1.0  -0.7446
  O  O218  1  0.854410  0.185320  0.431300  1.0  -0.6991
  O  O219  1  0.665600  0.397920  0.472900  1.0  -0.706
  O  O220  1  0.650250  0.416640  0.149100  1.0  -0.6058
  O  O221  1  0.683140  0.269440  0.451100  1.0  -0.7096
  O  O222  1  0.672020  0.184400  0.345500  1.0  -0.7276
  O  O223  1  0.759180  0.421910  0.837600  1.0  -0.8771
  O  O224  1  0.114700  0.893540  0.897900  1.0  -0.7371
  O  O225  1  0.086810  0.943340  0.626000  1.0  -0.5527
  O  O226  1  0.138230  0.769720  0.958000  1.0  -0.7435
  O  O227  1  0.145590  0.685320  0.068700  1.0  -0.699
  O  O228  1  0.334400  0.897920  0.027100  1.0  -0.7058
  O  O229  1  0.349750  0.916640  0.350900  1.0  -0.6052
  O  O230  1  0.316860  0.769440  0.048900  1.0  -0.7108
  O  O231  1  0.327980  0.684400  0.154500  1.0  -0.7274
  O  O232  1  0.240820  0.921910  0.662400  1.0  -0.8739
