# generated using pymatgen
data_Cu4H16(C4N3)3
_symmetry_space_group_name_H-M   'P 1'
_cell_length_a   8.12190000
_cell_length_b   11.09820000
_cell_length_c   13.76490000
_cell_angle_alpha   91.39040000
_cell_angle_beta   100.82100000
_cell_angle_gamma   103.37800000
_symmetry_Int_Tables_number   1
_chemical_formula_structural   Cu4H16(C4N3)3
_chemical_formula_sum   'Cu8 H32 C24 N18'
_cell_volume   1182.63583929
_cell_formula_units_Z   2
loop_
 _symmetry_equiv_pos_site_id
 _symmetry_equiv_pos_as_xyz
  1  'x, y, z'
loop_
 _atom_site_type_symbol
 _atom_site_label
 _atom_site_symmetry_multiplicity
 _atom_site_fract_x
 _atom_site_fract_y
 _atom_site_fract_z
 _atom_site_occupancy
 _atom_site_charge
  Cu  Cu1  1  0.468300  0.999100  0.812400  1.0  0.4515
  Cu  Cu2  1  0.336800  0.154800  0.717500  1.0  0.6196
  Cu  Cu3  1  0.850600  0.782200  0.645700  1.0  0.6531
  Cu  Cu4  1  0.944000  0.403700  0.822100  1.0  0.5499
  Cu  Cu5  1  0.531700  0.000900  0.187600  1.0  0.453
  Cu  Cu6  1  0.663200  0.845200  0.282500  1.0  0.6194
  Cu  Cu7  1  0.149400  0.217800  0.354300  1.0  0.6549
  Cu  Cu8  1  0.056000  0.596300  0.177900  1.0  0.5476
  H  H9  1  0.831600  0.015800  0.644300  1.0  0.1197
  H  H10  1  0.865910  0.151010  0.692490  1.0  0.1072
  H  H11  1  0.983020  0.120320  0.621520  1.0  0.1023
  H  H12  1  0.630490  0.120730  0.557970  1.0  0.0814
  H  H13  1  0.747610  0.090040  0.487000  1.0  0.0887
  H  H14  1  0.812290  0.319810  0.591920  1.0  0.0828
  H  H15  1  0.921780  0.288710  0.516540  1.0  0.0849
  H  H16  1  0.686840  0.268170  0.393150  1.0  0.0935
  H  H17  1  0.573690  0.294670  0.467980  1.0  0.083
  H  H18  1  0.845430  0.460810  0.410200  1.0  0.0818
  H  H19  1  0.760180  0.489390  0.498540  1.0  0.0916
  H  H20  1  0.511450  0.488000  0.390570  1.0  0.0704
  H  H21  1  0.659890  0.572190  0.347260  1.0  0.0766
  H  H22  1  0.468150  0.464270  0.232350  1.0  0.1046
  H  H23  1  0.496780  0.343700  0.282940  1.0  0.1074
  H  H24  1  0.645220  0.427900  0.239620  1.0  0.1116
  H  H25  1  0.168400  0.984200  0.355700  1.0  0.1198
  H  H26  1  0.134090  0.848990  0.307510  1.0  0.1072
  H  H27  1  0.016980  0.879680  0.378480  1.0  0.102
  H  H28  1  0.369510  0.879270  0.442030  1.0  0.0819
  H  H29  1  0.252390  0.909960  0.513000  1.0  0.088
  H  H30  1  0.187710  0.680190  0.408080  1.0  0.0824
  H  H31  1  0.078220  0.711290  0.483460  1.0  0.0868
  H  H32  1  0.313160  0.731830  0.606850  1.0  0.0915
  H  H33  1  0.426310  0.705330  0.532020  1.0  0.084
  H  H34  1  0.154570  0.539190  0.589800  1.0  0.0803
  H  H35  1  0.239820  0.510610  0.501460  1.0  0.0918
  H  H36  1  0.488550  0.512000  0.609430  1.0  0.072
  H  H37  1  0.340110  0.427810  0.652740  1.0  0.0748
  H  H38  1  0.531850  0.535730  0.767650  1.0  0.1039
  H  H39  1  0.503220  0.656300  0.717060  1.0  0.1096
  H  H40  1  0.354780  0.572100  0.760380  1.0  0.1129
  C  C41  1  0.216900  0.965100  0.738400  1.0  -0.076
  C  C42  1  0.584800  0.202300  0.776200  1.0  0.0635
  C  C43  1  0.605300  0.902700  0.756600  1.0  0.0822
  C  C44  1  0.216900  0.186100  0.492600  1.0  0.1472
  C  C45  1  0.119500  0.323100  0.793800  1.0  0.0489
  C  C46  1  0.863400  0.621700  0.692900  1.0  -0.0232
  C  C47  1  0.985500  0.477200  0.960100  1.0  0.0715
  C  C48  1  0.783100  0.034900  0.261600  1.0  -0.0784
  C  C49  1  0.415200  0.797700  0.223800  1.0  0.0599
  C  C50  1  0.394700  0.097300  0.243400  1.0  0.0871
  C  C51  1  0.783100  0.813900  0.507400  1.0  0.1446
  C  C52  1  0.880500  0.676900  0.206200  1.0  0.0577
  C  C53  1  0.136600  0.378300  0.307100  1.0  -0.0201
  C  C54  1  0.014500  0.522800  0.039900  1.0  0.0729
  C  C55  1  0.808300  0.273100  0.531500  1.0  -0.1327
  C  C56  1  0.746200  0.137000  0.546200  1.0  -0.0023
  C  C57  1  0.609800  0.488800  0.361100  1.0  -0.012
  C  C58  1  0.739500  0.446700  0.434300  1.0  -0.1398
  C  C59  1  0.687600  0.313700  0.453500  1.0  -0.1286
  C  C60  1  0.191700  0.726900  0.468500  1.0  -0.1337
  C  C61  1  0.253800  0.863000  0.453800  1.0  -0.0033
  C  C62  1  0.390200  0.511200  0.638900  1.0  -0.0132
  C  C63  1  0.260500  0.553300  0.565700  1.0  -0.1385
  C  C64  1  0.312400  0.686300  0.546500  1.0  -0.1296
  N  N65  1  0.491200  0.004700  0.957700  1.0  -0.3654
  N  N66  1  0.263900  0.169800  0.574200  1.0  -0.3695
  N  N67  1  0.205100  0.262900  0.775200  1.0  -0.4506
  N  N68  1  0.082300  0.900800  0.709100  1.0  -0.4307
  N  N69  1  0.689600  0.853000  0.722100  1.0  -0.4627
  N  N70  1  0.717200  0.266800  0.798300  1.0  -0.4208
  N  N71  1  0.887500  0.536600  0.732500  1.0  -0.4546
  N  N72  1  0.508800  0.995300  0.042300  1.0  -0.3675
  N  N73  1  0.736100  0.830200  0.425800  1.0  -0.3719
  N  N74  1  0.794900  0.737100  0.224800  1.0  -0.451
  N  N75  1  0.917700  0.099200  0.290900  1.0  -0.4309
  N  N76  1  0.310400  0.147000  0.277900  1.0  -0.4631
  N  N77  1  0.282800  0.733200  0.201700  1.0  -0.4173
  N  N78  1  0.112500  0.463400  0.267500  1.0  -0.4541
  N  N79  1  0.867900  0.102500  0.634200  1.0  -0.3645
  N  N80  1  0.550900  0.427600  0.272600  1.0  -0.345
  N  N81  1  0.132100  0.897500  0.365800  1.0  -0.3675
  N  N82  1  0.449100  0.572400  0.727400  1.0  -0.3424
