# generated using pymatgen
data_InH9(C7O3)2
_symmetry_space_group_name_H-M   'P 1'
_cell_length_a   13.96680000
_cell_length_b   25.31740000
_cell_length_c   25.18210000
_cell_angle_alpha   32.11010000
_cell_angle_beta   74.47830000
_cell_angle_gamma   73.41150000
_symmetry_Int_Tables_number   1
_chemical_formula_structural   InH9(C7O3)2
_chemical_formula_sum   'In8 H72 C112 O48'
_cell_volume   4530.34457873
_cell_formula_units_Z   8
loop_
 _symmetry_equiv_pos_site_id
 _symmetry_equiv_pos_as_xyz
  1  'x, y, z'
loop_
 _atom_site_type_symbol
 _atom_site_label
 _atom_site_symmetry_multiplicity
 _atom_site_fract_x
 _atom_site_fract_y
 _atom_site_fract_z
 _atom_site_occupancy
 _atom_site_charge
  In  In1  1  0.125000  0.125000  0.625000  1.0  1.6953
  In  In2  1  0.125000  0.125000  0.125000  1.0  1.6953
  In  In3  1  0.625000  0.125000  0.125000  1.0  1.6953
  In  In4  1  0.125000  0.625000  0.125000  1.0  1.6953
  In  In5  1  0.138810  0.361190  0.361190  1.0  1.6665
  In  In6  1  0.361190  0.138810  0.138810  1.0  1.674
  In  In7  1  0.111190  0.888810  0.888810  1.0  1.674
  In  In8  1  0.888810  0.111190  0.111190  1.0  1.6665
  H  H9  1  0.035500  0.431700  0.907700  1.0  0.0992
  H  H10  1  0.274200  0.444600  0.954200  1.0  0.1011
  H  H11  1  0.043300  0.659700  0.877900  1.0  0.1042
  H  H12  1  0.041900  0.750300  0.878300  1.0  0.0911
  H  H13  1  0.110400  0.987200  0.582800  1.0  0.0944
  H  H14  1  0.983900  0.597300  0.793100  1.0  0.1108
  H  H15  1  0.106400  0.898000  0.582400  1.0  0.1147
  H  H16  1  0.221700  0.613500  0.833900  1.0  0.1089
  H  H17  1  0.431700  0.035500  0.625100  1.0  0.099
  H  H18  1  0.444600  0.274200  0.327000  1.0  0.1019
  H  H19  1  0.659700  0.043300  0.419100  1.0  0.106
  H  H20  1  0.750300  0.041900  0.329500  1.0  0.0905
  H  H21  1  0.987200  0.110400  0.319600  1.0  0.0952
  H  H22  1  0.597300  0.983900  0.625700  1.0  0.1084
  H  H23  1  0.898000  0.106400  0.413200  1.0  0.113
  H  H24  1  0.613500  0.221700  0.330900  1.0  0.1092
  H  H25  1  0.907700  0.625100  0.035500  1.0  0.0984
  H  H26  1  0.954200  0.327000  0.274200  1.0  0.1024
  H  H27  1  0.877900  0.419100  0.043300  1.0  0.1063
  H  H28  1  0.878300  0.329500  0.041900  1.0  0.0899
  H  H29  1  0.582800  0.319600  0.110400  1.0  0.0935
  H  H30  1  0.793100  0.625700  0.983900  1.0  0.1114
  H  H31  1  0.582400  0.413200  0.106400  1.0  0.1146
  H  H32  1  0.833900  0.330900  0.221700  1.0  0.1123
  H  H33  1  0.625100  0.907700  0.431700  1.0  0.0998
  H  H34  1  0.327000  0.954200  0.444600  1.0  0.1014
  H  H35  1  0.419100  0.877900  0.659700  1.0  0.1043
  H  H36  1  0.329500  0.878300  0.750300  1.0  0.0903
  H  H37  1  0.319600  0.582800  0.987200  1.0  0.0951
  H  H38  1  0.625700  0.793100  0.597300  1.0  0.1096
  H  H39  1  0.413200  0.582400  0.898000  1.0  0.1154
  H  H40  1  0.330900  0.833900  0.613500  1.0  0.1111
  H  H41  1  0.276070  0.491730  0.244150  1.0  0.3972
  H  H42  1  0.214500  0.818300  0.342300  1.0  0.0998
  H  H43  1  0.975800  0.805400  0.295800  1.0  0.1008
  H  H44  1  0.206700  0.590300  0.372100  1.0  0.1048
  H  H45  1  0.208100  0.499700  0.371700  1.0  0.0913
  H  H46  1  0.139600  0.262800  0.667200  1.0  0.0948
  H  H47  1  0.266100  0.652700  0.456900  1.0  0.1101
  H  H48  1  0.143600  0.352000  0.667600  1.0  0.1144
  H  H49  1  0.028300  0.636500  0.416100  1.0  0.1099
  H  H50  1  0.261940  0.005850  0.758270  1.0  0.3964
  H  H51  1  0.818300  0.214500  0.624900  1.0  0.0984
  H  H52  1  0.805400  0.975800  0.923000  1.0  0.1016
  H  H53  1  0.590300  0.206700  0.830900  1.0  0.1055
  H  H54  1  0.499700  0.208100  0.920500  1.0  0.0904
  H  H55  1  0.262800  0.139600  0.930400  1.0  0.0945
  H  H56  1  0.652700  0.266100  0.624300  1.0  0.1123
  H  H57  1  0.352000  0.143600  0.836800  1.0  0.1145
  H  H58  1  0.636500  0.028300  0.919100  1.0  0.11
  H  H59  1  0.342300  0.624900  0.214500  1.0  0.0985
  H  H60  1  0.295800  0.923000  0.975800  1.0  0.1027
  H  H61  1  0.372100  0.830900  0.206700  1.0  0.1075
  H  H62  1  0.371700  0.920500  0.208100  1.0  0.0904
  H  H63  1  0.667200  0.930400  0.139600  1.0  0.0941
  H  H64  1  0.456900  0.624300  0.266100  1.0  0.1069
  H  H65  1  0.667600  0.836800  0.143600  1.0  0.1151
  H  H66  1  0.416100  0.919100  0.028300  1.0  0.1114
  H  H67  1  0.624900  0.342300  0.818300  1.0  0.0996
  H  H68  1  0.923000  0.295800  0.805400  1.0  0.1015
  H  H69  1  0.830900  0.372100  0.590300  1.0  0.1049
  H  H70  1  0.920500  0.371700  0.499700  1.0  0.0902
  H  H71  1  0.930400  0.667200  0.262800  1.0  0.0946
  H  H72  1  0.624300  0.456900  0.652700  1.0  0.1117
  H  H73  1  0.836800  0.667600  0.352000  1.0  0.1157
  H  H74  1  0.919100  0.416100  0.636500  1.0  0.1105
  H  H75  1  0.491730  0.276070  0.988060  1.0  0.4022
  H  H76  1  0.005850  0.261940  0.973930  1.0  0.4027
  H  H77  1  0.244150  0.988060  0.276070  1.0  0.4026
  H  H78  1  0.758270  0.973930  0.261940  1.0  0.4007
  H  H79  1  0.988060  0.244150  0.491730  1.0  0.3971
  H  H80  1  0.973930  0.758270  0.005850  1.0  0.3983
  C  C81  1  0.192120  0.312280  0.018880  1.0  0.7324
  C  C82  1  0.073280  0.466920  0.894720  1.0  -0.047
  C  C83  1  0.215550  0.474850  0.921850  1.0  -0.0489
  C  C84  1  0.079460  0.878340  0.730340  1.0  -0.1594
  C  C85  1  0.077670  0.769530  0.730530  1.0  0.2995
  C  C86  1  0.057060  0.725740  0.818740  1.0  -0.23
  C  C87  1  0.158700  0.419900  0.944900  1.0  -0.1737
  C  C88  1  0.056900  0.779500  0.819100  1.0  -0.0066
  C  C89  1  0.082710  0.935290  0.731290  1.0  0.6935
  C  C90  1  0.097080  0.920920  0.642520  1.0  -0.0269
  C  C91  1  0.043120  0.566480  0.825080  1.0  -0.1923
  C  C92  1  0.095580  0.868020  0.642020  1.0  -0.2371
  C  C93  1  0.098280  0.618920  0.803320  1.0  0.282
  C  C94  1  0.184100  0.575900  0.849900  1.0  -0.1759
  C  C95  1  0.312280  0.192120  0.476720  1.0  0.7327
  C  C96  1  0.466920  0.073280  0.565080  1.0  -0.0498
  C  C97  1  0.474850  0.215550  0.387750  1.0  -0.051
  C  C98  1  0.878340  0.079460  0.311860  1.0  -0.1585
  C  C99  1  0.769530  0.077670  0.422270  1.0  0.2978
  C  C100  1  0.725740  0.057060  0.398460  1.0  -0.2283
  C  C101  1  0.419900  0.158700  0.476500  1.0  -0.1742
  C  C102  1  0.779500  0.056900  0.344500  1.0  -0.0093
  C  C103  1  0.935290  0.082710  0.250710  1.0  0.6935
  C  C104  1  0.920920  0.097080  0.339480  1.0  -0.0209
  C  C105  1  0.566480  0.043120  0.565320  1.0  -0.1933
  C  C106  1  0.868020  0.095580  0.394380  1.0  -0.2317
  C  C107  1  0.618920  0.098280  0.479480  1.0  0.2823
  C  C108  1  0.575900  0.184100  0.390100  1.0  -0.1786
  C  C109  1  0.018880  0.476720  0.192120  1.0  0.733
  C  C110  1  0.894720  0.565080  0.073280  1.0  -0.0468
  C  C111  1  0.921850  0.387750  0.215550  1.0  -0.0499
  C  C112  1  0.730340  0.311860  0.079460  1.0  -0.1615
  C  C113  1  0.730530  0.422270  0.077670  1.0  0.2859
  C  C114  1  0.818740  0.398460  0.057060  1.0  -0.2271
  C  C115  1  0.944900  0.476500  0.158700  1.0  -0.1759
  C  C116  1  0.819100  0.344500  0.056900  1.0  -0.0085
  C  C117  1  0.731290  0.250710  0.082710  1.0  0.7005
  C  C118  1  0.642520  0.339480  0.097080  1.0  -0.0217
  C  C119  1  0.825080  0.565320  0.043120  1.0  -0.1929
  C  C120  1  0.642020  0.394380  0.095580  1.0  -0.238
  C  C121  1  0.803320  0.479480  0.098280  1.0  0.2847
  C  C122  1  0.849900  0.390100  0.184100  1.0  -0.1756
  C  C123  1  0.476720  0.018880  0.312280  1.0  0.7318
  C  C124  1  0.565080  0.894720  0.466920  1.0  -0.0471
  C  C125  1  0.387750  0.921850  0.474850  1.0  -0.0509
  C  C126  1  0.311860  0.730340  0.878340  1.0  -0.1615
  C  C127  1  0.422270  0.730530  0.769530  1.0  0.2832
  C  C128  1  0.398460  0.818740  0.725740  1.0  -0.2288
  C  C129  1  0.476500  0.944900  0.419900  1.0  -0.1769
  C  C130  1  0.344500  0.819100  0.779500  1.0  -0.0095
  C  C131  1  0.250710  0.731290  0.935290  1.0  0.7006
  C  C132  1  0.339480  0.642520  0.920920  1.0  -0.0284
  C  C133  1  0.565320  0.825080  0.566480  1.0  -0.1911
  C  C134  1  0.394380  0.642020  0.868020  1.0  -0.2361
  C  C135  1  0.479480  0.803320  0.618920  1.0  0.2831
  C  C136  1  0.390100  0.849900  0.575900  1.0  -0.1742
  C  C137  1  0.057880  0.937720  0.231120  1.0  0.7323
  C  C138  1  0.176720  0.783080  0.355280  1.0  -0.0477
  C  C139  1  0.034450  0.775150  0.328150  1.0  -0.0496
  C  C140  1  0.170540  0.371660  0.519660  1.0  -0.1601
  C  C141  1  0.172330  0.480470  0.519470  1.0  0.2877
  C  C142  1  0.192940  0.524260  0.431260  1.0  -0.2273
  C  C143  1  0.091300  0.830100  0.305100  1.0  -0.1754
  C  C144  1  0.193100  0.470500  0.430900  1.0  -0.008
  C  C145  1  0.167290  0.314710  0.518710  1.0  0.696
  C  C146  1  0.152920  0.329080  0.607480  1.0  -0.0272
  C  C147  1  0.206880  0.683520  0.424920  1.0  -0.1914
  C  C148  1  0.154420  0.381980  0.607980  1.0  -0.2362
  C  C149  1  0.151720  0.631080  0.446680  1.0  0.2842
  C  C150  1  0.065900  0.674100  0.400100  1.0  -0.1769
  C  C151  1  0.937720  0.057880  0.773280  1.0  0.7309
  C  C152  1  0.783080  0.176720  0.684920  1.0  -0.049
  C  C153  1  0.775150  0.034450  0.862250  1.0  -0.0507
  C  C154  1  0.371660  0.170540  0.938140  1.0  -0.1594
  C  C155  1  0.480470  0.172330  0.827730  1.0  0.2894
  C  C156  1  0.524260  0.192940  0.851540  1.0  -0.228
  C  C157  1  0.830100  0.091300  0.773500  1.0  -0.1733
  C  C158  1  0.470500  0.193100  0.905500  1.0  -0.0061
  C  C159  1  0.314710  0.167290  0.999290  1.0  0.6929
  C  C160  1  0.329080  0.152920  0.910520  1.0  -0.0234
  C  C161  1  0.683520  0.206880  0.684680  1.0  -0.1933
  C  C162  1  0.381980  0.154420  0.855620  1.0  -0.2364
  C  C163  1  0.631080  0.151720  0.770520  1.0  0.2775
  C  C164  1  0.674100  0.065900  0.859900  1.0  -0.1773
  C  C165  1  0.231120  0.773280  0.057880  1.0  0.7341
  C  C166  1  0.355280  0.684920  0.176720  1.0  -0.0472
  C  C167  1  0.328150  0.862250  0.034450  1.0  -0.0504
  C  C168  1  0.519660  0.938140  0.170540  1.0  -0.161
  C  C169  1  0.519470  0.827730  0.172330  1.0  0.2939
  C  C170  1  0.431260  0.851540  0.192940  1.0  -0.2287
  C  C171  1  0.305100  0.773500  0.091300  1.0  -0.1763
  C  C172  1  0.430900  0.905500  0.193100  1.0  -0.0095
  C  C173  1  0.518710  0.999290  0.167290  1.0  0.7012
  C  C174  1  0.607480  0.910520  0.152920  1.0  -0.0197
  C  C175  1  0.424920  0.684680  0.206880  1.0  -0.1921
  C  C176  1  0.607980  0.855620  0.154420  1.0  -0.2364
  C  C177  1  0.446680  0.770520  0.151720  1.0  0.2806
  C  C178  1  0.400100  0.859900  0.065900  1.0  -0.1734
  C  C179  1  0.773280  0.231120  0.937720  1.0  0.7323
  C  C180  1  0.684920  0.355280  0.783080  1.0  -0.0481
  C  C181  1  0.862250  0.328150  0.775150  1.0  -0.0494
  C  C182  1  0.938140  0.519660  0.371660  1.0  -0.1603
  C  C183  1  0.827730  0.519470  0.480470  1.0  0.2837
  C  C184  1  0.851540  0.431260  0.524260  1.0  -0.2297
  C  C185  1  0.773500  0.305100  0.830100  1.0  -0.1758
  C  C186  1  0.905500  0.430900  0.470500  1.0  -0.0102
  C  C187  1  0.999290  0.518710  0.314710  1.0  0.7006
  C  C188  1  0.910520  0.607480  0.329080  1.0  -0.0285
  C  C189  1  0.684680  0.424920  0.683520  1.0  -0.1945
  C  C190  1  0.855620  0.607980  0.381980  1.0  -0.2294
  C  C191  1  0.770520  0.446680  0.631080  1.0  0.283
  C  C192  1  0.859900  0.400100  0.674100  1.0  -0.1726
  O  O193  1  0.062860  0.235560  0.487940  1.0  -0.872
  O  O194  1  0.116810  0.019430  0.652510  1.0  -0.6219
  O  O195  1  0.052430  0.898030  0.809370  1.0  -0.6183
  O  O196  1  0.268350  0.271810  0.066150  1.0  -0.6125
  O  O197  1  0.141960  0.272920  0.025840  1.0  -0.6145
  O  O198  1  0.071690  0.720510  0.725110  1.0  -0.2728
  O  O199  1  0.235560  0.062860  0.213640  1.0  -0.8664
  O  O200  1  0.019430  0.116810  0.211250  1.0  -0.6209
  O  O201  1  0.898030  0.052430  0.240170  1.0  -0.6201
  O  O202  1  0.271810  0.268350  0.393690  1.0  -0.6145
  O  O203  1  0.272920  0.141960  0.559280  1.0  -0.6197
  O  O204  1  0.720510  0.071690  0.482690  1.0  -0.2732
  O  O205  1  0.487940  0.213640  0.062860  1.0  -0.8659
  O  O206  1  0.652510  0.211250  0.116810  1.0  -0.6195
  O  O207  1  0.809370  0.240170  0.052430  1.0  -0.6177
  O  O208  1  0.066150  0.393690  0.268350  1.0  -0.6109
  O  O209  1  0.025840  0.559280  0.141960  1.0  -0.6218
  O  O210  1  0.725110  0.482690  0.071690  1.0  -0.2756
  O  O211  1  0.213640  0.487940  0.235560  1.0  -0.8704
  O  O212  1  0.211250  0.652510  0.019430  1.0  -0.6222
  O  O213  1  0.240170  0.809370  0.898030  1.0  -0.6194
  O  O214  1  0.393690  0.066150  0.271810  1.0  -0.6121
  O  O215  1  0.559280  0.025840  0.272920  1.0  -0.6171
  O  O216  1  0.482690  0.725110  0.720510  1.0  -0.2749
  O  O217  1  0.187140  0.014440  0.762060  1.0  -0.87
  O  O218  1  0.133190  0.230570  0.597490  1.0  -0.6224
  O  O219  1  0.197570  0.351970  0.440630  1.0  -0.62
  O  O220  1  0.981650  0.978190  0.183850  1.0  -0.6129
  O  O221  1  0.108040  0.977080  0.224160  1.0  -0.6146
  O  O222  1  0.178310  0.529490  0.524890  1.0  -0.2731
  O  O223  1  0.014440  0.187140  0.036360  1.0  -0.8648
  O  O224  1  0.230570  0.133190  0.038750  1.0  -0.6198
  O  O225  1  0.351970  0.197570  0.009830  1.0  -0.6192
  O  O226  1  0.978190  0.981650  0.856310  1.0  -0.6153
  O  O227  1  0.977080  0.108040  0.690720  1.0  -0.617
  O  O228  1  0.529490  0.178310  0.767310  1.0  -0.2731
  O  O229  1  0.762060  0.036360  0.187140  1.0  -0.8695
  O  O230  1  0.597490  0.038750  0.133190  1.0  -0.6221
  O  O231  1  0.440630  0.009830  0.197570  1.0  -0.6186
  O  O232  1  0.183850  0.856310  0.981650  1.0  -0.6104
  O  O233  1  0.224160  0.690720  0.108040  1.0  -0.6204
  O  O234  1  0.524890  0.767310  0.178310  1.0  -0.2741
  O  O235  1  0.036360  0.762060  0.014440  1.0  -0.8666
  O  O236  1  0.038750  0.597490  0.230570  1.0  -0.621
  O  O237  1  0.009830  0.440630  0.351970  1.0  -0.6201
  O  O238  1  0.856310  0.183850  0.978190  1.0  -0.6114
  O  O239  1  0.690720  0.224160  0.977080  1.0  -0.616
  O  O240  1  0.767310  0.524890  0.529490  1.0  -0.275
