# generated using pymatgen
data_Mn3Cr2H24(C7N3)6
_symmetry_space_group_name_H-M   'P 1'
_cell_length_a   11.63350000
_cell_length_b   16.79610000
_cell_length_c   18.15750000
_cell_angle_alpha   90.00000000
_cell_angle_beta   90.00000000
_cell_angle_gamma   90.00000000
_symmetry_Int_Tables_number   1
_chemical_formula_structural   Mn3Cr2H24(C7N3)6
_chemical_formula_sum   'Mn6 Cr4 H48 C84 N36'
_cell_volume   3547.92882342
_cell_formula_units_Z   2
loop_
 _symmetry_equiv_pos_site_id
 _symmetry_equiv_pos_as_xyz
  1  'x, y, z'
loop_
 _atom_site_type_symbol
 _atom_site_label
 _atom_site_symmetry_multiplicity
 _atom_site_fract_x
 _atom_site_fract_y
 _atom_site_fract_z
 _atom_site_occupancy
 _atom_site_charge
  Mn  Mn1  1  0.500000  0.890260  0.184340  1.0  0.9238
  Mn  Mn2  1  0.500000  0.109740  0.815660  1.0  0.9223
  Mn  Mn3  1  0.500000  0.609740  0.684340  1.0  0.9228
  Mn  Mn4  1  0.500000  0.390260  0.315660  1.0  0.923
  Mn  Mn5  1  0.500000  0.500000  0.000000  1.0  1.0832
  Mn  Mn6  1  0.500000  0.000000  0.500000  1.0  1.0832
  Cr  Cr7  1  0.500000  0.803600  0.900960  1.0  0.2355
  Cr  Cr8  1  0.500000  0.196400  0.099040  1.0  0.236
  Cr  Cr9  1  0.500000  0.696400  0.400960  1.0  0.2348
  Cr  Cr10  1  0.500000  0.303600  0.599040  1.0  0.2367
  H  H11  1  0.714200  0.829100  0.276300  1.0  0.0763
  H  H12  1  0.912200  0.830900  0.281300  1.0  0.134
  H  H13  1  0.910200  0.960100  0.097000  1.0  0.13
  H  H14  1  0.712600  0.953600  0.097100  1.0  0.09
  H  H15  1  0.716100  0.575600  0.921400  1.0  0.074
  H  H16  1  0.913300  0.577100  0.918700  1.0  0.1218
  H  H17  1  0.714200  0.170900  0.723700  1.0  0.0767
  H  H18  1  0.912200  0.169100  0.718700  1.0  0.1332
  H  H19  1  0.910200  0.039900  0.903000  1.0  0.1299
  H  H20  1  0.712600  0.046400  0.902900  1.0  0.0895
  H  H21  1  0.716100  0.424400  0.078600  1.0  0.0736
  H  H22  1  0.913300  0.422900  0.081300  1.0  0.1208
  H  H23  1  0.285800  0.670900  0.776300  1.0  0.0761
  H  H24  1  0.087800  0.669100  0.781300  1.0  0.1332
  H  H25  1  0.089800  0.539900  0.597000  1.0  0.1303
  H  H26  1  0.287400  0.546400  0.597100  1.0  0.0899
  H  H27  1  0.283900  0.924400  0.421400  1.0  0.0739
  H  H28  1  0.086700  0.922900  0.418700  1.0  0.1211
  H  H29  1  0.285800  0.329100  0.223700  1.0  0.0765
  H  H30  1  0.087800  0.330900  0.218700  1.0  0.1334
  H  H31  1  0.089800  0.460100  0.403000  1.0  0.1303
  H  H32  1  0.287400  0.453600  0.402900  1.0  0.0892
  H  H33  1  0.283900  0.075600  0.578600  1.0  0.0735
  H  H34  1  0.086700  0.077100  0.581300  1.0  0.1206
  H  H35  1  0.285800  0.170900  0.723700  1.0  0.0764
  H  H36  1  0.087800  0.169100  0.718700  1.0  0.1331
  H  H37  1  0.089800  0.039900  0.903000  1.0  0.1301
  H  H38  1  0.287400  0.046400  0.902900  1.0  0.0894
  H  H39  1  0.283900  0.424400  0.078600  1.0  0.0735
  H  H40  1  0.086700  0.422900  0.081300  1.0  0.1213
  H  H41  1  0.285800  0.829100  0.276300  1.0  0.076
  H  H42  1  0.087800  0.830900  0.281300  1.0  0.1338
  H  H43  1  0.089800  0.960100  0.097000  1.0  0.1303
  H  H44  1  0.287400  0.953600  0.097100  1.0  0.0895
  H  H45  1  0.283900  0.575600  0.921400  1.0  0.0739
  H  H46  1  0.086700  0.577100  0.918700  1.0  0.1225
  H  H47  1  0.714200  0.329100  0.223700  1.0  0.0764
  H  H48  1  0.912200  0.330900  0.218700  1.0  0.1334
  H  H49  1  0.910200  0.460100  0.403000  1.0  0.1301
  H  H50  1  0.712600  0.453600  0.402900  1.0  0.0896
  H  H51  1  0.716100  0.075600  0.578600  1.0  0.0738
  H  H52  1  0.913300  0.077100  0.581300  1.0  0.1218
  H  H53  1  0.714200  0.670900  0.776300  1.0  0.0761
  H  H54  1  0.912200  0.669100  0.781300  1.0  0.1336
  H  H55  1  0.910200  0.539900  0.597000  1.0  0.1299
  H  H56  1  0.712600  0.546400  0.597100  1.0  0.0901
  H  H57  1  0.716100  0.924400  0.421400  1.0  0.074
  H  H58  1  0.913300  0.922900  0.418700  1.0  0.1221
  C  C59  1  0.678900  0.802000  0.902300  1.0  -0.0141
  C  C60  1  0.754400  0.856100  0.239600  1.0  0.1797
  C  C61  1  0.874000  0.856700  0.243100  1.0  -0.1975
  C  C62  1  0.935100  0.896200  0.189100  1.0  0.0912
  C  C63  1  0.872500  0.932700  0.134400  1.0  -0.176
  C  C64  1  0.753200  0.929000  0.134900  1.0  0.1896
  C  C65  1  0.755600  0.543500  0.954600  1.0  0.2032
  C  C66  1  0.875600  0.545000  0.952700  1.0  -0.1767
  C  C67  1  0.678900  0.198000  0.097700  1.0  -0.013
  C  C68  1  0.754400  0.143900  0.760400  1.0  0.1788
  C  C69  1  0.874000  0.143300  0.756900  1.0  -0.1987
  C  C70  1  0.935100  0.103800  0.810900  1.0  0.0907
  C  C71  1  0.872500  0.067300  0.865600  1.0  -0.1757
  C  C72  1  0.753200  0.071000  0.865100  1.0  0.1904
  C  C73  1  0.755600  0.456500  0.045400  1.0  0.204
  C  C74  1  0.875600  0.455000  0.047300  1.0  -0.1766
  C  C75  1  0.321100  0.698000  0.402300  1.0  -0.0121
  C  C76  1  0.245600  0.643900  0.739600  1.0  0.1797
  C  C77  1  0.126000  0.643300  0.743100  1.0  -0.1987
  C  C78  1  0.064900  0.603800  0.689100  1.0  0.0912
  C  C79  1  0.127500  0.567300  0.634400  1.0  -0.1763
  C  C80  1  0.246800  0.571000  0.634900  1.0  0.1906
  C  C81  1  0.244400  0.956500  0.454600  1.0  0.2035
  C  C82  1  0.124400  0.955000  0.452700  1.0  -0.1764
  C  C83  1  0.321100  0.302000  0.597700  1.0  -0.0133
  C  C84  1  0.245600  0.356100  0.260400  1.0  0.1793
  C  C85  1  0.126000  0.356700  0.256900  1.0  -0.1985
  C  C86  1  0.064900  0.396200  0.310900  1.0  0.0907
  C  C87  1  0.127500  0.432700  0.365600  1.0  -0.1761
  C  C88  1  0.246800  0.429000  0.365100  1.0  0.1907
  C  C89  1  0.244400  0.043500  0.545400  1.0  0.2043
  C  C90  1  0.124400  0.045000  0.547300  1.0  -0.1765
  C  C91  1  0.321100  0.198000  0.097700  1.0  -0.0118
  C  C92  1  0.245600  0.143900  0.760400  1.0  0.1794
  C  C93  1  0.126000  0.143300  0.756900  1.0  -0.199
  C  C94  1  0.064900  0.103800  0.810900  1.0  0.0906
  C  C95  1  0.127500  0.067300  0.865600  1.0  -0.1762
  C  C96  1  0.246800  0.071000  0.865100  1.0  0.1915
  C  C97  1  0.244400  0.456500  0.045400  1.0  0.2046
  C  C98  1  0.124400  0.455000  0.047300  1.0  -0.1769
  C  C99  1  0.321100  0.802000  0.902300  1.0  -0.0136
  C  C100  1  0.245600  0.856100  0.239600  1.0  0.1801
  C  C101  1  0.126000  0.856700  0.243100  1.0  -0.1982
  C  C102  1  0.064900  0.896200  0.189100  1.0  0.0912
  C  C103  1  0.127500  0.932700  0.134400  1.0  -0.1758
  C  C104  1  0.246800  0.929000  0.134900  1.0  0.1906
  C  C105  1  0.244400  0.543500  0.954600  1.0  0.2034
  C  C106  1  0.124400  0.545000  0.952700  1.0  -0.1767
  C  C107  1  0.678900  0.302000  0.597700  1.0  -0.0139
  C  C108  1  0.754400  0.356100  0.260400  1.0  0.1788
  C  C109  1  0.874000  0.356700  0.256900  1.0  -0.1984
  C  C110  1  0.935100  0.396200  0.310900  1.0  0.0907
  C  C111  1  0.872500  0.432700  0.365600  1.0  -0.1757
  C  C112  1  0.753200  0.429000  0.365100  1.0  0.1897
  C  C113  1  0.755600  0.043500  0.545400  1.0  0.2037
  C  C114  1  0.875600  0.045000  0.547300  1.0  -0.1775
  C  C115  1  0.678900  0.698000  0.402300  1.0  -0.0132
  C  C116  1  0.754400  0.643900  0.739600  1.0  0.1791
  C  C117  1  0.874000  0.643300  0.743100  1.0  -0.1986
  C  C118  1  0.935100  0.603800  0.689100  1.0  0.0912
  C  C119  1  0.872500  0.567300  0.634400  1.0  -0.1761
  C  C120  1  0.753200  0.571000  0.634900  1.0  0.1895
  C  C121  1  0.755600  0.956500  0.454600  1.0  0.2032
  C  C122  1  0.875600  0.955000  0.452700  1.0  -0.1771
  C  C123  1  0.500000  0.838700  0.010400  1.0  0.0989
  C  C124  1  0.500000  0.687100  0.936900  1.0  0.1606
  C  C125  1  0.500000  0.760500  0.795000  1.0  0.0851
  C  C126  1  0.500000  0.918900  0.864500  1.0  0.1243
  C  C127  1  0.500000  0.161300  0.989600  1.0  0.0992
  C  C128  1  0.500000  0.312900  0.063100  1.0  0.1595
  C  C129  1  0.500000  0.239500  0.205000  1.0  0.0865
  C  C130  1  0.500000  0.081100  0.135500  1.0  0.1268
  C  C131  1  0.500000  0.661300  0.510400  1.0  0.0989
  C  C132  1  0.500000  0.812900  0.436900  1.0  0.1602
  C  C133  1  0.500000  0.739500  0.295000  1.0  0.0849
  C  C134  1  0.500000  0.581100  0.364500  1.0  0.1276
  C  C135  1  0.500000  0.338700  0.489600  1.0  0.0995
  C  C136  1  0.500000  0.187100  0.563100  1.0  0.16
  C  C137  1  0.500000  0.260500  0.705000  1.0  0.0866
  C  C138  1  0.500000  0.418900  0.635500  1.0  0.1233
  C  C139  1  0.936900  0.500000  0.000000  1.0  0.1049
  C  C140  1  0.063100  0.000000  0.500000  1.0  0.1041
  C  C141  1  0.063100  0.500000  0.000000  1.0  0.1041
  C  C142  1  0.936900  0.000000  0.500000  1.0  0.1049
  N  N143  1  0.778500  0.800900  0.904600  1.0  -0.4295
  N  N144  1  0.695100  0.891600  0.187200  1.0  -0.3478
  N  N145  1  0.778500  0.199100  0.095400  1.0  -0.4293
  N  N146  1  0.695100  0.108400  0.812800  1.0  -0.3479
  N  N147  1  0.221500  0.699100  0.404600  1.0  -0.4294
  N  N148  1  0.304900  0.608400  0.687200  1.0  -0.3487
  N  N149  1  0.221500  0.300900  0.595400  1.0  -0.4294
  N  N150  1  0.304900  0.391600  0.312800  1.0  -0.3485
  N  N151  1  0.221500  0.199100  0.095400  1.0  -0.4294
  N  N152  1  0.304900  0.108400  0.812800  1.0  -0.3487
  N  N153  1  0.221500  0.800900  0.904600  1.0  -0.4294
  N  N154  1  0.304900  0.891600  0.187200  1.0  -0.3486
  N  N155  1  0.778500  0.300900  0.595400  1.0  -0.4294
  N  N156  1  0.695100  0.391600  0.312800  1.0  -0.3477
  N  N157  1  0.778500  0.699100  0.404600  1.0  -0.4294
  N  N158  1  0.695100  0.608400  0.687200  1.0  -0.348
  N  N159  1  0.500000  0.854500  0.069600  1.0  -0.3857
  N  N160  1  0.500000  0.619900  0.952500  1.0  -0.5272
  N  N161  1  0.500000  0.727000  0.738800  1.0  -0.43
  N  N162  1  0.500000  0.982500  0.843000  1.0  -0.4337
  N  N163  1  0.500000  0.145500  0.930400  1.0  -0.3868
  N  N164  1  0.500000  0.380100  0.047500  1.0  -0.5278
  N  N165  1  0.500000  0.273000  0.261200  1.0  -0.4295
  N  N166  1  0.500000  0.017500  0.157000  1.0  -0.434
  N  N167  1  0.500000  0.645500  0.569600  1.0  -0.3862
  N  N168  1  0.500000  0.880100  0.452500  1.0  -0.5273
  N  N169  1  0.500000  0.773000  0.238800  1.0  -0.4306
  N  N170  1  0.500000  0.517500  0.343000  1.0  -0.4341
  N  N171  1  0.500000  0.354500  0.430400  1.0  -0.3868
  N  N172  1  0.500000  0.119900  0.547500  1.0  -0.5278
  N  N173  1  0.500000  0.227000  0.761200  1.0  -0.4298
  N  N174  1  0.500000  0.482500  0.657000  1.0  -0.4332
  N  N175  1  0.695300  0.500000  0.000000  1.0  -0.3916
  N  N176  1  0.304700  0.000000  0.500000  1.0  -0.3926
  N  N177  1  0.304700  0.500000  0.000000  1.0  -0.3926
  N  N178  1  0.695300  0.000000  0.500000  1.0  -0.3916
