# generated using pymatgen
data_CoH18C18SN3O4
_symmetry_space_group_name_H-M   'P 1'
_cell_length_a   13.64400000
_cell_length_b   15.33390000
_cell_length_c   15.33390000
_cell_angle_alpha   99.17270000
_cell_angle_beta   102.33200000
_cell_angle_gamma   77.66850000
_symmetry_Int_Tables_number   1
_chemical_formula_structural   CoH18C18SN3O4
_chemical_formula_sum   'Co4 H72 C72 S4 N12 O16'
_cell_volume   3039.91963058
_cell_formula_units_Z   4
loop_
 _symmetry_equiv_pos_site_id
 _symmetry_equiv_pos_as_xyz
  1  'x, y, z'
loop_
 _atom_site_type_symbol
 _atom_site_label
 _atom_site_symmetry_multiplicity
 _atom_site_fract_x
 _atom_site_fract_y
 _atom_site_fract_z
 _atom_site_occupancy
 _atom_site_charge
  Co  Co1  1  0.500000  0.500000  0.000000  1.0  0.6467
  Co  Co2  1  0.000000  0.000000  0.500000  1.0  0.6467
  Co  Co3  1  0.250000  0.812070  0.812070  1.0  0.8057
  Co  Co4  1  0.750000  0.187930  0.187930  1.0  0.8121
  H  H5  1  0.181200  0.794400  0.609400  1.0  0.0559
  H  H6  1  0.236500  0.753200  0.478000  1.0  0.1354
  H  H7  1  0.703900  0.371500  0.984500  1.0  0.0861
  H  H8  1  0.501200  0.705300  0.295900  1.0  0.09
  H  H9  1  0.655500  0.630700  0.042900  1.0  0.0795
  H  H10  1  0.478700  0.427100  0.166300  1.0  0.0662
  H  H11  1  0.527200  0.659400  0.151200  1.0  0.0835
  H  H12  1  0.517300  0.593700  0.457300  1.0  0.1287
  H  H13  1  0.402500  0.586300  0.423100  1.0  0.114
  H  H14  1  0.870900  0.364200  0.004600  1.0  0.1165
  H  H15  1  0.519800  0.719900  0.614100  1.0  0.134
  H  H16  1  0.452900  0.463500  0.310500  1.0  0.1404
  H  H17  1  0.454600  0.759800  0.744400  1.0  0.089
  H  H18  1  0.483300  0.742600  0.450800  1.0  0.0911
  H  H19  1  0.372100  0.739700  0.398100  1.0  0.0898
  H  H20  1  0.826400  0.631200  0.066400  1.0  0.1275
  H  H21  1  0.000200  0.549900  0.086700  1.0  0.1008
  H  H22  1  0.024000  0.444600  0.070600  1.0  0.1099
  H  H23  1  0.318800  0.609400  0.794400  1.0  0.0582
  H  H24  1  0.263500  0.478000  0.753200  1.0  0.137
  H  H25  1  0.796100  0.984500  0.371500  1.0  0.0864
  H  H26  1  0.998800  0.295900  0.705300  1.0  0.0898
  H  H27  1  0.844500  0.042900  0.630700  1.0  0.079
  H  H28  1  0.021300  0.166300  0.427100  1.0  0.0669
  H  H29  1  0.972800  0.151200  0.659400  1.0  0.0848
  H  H30  1  0.982700  0.457300  0.593700  1.0  0.1289
  H  H31  1  0.097500  0.423100  0.586300  1.0  0.1136
  H  H32  1  0.629100  0.004600  0.364200  1.0  0.1168
  H  H33  1  0.980200  0.614100  0.719900  1.0  0.1353
  H  H34  1  0.047100  0.310500  0.463500  1.0  0.1415
  H  H35  1  0.045400  0.744400  0.759800  1.0  0.0883
  H  H36  1  0.016700  0.450800  0.742600  1.0  0.0899
  H  H37  1  0.127900  0.398100  0.739700  1.0  0.0889
  H  H38  1  0.673600  0.066400  0.631200  1.0  0.1266
  H  H39  1  0.499800  0.086700  0.549900  1.0  0.1031
  H  H40  1  0.476000  0.070600  0.444600  1.0  0.1081
  H  H41  1  0.818800  0.205600  0.390600  1.0  0.0558
  H  H42  1  0.763500  0.246800  0.522000  1.0  0.1355
  H  H43  1  0.296100  0.628500  0.015500  1.0  0.0859
  H  H44  1  0.498800  0.294700  0.704100  1.0  0.0895
  H  H45  1  0.344500  0.369300  0.957100  1.0  0.0788
  H  H46  1  0.521300  0.572900  0.833700  1.0  0.0665
  H  H47  1  0.472800  0.340600  0.848800  1.0  0.0837
  H  H48  1  0.482700  0.406300  0.542700  1.0  0.1305
  H  H49  1  0.597500  0.413700  0.576900  1.0  0.1148
  H  H50  1  0.129100  0.635800  0.995400  1.0  0.1161
  H  H51  1  0.480200  0.280100  0.385900  1.0  0.1359
  H  H52  1  0.547100  0.536500  0.689500  1.0  0.1406
  H  H53  1  0.545400  0.240200  0.255600  1.0  0.0885
  H  H54  1  0.516700  0.257400  0.549200  1.0  0.0883
  H  H55  1  0.627900  0.260300  0.601900  1.0  0.0899
  H  H56  1  0.173600  0.368800  0.933600  1.0  0.1267
  H  H57  1  0.999800  0.450100  0.913300  1.0  0.1016
  H  H58  1  0.976000  0.555400  0.929400  1.0  0.1102
  H  H59  1  0.681200  0.390600  0.205600  1.0  0.057
  H  H60  1  0.736500  0.522000  0.246800  1.0  0.136
  H  H61  1  0.203900  0.015500  0.628500  1.0  0.0866
  H  H62  1  0.001200  0.704100  0.294700  1.0  0.0914
  H  H63  1  0.155500  0.957100  0.369300  1.0  0.079
  H  H64  1  0.978700  0.833700  0.572900  1.0  0.066
  H  H65  1  0.027200  0.848800  0.340600  1.0  0.085
  H  H66  1  0.017300  0.542700  0.406300  1.0  0.1264
  H  H67  1  0.902500  0.576900  0.413700  1.0  0.1132
  H  H68  1  0.370900  0.995400  0.635800  1.0  0.116
  H  H69  1  0.019800  0.385900  0.280100  1.0  0.1348
  H  H70  1  0.952900  0.689500  0.536500  1.0  0.1416
  H  H71  1  0.954600  0.255600  0.240200  1.0  0.0879
  H  H72  1  0.983300  0.549200  0.257400  1.0  0.0925
  H  H73  1  0.872100  0.601900  0.260300  1.0  0.0893
  H  H74  1  0.326400  0.933600  0.368800  1.0  0.1269
  H  H75  1  0.500200  0.913300  0.450100  1.0  0.1033
  H  H76  1  0.524000  0.929400  0.555400  1.0  0.109
  C  C77  1  0.251200  0.777500  0.611300  1.0  0.1981
  C  C78  1  0.283300  0.754800  0.531800  1.0  -0.2556
  C  C79  1  0.475000  0.591600  0.321600  1.0  0.1384
  C  C80  1  0.729200  0.424500  0.002500  1.0  0.1656
  C  C81  1  0.386500  0.734000  0.531800  1.0  0.1213
  C  C82  1  0.495800  0.646800  0.271000  1.0  -0.2206
  C  C83  1  0.700300  0.576000  0.036800  1.0  0.175
  C  C84  1  0.481500  0.485800  0.192400  1.0  0.1758
  C  C85  1  0.509600  0.619600  0.182400  1.0  0.0984
  C  C86  1  0.455600  0.616700  0.416500  1.0  -0.2636
  C  C87  1  0.828900  0.420200  0.012600  1.0  -0.1919
  C  C88  1  0.872700  0.496300  0.034300  1.0  0.1411
  C  C89  1  0.449500  0.734800  0.611200  1.0  -0.1943
  C  C90  1  0.467200  0.506000  0.280200  1.0  -0.232
  C  C91  1  0.409500  0.757900  0.689500  1.0  0.1752
  C  C92  1  0.425100  0.713800  0.444800  1.0  -0.1485
  C  C93  1  0.803000  0.577200  0.048800  1.0  -0.2395
  C  C94  1  0.984300  0.498000  0.045000  1.0  -0.2595
  C  C95  1  0.248800  0.611300  0.777500  1.0  0.1966
  C  C96  1  0.216700  0.531800  0.754800  1.0  -0.2504
  C  C97  1  0.025000  0.321600  0.591600  1.0  0.1389
  C  C98  1  0.770800  0.002500  0.424500  1.0  0.1665
  C  C99  1  0.113500  0.531800  0.734000  1.0  0.1211
  C  C100  1  0.004200  0.271000  0.646800  1.0  -0.2102
  C  C101  1  0.799700  0.036800  0.576000  1.0  0.1773
  C  C102  1  0.018500  0.192400  0.485800  1.0  0.1761
  C  C103  1  0.990400  0.182400  0.619600  1.0  0.0972
  C  C104  1  0.044400  0.416500  0.616700  1.0  -0.2647
  C  C105  1  0.671100  0.012600  0.420200  1.0  -0.1896
  C  C106  1  0.627300  0.034300  0.496300  1.0  0.1408
  C  C107  1  0.050500  0.611200  0.734800  1.0  -0.1989
  C  C108  1  0.032800  0.280200  0.506000  1.0  -0.2321
  C  C109  1  0.090500  0.689500  0.757900  1.0  0.1713
  C  C110  1  0.074900  0.444800  0.713800  1.0  -0.1502
  C  C111  1  0.697000  0.048800  0.577200  1.0  -0.2371
  C  C112  1  0.515700  0.045000  0.498000  1.0  -0.2597
  C  C113  1  0.748800  0.222500  0.388700  1.0  0.1986
  C  C114  1  0.716700  0.245200  0.468200  1.0  -0.255
  C  C115  1  0.525000  0.408400  0.678400  1.0  0.1389
  C  C116  1  0.270800  0.575500  0.997500  1.0  0.1665
  C  C117  1  0.613500  0.266000  0.468200  1.0  0.1214
  C  C118  1  0.504200  0.353200  0.729000  1.0  -0.221
  C  C119  1  0.299700  0.424000  0.963200  1.0  0.1762
  C  C120  1  0.518500  0.514200  0.807600  1.0  0.1762
  C  C121  1  0.490400  0.380400  0.817600  1.0  0.0991
  C  C122  1  0.544400  0.383300  0.583500  1.0  -0.2631
  C  C123  1  0.171100  0.579800  0.987400  1.0  -0.1912
  C  C124  1  0.127300  0.503700  0.965700  1.0  0.1404
  C  C125  1  0.550500  0.265200  0.388800  1.0  -0.1958
  C  C126  1  0.532800  0.494000  0.719800  1.0  -0.233
  C  C127  1  0.590500  0.242100  0.310500  1.0  0.1737
  C  C128  1  0.574900  0.286200  0.555200  1.0  -0.1487
  C  C129  1  0.197000  0.422800  0.951200  1.0  -0.2414
  C  C130  1  0.015700  0.502000  0.955000  1.0  -0.2587
  C  C131  1  0.751200  0.388700  0.222500  1.0  0.1955
  C  C132  1  0.783300  0.468200  0.245200  1.0  -0.2511
  C  C133  1  0.975000  0.678400  0.408400  1.0  0.1382
  C  C134  1  0.229200  0.997500  0.575500  1.0  0.1657
  C  C135  1  0.886500  0.468200  0.266000  1.0  0.1229
  C  C136  1  0.995800  0.729000  0.353200  1.0  -0.2101
  C  C137  1  0.200300  0.963200  0.424000  1.0  0.1786
  C  C138  1  0.981500  0.807600  0.514200  1.0  0.1755
  C  C139  1  0.009600  0.817600  0.380400  1.0  0.0976
  C  C140  1  0.955600  0.583500  0.383300  1.0  -0.2637
  C  C141  1  0.328900  0.987400  0.579800  1.0  -0.1856
  C  C142  1  0.372700  0.965700  0.503700  1.0  0.1413
  C  C143  1  0.949500  0.388800  0.265200  1.0  -0.1992
  C  C144  1  0.967200  0.719800  0.494000  1.0  -0.2312
  C  C145  1  0.909500  0.310500  0.242100  1.0  0.1711
  C  C146  1  0.925100  0.555200  0.286200  1.0  -0.1499
  C  C147  1  0.303000  0.951200  0.422800  1.0  -0.2346
  C  C148  1  0.484300  0.955000  0.502000  1.0  -0.2604
  S  S149  1  0.438600  0.730210  0.973510  1.0  1.6403
  S  S150  1  0.061400  0.973510  0.730210  1.0  1.6393
  S  S151  1  0.561400  0.269790  0.026490  1.0  1.6406
  S  S152  1  0.938600  0.026490  0.269790  1.0  1.6364
  N  N153  1  0.498400  0.538800  0.142000  1.0  -0.2974
  N  N154  1  0.661900  0.502000  0.017200  1.0  -0.3138
  N  N155  1  0.309800  0.777800  0.689800  1.0  -0.3437
  N  N156  1  0.001600  0.142000  0.538800  1.0  -0.2981
  N  N157  1  0.838100  0.017200  0.502000  1.0  -0.3153
  N  N158  1  0.190200  0.689800  0.777800  1.0  -0.3356
  N  N159  1  0.501600  0.461200  0.858000  1.0  -0.2985
  N  N160  1  0.338100  0.498000  0.982800  1.0  -0.3148
  N  N161  1  0.690200  0.222200  0.310200  1.0  -0.343
  N  N162  1  0.998400  0.858000  0.461200  1.0  -0.2981
  N  N163  1  0.161900  0.982800  0.498000  1.0  -0.3163
  N  N164  1  0.809800  0.310200  0.222200  1.0  -0.3377
  O  O165  1  0.387400  0.747790  0.882610  1.0  -0.7318
  O  O166  1  0.466500  0.633360  0.976840  1.0  -0.6545
  O  O167  1  0.364200  0.767200  0.034600  1.0  -0.6347
  O  O168  1  0.529100  0.769400  0.001400  1.0  -0.6316
  O  O169  1  0.112600  0.882610  0.747790  1.0  -0.7241
  O  O170  1  0.033500  0.976840  0.633360  1.0  -0.6565
  O  O171  1  0.135800  0.034600  0.767200  1.0  -0.63
  O  O172  1  0.970900  0.001400  0.769400  1.0  -0.6246
  O  O173  1  0.612600  0.252210  0.117390  1.0  -0.7314
  O  O174  1  0.533500  0.366640  0.023160  1.0  -0.6544
  O  O175  1  0.635800  0.232800  0.965400  1.0  -0.6356
  O  O176  1  0.470900  0.230600  0.998600  1.0  -0.6325
  O  O177  1  0.887400  0.117390  0.252210  1.0  -0.7199
  O  O178  1  0.966500  0.023160  0.366640  1.0  -0.658
  O  O179  1  0.864200  0.965400  0.232800  1.0  -0.6301
  O  O180  1  0.029100  0.998600  0.230600  1.0  -0.6283
