# generated using pymatgen
data_CdH13C18N3O4
_symmetry_space_group_name_H-M   'P 1'
_cell_length_a   12.14800000
_cell_length_b   13.12300000
_cell_length_c   13.98000000
_cell_angle_alpha   75.63300000
_cell_angle_beta   64.45000000
_cell_angle_gamma   67.61600000
_symmetry_Int_Tables_number   1
_chemical_formula_structural   CdH13C18N3O4
_chemical_formula_sum   'Cd4 H52 C72 N12 O16'
_cell_volume   1849.79639587
_cell_formula_units_Z   4
loop_
 _symmetry_equiv_pos_site_id
 _symmetry_equiv_pos_as_xyz
  1  'x, y, z'
loop_
 _atom_site_type_symbol
 _atom_site_label
 _atom_site_symmetry_multiplicity
 _atom_site_fract_x
 _atom_site_fract_y
 _atom_site_fract_z
 _atom_site_occupancy
 _atom_site_charge
  Cd  Cd1  1  0.150620  0.553850  0.449130  1.0  1.0709
  Cd  Cd2  1  0.249780  0.491860  0.722870  1.0  1.0088
  Cd  Cd3  1  0.849380  0.446150  0.550870  1.0  1.0721
  Cd  Cd4  1  0.750220  0.508140  0.277130  1.0  1.0087
  H  H5  1  0.449200  0.807700  0.315900  1.0  0.1386
  H  H6  1  0.382200  0.658600  0.446400  1.0  0.1058
  H  H7  1  0.096400  0.915100  0.189300  1.0  0.1179
  H  H8  1  0.918200  0.921100  0.168400  1.0  0.0936
  H  H9  1  0.832300  0.779500  0.240400  1.0  0.1292
  H  H10  1  0.926800  0.634000  0.344000  1.0  0.0772
  H  H11  1  0.412800  0.891500  0.138000  1.0  0.0826
  H  H12  1  0.291200  0.887000  0.127900  1.0  0.0827
  H  H13  1  0.282800  0.040800  0.243700  1.0  0.0884
  H  H14  1  0.161600  0.036800  0.232000  1.0  0.0775
  H  H15  1  0.373800  0.076600  0.053400  1.0  0.0686
  H  H16  1  0.241700  0.088000  0.051100  1.0  0.0678
  H  H17  1  0.263200  0.229900  0.161400  1.0  0.1004
  H  H18  1  0.139700  0.245600  0.141800  1.0  0.0944
  H  H19  1  0.453000  0.279000  0.013400  1.0  0.1519
  H  H20  1  0.481800  0.386800  0.840200  1.0  0.1094
  H  H21  1  0.028800  0.261500  0.071100  1.0  0.1105
  H  H22  1  0.828300  0.311700  0.066700  1.0  0.1107
  H  H23  1  0.774300  0.446600  0.936300  1.0  0.1353
  H  H24  1  0.933800  0.519200  0.807400  1.0  0.0808
  H  H25  1  0.763600  0.857500  0.521000  1.0  0.097
  H  H26  1  0.829000  0.010400  0.466800  1.0  0.0974
  H  H27  1  0.099900  0.855300  0.591100  1.0  0.1061
  H  H28  1  0.377000  0.148100  0.588600  1.0  0.0828
  H  H29  1  0.678100  0.992400  0.352800  1.0  0.1009
  H  H30  1  0.720200  0.154800  0.274800  1.0  0.1091
  H  H31  1  0.550800  0.192300  0.684100  1.0  0.1385
  H  H32  1  0.617800  0.341400  0.553600  1.0  0.1044
  H  H33  1  0.903600  0.084900  0.810700  1.0  0.1171
  H  H34  1  0.081800  0.078900  0.831600  1.0  0.0953
  H  H35  1  0.167700  0.220500  0.759600  1.0  0.1291
  H  H36  1  0.073200  0.366000  0.656000  1.0  0.0783
  H  H37  1  0.587200  0.108500  0.862000  1.0  0.0854
  H  H38  1  0.708800  0.113000  0.872100  1.0  0.0822
  H  H39  1  0.717200  0.959200  0.756300  1.0  0.0892
  H  H40  1  0.838400  0.963200  0.768000  1.0  0.0795
  H  H41  1  0.626200  0.923400  0.946600  1.0  0.0701
  H  H42  1  0.758300  0.912000  0.948900  1.0  0.0673
  H  H43  1  0.736800  0.770100  0.838600  1.0  0.1014
  H  H44  1  0.860300  0.754400  0.858200  1.0  0.0956
  H  H45  1  0.547000  0.721000  0.986600  1.0  0.1542
  H  H46  1  0.518200  0.613200  0.159800  1.0  0.1096
  H  H47  1  0.971200  0.738500  0.928900  1.0  0.1117
  H  H48  1  0.171700  0.688300  0.933300  1.0  0.1112
  H  H49  1  0.225700  0.553400  0.063700  1.0  0.1349
  H  H50  1  0.066200  0.480800  0.192600  1.0  0.0812
  H  H51  1  0.236400  0.142500  0.479000  1.0  0.0963
  H  H52  1  0.171000  0.989600  0.533200  1.0  0.0971
  H  H53  1  0.900100  0.144700  0.408900  1.0  0.1065
  H  H54  1  0.623000  0.851900  0.411400  1.0  0.0826
  H  H55  1  0.321900  0.007600  0.647200  1.0  0.1003
  H  H56  1  0.279800  0.845200  0.725200  1.0  0.1098
  C  C57  1  0.382400  0.782900  0.326000  1.0  -0.1254
  C  C58  1  0.346200  0.700100  0.396700  1.0  0.061
  C  C59  1  0.216800  0.762500  0.311700  1.0  0.173
  C  C60  1  0.108500  0.770700  0.283400  1.0  0.2112
  C  C61  1  0.059200  0.858800  0.221300  1.0  -0.2131
  C  C62  1  0.955200  0.860800  0.208300  1.0  -0.0676
  C  C63  1  0.903100  0.778900  0.250900  1.0  -0.1877
  C  C64  1  0.961300  0.691900  0.312400  1.0  0.1834
  C  C65  1  0.321300  0.902800  0.174900  1.0  -0.0214
  C  C66  1  0.253500  0.023800  0.196800  1.0  -0.1373
  C  C67  1  0.281800  0.098200  0.093400  1.0  -0.1116
  C  C68  1  0.232900  0.221100  0.111100  1.0  -0.0172
  C  C69  1  0.395600  0.304700  0.978800  1.0  -0.162
  C  C70  1  0.409600  0.365200  0.884000  1.0  0.0671
  C  C71  1  0.221900  0.344200  0.940600  1.0  0.201
  C  C72  1  0.098500  0.362800  0.941600  1.0  0.213
  C  C73  1  0.007900  0.314300  0.018300  1.0  -0.1831
  C  C74  1  0.888400  0.344500  0.015700  1.0  -0.0306
  C  C75  1  0.856100  0.423600  0.937900  1.0  -0.1479
  C  C76  1  0.952000  0.467200  0.861700  1.0  0.1479
  C  C77  1  0.069600  0.667200  0.658700  1.0  0.652
  C  C78  1  0.995500  0.764900  0.604800  1.0  -0.1166
  C  C79  1  0.896900  0.762700  0.582400  1.0  -0.0967
  C  C80  1  0.833700  0.856800  0.532800  1.0  -0.079
  C  C81  1  0.872500  0.948500  0.500900  1.0  -0.1072
  C  C82  1  0.976700  0.951600  0.518200  1.0  0.0135
  C  C83  1  0.033500  0.855700  0.574400  1.0  -0.0817
  C  C84  1  0.850300  0.660500  0.616600  1.0  0.7037
  C  C85  1  0.370700  0.352500  0.529900  1.0  0.6978
  C  C86  1  0.463900  0.249200  0.478700  1.0  -0.1009
  C  C87  1  0.443800  0.150200  0.522900  1.0  -0.0963
  C  C88  1  0.515300  0.053700  0.476800  1.0  0.0403
  C  C89  1  0.622900  0.057500  0.383700  1.0  -0.1312
  C  C90  1  0.648600  0.154600  0.337200  1.0  -0.0808
  C  C91  1  0.568400  0.253800  0.382400  1.0  -0.0601
  C  C92  1  0.604400  0.360800  0.330900  1.0  0.6518
  C  C93  1  0.617600  0.217100  0.674000  1.0  -0.1258
  C  C94  1  0.653800  0.299900  0.603300  1.0  0.0601
  C  C95  1  0.783200  0.237500  0.688300  1.0  0.1735
  C  C96  1  0.891500  0.229300  0.716600  1.0  0.2101
  C  C97  1  0.940800  0.141200  0.778700  1.0  -0.2113
  C  C98  1  0.044800  0.139200  0.791700  1.0  -0.0652
  C  C99  1  0.096900  0.221100  0.749100  1.0  -0.1861
  C  C100  1  0.038700  0.308100  0.687600  1.0  0.1831
  C  C101  1  0.678700  0.097200  0.825100  1.0  -0.0196
  C  C102  1  0.746500  0.976200  0.803200  1.0  -0.1371
  C  C103  1  0.718200  0.901800  0.906600  1.0  -0.1146
  C  C104  1  0.767100  0.778900  0.888900  1.0  -0.0181
  C  C105  1  0.604400  0.695300  0.021200  1.0  -0.1628
  C  C106  1  0.590400  0.634800  0.116000  1.0  0.0665
  C  C107  1  0.778100  0.655800  0.059400  1.0  0.2015
  C  C108  1  0.901500  0.637200  0.058400  1.0  0.2118
  C  C109  1  0.992100  0.685700  0.981700  1.0  -0.1824
  C  C110  1  0.111600  0.655500  0.984300  1.0  -0.0146
  C  C111  1  0.143900  0.576400  0.062100  1.0  -0.1476
  C  C112  1  0.048000  0.532800  0.138300  1.0  0.1475
  C  C113  1  0.930400  0.332800  0.341300  1.0  0.6514
  C  C114  1  0.004500  0.235100  0.395200  1.0  -0.1155
  C  C115  1  0.103100  0.237300  0.417600  1.0  -0.0953
  C  C116  1  0.166300  0.143200  0.467200  1.0  -0.0802
  C  C117  1  0.127500  0.051500  0.499100  1.0  -0.1094
  C  C118  1  0.023300  0.048400  0.481800  1.0  0.0124
  C  C119  1  0.966500  0.144300  0.425600  1.0  -0.0842
  C  C120  1  0.149700  0.339500  0.383400  1.0  0.7
  C  C121  1  0.629300  0.647500  0.470100  1.0  0.6975
  C  C122  1  0.536100  0.750800  0.521300  1.0  -0.101
  C  C123  1  0.556200  0.849800  0.477100  1.0  -0.0979
  C  C124  1  0.484700  0.946300  0.523200  1.0  0.0398
  C  C125  1  0.377100  0.942500  0.616300  1.0  -0.1248
  C  C126  1  0.351400  0.845400  0.662800  1.0  -0.0802
  C  C127  1  0.431600  0.746200  0.617600  1.0  -0.0601
  C  C128  1  0.395600  0.639200  0.669100  1.0  0.6518
  N  N129  1  0.063700  0.688300  0.327600  1.0  -0.359
  N  N130  1  0.247500  0.687200  0.383200  1.0  -0.3561
  N  N131  1  0.300800  0.823400  0.271700  1.0  -0.0094
  N  N132  1  0.070600  0.436400  0.864400  1.0  -0.3823
  N  N133  1  0.303100  0.390800  0.860700  1.0  -0.3969
  N  N134  1  0.275000  0.288600  0.014600  1.0  0.0235
  N  N135  1  0.936300  0.311700  0.672400  1.0  -0.3598
  N  N136  1  0.752500  0.312800  0.616800  1.0  -0.3436
  N  N137  1  0.699200  0.176600  0.728300  1.0  -0.0094
  N  N138  1  0.929400  0.563600  0.135600  1.0  -0.3865
  N  N139  1  0.696900  0.609200  0.139300  1.0  -0.3965
  N  N140  1  0.725000  0.711400  0.985400  1.0  0.0243
  O  O141  1  0.095100  0.677500  0.731200  1.0  -0.5717
  O  O142  1  0.105500  0.571900  0.623900  1.0  -0.6494
  O  O143  1  0.906400  0.590800  0.550300  1.0  -0.6543
  O  O144  1  0.767000  0.651800  0.703600  1.0  -0.5693
  O  O145  1  0.333400  0.345700  0.628700  1.0  -0.6063
  O  O146  1  0.332400  0.435800  0.467400  1.0  -0.6545
  O  O147  1  0.621400  0.411000  0.381700  1.0  -0.5816
  O  O148  1  0.621900  0.383500  0.234100  1.0  -0.6066
  O  O149  1  0.904900  0.322500  0.268800  1.0  -0.5717
  O  O150  1  0.894500  0.428100  0.376100  1.0  -0.6516
  O  O151  1  0.093600  0.409200  0.449700  1.0  -0.6537
  O  O152  1  0.233000  0.348200  0.296400  1.0  -0.5687
  O  O153  1  0.666667  0.654300  0.371300  1.0  -0.6083
  O  O154  1  0.667600  0.564200  0.532600  1.0  -0.6539
  O  O155  1  0.378600  0.589000  0.618300  1.0  -0.5807
  O  O156  1  0.378100  0.616500  0.765900  1.0  -0.6059
