# generated using pymatgen
data_U8Co3P4H8(C2O7)4
_symmetry_space_group_name_H-M   'P 1'
_cell_length_a   22.85100000
_cell_length_b   22.85100000
_cell_length_c   22.85100000
_cell_angle_alpha   109.47100000
_cell_angle_beta   109.47100000
_cell_angle_gamma   109.47100000
_symmetry_Int_Tables_number   1
_chemical_formula_structural   U8Co3P4H8(C2O7)4
_chemical_formula_sum   'U48 Co18 P24 H48 C48 O168'
_cell_volume   9185.38338352
_cell_formula_units_Z   6
loop_
 _symmetry_equiv_pos_site_id
 _symmetry_equiv_pos_as_xyz
  1  'x, y, z'
loop_
 _atom_site_type_symbol
 _atom_site_label
 _atom_site_symmetry_multiplicity
 _atom_site_fract_x
 _atom_site_fract_y
 _atom_site_fract_z
 _atom_site_occupancy
 _atom_site_charge
  U  U1  1  0.275680  0.085750  0.666950  1.0  1.9787
  U  U2  1  0.418800  0.608730  0.333050  1.0  1.9788
  U  U3  1  0.581200  0.914250  0.189930  1.0  1.9764
  U  U4  1  0.724320  0.391270  0.810070  1.0  1.9829
  U  U5  1  0.189930  0.581200  0.914250  1.0  1.9776
  U  U6  1  0.810070  0.724320  0.391270  1.0  1.9806
  U  U7  1  0.666950  0.275680  0.085750  1.0  1.9777
  U  U8  1  0.333050  0.418800  0.608730  1.0  1.9767
  U  U9  1  0.608730  0.333050  0.418800  1.0  1.9811
  U  U10  1  0.085750  0.666950  0.275680  1.0  1.9763
  U  U11  1  0.391270  0.810070  0.724320  1.0  1.978
  U  U12  1  0.914250  0.189930  0.581200  1.0  1.9772
  U  U13  1  0.724320  0.914250  0.333050  1.0  1.982
  U  U14  1  0.581200  0.391270  0.666950  1.0  1.9801
  U  U15  1  0.418800  0.085750  0.810070  1.0  1.9776
  U  U16  1  0.275680  0.608730  0.189930  1.0  1.9788
  U  U17  1  0.810070  0.418800  0.085750  1.0  1.9802
  U  U18  1  0.189930  0.275680  0.608730  1.0  1.9771
  U  U19  1  0.333050  0.724320  0.914250  1.0  1.9799
  U  U20  1  0.666950  0.581200  0.391270  1.0  1.975
  U  U21  1  0.391270  0.666950  0.581200  1.0  1.9799
  U  U22  1  0.914250  0.333050  0.724320  1.0  1.975
  U  U23  1  0.608730  0.189930  0.275680  1.0  1.9765
  U  U24  1  0.085750  0.810070  0.418800  1.0  1.981
  U  U25  1  0.364700  0.069580  0.434280  1.0  1.7092
  U  U26  1  0.635300  0.930420  0.565720  1.0  1.6993
  U  U27  1  0.364700  0.930430  0.295120  1.0  1.7085
  U  U28  1  0.635300  0.069570  0.704880  1.0  1.7177
  U  U29  1  0.295120  0.364700  0.930420  1.0  1.7101
  U  U30  1  0.704880  0.635300  0.069580  1.0  1.713
  U  U31  1  0.434270  0.364690  0.069570  1.0  1.7116
  U  U32  1  0.565730  0.635310  0.930430  1.0  1.7095
  U  U33  1  0.930420  0.565720  0.635300  1.0  1.7084
  U  U34  1  0.069580  0.434280  0.364700  1.0  1.7071
  U  U35  1  0.069580  0.704880  0.635310  1.0  1.7075
  U  U36  1  0.930420  0.295120  0.364690  1.0  1.7111
  U  U37  1  0.218810  0.868370  0.350440  1.0  1.9163
  U  U38  1  0.517930  0.868370  0.649560  1.0  1.9219
  U  U39  1  0.482070  0.131630  0.350440  1.0  1.9148
  U  U40  1  0.781190  0.131630  0.649560  1.0  1.9213
  U  U41  1  0.350440  0.482070  0.131630  1.0  1.9151
  U  U42  1  0.649560  0.781190  0.131630  1.0  1.9114
  U  U43  1  0.350440  0.218810  0.868370  1.0  1.9185
  U  U44  1  0.649560  0.517930  0.868370  1.0  1.9032
  U  U45  1  0.868370  0.649560  0.517930  1.0  1.9146
  U  U46  1  0.868370  0.350440  0.218810  1.0  1.9135
  U  U47  1  0.131630  0.649560  0.781190  1.0  1.9154
  U  U48  1  0.131630  0.350440  0.482070  1.0  1.9146
  Co  Co49  1  0.359680  0.859680  0.500000  1.0  0.7046
  Co  Co50  1  0.640320  0.140320  0.500000  1.0  0.705
  Co  Co51  1  0.500000  0.640320  0.140320  1.0  0.7047
  Co  Co52  1  0.500000  0.359680  0.859680  1.0  0.7049
  Co  Co53  1  0.859680  0.500000  0.359680  1.0  0.7059
  Co  Co54  1  0.140320  0.500000  0.640320  1.0  0.7051
  Co  Co55  1  0.000000  0.000000  0.374420  1.0  0.6745
  Co  Co56  1  0.625580  0.625580  0.625580  1.0  0.6862
  Co  Co57  1  0.374420  0.000000  0.000000  1.0  0.6778
  Co  Co58  1  0.000000  0.374420  0.000000  1.0  0.6728
  Co  Co59  1  0.000000  0.000000  0.625580  1.0  0.6663
  Co  Co60  1  0.374420  0.374420  0.374420  1.0  0.6888
  Co  Co61  1  0.625580  0.000000  0.000000  1.0  0.6713
  Co  Co62  1  0.000000  0.625580  0.000000  1.0  0.6693
  Co  Co63  1  0.000000  0.000000  0.500000  1.0  0.5345
  Co  Co64  1  0.500000  0.500000  0.500000  1.0  0.5345
  Co  Co65  1  0.500000  0.000000  0.000000  1.0  0.5345
  Co  Co66  1  0.000000  0.500000  0.000000  1.0  0.5345
  P  P67  1  0.224190  0.992060  0.481010  1.0  1.5928
  P  P68  1  0.511050  0.743180  0.518990  1.0  1.5955
  P  P69  1  0.488950  0.007940  0.232130  1.0  1.5998
  P  P70  1  0.775810  0.256820  0.767870  1.0  1.6006
  P  P71  1  0.232130  0.488950  0.007940  1.0  1.5926
  P  P72  1  0.767870  0.775810  0.256820  1.0  1.5964
  P  P73  1  0.481010  0.224190  0.992060  1.0  1.6013
  P  P74  1  0.518990  0.511050  0.743180  1.0  1.6002
  P  P75  1  0.743180  0.518990  0.511050  1.0  1.5988
  P  P76  1  0.992060  0.481010  0.224190  1.0  1.6009
  P  P77  1  0.256820  0.767870  0.775810  1.0  1.5993
  P  P78  1  0.007940  0.232130  0.488950  1.0  1.5987
  P  P79  1  0.775810  0.007940  0.518990  1.0  1.5933
  P  P80  1  0.488950  0.256820  0.481010  1.0  1.5949
  P  P81  1  0.511050  0.992060  0.767870  1.0  1.6001
  P  P82  1  0.224190  0.743180  0.232130  1.0  1.6001
  P  P83  1  0.767870  0.511050  0.992060  1.0  1.5931
  P  P84  1  0.232130  0.224190  0.743180  1.0  1.5952
  P  P85  1  0.518990  0.775810  0.007940  1.0  1.6006
  P  P86  1  0.481010  0.488950  0.256820  1.0  1.5998
  P  P87  1  0.256820  0.481010  0.488950  1.0  1.5984
  P  P88  1  0.007940  0.518990  0.775810  1.0  1.5975
  P  P89  1  0.743180  0.232130  0.224190  1.0  1.598
  P  P90  1  0.992060  0.767870  0.511050  1.0  1.5999
  H  H91  1  0.164200  0.040200  0.427400  1.0  0.0788
  H  H92  1  0.232900  0.101700  0.501000  1.0  0.0936
  H  H93  1  0.612800  0.736800  0.572600  1.0  0.0838
  H  H94  1  0.600700  0.731900  0.499000  1.0  0.0927
  H  H95  1  0.387200  0.959800  0.124000  1.0  0.074
  H  H96  1  0.399300  0.898300  0.131200  1.0  0.0935
  H  H97  1  0.835800  0.263200  0.876000  1.0  0.0756
  H  H98  1  0.767100  0.268100  0.868800  1.0  0.0935
  H  H99  1  0.124000  0.387200  0.959800  1.0  0.0793
  H  H100  1  0.131200  0.399300  0.898300  1.0  0.0939
  H  H101  1  0.876000  0.835800  0.263200  1.0  0.078
  H  H102  1  0.868800  0.767100  0.268100  1.0  0.095
  H  H103  1  0.427400  0.164200  0.040200  1.0  0.0773
  H  H104  1  0.501000  0.232900  0.101700  1.0  0.0934
  H  H105  1  0.572600  0.612800  0.736800  1.0  0.0831
  H  H106  1  0.499000  0.600700  0.731900  1.0  0.0927
  H  H107  1  0.736800  0.572600  0.612800  1.0  0.0824
  H  H108  1  0.731900  0.499000  0.600700  1.0  0.0938
  H  H109  1  0.040200  0.427400  0.164200  1.0  0.0771
  H  H110  1  0.101700  0.501000  0.232900  1.0  0.0947
  H  H111  1  0.263200  0.876000  0.835800  1.0  0.0778
  H  H112  1  0.268100  0.868800  0.767100  1.0  0.0926
  H  H113  1  0.959800  0.124000  0.387200  1.0  0.0786
  H  H114  1  0.898300  0.131200  0.399300  1.0  0.0886
  H  H115  1  0.835800  0.959800  0.572600  1.0  0.081
  H  H116  1  0.767100  0.898300  0.499000  1.0  0.0939
  H  H117  1  0.387200  0.263200  0.427400  1.0  0.0824
  H  H118  1  0.399300  0.268100  0.501000  1.0  0.093
  H  H119  1  0.612800  0.040200  0.876000  1.0  0.0752
  H  H120  1  0.600700  0.101700  0.868800  1.0  0.0919
  H  H121  1  0.164200  0.736800  0.124000  1.0  0.0771
  H  H122  1  0.232900  0.731900  0.131200  1.0  0.094
  H  H123  1  0.876000  0.612800  0.040200  1.0  0.0789
  H  H124  1  0.868800  0.600700  0.101700  1.0  0.0934
  H  H125  1  0.124000  0.164200  0.736800  1.0  0.079
  H  H126  1  0.131200  0.232900  0.731900  1.0  0.0934
  H  H127  1  0.572600  0.835800  0.959800  1.0  0.0795
  H  H128  1  0.499000  0.767100  0.898300  1.0  0.0938
  H  H129  1  0.427400  0.387200  0.263200  1.0  0.0817
  H  H130  1  0.501000  0.399300  0.268100  1.0  0.0931
  H  H131  1  0.263200  0.427400  0.387200  1.0  0.0814
  H  H132  1  0.268100  0.501000  0.399300  1.0  0.0925
  H  H133  1  0.959800  0.572600  0.835800  1.0  0.0778
  H  H134  1  0.898300  0.499000  0.767100  1.0  0.0921
  H  H135  1  0.736800  0.124000  0.164200  1.0  0.0769
  H  H136  1  0.731900  0.131200  0.232900  1.0  0.0935
  H  H137  1  0.040200  0.876000  0.612800  1.0  0.0795
  H  H138  1  0.101700  0.868800  0.600700  1.0  0.0913
  C  C139  1  0.192310  0.053950  0.477040  1.0  -0.6227
  C  C140  1  0.146750  0.054490  0.512440  1.0  0.7445
  C  C141  1  0.576910  0.715270  0.522960  1.0  -0.613
  C  C142  1  0.542050  0.634310  0.487560  1.0  0.738
  C  C143  1  0.423090  0.946050  0.138360  1.0  -0.6098
  C  C144  1  0.457950  0.945510  0.092260  1.0  0.7443
  C  C145  1  0.807690  0.284730  0.861640  1.0  -0.6279
  C  C146  1  0.853250  0.365690  0.907740  1.0  0.7393
  C  C147  1  0.138360  0.423090  0.946050  1.0  -0.6091
  C  C148  1  0.092260  0.457950  0.945510  1.0  0.737
  C  C149  1  0.861640  0.807690  0.284730  1.0  -0.6213
  C  C150  1  0.907740  0.853250  0.365690  1.0  0.7445
  C  C151  1  0.477040  0.192310  0.053950  1.0  -0.6241
  C  C152  1  0.512440  0.146750  0.054490  1.0  0.739
  C  C153  1  0.522960  0.576910  0.715270  1.0  -0.6113
  C  C154  1  0.487560  0.542050  0.634310  1.0  0.7433
  C  C155  1  0.715270  0.522960  0.576910  1.0  -0.6249
  C  C156  1  0.634310  0.487560  0.542050  1.0  0.7404
  C  C157  1  0.053950  0.477040  0.192310  1.0  -0.6107
  C  C158  1  0.054490  0.512440  0.146750  1.0  0.7448
  C  C159  1  0.284730  0.861640  0.807690  1.0  -0.6107
  C  C160  1  0.365690  0.907740  0.853250  1.0  0.7415
  C  C161  1  0.946050  0.138360  0.423090  1.0  -0.6206
  C  C162  1  0.945510  0.092260  0.457950  1.0  0.7459
  C  C163  1  0.807690  0.946050  0.522960  1.0  -0.6261
  C  C164  1  0.853250  0.945510  0.487560  1.0  0.7427
  C  C165  1  0.423090  0.284730  0.477040  1.0  -0.6118
  C  C166  1  0.457950  0.365690  0.512440  1.0  0.7396
  C  C167  1  0.576910  0.053950  0.861640  1.0  -0.6117
  C  C168  1  0.542050  0.054490  0.907740  1.0  0.7449
  C  C169  1  0.192310  0.715270  0.138360  1.0  -0.6242
  C  C170  1  0.146750  0.634310  0.092260  1.0  0.7389
  C  C171  1  0.861640  0.576910  0.053950  1.0  -0.609
  C  C172  1  0.907740  0.542050  0.054490  1.0  0.7376
  C  C173  1  0.138360  0.192310  0.715270  1.0  -0.626
  C  C174  1  0.092260  0.146750  0.634310  1.0  0.7423
  C  C175  1  0.522960  0.807690  0.946050  1.0  -0.6217
  C  C176  1  0.487560  0.853250  0.945510  1.0  0.7381
  C  C177  1  0.477040  0.423090  0.284730  1.0  -0.6127
  C  C178  1  0.512440  0.457950  0.365690  1.0  0.7441
  C  C179  1  0.284730  0.477040  0.423090  1.0  -0.6197
  C  C180  1  0.365690  0.512440  0.457950  1.0  0.7428
  C  C181  1  0.946050  0.522960  0.807690  1.0  -0.612
  C  C182  1  0.945510  0.487560  0.853250  1.0  0.7465
  C  C183  1  0.715270  0.138360  0.192310  1.0  -0.6132
  C  C184  1  0.634310  0.092260  0.146750  1.0  0.7399
  C  C185  1  0.053950  0.861640  0.576910  1.0  -0.6235
  C  C186  1  0.054490  0.907740  0.542050  1.0  0.7437
  O  O187  1  0.253620  0.005380  0.556280  1.0  -0.958
  O  O188  1  0.162440  0.915420  0.424920  1.0  -1.02
  O  O189  1  0.277880  0.000290  0.454430  1.0  -0.9631
  O  O190  1  0.175690  0.077080  0.578410  1.0  -0.745
  O  O191  1  0.081100  0.031780  0.474100  1.0  -0.7412
  O  O192  1  0.449100  0.697340  0.443720  1.0  -0.9533
  O  O193  1  0.490500  0.737520  0.575080  1.0  -1.0247
  O  O194  1  0.545860  0.823450  0.545570  1.0  -0.9656
  O  O195  1  0.498670  0.597280  0.421590  1.0  -0.745
  O  O196  1  0.557680  0.607000  0.525900  1.0  -0.7413
  O  O197  1  0.550900  0.994620  0.248240  1.0  -0.9535
  O  O198  1  0.509500  0.084580  0.247020  1.0  -1.0219
  O  O199  1  0.454140  0.999710  0.277590  1.0  -0.9643
  O  O200  1  0.501330  0.922920  0.098610  1.0  -0.7449
  O  O201  1  0.442320  0.968220  0.049320  1.0  -0.7399
  O  O202  1  0.746380  0.302660  0.751760  1.0  -0.9552
  O  O203  1  0.837560  0.262480  0.752980  1.0  -1.0186
  O  O204  1  0.722120  0.176550  0.722410  1.0  -0.963
  O  O205  1  0.824310  0.402720  0.901390  1.0  -0.7446
  O  O206  1  0.918900  0.393000  0.950680  1.0  -0.74
  O  O207  1  0.248240  0.550900  0.994620  1.0  -0.955
  O  O208  1  0.247020  0.509500  0.084580  1.0  -1.0253
  O  O209  1  0.277590  0.454140  0.999710  1.0  -0.9643
  O  O210  1  0.098610  0.501330  0.922920  1.0  -0.7489
  O  O211  1  0.049320  0.442320  0.968220  1.0  -0.741
  O  O212  1  0.751760  0.746380  0.302660  1.0  -0.9621
  O  O213  1  0.752980  0.837560  0.262480  1.0  -1.0208
  O  O214  1  0.722410  0.722120  0.176550  1.0  -0.9655
  O  O215  1  0.901390  0.824310  0.402720  1.0  -0.7432
  O  O216  1  0.950680  0.918900  0.393000  1.0  -0.742
  O  O217  1  0.556280  0.253620  0.005380  1.0  -0.9583
  O  O218  1  0.424920  0.162440  0.915420  1.0  -1.021
  O  O219  1  0.454430  0.277880  0.000290  1.0  -0.9645
  O  O220  1  0.578410  0.175690  0.077080  1.0  -0.7443
  O  O221  1  0.474100  0.081100  0.031780  1.0  -0.7393
  O  O222  1  0.443720  0.449100  0.697340  1.0  -0.9584
  O  O223  1  0.575080  0.490500  0.737520  1.0  -1.0191
  O  O224  1  0.545570  0.545860  0.823450  1.0  -0.964
  O  O225  1  0.421590  0.498670  0.597280  1.0  -0.7457
  O  O226  1  0.525900  0.557680  0.607000  1.0  -0.7405
  O  O227  1  0.697340  0.443720  0.449100  1.0  -0.9581
  O  O228  1  0.737520  0.575080  0.490500  1.0  -1.0228
  O  O229  1  0.823450  0.545570  0.545860  1.0  -0.963
  O  O230  1  0.597280  0.421590  0.498670  1.0  -0.7447
  O  O231  1  0.607000  0.525900  0.557680  1.0  -0.7413
  O  O232  1  0.005380  0.556280  0.253620  1.0  -0.9573
  O  O233  1  0.915420  0.424920  0.162440  1.0  -1.0191
  O  O234  1  0.000290  0.454430  0.277880  1.0  -0.9621
  O  O235  1  0.077080  0.578410  0.175690  1.0  -0.746
  O  O236  1  0.031780  0.474100  0.081100  1.0  -0.7401
  O  O237  1  0.302660  0.751760  0.746380  1.0  -0.9587
  O  O238  1  0.262480  0.752980  0.837560  1.0  -1.0255
  O  O239  1  0.176550  0.722410  0.722120  1.0  -0.9639
  O  O240  1  0.402720  0.901390  0.824310  1.0  -0.7431
  O  O241  1  0.393000  0.950680  0.918900  1.0  -0.7406
  O  O242  1  0.994620  0.248240  0.550900  1.0  -0.9596
  O  O243  1  0.084580  0.247020  0.509500  1.0  -1.0177
  O  O244  1  0.999710  0.277590  0.454140  1.0  -0.9646
  O  O245  1  0.922920  0.098610  0.501330  1.0  -0.7443
  O  O246  1  0.968220  0.049320  0.442320  1.0  -0.7425
  O  O247  1  0.746380  0.994620  0.443720  1.0  -0.9532
  O  O248  1  0.837560  0.084580  0.575080  1.0  -1.0216
  O  O249  1  0.722120  0.999710  0.545570  1.0  -0.9641
  O  O250  1  0.824310  0.922920  0.421590  1.0  -0.7461
  O  O251  1  0.918900  0.968220  0.525900  1.0  -0.7405
  O  O252  1  0.550900  0.302660  0.556280  1.0  -0.954
  O  O253  1  0.509500  0.262480  0.424920  1.0  -1.022
  O  O254  1  0.454140  0.176550  0.454430  1.0  -0.9644
  O  O255  1  0.501330  0.402720  0.578410  1.0  -0.7441
  O  O256  1  0.442320  0.393000  0.474100  1.0  -0.7409
  O  O257  1  0.449100  0.005380  0.751760  1.0  -0.9535
  O  O258  1  0.490500  0.915420  0.752980  1.0  -1.0191
  O  O259  1  0.545860  0.000290  0.722410  1.0  -0.9637
  O  O260  1  0.498670  0.077080  0.901390  1.0  -0.7452
  O  O261  1  0.557680  0.031780  0.950680  1.0  -0.7412
  O  O262  1  0.253620  0.697340  0.248240  1.0  -0.957
  O  O263  1  0.162440  0.737520  0.247020  1.0  -1.0196
  O  O264  1  0.277880  0.823450  0.277590  1.0  -0.9624
  O  O265  1  0.175690  0.597280  0.098610  1.0  -0.7433
  O  O266  1  0.081100  0.607000  0.049320  1.0  -0.7405
  O  O267  1  0.751760  0.449100  0.005380  1.0  -0.9573
  O  O268  1  0.752980  0.490500  0.915420  1.0  -1.0247
  O  O269  1  0.722410  0.545860  0.000290  1.0  -0.963
  O  O270  1  0.901390  0.498670  0.077080  1.0  -0.7494
  O  O271  1  0.950680  0.557680  0.031780  1.0  -0.7413
  O  O272  1  0.248240  0.253620  0.697340  1.0  -0.9556
  O  O273  1  0.247020  0.162440  0.737520  1.0  -1.0196
  O  O274  1  0.277590  0.277880  0.823450  1.0  -0.9667
  O  O275  1  0.098610  0.175690  0.597280  1.0  -0.7433
  O  O276  1  0.049320  0.081100  0.607000  1.0  -0.7417
  O  O277  1  0.443720  0.746380  0.994620  1.0  -0.9598
  O  O278  1  0.575080  0.837560  0.084580  1.0  -1.0233
  O  O279  1  0.545570  0.722120  0.999710  1.0  -0.9621
  O  O280  1  0.421590  0.824310  0.922920  1.0  -0.744
  O  O281  1  0.525900  0.918900  0.968220  1.0  -0.7417
  O  O282  1  0.556280  0.550900  0.302660  1.0  -0.9548
  O  O283  1  0.424920  0.509500  0.262480  1.0  -1.0188
  O  O284  1  0.454430  0.454140  0.176550  1.0  -0.9636
  O  O285  1  0.578410  0.501330  0.402720  1.0  -0.7448
  O  O286  1  0.474100  0.442320  0.393000  1.0  -0.7407
  O  O287  1  0.302660  0.556280  0.550900  1.0  -0.959
  O  O288  1  0.262480  0.424920  0.509500  1.0  -1.0224
  O  O289  1  0.176550  0.454430  0.454140  1.0  -0.9626
  O  O290  1  0.402720  0.578410  0.501330  1.0  -0.7476
  O  O291  1  0.393000  0.474100  0.442320  1.0  -0.7397
  O  O292  1  0.994620  0.443720  0.746380  1.0  -0.9572
  O  O293  1  0.084580  0.575080  0.837560  1.0  -1.0196
  O  O294  1  0.999710  0.545570  0.722120  1.0  -0.9643
  O  O295  1  0.922920  0.421590  0.824310  1.0  -0.7435
  O  O296  1  0.968220  0.525900  0.918900  1.0  -0.7428
  O  O297  1  0.697340  0.248240  0.253620  1.0  -0.9559
  O  O298  1  0.737520  0.247020  0.162440  1.0  -1.0234
  O  O299  1  0.823450  0.277590  0.277880  1.0  -0.9647
  O  O300  1  0.597280  0.098610  0.175690  1.0  -0.7437
  O  O301  1  0.607000  0.049320  0.081100  1.0  -0.742
  O  O302  1  0.005380  0.751760  0.449100  1.0  -0.9572
  O  O303  1  0.915420  0.752980  0.490500  1.0  -1.0178
  O  O304  1  0.000290  0.722410  0.545860  1.0  -0.9642
  O  O305  1  0.077080  0.901390  0.498670  1.0  -0.7434
  O  O306  1  0.031780  0.950680  0.557680  1.0  -0.7433
  O  O307  1  0.282390  0.862970  0.419420  1.0  -0.8778
  O  O308  1  0.401220  0.048820  0.352400  1.0  -0.8997
  O  O309  1  0.132820  0.785270  0.347550  1.0  -0.9403
  O  O310  1  0.443550  0.862970  0.580580  1.0  -0.8792
  O  O311  1  0.696420  0.048820  0.647600  1.0  -0.9032
  O  O312  1  0.437720  0.785270  0.652450  1.0  -0.94
  O  O313  1  0.556450  0.137030  0.419420  1.0  -0.8778
  O  O314  1  0.303580  0.951180  0.352400  1.0  -0.9045
  O  O315  1  0.562280  0.214730  0.347550  1.0  -0.9384
  O  O316  1  0.717610  0.137030  0.580580  1.0  -0.8784
  O  O317  1  0.598780  0.951180  0.647600  1.0  -0.9004
  O  O318  1  0.867180  0.214730  0.652450  1.0  -0.9393
  O  O319  1  0.419420  0.556450  0.137030  1.0  -0.8792
  O  O320  1  0.352400  0.303580  0.951180  1.0  -0.9031
  O  O321  1  0.347550  0.562280  0.214730  1.0  -0.9392
  O  O322  1  0.580580  0.717610  0.137030  1.0  -0.8778
  O  O323  1  0.647600  0.598780  0.951180  1.0  -0.9009
  O  O324  1  0.652450  0.867180  0.214730  1.0  -0.9394
  O  O325  1  0.419420  0.282390  0.862970  1.0  -0.8787
  O  O326  1  0.352400  0.401220  0.048820  1.0  -0.9013
  O  O327  1  0.347550  0.132820  0.785270  1.0  -0.9397
  O  O328  1  0.580580  0.443550  0.862970  1.0  -0.8781
  O  O329  1  0.647600  0.696420  0.048820  1.0  -0.9034
  O  O330  1  0.652450  0.437720  0.785270  1.0  -0.9399
  O  O331  1  0.862970  0.580580  0.443550  1.0  -0.878
  O  O332  1  0.048820  0.647600  0.696420  1.0  -0.9028
  O  O333  1  0.785270  0.652450  0.437720  1.0  -0.9383
  O  O334  1  0.862970  0.419420  0.282390  1.0  -0.8783
  O  O335  1  0.048820  0.352400  0.401220  1.0  -0.9025
  O  O336  1  0.785270  0.347550  0.132820  1.0  -0.9391
  O  O337  1  0.137030  0.580580  0.717610  1.0  -0.8779
  O  O338  1  0.951180  0.647600  0.598780  1.0  -0.8997
  O  O339  1  0.214730  0.652450  0.867180  1.0  -0.9382
  O  O340  1  0.137030  0.419420  0.556450  1.0  -0.879
  O  O341  1  0.951180  0.352400  0.303580  1.0  -0.9038
  O  O342  1  0.214730  0.347550  0.562280  1.0  -0.9396
  O  O343  1  0.360400  0.048500  0.688100  1.0  -0.7776
  O  O344  1  0.360400  0.672300  0.311900  1.0  -0.7747
  O  O345  1  0.639600  0.951500  0.311900  1.0  -0.7753
  O  O346  1  0.639600  0.327700  0.688100  1.0  -0.7758
  O  O347  1  0.311900  0.639600  0.951500  1.0  -0.7756
  O  O348  1  0.688100  0.639600  0.327700  1.0  -0.7754
  O  O349  1  0.688100  0.360400  0.048500  1.0  -0.7757
  O  O350  1  0.311900  0.360400  0.672300  1.0  -0.7759
  O  O351  1  0.672300  0.311900  0.360400  1.0  -0.7776
  O  O352  1  0.048500  0.688100  0.360400  1.0  -0.7754
  O  O353  1  0.327700  0.688100  0.639600  1.0  -0.7771
  O  O354  1  0.951500  0.311900  0.639600  1.0  -0.7758
