# generated using pymatgen
data_NaEu3C54(N6O13)2
_symmetry_space_group_name_H-M   'P 1'
_cell_length_a   25.72300000
_cell_length_b   21.97400000
_cell_length_c   31.24300000
_cell_angle_alpha   90.00000000
_cell_angle_beta   107.02400000
_cell_angle_gamma   90.00000000
_symmetry_Int_Tables_number   1
_chemical_formula_structural   NaEu3C54(N6O13)2
_chemical_formula_sum   'Na4 Eu12 C216 N48 O104'
_cell_volume   16885.89650610
_cell_formula_units_Z   4
loop_
 _symmetry_equiv_pos_site_id
 _symmetry_equiv_pos_as_xyz
  1  'x, y, z'
loop_
 _atom_site_type_symbol
 _atom_site_label
 _atom_site_symmetry_multiplicity
 _atom_site_fract_x
 _atom_site_fract_y
 _atom_site_fract_z
 _atom_site_occupancy
 _atom_site_charge
  Na  Na1  1  0.997350  0.985590  0.251520  1.0  0.968
  Na  Na2  1  0.502650  0.485590  0.248480  1.0  0.969
  Na  Na3  1  0.002650  0.014410  0.748480  1.0  0.9706
  Na  Na4  1  0.497350  0.514410  0.751520  1.0  0.9699
  Eu  Eu5  1  0.964580  0.042890  0.115010  1.0  2.1111
  Eu  Eu6  1  0.020400  0.053650  0.380770  1.0  2.1212
  Eu  Eu7  1  0.807270  0.625230  0.035380  1.0  1.634
  Eu  Eu8  1  0.535420  0.542890  0.384990  1.0  2.1095
  Eu  Eu9  1  0.479600  0.553650  0.119230  1.0  2.1205
  Eu  Eu10  1  0.692730  0.125230  0.464620  1.0  1.645
  Eu  Eu11  1  0.035420  0.957110  0.884990  1.0  2.1187
  Eu  Eu12  1  0.979600  0.946350  0.619230  1.0  2.1203
  Eu  Eu13  1  0.192730  0.374770  0.964620  1.0  1.6316
  Eu  Eu14  1  0.464580  0.457110  0.615010  1.0  2.1101
  Eu  Eu15  1  0.520400  0.446350  0.880770  1.0  2.1263
  Eu  Eu16  1  0.307270  0.874770  0.535380  1.0  1.6438
  C  C17  1  0.960400  0.963100  0.408600  1.0  0.7036
  C  C18  1  0.928300  0.915600  0.425700  1.0  -0.0525
  C  C19  1  0.926400  0.916400  0.468800  1.0  0.0761
  C  C20  1  0.896800  0.871800  0.482300  1.0  -0.0288
  C  C21  1  0.867800  0.826500  0.453100  1.0  0.0278
  C  C22  1  0.870400  0.827300  0.410500  1.0  0.1243
  C  C23  1  0.901200  0.869900  0.391800  1.0  -0.0034
  C  C24  1  0.891200  0.874200  0.529600  1.0  0.6954
  C  C25  1  0.831400  0.767700  0.337400  1.0  0.5363
  C  C26  1  0.853300  0.778800  0.272400  1.0  0.4086
  C  C27  1  0.787200  0.717000  0.277100  1.0  0.2148
  C  C28  1  0.876700  0.812100  0.204500  1.0  0.2241
  C  C29  1  0.856500  0.764100  0.173200  1.0  0.004
  C  C30  1  0.854300  0.773500  0.129300  1.0  -0.0348
  C  C31  1  0.873300  0.826600  0.112800  1.0  -0.0194
  C  C32  1  0.894700  0.873300  0.145600  1.0  -0.0548
  C  C33  1  0.896300  0.866100  0.190700  1.0  0.0981
  C  C34  1  0.915700  0.932000  0.132700  1.0  0.7167
  C  C35  1  0.834800  0.723200  0.096300  1.0  0.6179
  C  C36  1  0.702200  0.652000  0.265000  1.0  0.1792
  C  C37  1  0.697300  0.647300  0.308100  1.0  0.0013
  C  C38  1  0.649200  0.624700  0.312900  1.0  0.003
  C  C39  1  0.605900  0.603600  0.277700  1.0  0.0754
  C  C40  1  0.614000  0.607000  0.235200  1.0  0.0022
  C  C41  1  0.660200  0.628200  0.227500  1.0  0.0165
  C  C42  1  0.568300  0.583400  0.195300  1.0  0.6785
  C  C43  1  0.639100  0.620400  0.359600  1.0  0.6601
  C  C44  1  0.113100  0.149400  0.351400  1.0  0.6402
  C  C45  1  0.115500  0.156700  0.304600  1.0  0.0819
  C  C46  1  0.079600  0.124200  0.272700  1.0  0.0773
  C  C47  1  0.084100  0.128300  0.228000  1.0  -0.0921
  C  C48  1  0.122500  0.167100  0.219700  1.0  0.0437
  C  C49  1  0.158200  0.199400  0.253100  1.0  0.1491
  C  C50  1  0.154700  0.196000  0.298700  1.0  -0.0233
  C  C51  1  0.045300  0.093400  0.190600  1.0  0.6911
  C  C52  1  0.235000  0.273200  0.264300  1.0  0.387
  C  C53  1  0.303900  0.336200  0.261200  1.0  0.5052
  C  C54  1  0.288200  0.318800  0.328000  1.0  0.4807
  C  C55  1  0.328300  0.371200  0.193600  1.0  0.2096
  C  C56  1  0.288000  0.344900  0.157800  1.0  0.0055
  C  C57  1  0.286100  0.359700  0.112700  1.0  0.0703
  C  C58  1  0.324900  0.394600  0.104800  1.0  0.0621
  C  C59  1  0.366800  0.418700  0.140000  1.0  0.0202
  C  C60  1  0.368800  0.408100  0.183600  1.0  0.052
  C  C61  1  0.408700  0.462300  0.132500  1.0  0.6805
  C  C62  1  0.239400  0.337100  0.076900  1.0  0.635
  C  C63  1  0.336500  0.367200  0.400300  1.0  0.18
  C  C64  1  0.376800  0.399300  0.388300  1.0  0.0107
  C  C65  1  0.412700  0.434500  0.419800  1.0  -0.0513
  C  C66  1  0.409300  0.440100  0.464400  1.0  0.0342
  C  C67  1  0.368700  0.407900  0.475400  1.0  -1e-04
  C  C68  1  0.332300  0.370900  0.444800  1.0  0.0115
  C  C69  1  0.364900  0.411500  0.522600  1.0  0.6593
  C  C70  1  0.455600  0.470400  0.406500  1.0  0.7191
  C  C71  1  0.539600  0.463100  0.091400  1.0  0.704
  C  C72  1  0.571700  0.415600  0.074300  1.0  -0.0517
  C  C73  1  0.573600  0.416400  0.031200  1.0  0.0747
  C  C74  1  0.603200  0.371800  0.017700  1.0  -0.0321
  C  C75  1  0.632200  0.326500  0.046900  1.0  0.0293
  C  C76  1  0.629600  0.327300  0.089500  1.0  0.1275
  C  C77  1  0.598800  0.369900  0.108200  1.0  -0.0015
  C  C78  1  0.608800  0.374200  0.970400  1.0  0.6949
  C  C79  1  0.668600  0.267700  0.162600  1.0  0.5371
  C  C80  1  0.646700  0.278800  0.227600  1.0  0.4044
  C  C81  1  0.712800  0.217000  0.222900  1.0  0.2058
  C  C82  1  0.623300  0.312100  0.295500  1.0  0.2234
  C  C83  1  0.643500  0.264100  0.326800  1.0  0.0046
  C  C84  1  0.645700  0.273500  0.370700  1.0  -0.0354
  C  C85  1  0.626700  0.326600  0.387200  1.0  -0.0244
  C  C86  1  0.605300  0.373300  0.354400  1.0  -0.0552
  C  C87  1  0.603700  0.366100  0.309300  1.0  0.0973
  C  C88  1  0.584300  0.432000  0.367300  1.0  0.7149
  C  C89  1  0.665200  0.223200  0.403700  1.0  0.6187
  C  C90  1  0.797800  0.152000  0.235000  1.0  0.1774
  C  C91  1  0.802700  0.147300  0.191900  1.0  0.0046
  C  C92  1  0.850800  0.124700  0.187100  1.0  0.003
  C  C93  1  0.894100  0.103600  0.222300  1.0  0.0764
  C  C94  1  0.886000  0.107000  0.264800  1.0  0.0025
  C  C95  1  0.839800  0.128200  0.272500  1.0  0.016
  C  C96  1  0.931700  0.083400  0.304700  1.0  0.683
  C  C97  1  0.860900  0.120400  0.140400  1.0  0.6595
  C  C98  1  0.386900  0.649400  0.148600  1.0  0.6403
  C  C99  1  0.384500  0.656700  0.195400  1.0  0.0814
  C  C100  1  0.420400  0.624200  0.227300  1.0  0.0773
  C  C101  1  0.415900  0.628300  0.272000  1.0  -0.0912
  C  C102  1  0.377500  0.667100  0.280300  1.0  0.042
  C  C103  1  0.341800  0.699400  0.246900  1.0  0.1493
  C  C104  1  0.345300  0.696000  0.201300  1.0  -0.0231
  C  C105  1  0.454700  0.593400  0.309400  1.0  0.6934
  C  C106  1  0.265000  0.773200  0.235700  1.0  0.387
  C  C107  1  0.196100  0.836200  0.238800  1.0  0.5049
  C  C108  1  0.211800  0.818800  0.172000  1.0  0.4805
  C  C109  1  0.171700  0.871200  0.306400  1.0  0.2103
  C  C110  1  0.212000  0.844900  0.342200  1.0  0.0069
  C  C111  1  0.213900  0.859700  0.387300  1.0  0.0708
  C  C112  1  0.175100  0.894600  0.395200  1.0  0.0625
  C  C113  1  0.133200  0.918700  0.360000  1.0  0.021
  C  C114  1  0.131200  0.908100  0.316400  1.0  0.0518
  C  C115  1  0.091300  0.962300  0.367500  1.0  0.6764
  C  C116  1  0.260600  0.837100  0.423100  1.0  0.6366
  C  C117  1  0.163500  0.867200  0.099700  1.0  0.1817
  C  C118  1  0.123200  0.899300  0.111700  1.0  0.0116
  C  C119  1  0.087300  0.934500  0.080200  1.0  -0.0515
  C  C120  1  0.090700  0.940100  0.035600  1.0  0.0363
  C  C121  1  0.131300  0.907900  0.024600  1.0  -0.0009
  C  C122  1  0.167700  0.870900  0.055200  1.0  0.009
  C  C123  1  0.135100  0.911500  0.977400  1.0  0.6591
  C  C124  1  0.044400  0.970400  0.093500  1.0  0.7177
  C  C125  1  0.039600  0.036900  0.591400  1.0  0.7055
  C  C126  1  0.071700  0.084400  0.574300  1.0  -0.052
  C  C127  1  0.073600  0.083600  0.531200  1.0  0.073
  C  C128  1  0.103200  0.128200  0.517700  1.0  -0.0312
  C  C129  1  0.132200  0.173500  0.546900  1.0  0.0259
  C  C130  1  0.129600  0.172700  0.589500  1.0  0.1254
  C  C131  1  0.098800  0.130100  0.608200  1.0  -0.0016
  C  C132  1  0.108800  0.125800  0.470400  1.0  0.6938
  C  C133  1  0.168600  0.232300  0.662600  1.0  0.5371
  C  C134  1  0.146700  0.221200  0.727600  1.0  0.4082
  C  C135  1  0.212800  0.283000  0.722900  1.0  0.2153
  C  C136  1  0.123300  0.187900  0.795500  1.0  0.2236
  C  C137  1  0.143500  0.235900  0.826800  1.0  0.0062
  C  C138  1  0.145700  0.226500  0.870700  1.0  -0.0354
  C  C139  1  0.126700  0.173400  0.887200  1.0  -0.0243
  C  C140  1  0.105300  0.126700  0.854400  1.0  -0.0556
  C  C141  1  0.103700  0.133900  0.809300  1.0  0.0971
  C  C142  1  0.084300  0.068000  0.867300  1.0  0.7174
  C  C143  1  0.165200  0.276800  0.903700  1.0  0.6174
  C  C144  1  0.297800  0.348000  0.735000  1.0  0.1775
  C  C145  1  0.302700  0.352700  0.691900  1.0  0.0034
  C  C146  1  0.350800  0.375300  0.687100  1.0  0.003
  C  C147  1  0.394100  0.396400  0.722300  1.0  0.0772
  C  C148  1  0.386000  0.393000  0.764800  1.0  0.0028
  C  C149  1  0.339800  0.371800  0.772500  1.0  0.0161
  C  C150  1  0.431700  0.416600  0.804700  1.0  0.6826
  C  C151  1  0.360900  0.379600  0.640400  1.0  0.6599
  C  C152  1  0.886900  0.850600  0.648600  1.0  0.641
  C  C153  1  0.884500  0.843300  0.695400  1.0  0.0814
  C  C154  1  0.920400  0.875800  0.727300  1.0  0.0775
  C  C155  1  0.915900  0.871700  0.772000  1.0  -0.0911
  C  C156  1  0.877500  0.832900  0.780300  1.0  0.0417
  C  C157  1  0.841800  0.800600  0.746900  1.0  0.1493
  C  C158  1  0.845300  0.804000  0.701300  1.0  -0.0219
  C  C159  1  0.954700  0.906600  0.809400  1.0  0.6934
  C  C160  1  0.765000  0.726800  0.735700  1.0  0.3872
  C  C161  1  0.696100  0.663800  0.738800  1.0  0.5045
  C  C162  1  0.711800  0.681200  0.672000  1.0  0.4804
  C  C163  1  0.671700  0.628800  0.806400  1.0  0.2104
  C  C164  1  0.712000  0.655100  0.842200  1.0  0.0089
  C  C165  1  0.713900  0.640300  0.887300  1.0  0.0714
  C  C166  1  0.675100  0.605400  0.895200  1.0  0.0624
  C  C167  1  0.633200  0.581300  0.860000  1.0  0.0203
  C  C168  1  0.631200  0.591900  0.816400  1.0  0.052
  C  C169  1  0.591300  0.537700  0.867500  1.0  0.6775
  C  C170  1  0.760600  0.662900  0.923100  1.0  0.6364
  C  C171  1  0.663500  0.632800  0.599700  1.0  0.1809
  C  C172  1  0.623200  0.600700  0.611700  1.0  0.0116
  C  C173  1  0.587300  0.565500  0.580200  1.0  -0.0515
  C  C174  1  0.590700  0.559900  0.535600  1.0  0.0351
  C  C175  1  0.631300  0.592100  0.524600  1.0  -0.0009
  C  C176  1  0.667700  0.629100  0.555200  1.0  0.0116
  C  C177  1  0.635100  0.588500  0.477400  1.0  0.6582
  C  C178  1  0.544400  0.529600  0.593500  1.0  0.7201
  C  C179  1  0.460400  0.536900  0.908600  1.0  0.7027
  C  C180  1  0.428300  0.584400  0.925700  1.0  -0.0528
  C  C181  1  0.426400  0.583600  0.968800  1.0  0.0744
  C  C182  1  0.396800  0.628200  0.982300  1.0  -0.0289
  C  C183  1  0.367800  0.673500  0.953100  1.0  0.0338
  C  C184  1  0.370400  0.672700  0.910500  1.0  0.1278
  C  C185  1  0.401200  0.630100  0.891800  1.0  -0.0034
  C  C186  1  0.391200  0.625800  0.029600  1.0  0.6945
  C  C187  1  0.331400  0.732300  0.837400  1.0  0.5379
  C  C188  1  0.353300  0.721200  0.772400  1.0  0.4043
  C  C189  1  0.287200  0.783000  0.777100  1.0  0.206
  C  C190  1  0.376700  0.687900  0.704500  1.0  0.2241
  C  C191  1  0.356500  0.735900  0.673200  1.0  0.0068
  C  C192  1  0.354300  0.726500  0.629300  1.0  -0.0346
  C  C193  1  0.373300  0.673400  0.612800  1.0  -0.0197
  C  C194  1  0.394700  0.626700  0.645600  1.0  -0.0555
  C  C195  1  0.396300  0.633900  0.690700  1.0  0.0978
  C  C196  1  0.415700  0.568000  0.632700  1.0  0.7154
  C  C197  1  0.334800  0.776800  0.596300  1.0  0.6176
  C  C198  1  0.202200  0.848000  0.765000  1.0  0.1792
  C  C199  1  0.197300  0.852700  0.808100  1.0  0.0014
  C  C200  1  0.149200  0.875300  0.812900  1.0  0.0033
  C  C201  1  0.105900  0.896400  0.777700  1.0  0.0755
  C  C202  1  0.114000  0.893000  0.735200  1.0  0.0024
  C  C203  1  0.160200  0.871800  0.727500  1.0  0.0168
  C  C204  1  0.068300  0.916600  0.695300  1.0  0.6782
  C  C205  1  0.139100  0.879600  0.859600  1.0  0.6612
  C  C206  1  0.613100  0.350600  0.851400  1.0  0.6412
  C  C207  1  0.615500  0.343300  0.804600  1.0  0.0818
  C  C208  1  0.579600  0.375800  0.772700  1.0  0.0775
  C  C209  1  0.584100  0.371700  0.728000  1.0  -0.0914
  C  C210  1  0.622500  0.332900  0.719700  1.0  0.0433
  C  C211  1  0.658200  0.300600  0.753100  1.0  0.1486
  C  C212  1  0.654700  0.304000  0.798700  1.0  -0.0241
  C  C213  1  0.545300  0.406600  0.690600  1.0  0.6911
  C  C214  1  0.735000  0.226800  0.764300  1.0  0.3875
  C  C215  1  0.803900  0.163800  0.761200  1.0  0.5053
  C  C216  1  0.788200  0.181200  0.828000  1.0  0.4805
  C  C217  1  0.828300  0.128800  0.693600  1.0  0.2095
  C  C218  1  0.788000  0.155100  0.657800  1.0  0.0083
  C  C219  1  0.786100  0.140300  0.612700  1.0  0.071
  C  C220  1  0.824900  0.105400  0.604800  1.0  0.0618
  C  C221  1  0.866800  0.081300  0.640000  1.0  0.0198
  C  C222  1  0.868800  0.091900  0.683600  1.0  0.0518
  C  C223  1  0.908700  0.037700  0.632500  1.0  0.6802
  C  C224  1  0.739400  0.162900  0.576900  1.0  0.635
  C  C225  1  0.836500  0.132800  0.900300  1.0  0.1821
  C  C226  1  0.876800  0.100700  0.888300  1.0  0.011
  C  C227  1  0.912700  0.065500  0.919800  1.0  -0.0513
  C  C228  1  0.909300  0.059900  0.964400  1.0  0.0344
  C  C229  1  0.868700  0.092100  0.975400  1.0  -1e-04
  C  C230  1  0.832300  0.129100  0.944800  1.0  0.011
  C  C231  1  0.864900  0.088500  0.022600  1.0  0.6589
  C  C232  1  0.955600  0.029600  0.906500  1.0  0.7174
  N  N233  1  0.792900  0.726700  0.321100  1.0  -0.3167
  N  N234  1  0.815100  0.739100  0.250500  1.0  -0.3147
  N  N235  1  0.864200  0.796000  0.316200  1.0  -0.3959
  N  N236  1  0.747700  0.676200  0.253100  1.0  -0.3271
  N  N237  1  0.885100  0.808500  0.250900  1.0  -0.2603
  N  N238  1  0.839100  0.780400  0.380000  1.0  -0.3666
  N  N239  1  0.244700  0.282000  0.309000  1.0  -0.2853
  N  N240  1  0.319900  0.344200  0.305300  1.0  -0.4093
  N  N241  1  0.260900  0.301700  0.237400  1.0  -0.3497
  N  N242  1  0.297300  0.328400  0.371500  1.0  -0.4043
  N  N243  1  0.335600  0.364200  0.239800  1.0  -0.3976
  N  N244  1  0.193900  0.236400  0.240200  1.0  -0.3848
  N  N245  1  0.707100  0.226700  0.178900  1.0  -0.3167
  N  N246  1  0.684900  0.239100  0.249500  1.0  -0.3136
  N  N247  1  0.635800  0.296000  0.183800  1.0  -0.3835
  N  N248  1  0.752300  0.176200  0.246900  1.0  -0.3203
  N  N249  1  0.614900  0.308500  0.249100  1.0  -0.2594
  N  N250  1  0.660900  0.280400  0.120000  1.0  -0.3704
  N  N251  1  0.255300  0.782000  0.191000  1.0  -0.2894
  N  N252  1  0.180100  0.844200  0.194700  1.0  -0.4068
  N  N253  1  0.239100  0.801700  0.262600  1.0  -0.3464
  N  N254  1  0.202700  0.828400  0.128500  1.0  -0.4098
  N  N255  1  0.164400  0.864200  0.260200  1.0  -0.3961
  N  N256  1  0.306100  0.736400  0.259800  1.0  -0.3815
  N  N257  1  0.207100  0.273300  0.678900  1.0  -0.3165
  N  N258  1  0.184900  0.260900  0.749500  1.0  -0.31
  N  N259  1  0.135800  0.204000  0.683800  1.0  -0.3911
  N  N260  1  0.252300  0.323800  0.746900  1.0  -0.3241
  N  N261  1  0.114900  0.191500  0.749100  1.0  -0.2592
  N  N262  1  0.160900  0.219600  0.620000  1.0  -0.3677
  N  N263  1  0.755300  0.718000  0.691000  1.0  -0.286
  N  N264  1  0.680100  0.655800  0.694700  1.0  -0.4069
  N  N265  1  0.739100  0.698300  0.762600  1.0  -0.3465
  N  N266  1  0.702700  0.671600  0.628500  1.0  -0.4043
  N  N267  1  0.664400  0.635800  0.760200  1.0  -0.3965
  N  N268  1  0.806100  0.763600  0.759800  1.0  -0.3814
  N  N269  1  0.292900  0.773300  0.821100  1.0  -0.3165
  N  N270  1  0.315100  0.760900  0.750500  1.0  -0.3159
  N  N271  1  0.364200  0.704000  0.816200  1.0  -0.3897
  N  N272  1  0.247700  0.823800  0.753100  1.0  -0.3238
  N  N273  1  0.385100  0.691500  0.750900  1.0  -0.2601
  N  N274  1  0.339100  0.719600  0.880000  1.0  -0.3721
  N  N275  1  0.744700  0.218000  0.809000  1.0  -0.2875
  N  N276  1  0.819900  0.155800  0.805300  1.0  -0.4083
  N  N277  1  0.760900  0.198300  0.737400  1.0  -0.3486
  N  N278  1  0.797300  0.171600  0.871500  1.0  -0.4096
  N  N279  1  0.835600  0.135800  0.739800  1.0  -0.3975
  N  N280  1  0.693900  0.263600  0.740200  1.0  -0.3844
  O  O281  1  0.966000  0.959800  0.370460  1.0  -0.5311
  O  O282  1  0.981000  0.007100  0.434880  1.0  -0.6232
  O  O283  1  0.910300  0.919000  0.552790  1.0  -0.6249
  O  O284  1  0.868200  0.829300  0.541300  1.0  -0.4871
  O  O285  1  0.928300  0.974300  0.160300  1.0  -0.6212
  O  O286  1  0.923000  0.937800  0.093950  1.0  -0.5872
  O  O287  1  0.827800  0.732000  0.055600  1.0  -0.625
  O  O288  1  0.824200  0.671600  0.109000  1.0  -0.6118
  O  O289  1  0.574200  0.586600  0.157700  1.0  -0.5626
  O  O290  1  0.526500  0.561100  0.201910  1.0  -0.6871
  O  O291  1  0.593600  0.610200  0.363000  1.0  -0.6198
  O  O292  1  0.682000  0.629000  0.393600  1.0  -0.4524
  O  O293  1  0.064200  0.133200  0.356400  1.0  -0.6184
  O  O294  1  0.146500  0.173400  0.384200  1.0  -0.4781
  O  O295  1  0.046700  0.102500  0.151900  1.0  -0.5845
  O  O296  1  0.012200  0.057700  0.198890  1.0  -0.6794
  O  O297  1  0.437000  0.491800  0.164300  1.0  -0.6034
  O  O298  1  0.412800  0.469400  0.094480  1.0  -0.5421
  O  O299  1  0.243300  0.344500  0.036500  1.0  -0.6829
  O  O300  1  0.198600  0.314700  0.083200  1.0  -0.3715
  O  O301  1  0.329800  0.374600  0.531900  1.0  -0.4711
  O  O302  1  0.389600  0.451700  0.548370  1.0  -0.6105
  O  O303  1  0.485900  0.506500  0.434720  1.0  -0.6085
  O  O304  1  0.460500  0.465700  0.369140  1.0  -0.5364
  O  O305  1  0.969200  0.900800  0.294200  1.0  -0.4409
  O  O306  1  0.927700  0.932400  0.282900  1.0  -0.4887
  O  O307  1  0.534000  0.459800  0.129540  1.0  -0.5311
  O  O308  1  0.519000  0.507100  0.065120  1.0  -0.6228
  O  O309  1  0.589700  0.419000  0.947210  1.0  -0.6238
  O  O310  1  0.631800  0.329300  0.958700  1.0  -0.4875
  O  O311  1  0.571700  0.474300  0.339700  1.0  -0.6201
  O  O312  1  0.577000  0.437800  0.406050  1.0  -0.5857
  O  O313  1  0.672200  0.232000  0.444400  1.0  -0.6201
  O  O314  1  0.675800  0.171600  0.391000  1.0  -0.6113
  O  O315  1  0.925800  0.086600  0.342300  1.0  -0.5643
  O  O316  1  0.973500  0.061100  0.298090  1.0  -0.6875
  O  O317  1  0.906400  0.110200  0.137000  1.0  -0.62
  O  O318  1  0.818000  0.129000  0.106400  1.0  -0.4538
  O  O319  1  0.435800  0.633200  0.143600  1.0  -0.6158
  O  O320  1  0.353500  0.673400  0.115800  1.0  -0.4853
  O  O321  1  0.453300  0.602500  0.348100  1.0  -0.5868
  O  O322  1  0.487800  0.557700  0.301110  1.0  -0.6827
  O  O323  1  0.063000  0.991800  0.335700  1.0  -0.6041
  O  O324  1  0.087200  0.969400  0.405520  1.0  -0.5409
  O  O325  1  0.256700  0.844500  0.463500  1.0  -0.6824
  O  O326  1  0.301400  0.814700  0.416800  1.0  -0.3711
  O  O327  1  0.170200  0.874600  0.968100  1.0  -0.4671
  O  O328  1  0.110400  0.951700  0.951630  1.0  -0.6111
  O  O329  1  0.014100  0.006500  0.065280  1.0  -0.6103
  O  O330  1  0.039500  0.965700  0.130860  1.0  -0.5312
  O  O331  1  0.530800  0.400800  0.205800  1.0  -0.4399
  O  O332  1  0.572300  0.432400  0.217100  1.0  -0.4919
  O  O333  1  0.034000  0.040200  0.629540  1.0  -0.5313
  O  O334  1  0.019000  0.992900  0.565120  1.0  -0.6225
  O  O335  1  0.089700  0.081000  0.447210  1.0  -0.6231
  O  O336  1  0.131800  0.170700  0.458700  1.0  -0.4893
  O  O337  1  0.071700  0.025700  0.839700  1.0  -0.6188
  O  O338  1  0.077000  0.062200  0.906050  1.0  -0.5851
  O  O339  1  0.172200  0.268000  0.944400  1.0  -0.6201
  O  O340  1  0.175800  0.328400  0.891000  1.0  -0.6115
  O  O341  1  0.425800  0.413400  0.842300  1.0  -0.5642
  O  O342  1  0.473500  0.438900  0.798090  1.0  -0.6875
  O  O343  1  0.406400  0.389800  0.637000  1.0  -0.6188
  O  O344  1  0.318000  0.371000  0.606400  1.0  -0.4577
  O  O345  1  0.935800  0.866800  0.643600  1.0  -0.619
  O  O346  1  0.853500  0.826600  0.615800  1.0  -0.478
  O  O347  1  0.953300  0.897500  0.848100  1.0  -0.5852
  O  O348  1  0.987800  0.942300  0.801110  1.0  -0.6821
  O  O349  1  0.563000  0.508200  0.835700  1.0  -0.6042
  O  O350  1  0.587200  0.530600  0.905520  1.0  -0.5405
  O  O351  1  0.756700  0.655500  0.963500  1.0  -0.682
  O  O352  1  0.801400  0.685300  0.916800  1.0  -0.3708
  O  O353  1  0.670200  0.625400  0.468100  1.0  -0.4684
  O  O354  1  0.610400  0.548300  0.451630  1.0  -0.6105
  O  O355  1  0.514100  0.493500  0.565280  1.0  -0.6105
  O  O356  1  0.539500  0.534300  0.630860  1.0  -0.5325
  O  O357  1  0.030800  0.099200  0.705800  1.0  -0.4399
  O  O358  1  0.072300  0.067600  0.717100  1.0  -0.4929
  O  O359  1  0.466000  0.540200  0.870460  1.0  -0.5305
  O  O360  1  0.481000  0.492900  0.934880  1.0  -0.6213
  O  O361  1  0.410300  0.581000  0.052790  1.0  -0.6236
  O  O362  1  0.368200  0.670700  0.041300  1.0  -0.49
  O  O363  1  0.428300  0.525700  0.660300  1.0  -0.6194
  O  O364  1  0.423000  0.562200  0.593950  1.0  -0.5888
  O  O365  1  0.327800  0.768000  0.555600  1.0  -0.6258
  O  O366  1  0.324200  0.828400  0.609000  1.0  -0.6117
  O  O367  1  0.074200  0.913400  0.657700  1.0  -0.562
  O  O368  1  0.026500  0.938900  0.701910  1.0  -0.6865
  O  O369  1  0.093600  0.889800  0.863000  1.0  -0.6178
  O  O370  1  0.182000  0.871000  0.893600  1.0  -0.4538
  O  O371  1  0.564200  0.366800  0.856400  1.0  -0.6164
  O  O372  1  0.646500  0.326600  0.884200  1.0  -0.4836
  O  O373  1  0.546700  0.397500  0.651900  1.0  -0.5837
  O  O374  1  0.512200  0.442300  0.698890  1.0  -0.6803
  O  O375  1  0.937000  0.008200  0.664300  1.0  -0.6047
  O  O376  1  0.912800  0.030600  0.594480  1.0  -0.5423
  O  O377  1  0.743300  0.155500  0.536500  1.0  -0.6826
  O  O378  1  0.698600  0.185300  0.583200  1.0  -0.3716
  O  O379  1  0.829800  0.125400  0.031900  1.0  -0.4684
  O  O380  1  0.889600  0.048300  0.048370  1.0  -0.6099
  O  O381  1  0.985900  0.993500  0.934720  1.0  -0.6068
  O  O382  1  0.960500  0.034300  0.869140  1.0  -0.5363
  O  O383  1  0.469200  0.599200  0.794200  1.0  -0.4403
  O  O384  1  0.427700  0.567600  0.782900  1.0  -0.4899
