# generated using pymatgen
data_NdH12(C3O2)3
_symmetry_space_group_name_H-M   'P 1'
_cell_length_a   9.18200000
_cell_length_b   9.68700000
_cell_length_c   10.63900000
_cell_angle_alpha   106.80700000
_cell_angle_beta   95.62500000
_cell_angle_gamma   118.06000000
_symmetry_Int_Tables_number   1
_chemical_formula_structural   NdH12(C3O2)3
_chemical_formula_sum   'Nd2 H24 C18 O12'
_cell_volume   768.10504094
_cell_formula_units_Z   2
loop_
 _symmetry_equiv_pos_site_id
 _symmetry_equiv_pos_as_xyz
  1  'x, y, z'
loop_
 _atom_site_type_symbol
 _atom_site_label
 _atom_site_symmetry_multiplicity
 _atom_site_fract_x
 _atom_site_fract_y
 _atom_site_fract_z
 _atom_site_occupancy
 _atom_site_charge
  Nd  Nd1  1  0.234980  0.455020  0.981800  1.0  2.2757
  Nd  Nd2  1  0.765020  0.544980  0.018200  1.0  2.2752
  H  H3  1  0.576500  0.400800  0.651400  1.0  0.1222
  H  H4  1  0.384100  0.262100  0.556800  1.0  0.1244
  H  H5  1  0.532300  0.621400  0.630500  1.0  0.0709
  H  H6  1  0.344400  0.479600  0.530300  1.0  0.0715
  H  H7  1  0.981400  0.625800  0.628700  1.0  0.1025
  H  H8  1  0.003000  0.468600  0.617600  1.0  0.1235
  H  H9  1  0.294800  0.657300  0.748100  1.0  0.076
  H  H10  1  0.259700  0.687000  0.610900  1.0  0.0662
  H  H11  1  0.279500  0.897100  0.873000  1.0  0.0703
  H  H12  1  0.254600  0.929300  0.735000  1.0  0.0688
  H  H13  1  0.521300  0.949800  0.716800  1.0  0.1101
  H  H14  1  0.546700  0.944000  0.862900  1.0  0.1151
  H  H15  1  0.423500  0.599200  0.348600  1.0  0.1213
  H  H16  1  0.615900  0.737900  0.443200  1.0  0.1242
  H  H17  1  0.467700  0.378600  0.369500  1.0  0.0693
  H  H18  1  0.655600  0.520400  0.469700  1.0  0.0724
  H  H19  1  0.018600  0.374200  0.371300  1.0  0.1033
  H  H20  1  0.997000  0.531400  0.382400  1.0  0.1226
  H  H21  1  0.705200  0.342700  0.251900  1.0  0.0775
  H  H22  1  0.740300  0.313000  0.389100  1.0  0.0651
  H  H23  1  0.720500  0.102900  0.127000  1.0  0.0712
  H  H24  1  0.745400  0.070700  0.265000  1.0  0.07
  H  H25  1  0.478700  0.050200  0.283200  1.0  0.1102
  H  H26  1  0.453300  0.056000  0.137100  1.0  0.1155
  C  C27  1  0.392900  0.401600  0.747900  1.0  0.8067
  C  C28  1  0.459200  0.379600  0.624500  1.0  -0.3533
  C  C29  1  0.462800  0.504800  0.560400  1.0  -0.0737
  C  C30  1  0.990700  0.585000  0.807600  1.0  0.8347
  C  C31  1  0.041500  0.585800  0.677200  1.0  -0.3261
  C  C32  1  0.235100  0.698300  0.700700  1.0  -0.0931
  C  C33  1  0.307600  0.884600  0.784500  1.0  -0.0842
  C  C34  1  0.502500  0.985500  0.809600  1.0  -0.3222
  C  C35  1  0.583200  0.174900  0.877700  1.0  0.7288
  C  C36  1  0.607100  0.598400  0.252100  1.0  0.8113
  C  C37  1  0.540800  0.620400  0.375500  1.0  -0.3552
  C  C38  1  0.537200  0.495200  0.439600  1.0  -0.0734
  C  C39  1  0.009300  0.415000  0.192400  1.0  0.8348
  C  C40  1  0.958500  0.414200  0.322800  1.0  -0.3292
  C  C41  1  0.764900  0.301700  0.299300  1.0  -0.0938
  C  C42  1  0.692400  0.115400  0.215500  1.0  -0.0852
  C  C43  1  0.497500  0.014500  0.190400  1.0  -0.3216
  C  C44  1  0.416800  0.825100  0.122300  1.0  0.726
  O  O45  1  0.237400  0.362000  0.733800  1.0  -0.6998
  O  O46  1  0.491600  0.465700  0.867100  1.0  -0.8315
  O  O47  1  0.062100  0.549300  0.889500  1.0  -0.8375
  O  O48  1  0.875400  0.617700  0.830400  1.0  -0.7633
  O  O49  1  0.691800  0.271800  0.830100  1.0  -0.7104
  O  O50  1  0.545600  0.237300  0.982100  1.0  -0.6662
  O  O51  1  0.762600  0.638000  0.266200  1.0  -0.7099
  O  O52  1  0.508400  0.534300  0.132900  1.0  -0.8309
  O  O53  1  0.937900  0.450700  0.110500  1.0  -0.8384
  O  O54  1  0.124600  0.382300  0.169600  1.0  -0.7642
  O  O55  1  0.308200  0.728200  0.169900  1.0  -0.7119
  O  O56  1  0.454400  0.762700  0.017900  1.0  -0.6627
