# generated using pymatgen
data_NdH12(C3O2)3
_symmetry_space_group_name_H-M   'P 1'
_cell_length_a   9.24100000
_cell_length_b   9.74590000
_cell_length_c   10.66100000
_cell_angle_alpha   67.71160000
_cell_angle_beta   84.68000000
_cell_angle_gamma   61.73520000
_symmetry_Int_Tables_number   1
_chemical_formula_structural   NdH12(C3O2)3
_chemical_formula_sum   'Nd2 H24 C18 O12'
_cell_volume   778.02700159
_cell_formula_units_Z   2
loop_
 _symmetry_equiv_pos_site_id
 _symmetry_equiv_pos_as_xyz
  1  'x, y, z'
loop_
 _atom_site_type_symbol
 _atom_site_label
 _atom_site_symmetry_multiplicity
 _atom_site_fract_x
 _atom_site_fract_y
 _atom_site_fract_z
 _atom_site_occupancy
 _atom_site_charge
  Nd  Nd1  1  0.779690  0.456490  0.018390  1.0  2.2709
  Nd  Nd2  1  0.220310  0.543510  0.981610  1.0  2.2714
  H  H3  1  0.588300  0.962700  0.127900  1.0  0.1321
  H  H4  1  0.564000  0.967000  0.272800  1.0  0.0979
  H  H5  1  0.566200  0.699800  0.389500  1.0  0.0682
  H  H6  1  0.638200  0.659700  0.249400  1.0  0.0762
  H  H7  1  0.544800  0.462300  0.382000  1.0  0.116
  H  H8  1  0.361800  0.622000  0.373900  1.0  0.1076
  H  H9  1  0.115900  0.277100  0.430500  1.0  0.1456
  H  H10  1  0.176700  0.406200  0.356700  1.0  0.1165
  H  H11  1  0.323600  0.939900  0.263900  1.0  0.0522
  H  H12  1  0.379000  0.905400  0.135000  1.0  0.1147
  H  H13  1  0.874100  0.477900  0.463400  1.0  0.0831
  H  H14  1  0.901500  0.632800  0.367300  1.0  0.065
  H  H15  1  0.411700  0.037300  0.872100  1.0  0.1309
  H  H16  1  0.436000  0.033000  0.727200  1.0  0.0987
  H  H17  1  0.433800  0.300200  0.610500  1.0  0.0677
  H  H18  1  0.361800  0.340300  0.750600  1.0  0.0785
  H  H19  1  0.455200  0.537700  0.618000  1.0  0.1126
  H  H20  1  0.638200  0.378000  0.626100  1.0  0.1074
  H  H21  1  0.884100  0.722900  0.569500  1.0  0.1735
  H  H22  1  0.823300  0.593800  0.643300  1.0  0.1159
  H  H23  1  0.676400  0.060100  0.736100  1.0  0.0521
  H  H24  1  0.621000  0.094600  0.865000  1.0  0.1444
  H  H25  1  0.125900  0.522100  0.536600  1.0  0.0812
  H  H26  1  0.098500  0.367200  0.632700  1.0  0.0634
  C  C27  1  0.409300  0.585200  0.190540  1.0  0.8409
  C  C28  1  0.513200  0.986500  0.189900  1.0  -0.3068
  C  C29  1  0.535500  0.699400  0.298500  1.0  -0.1136
  C  C30  1  0.992200  0.405100  0.250530  1.0  0.7939
  C  C31  1  0.455500  0.587300  0.320800  1.0  -0.3599
  C  C32  1  0.078200  0.384300  0.374200  1.0  -0.3323
  C  C33  1  0.405600  0.174800  0.122100  1.0  0.7142
  C  C34  1  0.421500  0.884900  0.214900  1.0  -0.0649
  C  C35  1  0.958400  0.505500  0.438800  1.0  -0.0705
  C  C36  1  0.590700  0.414800  0.809460  1.0  0.842
  C  C37  1  0.486800  0.013500  0.810100  1.0  -0.3081
  C  C38  1  0.464500  0.300600  0.701500  1.0  -0.1136
  C  C39  1  0.007800  0.594900  0.749470  1.0  0.7933
  C  C40  1  0.544500  0.412700  0.679200  1.0  -0.3602
  C  C41  1  0.921800  0.615700  0.625800  1.0  -0.3309
  C  C42  1  0.594400  0.825200  0.877900  1.0  0.7118
  C  C43  1  0.578500  0.115100  0.785100  1.0  -0.0666
  C  C44  1  0.041600  0.494500  0.561200  1.0  -0.0692
  O  O45  1  0.516600  0.548900  0.110820  1.0  -0.8295
  O  O46  1  0.028160  0.466800  0.132850  1.0  -0.8563
  O  O47  1  0.305210  0.237220  0.018840  1.0  -0.6895
  O  O48  1  0.263420  0.616900  0.166190  1.0  -0.751
  O  O49  1  0.420710  0.270390  0.168020  1.0  -0.7121
  O  O50  1  0.877800  0.366300  0.263850  1.0  -0.7229
  O  O51  1  0.483400  0.451100  0.889180  1.0  -0.8306
  O  O52  1  0.971840  0.533200  0.867150  1.0  -0.8581
  O  O53  1  0.694790  0.762780  0.981160  1.0  -0.6899
  O  O54  1  0.736580  0.383100  0.833810  1.0  -0.7582
  O  O55  1  0.579290  0.729610  0.831980  1.0  -0.7102
  O  O56  1  0.122200  0.633700  0.736150  1.0  -0.7347
