# generated using pymatgen
data_Co3H8C20(N3O2)4
_symmetry_space_group_name_H-M   'P 1'
_cell_length_a   8.21520000
_cell_length_b   8.93870000
_cell_length_c   12.39610000
_cell_angle_alpha   109.84600000
_cell_angle_beta   92.65100000
_cell_angle_gamma   106.72500000
_symmetry_Int_Tables_number   1
_chemical_formula_structural   Co3H8C20(N3O2)4
_chemical_formula_sum   'Co3 H8 C20 N12 O8'
_cell_volume   809.46389337
_cell_formula_units_Z   1
loop_
 _symmetry_equiv_pos_site_id
 _symmetry_equiv_pos_as_xyz
  1  'x, y, z'
loop_
 _atom_site_type_symbol
 _atom_site_label
 _atom_site_symmetry_multiplicity
 _atom_site_fract_x
 _atom_site_fract_y
 _atom_site_fract_z
 _atom_site_occupancy
 _atom_site_charge
  Co  Co1  1  0.032080  0.055850  0.179230  1.0  0.7926
  Co  Co2  1  0.967920  0.944150  0.820770  1.0  0.7763
  Co  Co3  1  0.500000  0.500000  0.500000  1.0  1.0079
  H  H4  1  0.971000  0.224000  0.449000  1.0  0.0991
  H  H5  1  0.804000  0.376100  0.544400  1.0  0.0996
  H  H6  1  0.577300  0.335500  0.247700  1.0  0.0946
  H  H7  1  0.378100  0.867200  0.306200  1.0  0.1056
  H  H8  1  0.029000  0.776000  0.551000  1.0  0.099
  H  H9  1  0.196000  0.623900  0.455600  1.0  0.1008
  H  H10  1  0.422700  0.664500  0.752300  1.0  0.0953
  H  H11  1  0.621900  0.132800  0.693800  1.0  0.105
  C  C12  1  0.758400  0.169900  0.106800  1.0  0.2903
  C  C13  1  0.762300  0.226800  0.232500  1.0  0.1281
  C  C14  1  0.891800  0.246800  0.406200  1.0  0.1283
  C  C15  1  0.789900  0.337400  0.463800  1.0  0.0989
  C  C16  1  0.658500  0.314800  0.290400  1.0  0.1333
  C  C17  1  0.533100  0.854700  0.431200  1.0  -0.0873
  C  C18  1  0.608000  0.935100  0.548600  1.0  -0.1482
  C  C19  1  0.427000  0.920600  0.384200  1.0  -0.0534
  C  C20  1  0.551700  0.691700  0.352800  1.0  0.6758
  C  C21  1  0.725000  0.872100  0.606200  1.0  0.6956
  C  C22  1  0.241600  0.830100  0.893200  1.0  0.2867
  C  C23  1  0.237700  0.773200  0.767500  1.0  0.1284
  C  C24  1  0.108200  0.753200  0.593800  1.0  0.1275
  C  C25  1  0.210100  0.662600  0.536200  1.0  0.0996
  C  C26  1  0.341500  0.685200  0.709600  1.0  0.1339
  C  C27  1  0.466900  0.145300  0.568800  1.0  -0.0888
  C  C28  1  0.392000  0.064900  0.451400  1.0  -0.149
  C  C29  1  0.573000  0.079400  0.615800  1.0  -0.0535
  C  C30  1  0.448300  0.308300  0.647200  1.0  0.6785
  C  C31  1  0.275000  0.127900  0.393800  1.0  0.6951
  N  N32  1  0.866000  0.091200  0.058060  1.0  -0.3109
  N  N33  1  0.833400  0.063500  0.945120  1.0  -0.0349
  N  N34  1  0.709600  0.122200  0.926800  1.0  -0.0508
  N  N35  1  0.660000  0.190600  0.028500  1.0  -0.2841
  N  N36  1  0.879100  0.191600  0.291040  1.0  -0.2752
  N  N37  1  0.672000  0.370400  0.406140  1.0  -0.2848
  N  N38  1  0.134000  0.908800  0.941940  1.0  -0.3086
  N  N39  1  0.166600  0.936500  0.054880  1.0  -0.0347
  N  N40  1  0.290400  0.877800  0.073200  1.0  -0.0519
  N  N41  1  0.340000  0.809400  0.971500  1.0  -0.2816
  N  N42  1  0.120900  0.808400  0.708960  1.0  -0.2771
  N  N43  1  0.328000  0.629600  0.593860  1.0  -0.2811
  O  O44  1  0.656000  0.693500  0.285200  1.0  -0.5371
  O  O45  1  0.451800  0.558500  0.359650  1.0  -0.5954
  O  O46  1  0.706500  0.717900  0.570580  1.0  -0.6065
  O  O47  1  0.838300  0.980700  0.689000  1.0  -0.5752
  O  O48  1  0.344000  0.306500  0.714800  1.0  -0.537
  O  O49  1  0.548200  0.441500  0.640350  1.0  -0.595
  O  O50  1  0.293500  0.282100  0.429420  1.0  -0.6072
  O  O51  1  0.161700  0.019300  0.311000  1.0  -0.5668
