# generated using pymatgen
data_Cu5H12C32O19
_symmetry_space_group_name_H-M   'P 1'
_cell_length_a   18.59240000
_cell_length_b   18.59240000
_cell_length_c   42.22930000
_cell_angle_alpha   90.00000000
_cell_angle_beta   90.00000000
_cell_angle_gamma   90.00000000
_symmetry_Int_Tables_number   1
_chemical_formula_structural   Cu5H12C32O19
_chemical_formula_sum   'Cu40 H96 C256 O152'
_cell_volume   14597.71199947
_cell_formula_units_Z   8
loop_
 _symmetry_equiv_pos_site_id
 _symmetry_equiv_pos_as_xyz
  1  'x, y, z'
loop_
 _atom_site_type_symbol
 _atom_site_label
 _atom_site_symmetry_multiplicity
 _atom_site_fract_x
 _atom_site_fract_y
 _atom_site_fract_z
 _atom_site_occupancy
 _atom_site_charge
  Cu  Cu1  1  0.056550  0.056550  0.395130  1.0  0.8655
  Cu  Cu2  1  0.258590  0.258590  0.280040  1.0  0.9084
  Cu  Cu3  1  0.191820  0.191820  0.232900  1.0  0.9202
  Cu  Cu4  1  0.943450  0.943450  0.395130  1.0  0.866
  Cu  Cu5  1  0.741410  0.741410  0.280040  1.0  0.9071
  Cu  Cu6  1  0.808180  0.808180  0.232900  1.0  0.9191
  Cu  Cu7  1  0.443450  0.556550  0.895130  1.0  0.8667
  Cu  Cu8  1  0.241410  0.758590  0.780040  1.0  0.9079
  Cu  Cu9  1  0.308180  0.691820  0.732900  1.0  0.9187
  Cu  Cu10  1  0.556550  0.443450  0.895130  1.0  0.865
  Cu  Cu11  1  0.758590  0.241410  0.780040  1.0  0.9076
  Cu  Cu12  1  0.691820  0.308180  0.732900  1.0  0.9205
  Cu  Cu13  1  0.443450  0.556550  0.104870  1.0  0.8665
  Cu  Cu14  1  0.241410  0.758590  0.219960  1.0  0.9094
  Cu  Cu15  1  0.308180  0.691820  0.267100  1.0  0.9193
  Cu  Cu16  1  0.556550  0.443450  0.104870  1.0  0.8642
  Cu  Cu17  1  0.758590  0.241410  0.219960  1.0  0.9071
  Cu  Cu18  1  0.691820  0.308180  0.267100  1.0  0.9195
  Cu  Cu19  1  0.056550  0.056550  0.604870  1.0  0.8652
  Cu  Cu20  1  0.258590  0.258590  0.719960  1.0  0.9082
  Cu  Cu21  1  0.191820  0.191820  0.767100  1.0  0.9192
  Cu  Cu22  1  0.943450  0.943450  0.604870  1.0  0.8655
  Cu  Cu23  1  0.741410  0.741410  0.719960  1.0  0.9083
  Cu  Cu24  1  0.808180  0.808180  0.767100  1.0  0.9199
  Cu  Cu25  1  0.906330  0.093670  0.432520  1.0  0.5637
  Cu  Cu26  1  0.093670  0.906330  0.432520  1.0  0.5663
  Cu  Cu27  1  0.406330  0.406330  0.932520  1.0  0.5644
  Cu  Cu28  1  0.593670  0.593670  0.932520  1.0  0.5658
  Cu  Cu29  1  0.593670  0.593670  0.067480  1.0  0.5641
  Cu  Cu30  1  0.406330  0.406330  0.067480  1.0  0.5644
  Cu  Cu31  1  0.093670  0.906330  0.567480  1.0  0.5635
  Cu  Cu32  1  0.906330  0.093670  0.567480  1.0  0.5624
  Cu  Cu33  1  0.154120  0.154120  0.500000  1.0  0.9272
  Cu  Cu34  1  0.254970  0.254970  0.500000  1.0  0.903
  Cu  Cu35  1  0.845880  0.845880  0.500000  1.0  0.9294
  Cu  Cu36  1  0.745030  0.745030  0.500000  1.0  0.9015
  Cu  Cu37  1  0.345880  0.654120  0.000000  1.0  0.9278
  Cu  Cu38  1  0.245030  0.754970  0.000000  1.0  0.9084
  Cu  Cu39  1  0.654120  0.345880  0.000000  1.0  0.9283
  Cu  Cu40  1  0.754970  0.245030  0.000000  1.0  0.907
  H  H41  1  0.146700  0.402700  0.443100  1.0  0.1154
  H  H42  1  0.082600  0.475500  0.406100  1.0  0.1295
  H  H43  1  0.997000  0.418900  0.375000  1.0  0.1095
  H  H44  1  0.858700  0.305600  0.333400  1.0  0.1365
  H  H45  1  0.977100  0.254400  0.258200  1.0  0.1238
  H  H46  1  0.070400  0.271300  0.344000  1.0  0.121
  H  H47  1  0.853300  0.597300  0.443100  1.0  0.1151
  H  H48  1  0.917400  0.524500  0.406100  1.0  0.1297
  H  H49  1  0.003000  0.581100  0.375000  1.0  0.1095
  H  H50  1  0.141300  0.694400  0.333400  1.0  0.1369
  H  H51  1  0.022900  0.745600  0.258200  1.0  0.1237
  H  H52  1  0.929600  0.728700  0.344000  1.0  0.121
  H  H53  1  0.097300  0.646700  0.943100  1.0  0.1149
  H  H54  1  0.024500  0.582600  0.906100  1.0  0.1308
  H  H55  1  0.081100  0.497000  0.875000  1.0  0.1091
  H  H56  1  0.194400  0.358700  0.833400  1.0  0.1373
  H  H57  1  0.245600  0.477100  0.758200  1.0  0.1237
  H  H58  1  0.228700  0.570400  0.844000  1.0  0.1214
  H  H59  1  0.902700  0.353300  0.943100  1.0  0.1145
  H  H60  1  0.975500  0.417400  0.906100  1.0  0.1292
  H  H61  1  0.918900  0.503000  0.875000  1.0  0.1093
  H  H62  1  0.805600  0.641300  0.833400  1.0  0.1373
  H  H63  1  0.754400  0.522900  0.758200  1.0  0.1238
  H  H64  1  0.771300  0.429600  0.844000  1.0  0.1216
  H  H65  1  0.353300  0.902700  0.056900  1.0  0.1157
  H  H66  1  0.417400  0.975500  0.093900  1.0  0.1296
  H  H67  1  0.503000  0.918900  0.125000  1.0  0.1098
  H  H68  1  0.641300  0.805600  0.166600  1.0  0.1366
  H  H69  1  0.522900  0.754400  0.241800  1.0  0.1248
  H  H70  1  0.429600  0.771300  0.156000  1.0  0.121
  H  H71  1  0.646700  0.097300  0.056900  1.0  0.1153
  H  H72  1  0.582600  0.024500  0.093900  1.0  0.1299
  H  H73  1  0.497000  0.081100  0.125000  1.0  0.1097
  H  H74  1  0.358700  0.194400  0.166600  1.0  0.1362
  H  H75  1  0.477100  0.245600  0.241800  1.0  0.1248
  H  H76  1  0.570400  0.228700  0.156000  1.0  0.1209
  H  H77  1  0.402700  0.146700  0.556900  1.0  0.1149
  H  H78  1  0.475500  0.082600  0.593900  1.0  0.1293
  H  H79  1  0.418900  0.997000  0.625000  1.0  0.1092
  H  H80  1  0.305600  0.858700  0.666667  1.0  0.1366
  H  H81  1  0.254400  0.977100  0.741800  1.0  0.1247
  H  H82  1  0.271300  0.070400  0.656000  1.0  0.1215
  H  H83  1  0.597300  0.853300  0.556900  1.0  0.114
  H  H84  1  0.524500  0.917400  0.593900  1.0  0.1312
  H  H85  1  0.581100  0.003000  0.625000  1.0  0.1095
  H  H86  1  0.694400  0.141300  0.666667  1.0  0.1367
  H  H87  1  0.745600  0.022900  0.741800  1.0  0.1248
  H  H88  1  0.728700  0.929600  0.656000  1.0  0.1215
  H  H89  1  0.853300  0.597300  0.556900  1.0  0.1147
  H  H90  1  0.917400  0.524500  0.593900  1.0  0.1294
  H  H91  1  0.003000  0.581100  0.625000  1.0  0.1097
  H  H92  1  0.141300  0.694400  0.666667  1.0  0.1361
  H  H93  1  0.022900  0.745600  0.741800  1.0  0.1246
  H  H94  1  0.929600  0.728700  0.656000  1.0  0.121
  H  H95  1  0.146700  0.402700  0.556900  1.0  0.1159
  H  H96  1  0.082600  0.475500  0.593900  1.0  0.1298
  H  H97  1  0.997000  0.418900  0.625000  1.0  0.11
  H  H98  1  0.858700  0.305600  0.666667  1.0  0.136
  H  H99  1  0.977100  0.254400  0.741800  1.0  0.1249
  H  H100  1  0.070400  0.271300  0.656000  1.0  0.1209
  H  H101  1  0.902700  0.353300  0.056900  1.0  0.1144
  H  H102  1  0.975500  0.417400  0.093900  1.0  0.129
  H  H103  1  0.918900  0.503000  0.125000  1.0  0.1094
  H  H104  1  0.805600  0.641300  0.166600  1.0  0.1368
  H  H105  1  0.754400  0.522900  0.241800  1.0  0.125
  H  H106  1  0.771300  0.429600  0.156000  1.0  0.1214
  H  H107  1  0.097300  0.646700  0.056900  1.0  0.1154
  H  H108  1  0.024500  0.582600  0.093900  1.0  0.1309
  H  H109  1  0.081100  0.497000  0.125000  1.0  0.1094
  H  H110  1  0.194400  0.358700  0.166600  1.0  0.1367
  H  H111  1  0.245600  0.477100  0.241800  1.0  0.1246
  H  H112  1  0.228700  0.570400  0.156000  1.0  0.1216
  H  H113  1  0.646700  0.097300  0.943100  1.0  0.1153
  H  H114  1  0.582600  0.024500  0.906100  1.0  0.1296
  H  H115  1  0.497000  0.081100  0.875000  1.0  0.1094
  H  H116  1  0.358700  0.194400  0.833400  1.0  0.1367
  H  H117  1  0.477100  0.245600  0.758200  1.0  0.1239
  H  H118  1  0.570400  0.228700  0.844000  1.0  0.1208
  H  H119  1  0.353300  0.902700  0.943100  1.0  0.1153
  H  H120  1  0.417400  0.975500  0.906100  1.0  0.1297
  H  H121  1  0.503000  0.918900  0.875000  1.0  0.1094
  H  H122  1  0.641300  0.805600  0.833400  1.0  0.1367
  H  H123  1  0.522900  0.754400  0.758200  1.0  0.1236
  H  H124  1  0.429600  0.771300  0.844000  1.0  0.1211
  H  H125  1  0.597300  0.853300  0.443100  1.0  0.1146
  H  H126  1  0.524500  0.917400  0.406100  1.0  0.1311
  H  H127  1  0.581100  0.003000  0.375000  1.0  0.1091
  H  H128  1  0.694400  0.141300  0.333400  1.0  0.1375
  H  H129  1  0.745600  0.022900  0.258200  1.0  0.1239
  H  H130  1  0.728700  0.929600  0.344000  1.0  0.1217
  H  H131  1  0.402700  0.146700  0.443100  1.0  0.1144
  H  H132  1  0.475500  0.082600  0.406100  1.0  0.1294
  H  H133  1  0.418900  0.997000  0.375000  1.0  0.1091
  H  H134  1  0.305600  0.858700  0.333400  1.0  0.1374
  H  H135  1  0.254400  0.977100  0.258200  1.0  0.1236
  H  H136  1  0.271300  0.070400  0.344000  1.0  0.1212
  C  C137  1  0.005200  0.322400  0.393850  1.0  0.2582
  C  C138  1  0.039200  0.279500  0.416080  1.0  -0.0464
  C  C139  1  0.093300  0.313000  0.434680  1.0  -0.1116
  C  C140  1  0.110200  0.382700  0.430900  1.0  -0.0754
  C  C141  1  0.072800  0.426800  0.408400  1.0  -0.1274
  C  C142  1  0.021400  0.392500  0.390260  1.0  -0.1673
  C  C143  1  0.962900  0.287200  0.343650  1.0  0.2863
  C  C144  1  0.903000  0.293700  0.324630  1.0  -0.0579
  C  C145  1  0.908900  0.282600  0.292960  1.0  -0.1305
  C  C146  1  0.974100  0.264800  0.279670  1.0  0.0127
  C  C147  1  0.035800  0.262300  0.298600  1.0  -0.1178
  C  C148  1  0.030000  0.273300  0.331040  1.0  -0.0683
  C  C149  1  0.020600  0.201100  0.416180  1.0  0.702
  C  C150  1  0.134500  0.269300  0.458690  1.0  0.6951
  C  C151  1  0.107400  0.245600  0.283860  1.0  0.707
  C  C152  1  0.842300  0.284700  0.273010  1.0  0.6788
  C  C153  1  0.994800  0.677600  0.393850  1.0  0.259
  C  C154  1  0.960800  0.720500  0.416080  1.0  -0.0481
  C  C155  1  0.906700  0.687000  0.434680  1.0  -0.1125
  C  C156  1  0.889800  0.617300  0.430900  1.0  -0.074
  C  C157  1  0.927200  0.573200  0.408400  1.0  -0.1295
  C  C158  1  0.978600  0.607500  0.390260  1.0  -0.1674
  C  C159  1  0.037100  0.712800  0.343650  1.0  0.2838
  C  C160  1  0.097000  0.706300  0.324630  1.0  -0.0562
  C  C161  1  0.091100  0.717400  0.292960  1.0  -0.1308
  C  C162  1  0.025900  0.735200  0.279670  1.0  0.0124
  C  C163  1  0.964200  0.737700  0.298600  1.0  -0.1177
  C  C164  1  0.970000  0.726700  0.331040  1.0  -0.068
  C  C165  1  0.979400  0.798900  0.416180  1.0  0.7013
  C  C166  1  0.865500  0.730700  0.458690  1.0  0.6943
  C  C167  1  0.892600  0.754400  0.283860  1.0  0.708
  C  C168  1  0.157700  0.715300  0.273010  1.0  0.6782
  C  C169  1  0.177600  0.505200  0.893850  1.0  0.2592
  C  C170  1  0.220500  0.539200  0.916080  1.0  -0.0466
  C  C171  1  0.187000  0.593300  0.934680  1.0  -0.11
  C  C172  1  0.117300  0.610200  0.930900  1.0  -0.0736
  C  C173  1  0.073200  0.572800  0.908400  1.0  -0.1296
  C  C174  1  0.107500  0.521400  0.890260  1.0  -0.165
  C  C175  1  0.212800  0.462900  0.843650  1.0  0.2866
  C  C176  1  0.206300  0.403000  0.824630  1.0  -0.0568
  C  C177  1  0.217400  0.408900  0.792960  1.0  -0.1315
  C  C178  1  0.235200  0.474100  0.779670  1.0  0.0126
  C  C179  1  0.237700  0.535800  0.798600  1.0  -0.1169
  C  C180  1  0.226700  0.530000  0.831040  1.0  -0.0672
  C  C181  1  0.298900  0.520600  0.916180  1.0  0.6995
  C  C182  1  0.230700  0.634500  0.958690  1.0  0.6931
  C  C183  1  0.254400  0.607400  0.783860  1.0  0.7073
  C  C184  1  0.215300  0.342300  0.773010  1.0  0.6787
  C  C185  1  0.822400  0.494800  0.893850  1.0  0.2599
  C  C186  1  0.779500  0.460800  0.916080  1.0  -0.0473
  C  C187  1  0.813000  0.406700  0.934680  1.0  -0.1112
  C  C188  1  0.882700  0.389800  0.930900  1.0  -0.0734
  C  C189  1  0.926800  0.427200  0.908400  1.0  -0.1266
  C  C190  1  0.892500  0.478600  0.890260  1.0  -0.1646
  C  C191  1  0.787200  0.537100  0.843650  1.0  0.2869
  C  C192  1  0.793700  0.597000  0.824630  1.0  -0.0568
  C  C193  1  0.782600  0.591100  0.792960  1.0  -0.1317
  C  C194  1  0.764800  0.525900  0.779670  1.0  0.0135
  C  C195  1  0.762300  0.464200  0.798600  1.0  -0.1175
  C  C196  1  0.773300  0.470000  0.831040  1.0  -0.0662
  C  C197  1  0.701100  0.479400  0.916180  1.0  0.7008
  C  C198  1  0.769300  0.365500  0.958690  1.0  0.6926
  C  C199  1  0.745600  0.392600  0.783860  1.0  0.7073
  C  C200  1  0.784700  0.657700  0.773010  1.0  0.6787
  C  C201  1  0.494800  0.822400  0.106150  1.0  0.2591
  C  C202  1  0.460800  0.779500  0.083920  1.0  -0.0492
  C  C203  1  0.406700  0.813000  0.065320  1.0  -0.1122
  C  C204  1  0.389800  0.882700  0.069100  1.0  -0.0746
  C  C205  1  0.427200  0.926800  0.091600  1.0  -0.128
  C  C206  1  0.478600  0.892500  0.109740  1.0  -0.1684
  C  C207  1  0.537100  0.787200  0.156350  1.0  0.2844
  C  C208  1  0.597000  0.793700  0.175370  1.0  -0.0568
  C  C209  1  0.591100  0.782600  0.207040  1.0  -0.1306
  C  C210  1  0.525900  0.764800  0.220330  1.0  0.0148
  C  C211  1  0.464200  0.762300  0.201400  1.0  -0.117
  C  C212  1  0.470000  0.773300  0.168960  1.0  -0.0685
  C  C213  1  0.479400  0.701100  0.083820  1.0  0.7022
  C  C214  1  0.365500  0.769300  0.041310  1.0  0.6941
  C  C215  1  0.392600  0.745600  0.216140  1.0  0.7082
  C  C216  1  0.657700  0.784700  0.226990  1.0  0.6782
  C  C217  1  0.505200  0.177600  0.106150  1.0  0.2577
  C  C218  1  0.539200  0.220500  0.083920  1.0  -0.0473
  C  C219  1  0.593300  0.187000  0.065320  1.0  -0.1119
  C  C220  1  0.610200  0.117300  0.069100  1.0  -0.074
  C  C221  1  0.572800  0.073200  0.091600  1.0  -0.1287
  C  C222  1  0.521400  0.107500  0.109740  1.0  -0.1672
  C  C223  1  0.462900  0.212800  0.156350  1.0  0.2862
  C  C224  1  0.403000  0.206300  0.175370  1.0  -0.0571
  C  C225  1  0.408900  0.217400  0.207040  1.0  -0.1299
  C  C226  1  0.474100  0.235200  0.220330  1.0  0.0155
  C  C227  1  0.535800  0.237700  0.201400  1.0  -0.1178
  C  C228  1  0.530000  0.226700  0.168960  1.0  -0.0684
  C  C229  1  0.520600  0.298900  0.083820  1.0  0.7018
  C  C230  1  0.634500  0.230700  0.041310  1.0  0.6949
  C  C231  1  0.607400  0.254400  0.216140  1.0  0.7073
  C  C232  1  0.342300  0.215300  0.226990  1.0  0.6789
  C  C233  1  0.322400  0.005200  0.606150  1.0  0.2588
  C  C234  1  0.279500  0.039200  0.583920  1.0  -0.0482
  C  C235  1  0.313000  0.093300  0.565320  1.0  -0.111
  C  C236  1  0.382700  0.110200  0.569100  1.0  -0.0735
  C  C237  1  0.426800  0.072800  0.591600  1.0  -0.1256
  C  C238  1  0.392500  0.021400  0.609740  1.0  -0.1649
  C  C239  1  0.287200  0.962900  0.656350  1.0  0.2867
  C  C240  1  0.293700  0.903000  0.675370  1.0  -0.0564
  C  C241  1  0.282600  0.908900  0.707040  1.0  -0.1299
  C  C242  1  0.264800  0.974100  0.720330  1.0  0.0147
  C  C243  1  0.262300  0.035800  0.701400  1.0  -0.1165
  C  C244  1  0.273300  0.030000  0.668960  1.0  -0.0673
  C  C245  1  0.201100  0.020600  0.583820  1.0  0.7003
  C  C246  1  0.269300  0.134500  0.541310  1.0  0.6922
  C  C247  1  0.245600  0.107400  0.716140  1.0  0.7075
  C  C248  1  0.284700  0.842300  0.726990  1.0  0.679
  C  C249  1  0.677600  0.994800  0.606150  1.0  0.2604
  C  C250  1  0.720500  0.960800  0.583920  1.0  -0.0482
  C  C251  1  0.687000  0.906700  0.565320  1.0  -0.1095
  C  C252  1  0.617300  0.889800  0.569100  1.0  -0.0719
  C  C253  1  0.573200  0.927200  0.591600  1.0  -0.1305
  C  C254  1  0.607500  0.978600  0.609740  1.0  -0.1647
  C  C255  1  0.712800  0.037100  0.656350  1.0  0.2868
  C  C256  1  0.706300  0.097000  0.675370  1.0  -0.0571
  C  C257  1  0.717400  0.091100  0.707040  1.0  -0.1299
  C  C258  1  0.735200  0.025900  0.720330  1.0  0.0158
  C  C259  1  0.737700  0.964200  0.701400  1.0  -0.1168
  C  C260  1  0.726700  0.970000  0.668960  1.0  -0.0662
  C  C261  1  0.798900  0.979400  0.583820  1.0  0.7006
  C  C262  1  0.730700  0.865500  0.541310  1.0  0.6932
  C  C263  1  0.754400  0.892600  0.716140  1.0  0.7076
  C  C264  1  0.715300  0.157700  0.726990  1.0  0.6788
  C  C265  1  0.994800  0.677600  0.606150  1.0  0.2591
  C  C266  1  0.960800  0.720500  0.583920  1.0  -0.049
  C  C267  1  0.906700  0.687000  0.565320  1.0  -0.1121
  C  C268  1  0.889800  0.617300  0.569100  1.0  -0.0734
  C  C269  1  0.927200  0.573200  0.591600  1.0  -0.1296
  C  C270  1  0.978600  0.607500  0.609740  1.0  -0.1674
  C  C271  1  0.037100  0.712800  0.656350  1.0  0.2842
  C  C272  1  0.097000  0.706300  0.675370  1.0  -0.0576
  C  C273  1  0.091100  0.717400  0.707040  1.0  -0.129
  C  C274  1  0.025900  0.735200  0.720330  1.0  0.015
  C  C275  1  0.964200  0.737700  0.701400  1.0  -0.1169
  C  C276  1  0.970000  0.726700  0.668960  1.0  -0.0682
  C  C277  1  0.979400  0.798900  0.583820  1.0  0.7015
  C  C278  1  0.865500  0.730700  0.541310  1.0  0.6942
  C  C279  1  0.892600  0.754400  0.716140  1.0  0.7082
  C  C280  1  0.157700  0.715300  0.726990  1.0  0.6784
  C  C281  1  0.005200  0.322400  0.606150  1.0  0.258
  C  C282  1  0.039200  0.279500  0.583920  1.0  -0.0478
  C  C283  1  0.093300  0.313000  0.565320  1.0  -0.112
  C  C284  1  0.110200  0.382700  0.569100  1.0  -0.0749
  C  C285  1  0.072800  0.426800  0.591600  1.0  -0.1272
  C  C286  1  0.021400  0.392500  0.609740  1.0  -0.1684
  C  C287  1  0.962900  0.287200  0.656350  1.0  0.2864
  C  C288  1  0.903000  0.293700  0.675370  1.0  -0.0586
  C  C289  1  0.908900  0.282600  0.707040  1.0  -0.1292
  C  C290  1  0.974100  0.264800  0.720330  1.0  0.0152
  C  C291  1  0.035800  0.262300  0.701400  1.0  -0.1177
  C  C292  1  0.030000  0.273300  0.668960  1.0  -0.0687
  C  C293  1  0.020600  0.201100  0.583820  1.0  0.7023
  C  C294  1  0.134500  0.269300  0.541310  1.0  0.6948
  C  C295  1  0.107400  0.245600  0.716140  1.0  0.7073
  C  C296  1  0.842300  0.284700  0.726990  1.0  0.6788
  C  C297  1  0.822400  0.494800  0.106150  1.0  0.2602
  C  C298  1  0.779500  0.460800  0.083920  1.0  -0.0482
  C  C299  1  0.813000  0.406700  0.065320  1.0  -0.1112
  C  C300  1  0.882700  0.389800  0.069100  1.0  -0.0725
  C  C301  1  0.926800  0.427200  0.091600  1.0  -0.1259
  C  C302  1  0.892500  0.478600  0.109740  1.0  -0.1651
  C  C303  1  0.787200  0.537100  0.156350  1.0  0.2871
  C  C304  1  0.793700  0.597000  0.175370  1.0  -0.057
  C  C305  1  0.782600  0.591100  0.207040  1.0  -0.1317
  C  C306  1  0.764800  0.525900  0.220330  1.0  0.0148
  C  C307  1  0.762300  0.464200  0.201400  1.0  -0.1169
  C  C308  1  0.773300  0.470000  0.168960  1.0  -0.0664
  C  C309  1  0.701100  0.479400  0.083820  1.0  0.701
  C  C310  1  0.769300  0.365500  0.041310  1.0  0.6924
  C  C311  1  0.745600  0.392600  0.216140  1.0  0.7074
  C  C312  1  0.784700  0.657700  0.226990  1.0  0.6789
  C  C313  1  0.177600  0.505200  0.106150  1.0  0.2592
  C  C314  1  0.220500  0.539200  0.083920  1.0  -0.0478
  C  C315  1  0.187000  0.593300  0.065320  1.0  -0.1095
  C  C316  1  0.117300  0.610200  0.069100  1.0  -0.0727
  C  C317  1  0.073200  0.572800  0.091600  1.0  -0.1295
  C  C318  1  0.107500  0.521400  0.109740  1.0  -0.1651
  C  C319  1  0.212800  0.462900  0.156350  1.0  0.2865
  C  C320  1  0.206300  0.403000  0.175370  1.0  -0.0569
  C  C321  1  0.217400  0.408900  0.207040  1.0  -0.1305
  C  C322  1  0.235200  0.474100  0.220330  1.0  0.0157
  C  C323  1  0.237700  0.535800  0.201400  1.0  -0.1166
  C  C324  1  0.226700  0.530000  0.168960  1.0  -0.0669
  C  C325  1  0.298900  0.520600  0.083820  1.0  0.6997
  C  C326  1  0.230700  0.634500  0.041310  1.0  0.693
  C  C327  1  0.254400  0.607400  0.216140  1.0  0.7076
  C  C328  1  0.215300  0.342300  0.226990  1.0  0.6789
  C  C329  1  0.505200  0.177600  0.893850  1.0  0.258
  C  C330  1  0.539200  0.220500  0.916080  1.0  -0.0466
  C  C331  1  0.593300  0.187000  0.934680  1.0  -0.1121
  C  C332  1  0.610200  0.117300  0.930900  1.0  -0.0746
  C  C333  1  0.572800  0.073200  0.908400  1.0  -0.1287
  C  C334  1  0.521400  0.107500  0.890260  1.0  -0.1673
  C  C335  1  0.462900  0.212800  0.843650  1.0  0.2861
  C  C336  1  0.403000  0.206300  0.824630  1.0  -0.0569
  C  C337  1  0.408900  0.217400  0.792960  1.0  -0.1308
  C  C338  1  0.474100  0.235200  0.779670  1.0  0.0125
  C  C339  1  0.535800  0.237700  0.798600  1.0  -0.1179
  C  C340  1  0.530000  0.226700  0.831040  1.0  -0.068
  C  C341  1  0.520600  0.298900  0.916180  1.0  0.7015
  C  C342  1  0.634500  0.230700  0.958690  1.0  0.6951
  C  C343  1  0.607400  0.254400  0.783860  1.0  0.7071
  C  C344  1  0.342300  0.215300  0.773010  1.0  0.6788
  C  C345  1  0.494800  0.822400  0.893850  1.0  0.2587
  C  C346  1  0.460800  0.779500  0.916080  1.0  -0.0478
  C  C347  1  0.406700  0.813000  0.934680  1.0  -0.1121
  C  C348  1  0.389800  0.882700  0.930900  1.0  -0.0751
  C  C349  1  0.427200  0.926800  0.908400  1.0  -0.128
  C  C350  1  0.478600  0.892500  0.890260  1.0  -0.1677
  C  C351  1  0.537100  0.787200  0.843650  1.0  0.2841
  C  C352  1  0.597000  0.793700  0.824630  1.0  -0.0568
  C  C353  1  0.591100  0.782600  0.792960  1.0  -0.1308
  C  C354  1  0.525900  0.764800  0.779670  1.0  0.0126
  C  C355  1  0.464200  0.762300  0.798600  1.0  -0.1178
  C  C356  1  0.470000  0.773300  0.831040  1.0  -0.0681
  C  C357  1  0.479400  0.701100  0.916180  1.0  0.7018
  C  C358  1  0.365500  0.769300  0.958690  1.0  0.6944
  C  C359  1  0.392600  0.745600  0.783860  1.0  0.708
  C  C360  1  0.657700  0.784700  0.773010  1.0  0.6781
  C  C361  1  0.677600  0.994800  0.393850  1.0  0.2601
  C  C362  1  0.720500  0.960800  0.416080  1.0  -0.0473
  C  C363  1  0.687000  0.906700  0.434680  1.0  -0.1099
  C  C364  1  0.617300  0.889800  0.430900  1.0  -0.073
  C  C365  1  0.573200  0.927200  0.408400  1.0  -0.1307
  C  C366  1  0.607500  0.978600  0.390260  1.0  -0.1646
  C  C367  1  0.712800  0.037100  0.343650  1.0  0.2867
  C  C368  1  0.706300  0.097000  0.324630  1.0  -0.0578
  C  C369  1  0.717400  0.091100  0.292960  1.0  -0.1313
  C  C370  1  0.735200  0.025900  0.279670  1.0  0.013
  C  C371  1  0.737700  0.964200  0.298600  1.0  -0.1174
  C  C372  1  0.726700  0.970000  0.331040  1.0  -0.0661
  C  C373  1  0.798900  0.979400  0.416180  1.0  0.7003
  C  C374  1  0.730700  0.865500  0.458690  1.0  0.6934
  C  C375  1  0.754400  0.892600  0.283860  1.0  0.7074
  C  C376  1  0.715300  0.157700  0.273010  1.0  0.6787
  C  C377  1  0.322400  0.005200  0.393850  1.0  0.259
  C  C378  1  0.279500  0.039200  0.416080  1.0  -0.047
  C  C379  1  0.313000  0.093300  0.434680  1.0  -0.1112
  C  C380  1  0.382700  0.110200  0.430900  1.0  -0.0737
  C  C381  1  0.426800  0.072800  0.408400  1.0  -0.1262
  C  C382  1  0.392500  0.021400  0.390260  1.0  -0.1642
  C  C383  1  0.287200  0.962900  0.343650  1.0  0.2867
  C  C384  1  0.293700  0.903000  0.324630  1.0  -0.056
  C  C385  1  0.282600  0.908900  0.292960  1.0  -0.1316
  C  C386  1  0.264800  0.974100  0.279670  1.0  0.0132
  C  C387  1  0.262300  0.035800  0.298600  1.0  -0.1168
  C  C388  1  0.273300  0.030000  0.331040  1.0  -0.0675
  C  C389  1  0.201100  0.020600  0.416180  1.0  0.7001
  C  C390  1  0.269300  0.134500  0.458690  1.0  0.6924
  C  C391  1  0.245600  0.107400  0.283860  1.0  0.7072
  C  C392  1  0.284700  0.842300  0.273010  1.0  0.6789
  O  O393  1  0.059300  0.161400  0.399780  1.0  -0.6082
  O  O394  1  0.965700  0.182400  0.432390  1.0  -0.6163
  O  O395  1  0.108200  0.213400  0.468260  1.0  -0.5463
  O  O396  1  0.193800  0.298600  0.467910  1.0  -0.5729
  O  O397  1  0.162400  0.266700  0.297980  1.0  -0.5594
  O  O398  1  0.105800  0.212100  0.257950  1.0  -0.5706
  O  O399  1  0.845100  0.257700  0.245700  1.0  -0.5516
  O  O400  1  0.788000  0.314900  0.285460  1.0  -0.5687
  O  O401  1  0.950600  0.290900  0.375970  1.0  -0.2685
  O  O402  1  0.940700  0.838600  0.399780  1.0  -0.6071
  O  O403  1  0.034300  0.817600  0.432390  1.0  -0.6157
  O  O404  1  0.891800  0.786600  0.468260  1.0  -0.5454
  O  O405  1  0.806200  0.701400  0.467910  1.0  -0.5723
  O  O406  1  0.837600  0.733300  0.297980  1.0  -0.5585
  O  O407  1  0.894200  0.787900  0.257950  1.0  -0.5705
  O  O408  1  0.154900  0.742300  0.245700  1.0  -0.5506
  O  O409  1  0.212000  0.685100  0.285460  1.0  -0.5699
  O  O410  1  0.049400  0.709100  0.375970  1.0  -0.2675
  O  O411  1  0.338600  0.559300  0.899780  1.0  -0.6084
  O  O412  1  0.317600  0.465700  0.932390  1.0  -0.6207
  O  O413  1  0.286600  0.608200  0.968260  1.0  -0.546
  O  O414  1  0.201400  0.693800  0.967910  1.0  -0.5726
  O  O415  1  0.233300  0.662400  0.797980  1.0  -0.5592
  O  O416  1  0.287900  0.605800  0.757950  1.0  -0.5701
  O  O417  1  0.242300  0.345100  0.745700  1.0  -0.5529
  O  O418  1  0.185100  0.288000  0.785460  1.0  -0.5692
  O  O419  1  0.209100  0.450600  0.875970  1.0  -0.2652
  O  O420  1  0.661400  0.440700  0.899780  1.0  -0.6082
  O  O421  1  0.682400  0.534300  0.932390  1.0  -0.6158
  O  O422  1  0.713400  0.391800  0.968260  1.0  -0.545
  O  O423  1  0.798600  0.306200  0.967910  1.0  -0.5726
  O  O424  1  0.766700  0.337600  0.797980  1.0  -0.5593
  O  O425  1  0.712100  0.394200  0.757950  1.0  -0.5703
  O  O426  1  0.757700  0.654900  0.745700  1.0  -0.5526
  O  O427  1  0.814900  0.712000  0.785460  1.0  -0.5703
  O  O428  1  0.790900  0.549400  0.875970  1.0  -0.2636
  O  O429  1  0.440700  0.661400  0.100220  1.0  -0.6074
  O  O430  1  0.534300  0.682400  0.067610  1.0  -0.6148
  O  O431  1  0.391800  0.713400  0.031740  1.0  -0.5463
  O  O432  1  0.306200  0.798600  0.032090  1.0  -0.5728
  O  O433  1  0.337600  0.766700  0.202020  1.0  -0.5589
  O  O434  1  0.394200  0.712100  0.242050  1.0  -0.57
  O  O435  1  0.654900  0.757700  0.254300  1.0  -0.5502
  O  O436  1  0.712000  0.814900  0.214540  1.0  -0.5701
  O  O437  1  0.549400  0.790900  0.124030  1.0  -0.2688
  O  O438  1  0.559300  0.338600  0.100220  1.0  -0.6082
  O  O439  1  0.465700  0.317600  0.067610  1.0  -0.6157
  O  O440  1  0.608200  0.286600  0.031740  1.0  -0.5461
  O  O441  1  0.693800  0.201400  0.032090  1.0  -0.573
  O  O442  1  0.662400  0.233300  0.202020  1.0  -0.5583
  O  O443  1  0.605800  0.287900  0.242050  1.0  -0.5714
  O  O444  1  0.345100  0.242300  0.254300  1.0  -0.5508
  O  O445  1  0.288000  0.185100  0.214540  1.0  -0.5709
  O  O446  1  0.450600  0.209100  0.124030  1.0  -0.2673
  O  O447  1  0.161400  0.059300  0.600220  1.0  -0.6086
  O  O448  1  0.182400  0.965700  0.567610  1.0  -0.6176
  O  O449  1  0.213400  0.108200  0.531740  1.0  -0.5454
  O  O450  1  0.298600  0.193800  0.532090  1.0  -0.5722
  O  O451  1  0.266700  0.162400  0.702020  1.0  -0.559
  O  O452  1  0.212100  0.105800  0.742050  1.0  -0.5694
  O  O453  1  0.257700  0.845100  0.754300  1.0  -0.5512
  O  O454  1  0.314900  0.788000  0.714540  1.0  -0.571
  O  O455  1  0.290900  0.950600  0.624030  1.0  -0.2651
  O  O456  1  0.838600  0.940700  0.600220  1.0  -0.6082
  O  O457  1  0.817600  0.034300  0.567610  1.0  -0.6171
  O  O458  1  0.786600  0.891800  0.531740  1.0  -0.5453
  O  O459  1  0.701400  0.806200  0.532090  1.0  -0.5714
  O  O460  1  0.733300  0.837600  0.702020  1.0  -0.5584
  O  O461  1  0.787900  0.894200  0.742050  1.0  -0.5706
  O  O462  1  0.742300  0.154900  0.754300  1.0  -0.5523
  O  O463  1  0.685100  0.212000  0.714540  1.0  -0.5702
  O  O464  1  0.709100  0.049400  0.624030  1.0  -0.266
  O  O465  1  0.940700  0.838600  0.600220  1.0  -0.6075
  O  O466  1  0.034300  0.817600  0.567610  1.0  -0.6147
  O  O467  1  0.891800  0.786600  0.531740  1.0  -0.5454
  O  O468  1  0.806200  0.701400  0.532090  1.0  -0.5722
  O  O469  1  0.837600  0.733300  0.702020  1.0  -0.5586
  O  O470  1  0.894200  0.787900  0.742050  1.0  -0.5707
  O  O471  1  0.154900  0.742300  0.754300  1.0  -0.5502
  O  O472  1  0.212000  0.685100  0.714540  1.0  -0.5708
  O  O473  1  0.049400  0.709100  0.624030  1.0  -0.2676
  O  O474  1  0.059300  0.161400  0.600220  1.0  -0.6078
  O  O475  1  0.965700  0.182400  0.567610  1.0  -0.6148
  O  O476  1  0.108200  0.213400  0.531740  1.0  -0.5465
  O  O477  1  0.193800  0.298600  0.532090  1.0  -0.5729
  O  O478  1  0.162400  0.266700  0.702020  1.0  -0.559
  O  O479  1  0.105800  0.212100  0.742050  1.0  -0.5701
  O  O480  1  0.845100  0.257700  0.754300  1.0  -0.5512
  O  O481  1  0.788000  0.314900  0.714540  1.0  -0.5699
  O  O482  1  0.950600  0.290900  0.624030  1.0  -0.2691
  O  O483  1  0.661400  0.440700  0.100220  1.0  -0.6083
  O  O484  1  0.682400  0.534300  0.067610  1.0  -0.617
  O  O485  1  0.713400  0.391800  0.031740  1.0  -0.5451
  O  O486  1  0.798600  0.306200  0.032090  1.0  -0.5727
  O  O487  1  0.766700  0.337600  0.202020  1.0  -0.559
  O  O488  1  0.712100  0.394200  0.242050  1.0  -0.5702
  O  O489  1  0.757700  0.654900  0.254300  1.0  -0.552
  O  O490  1  0.814900  0.712000  0.214540  1.0  -0.57
  O  O491  1  0.790900  0.549400  0.124030  1.0  -0.2652
  O  O492  1  0.338600  0.559300  0.100220  1.0  -0.6083
  O  O493  1  0.317600  0.465700  0.067610  1.0  -0.6181
  O  O494  1  0.286600  0.608200  0.031740  1.0  -0.546
  O  O495  1  0.201400  0.693800  0.032090  1.0  -0.5726
  O  O496  1  0.233300  0.662400  0.202020  1.0  -0.5589
  O  O497  1  0.287900  0.605800  0.242050  1.0  -0.5698
  O  O498  1  0.242300  0.345100  0.254300  1.0  -0.5511
  O  O499  1  0.185100  0.288000  0.214540  1.0  -0.5708
  O  O500  1  0.209100  0.450600  0.124030  1.0  -0.265
  O  O501  1  0.559300  0.338600  0.899780  1.0  -0.6085
  O  O502  1  0.465700  0.317600  0.932390  1.0  -0.6162
  O  O503  1  0.608200  0.286600  0.968260  1.0  -0.5458
  O  O504  1  0.693800  0.201400  0.967910  1.0  -0.5731
  O  O505  1  0.662400  0.233300  0.797980  1.0  -0.5586
  O  O506  1  0.605800  0.287900  0.757950  1.0  -0.5715
  O  O507  1  0.345100  0.242300  0.745700  1.0  -0.5511
  O  O508  1  0.288000  0.185100  0.785460  1.0  -0.5702
  O  O509  1  0.450600  0.209100  0.875970  1.0  -0.2668
  O  O510  1  0.440700  0.661400  0.899780  1.0  -0.6074
  O  O511  1  0.534300  0.682400  0.932390  1.0  -0.6158
  O  O512  1  0.391800  0.713400  0.968260  1.0  -0.5464
  O  O513  1  0.306200  0.798600  0.967910  1.0  -0.5727
  O  O514  1  0.337600  0.766700  0.797980  1.0  -0.5591
  O  O515  1  0.394200  0.712100  0.757950  1.0  -0.5703
  O  O516  1  0.654900  0.757700  0.745700  1.0  -0.5521
  O  O517  1  0.712000  0.814900  0.785460  1.0  -0.5692
  O  O518  1  0.549400  0.790900  0.875970  1.0  -0.2683
  O  O519  1  0.838600  0.940700  0.399780  1.0  -0.608
  O  O520  1  0.817600  0.034300  0.432390  1.0  -0.6157
  O  O521  1  0.786600  0.891800  0.468260  1.0  -0.5455
  O  O522  1  0.701400  0.806200  0.467910  1.0  -0.5714
  O  O523  1  0.733300  0.837600  0.297980  1.0  -0.5587
  O  O524  1  0.787900  0.894200  0.257950  1.0  -0.5709
  O  O525  1  0.742300  0.154900  0.245700  1.0  -0.5536
  O  O526  1  0.685100  0.212000  0.285460  1.0  -0.5694
  O  O527  1  0.709100  0.049400  0.375970  1.0  -0.265
  O  O528  1  0.161400  0.059300  0.399780  1.0  -0.6088
  O  O529  1  0.182400  0.965700  0.432390  1.0  -0.6208
  O  O530  1  0.213400  0.108200  0.468260  1.0  -0.5455
  O  O531  1  0.298600  0.193800  0.467910  1.0  -0.5721
  O  O532  1  0.266700  0.162400  0.297980  1.0  -0.5592
  O  O533  1  0.212100  0.105800  0.257950  1.0  -0.5698
  O  O534  1  0.257700  0.845100  0.245700  1.0  -0.5525
  O  O535  1  0.314900  0.788000  0.285460  1.0  -0.5711
  O  O536  1  0.290900  0.950600  0.375970  1.0  -0.2652
  O  O537  1  0.950400  0.049600  0.395430  1.0  -0.8069
  O  O538  1  0.049600  0.950400  0.395430  1.0  -0.8067
  O  O539  1  0.450400  0.450400  0.895430  1.0  -0.8068
  O  O540  1  0.549600  0.549600  0.895430  1.0  -0.8067
  O  O541  1  0.549600  0.549600  0.104570  1.0  -0.8069
  O  O542  1  0.450400  0.450400  0.104570  1.0  -0.8075
  O  O543  1  0.049600  0.950400  0.604570  1.0  -0.8073
  O  O544  1  0.950400  0.049600  0.604570  1.0  -0.8072
