# generated using pymatgen
data_K2Cu7H24(C32O19)2
_symmetry_space_group_name_H-M   'P 1'
_cell_length_a   27.53400000
_cell_length_b   21.63000000
_cell_length_c   19.29680000
_cell_angle_alpha   90.00000000
_cell_angle_beta   120.52700000
_cell_angle_gamma   90.00000000
_symmetry_Int_Tables_number   1
_chemical_formula_structural   K2Cu7H24(C32O19)2
_chemical_formula_sum   'K8 Cu28 H96 C256 O152'
_cell_volume   9899.44608910
_cell_formula_units_Z   4
loop_
 _symmetry_equiv_pos_site_id
 _symmetry_equiv_pos_as_xyz
  1  'x, y, z'
loop_
 _atom_site_type_symbol
 _atom_site_label
 _atom_site_symmetry_multiplicity
 _atom_site_fract_x
 _atom_site_fract_y
 _atom_site_fract_z
 _atom_site_occupancy
 _atom_site_charge
  K  K1  1  0.086380  0.243180  0.315570  1.0  0.962
  K  K2  1  0.586380  0.743180  0.315570  1.0  0.962
  K  K3  1  0.913620  0.243180  0.184430  1.0  0.9131
  K  K4  1  0.413620  0.743180  0.184430  1.0  0.9131
  K  K5  1  0.913620  0.756820  0.684430  1.0  0.9135
  K  K6  1  0.413620  0.256820  0.684430  1.0  0.9135
  K  K7  1  0.086380  0.756820  0.815570  1.0  0.9631
  K  K8  1  0.586380  0.256820  0.815570  1.0  0.9631
  Cu  Cu9  1  0.120880  0.173350  0.131090  1.0  0.9339
  Cu  Cu10  1  0.213690  0.111780  0.165280  1.0  0.9164
  Cu  Cu11  1  0.189760  0.182030  0.412580  1.0  1.0269
  Cu  Cu12  1  0.620880  0.673350  0.131090  1.0  0.9339
  Cu  Cu13  1  0.713690  0.611780  0.165280  1.0  0.9164
  Cu  Cu14  1  0.689760  0.682030  0.412580  1.0  1.0269
  Cu  Cu15  1  0.879120  0.173350  0.368910  1.0  0.9333
  Cu  Cu16  1  0.786310  0.111780  0.334720  1.0  0.9181
  Cu  Cu17  1  0.810240  0.182030  0.087420  1.0  1.0266
  Cu  Cu18  1  0.379120  0.673350  0.368910  1.0  0.9333
  Cu  Cu19  1  0.286310  0.611780  0.334720  1.0  0.9181
  Cu  Cu20  1  0.310240  0.682030  0.087420  1.0  1.0266
  Cu  Cu21  1  0.879120  0.826650  0.868910  1.0  0.9331
  Cu  Cu22  1  0.786310  0.888220  0.834720  1.0  0.9179
  Cu  Cu23  1  0.810240  0.817970  0.587420  1.0  1.0275
  Cu  Cu24  1  0.379120  0.326650  0.868910  1.0  0.9331
  Cu  Cu25  1  0.286310  0.388220  0.834720  1.0  0.9179
  Cu  Cu26  1  0.310240  0.317970  0.587420  1.0  1.0275
  Cu  Cu27  1  0.120880  0.826650  0.631090  1.0  0.9359
  Cu  Cu28  1  0.213690  0.888220  0.665280  1.0  0.918
  Cu  Cu29  1  0.189760  0.817970  0.912580  1.0  1.0278
  Cu  Cu30  1  0.620880  0.326650  0.631090  1.0  0.9359
  Cu  Cu31  1  0.713690  0.388220  0.665280  1.0  0.918
  Cu  Cu32  1  0.689760  0.317970  0.912580  1.0  1.0278
  Cu  Cu33  1  0.000000  0.410270  0.750000  1.0  0.4459
  Cu  Cu34  1  0.500000  0.910270  0.750000  1.0  0.4459
  Cu  Cu35  1  0.000000  0.589730  0.250000  1.0  0.4459
  Cu  Cu36  1  0.500000  0.089730  0.250000  1.0  0.4459
  H  H37  1  0.191900  0.956900  0.466900  1.0  0.1325
  H  H38  1  0.111900  0.900800  0.386300  1.0  0.1038
  H  H39  1  0.055600  0.924300  0.249900  1.0  0.1451
  H  H40  1  0.020800  0.088600  0.184500  1.0  0.1315
  H  H41  1  0.868600  0.039800  0.999600  1.0  0.1123
  H  H42  1  0.004300  0.936900  0.055300  1.0  0.1356
  H  H43  1  0.196200  0.112100  0.581200  1.0  0.1128
  H  H44  1  0.169200  0.059000  0.659800  1.0  0.1146
  H  H45  1  0.191400  0.097900  0.784600  1.0  0.1271
  H  H46  1  0.166200  0.272600  0.775500  1.0  0.1235
  H  H47  1  0.106700  0.275600  0.926700  1.0  0.1323
  H  H48  1  0.236300  0.165500  0.972400  1.0  0.1359
  H  H49  1  0.691900  0.456900  0.466900  1.0  0.1325
  H  H50  1  0.611900  0.400800  0.386300  1.0  0.1038
  H  H51  1  0.555600  0.424300  0.249900  1.0  0.1451
  H  H52  1  0.520800  0.588600  0.184500  1.0  0.1315
  H  H53  1  0.368600  0.539800  0.999600  1.0  0.1123
  H  H54  1  0.504300  0.436900  0.055300  1.0  0.1356
  H  H55  1  0.696200  0.612100  0.581200  1.0  0.1128
  H  H56  1  0.669200  0.559000  0.659800  1.0  0.1146
  H  H57  1  0.691400  0.597900  0.784600  1.0  0.1271
  H  H58  1  0.666200  0.772600  0.775500  1.0  0.1235
  H  H59  1  0.606700  0.775600  0.926700  1.0  0.1323
  H  H60  1  0.736300  0.665500  0.972400  1.0  0.1359
  H  H61  1  0.808100  0.956900  0.033100  1.0  0.1314
  H  H62  1  0.888100  0.900800  0.113700  1.0  0.1031
  H  H63  1  0.944400  0.924300  0.250100  1.0  0.1453
  H  H64  1  0.979200  0.088600  0.315500  1.0  0.1317
  H  H65  1  0.131400  0.039800  0.500400  1.0  0.1123
  H  H66  1  0.995700  0.936900  0.444700  1.0  0.136
  H  H67  1  0.803800  0.112100  0.918800  1.0  0.1128
  H  H68  1  0.830800  0.059000  0.840200  1.0  0.1141
  H  H69  1  0.808600  0.097900  0.715400  1.0  0.1277
  H  H70  1  0.833800  0.272600  0.724500  1.0  0.1236
  H  H71  1  0.893300  0.275600  0.573300  1.0  0.132
  H  H72  1  0.763700  0.165500  0.527600  1.0  0.1358
  H  H73  1  0.308100  0.456900  0.033100  1.0  0.1314
  H  H74  1  0.388100  0.400800  0.113700  1.0  0.1031
  H  H75  1  0.444400  0.424300  0.250100  1.0  0.1453
  H  H76  1  0.479200  0.588600  0.315500  1.0  0.1317
  H  H77  1  0.631400  0.539800  0.500400  1.0  0.1123
  H  H78  1  0.495700  0.436900  0.444700  1.0  0.136
  H  H79  1  0.303800  0.612100  0.918800  1.0  0.1128
  H  H80  1  0.330800  0.559000  0.840200  1.0  0.1141
  H  H81  1  0.308600  0.597900  0.715400  1.0  0.1277
  H  H82  1  0.333800  0.772600  0.724500  1.0  0.1236
  H  H83  1  0.393300  0.775600  0.573300  1.0  0.132
  H  H84  1  0.263700  0.665500  0.527600  1.0  0.1358
  H  H85  1  0.808100  0.043100  0.533100  1.0  0.1316
  H  H86  1  0.888100  0.099200  0.613700  1.0  0.1034
  H  H87  1  0.944400  0.075700  0.750100  1.0  0.1453
  H  H88  1  0.979200  0.911400  0.815500  1.0  0.1322
  H  H89  1  0.131400  0.960200  0.000400  1.0  0.1124
  H  H90  1  0.995700  0.063100  0.944700  1.0  0.1353
  H  H91  1  0.803800  0.887900  0.418800  1.0  0.1126
  H  H92  1  0.830800  0.941000  0.340200  1.0  0.1142
  H  H93  1  0.808600  0.902100  0.215400  1.0  0.1279
  H  H94  1  0.833800  0.727400  0.224500  1.0  0.1236
  H  H95  1  0.893300  0.724400  0.073300  1.0  0.1317
  H  H96  1  0.763700  0.834500  0.027600  1.0  0.1359
  H  H97  1  0.308100  0.543100  0.533100  1.0  0.1316
  H  H98  1  0.388100  0.599200  0.613700  1.0  0.1034
  H  H99  1  0.444400  0.575700  0.750100  1.0  0.1453
  H  H100  1  0.479200  0.411400  0.815500  1.0  0.1322
  H  H101  1  0.631400  0.460200  0.000400  1.0  0.1124
  H  H102  1  0.495700  0.563100  0.944700  1.0  0.1353
  H  H103  1  0.303800  0.387900  0.418800  1.0  0.1126
  H  H104  1  0.330800  0.441000  0.340200  1.0  0.1142
  H  H105  1  0.308600  0.402100  0.215400  1.0  0.1279
  H  H106  1  0.333800  0.227400  0.224500  1.0  0.1236
  H  H107  1  0.393300  0.224400  0.073300  1.0  0.1317
  H  H108  1  0.263700  0.334500  0.027600  1.0  0.1359
  H  H109  1  0.191900  0.043100  0.966900  1.0  0.1324
  H  H110  1  0.111900  0.099200  0.886300  1.0  0.1037
  H  H111  1  0.055600  0.075700  0.749900  1.0  0.1453
  H  H112  1  0.020800  0.911400  0.684500  1.0  0.1323
  H  H113  1  0.868600  0.960200  0.499600  1.0  0.112
  H  H114  1  0.004300  0.063100  0.555300  1.0  0.1352
  H  H115  1  0.196200  0.887900  0.081200  1.0  0.1128
  H  H116  1  0.169200  0.941000  0.159800  1.0  0.1146
  H  H117  1  0.191400  0.902100  0.284600  1.0  0.1274
  H  H118  1  0.166200  0.727400  0.275500  1.0  0.124
  H  H119  1  0.106700  0.724400  0.426700  1.0  0.1324
  H  H120  1  0.236300  0.834500  0.472400  1.0  0.1357
  H  H121  1  0.691900  0.543100  0.966900  1.0  0.1324
  H  H122  1  0.611900  0.599200  0.886300  1.0  0.1037
  H  H123  1  0.555600  0.575700  0.749900  1.0  0.1453
  H  H124  1  0.520800  0.411400  0.684500  1.0  0.1323
  H  H125  1  0.368600  0.460200  0.499600  1.0  0.112
  H  H126  1  0.504300  0.563100  0.555300  1.0  0.1352
  H  H127  1  0.696200  0.387900  0.081200  1.0  0.1128
  H  H128  1  0.669200  0.441000  0.159800  1.0  0.1146
  H  H129  1  0.691400  0.402100  0.284600  1.0  0.1274
  H  H130  1  0.666200  0.227400  0.275500  1.0  0.124
  H  H131  1  0.606700  0.224400  0.426700  1.0  0.1324
  H  H132  1  0.736300  0.334500  0.472400  1.0  0.1357
  C  C133  1  0.105230  0.993400  0.251800  1.0  0.29
  C  C134  1  0.150840  0.030100  0.297900  1.0  -0.0556
  C  C135  1  0.184100  0.017200  0.380000  1.0  -0.1411
  C  C136  1  0.169400  0.966900  0.412800  1.0  -0.0794
  C  C137  1  0.122000  0.933100  0.364400  1.0  -0.0899
  C  C138  1  0.088400  0.946500  0.282500  1.0  -0.1673
  C  C139  1  0.021270  0.010800  0.126800  1.0  0.3011
  C  C140  1  0.998100  0.062100  0.142300  1.0  -0.0761
  C  C141  1  0.940300  0.073800  0.094000  1.0  -0.1509
  C  C142  1  0.907200  0.033000  0.031600  1.0  -0.0425
  C  C143  1  0.931700  0.982160  0.017200  1.0  -0.1489
  C  C144  1  0.988250  0.971200  0.064900  1.0  -0.1364
  C  C145  1  0.164880  0.078600  0.255400  1.0  0.7089
  C  C146  1  0.233300  0.056300  0.435100  1.0  0.7175
  C  C147  1  0.894840  0.937600  0.952000  1.0  0.6793
  C  C148  1  0.914000  0.128200  0.108800  1.0  0.7291
  C  C149  1  0.230400  0.174800  0.777600  1.0  0.2278
  C  C150  1  0.246700  0.208000  0.731300  1.0  -0.0582
  C  C151  1  0.234100  0.183700  0.655900  1.0  -0.1441
  C  C152  1  0.205000  0.128300  0.631000  1.0  -0.0064
  C  C153  1  0.188800  0.096000  0.678100  1.0  -0.0785
  C  C154  1  0.201700  0.119200  0.752300  1.0  -0.1505
  C  C155  1  0.208000  0.215700  0.871100  1.0  0.3011
  C  C156  1  0.167800  0.259000  0.822400  1.0  -0.0808
  C  C157  1  0.131200  0.281400  0.842900  1.0  -0.1191
  C  C158  1  0.132300  0.260300  0.913000  1.0  -0.0114
  C  C159  1  0.171000  0.217400  0.959900  1.0  -0.1193
  C  C160  1  0.209600  0.194700  0.939800  1.0  -0.1007
  C  C161  1  0.280300  0.264700  0.767000  1.0  0.7114
  C  C162  1  0.252000  0.215700  0.605000  1.0  0.7349
  C  C163  1  0.172400  0.191600  0.032900  1.0  0.6794
  C  C164  1  0.091000  0.329600  0.792800  1.0  0.6832
  C  C165  1  0.605230  0.493400  0.251800  1.0  0.29
  C  C166  1  0.650840  0.530100  0.297900  1.0  -0.0556
  C  C167  1  0.684100  0.517200  0.380000  1.0  -0.1411
  C  C168  1  0.669400  0.466900  0.412800  1.0  -0.0794
  C  C169  1  0.622000  0.433100  0.364400  1.0  -0.0899
  C  C170  1  0.588400  0.446500  0.282500  1.0  -0.1673
  C  C171  1  0.521270  0.510800  0.126800  1.0  0.3011
  C  C172  1  0.498100  0.562100  0.142300  1.0  -0.0761
  C  C173  1  0.440300  0.573800  0.094000  1.0  -0.1509
  C  C174  1  0.407200  0.533000  0.031600  1.0  -0.0425
  C  C175  1  0.431700  0.482160  0.017200  1.0  -0.1489
  C  C176  1  0.488250  0.471200  0.064900  1.0  -0.1364
  C  C177  1  0.664880  0.578600  0.255400  1.0  0.7089
  C  C178  1  0.733300  0.556300  0.435100  1.0  0.7175
  C  C179  1  0.394840  0.437600  0.952000  1.0  0.6793
  C  C180  1  0.414000  0.628200  0.108800  1.0  0.7291
  C  C181  1  0.730400  0.674800  0.777600  1.0  0.2278
  C  C182  1  0.746700  0.708000  0.731300  1.0  -0.0582
  C  C183  1  0.734100  0.683700  0.655900  1.0  -0.1441
  C  C184  1  0.705000  0.628300  0.631000  1.0  -0.0064
  C  C185  1  0.688800  0.596000  0.678100  1.0  -0.0785
  C  C186  1  0.701700  0.619200  0.752300  1.0  -0.1505
  C  C187  1  0.708000  0.715700  0.871100  1.0  0.3011
  C  C188  1  0.667800  0.759000  0.822400  1.0  -0.0808
  C  C189  1  0.631200  0.781400  0.842900  1.0  -0.1191
  C  C190  1  0.632300  0.760300  0.913000  1.0  -0.0114
  C  C191  1  0.671000  0.717400  0.959900  1.0  -0.1193
  C  C192  1  0.709600  0.694700  0.939800  1.0  -0.1007
  C  C193  1  0.780300  0.764700  0.767000  1.0  0.7114
  C  C194  1  0.752000  0.715700  0.605000  1.0  0.7349
  C  C195  1  0.672400  0.691600  0.032900  1.0  0.6794
  C  C196  1  0.591000  0.829600  0.792800  1.0  0.6832
  C  C197  1  0.894770  0.993400  0.248200  1.0  0.2901
  C  C198  1  0.849160  0.030100  0.202100  1.0  -0.056
  C  C199  1  0.815900  0.017200  0.120000  1.0  -0.1408
  C  C200  1  0.830600  0.966900  0.087200  1.0  -0.0795
  C  C201  1  0.878000  0.933100  0.135600  1.0  -0.0905
  C  C202  1  0.911600  0.946500  0.217500  1.0  -0.168
  C  C203  1  0.978730  0.010800  0.373200  1.0  0.3008
  C  C204  1  0.001900  0.062100  0.357700  1.0  -0.0785
  C  C205  1  0.059700  0.073800  0.406000  1.0  -0.1508
  C  C206  1  0.092800  0.033000  0.468400  1.0  -0.0421
  C  C207  1  0.068300  0.982160  0.482800  1.0  -0.1499
  C  C208  1  0.011750  0.971200  0.435100  1.0  -0.1361
  C  C209  1  0.835120  0.078600  0.244600  1.0  0.7096
  C  C210  1  0.766700  0.056300  0.064900  1.0  0.7165
  C  C211  1  0.105160  0.937600  0.548000  1.0  0.6793
  C  C212  1  0.086000  0.128200  0.391200  1.0  0.7293
  C  C213  1  0.769600  0.174800  0.722400  1.0  0.2278
  C  C214  1  0.753300  0.208000  0.768700  1.0  -0.0573
  C  C215  1  0.765900  0.183700  0.844100  1.0  -0.1439
  C  C216  1  0.795000  0.128300  0.869000  1.0  -0.0061
  C  C217  1  0.811200  0.096000  0.821900  1.0  -0.0798
  C  C218  1  0.798300  0.119200  0.747700  1.0  -0.1481
  C  C219  1  0.792000  0.215700  0.628900  1.0  0.301
  C  C220  1  0.832200  0.259000  0.677600  1.0  -0.0841
  C  C221  1  0.868800  0.281400  0.657100  1.0  -0.1171
  C  C222  1  0.867700  0.260300  0.587000  1.0  -0.0116
  C  C223  1  0.829000  0.217400  0.540100  1.0  -0.1195
  C  C224  1  0.790400  0.194700  0.560200  1.0  -0.0998
  C  C225  1  0.719700  0.264700  0.733000  1.0  0.7107
  C  C226  1  0.748000  0.215700  0.895000  1.0  0.7337
  C  C227  1  0.827600  0.191600  0.467100  1.0  0.6803
  C  C228  1  0.909000  0.329600  0.707200  1.0  0.6819
  C  C229  1  0.394770  0.493400  0.248200  1.0  0.2901
  C  C230  1  0.349160  0.530100  0.202100  1.0  -0.056
  C  C231  1  0.315900  0.517200  0.120000  1.0  -0.1408
  C  C232  1  0.330600  0.466900  0.087200  1.0  -0.0795
  C  C233  1  0.378000  0.433100  0.135600  1.0  -0.0905
  C  C234  1  0.411600  0.446500  0.217500  1.0  -0.168
  C  C235  1  0.478730  0.510800  0.373200  1.0  0.3008
  C  C236  1  0.501900  0.562100  0.357700  1.0  -0.0785
  C  C237  1  0.559700  0.573800  0.406000  1.0  -0.1508
  C  C238  1  0.592800  0.533000  0.468400  1.0  -0.0421
  C  C239  1  0.568300  0.482160  0.482800  1.0  -0.1499
  C  C240  1  0.511750  0.471200  0.435100  1.0  -0.1361
  C  C241  1  0.335120  0.578600  0.244600  1.0  0.7096
  C  C242  1  0.266700  0.556300  0.064900  1.0  0.7165
  C  C243  1  0.605160  0.437600  0.548000  1.0  0.6793
  C  C244  1  0.586000  0.628200  0.391200  1.0  0.7293
  C  C245  1  0.269600  0.674800  0.722400  1.0  0.2278
  C  C246  1  0.253300  0.708000  0.768700  1.0  -0.0573
  C  C247  1  0.265900  0.683700  0.844100  1.0  -0.1439
  C  C248  1  0.295000  0.628300  0.869000  1.0  -0.0061
  C  C249  1  0.311200  0.596000  0.821900  1.0  -0.0798
  C  C250  1  0.298300  0.619200  0.747700  1.0  -0.1481
  C  C251  1  0.292000  0.715700  0.628900  1.0  0.301
  C  C252  1  0.332200  0.759000  0.677600  1.0  -0.0841
  C  C253  1  0.368800  0.781400  0.657100  1.0  -0.1171
  C  C254  1  0.367700  0.760300  0.587000  1.0  -0.0116
  C  C255  1  0.329000  0.717400  0.540100  1.0  -0.1195
  C  C256  1  0.290400  0.694700  0.560200  1.0  -0.0998
  C  C257  1  0.219700  0.764700  0.733000  1.0  0.7107
  C  C258  1  0.248000  0.715700  0.895000  1.0  0.7337
  C  C259  1  0.327600  0.691600  0.467100  1.0  0.6803
  C  C260  1  0.409000  0.829600  0.707200  1.0  0.6819
  C  C261  1  0.894770  0.006600  0.748200  1.0  0.2901
  C  C262  1  0.849160  0.969900  0.702100  1.0  -0.0562
  C  C263  1  0.815900  0.982800  0.620000  1.0  -0.141
  C  C264  1  0.830600  0.033100  0.587200  1.0  -0.0793
  C  C265  1  0.878000  0.066900  0.635600  1.0  -0.089
  C  C266  1  0.911600  0.053500  0.717500  1.0  -0.1665
  C  C267  1  0.978730  0.989200  0.873200  1.0  0.3008
  C  C268  1  0.001900  0.937900  0.857700  1.0  -0.0775
  C  C269  1  0.059700  0.926200  0.906000  1.0  -0.1514
  C  C270  1  0.092800  0.967000  0.968400  1.0  -0.0424
  C  C271  1  0.068300  0.017840  0.982800  1.0  -0.1497
  C  C272  1  0.011750  0.028800  0.935100  1.0  -0.1386
  C  C273  1  0.835120  0.921400  0.744600  1.0  0.7092
  C  C274  1  0.766700  0.943700  0.564900  1.0  0.7159
  C  C275  1  0.105160  0.062400  0.048000  1.0  0.679
  C  C276  1  0.086000  0.871800  0.891200  1.0  0.7291
  C  C277  1  0.769600  0.825200  0.222400  1.0  0.2274
  C  C278  1  0.753300  0.792000  0.268700  1.0  -0.0574
  C  C279  1  0.765900  0.816300  0.344100  1.0  -0.1441
  C  C280  1  0.795000  0.871700  0.369000  1.0  -0.0063
  C  C281  1  0.811200  0.904000  0.321900  1.0  -0.0801
  C  C282  1  0.798300  0.880800  0.247700  1.0  -0.1474
  C  C283  1  0.792000  0.784300  0.128900  1.0  0.3014
  C  C284  1  0.832200  0.741000  0.177600  1.0  -0.0842
  C  C285  1  0.868800  0.718600  0.157100  1.0  -0.1178
  C  C286  1  0.867700  0.739700  0.087000  1.0  -0.0118
  C  C287  1  0.829000  0.782600  0.040100  1.0  -0.1191
  C  C288  1  0.790400  0.805300  0.060200  1.0  -0.1006
  C  C289  1  0.719700  0.735300  0.233000  1.0  0.71
  C  C290  1  0.748000  0.784300  0.395000  1.0  0.7338
  C  C291  1  0.827600  0.808400  0.967100  1.0  0.6804
  C  C292  1  0.909000  0.670400  0.207200  1.0  0.6841
  C  C293  1  0.394770  0.506600  0.748200  1.0  0.2901
  C  C294  1  0.349160  0.469900  0.702100  1.0  -0.0562
  C  C295  1  0.315900  0.482800  0.620000  1.0  -0.141
  C  C296  1  0.330600  0.533100  0.587200  1.0  -0.0793
  C  C297  1  0.378000  0.566900  0.635600  1.0  -0.089
  C  C298  1  0.411600  0.553500  0.717500  1.0  -0.1665
  C  C299  1  0.478730  0.489200  0.873200  1.0  0.3008
  C  C300  1  0.501900  0.437900  0.857700  1.0  -0.0775
  C  C301  1  0.559700  0.426200  0.906000  1.0  -0.1514
  C  C302  1  0.592800  0.467000  0.968400  1.0  -0.0424
  C  C303  1  0.568300  0.517840  0.982800  1.0  -0.1497
  C  C304  1  0.511750  0.528800  0.935100  1.0  -0.1386
  C  C305  1  0.335120  0.421400  0.744600  1.0  0.7092
  C  C306  1  0.266700  0.443700  0.564900  1.0  0.7159
  C  C307  1  0.605160  0.562400  0.048000  1.0  0.679
  C  C308  1  0.586000  0.371800  0.891200  1.0  0.7291
  C  C309  1  0.269600  0.325200  0.222400  1.0  0.2274
  C  C310  1  0.253300  0.292000  0.268700  1.0  -0.0574
  C  C311  1  0.265900  0.316300  0.344100  1.0  -0.1441
  C  C312  1  0.295000  0.371700  0.369000  1.0  -0.0063
  C  C313  1  0.311200  0.404000  0.321900  1.0  -0.0801
  C  C314  1  0.298300  0.380800  0.247700  1.0  -0.1474
  C  C315  1  0.292000  0.284300  0.128900  1.0  0.3014
  C  C316  1  0.332200  0.241000  0.177600  1.0  -0.0842
  C  C317  1  0.368800  0.218600  0.157100  1.0  -0.1178
  C  C318  1  0.367700  0.239700  0.087000  1.0  -0.0118
  C  C319  1  0.329000  0.282600  0.040100  1.0  -0.1191
  C  C320  1  0.290400  0.305300  0.060200  1.0  -0.1006
  C  C321  1  0.219700  0.235300  0.233000  1.0  0.71
  C  C322  1  0.248000  0.284300  0.395000  1.0  0.7338
  C  C323  1  0.327600  0.308400  0.967100  1.0  0.6804
  C  C324  1  0.409000  0.170400  0.207200  1.0  0.6841
  C  C325  1  0.105230  0.006600  0.751800  1.0  0.2898
  C  C326  1  0.150840  0.969900  0.797900  1.0  -0.0557
  C  C327  1  0.184100  0.982800  0.880000  1.0  -0.1411
  C  C328  1  0.169400  0.033100  0.912800  1.0  -0.0799
  C  C329  1  0.122000  0.066900  0.864400  1.0  -0.0887
  C  C330  1  0.088400  0.053500  0.782500  1.0  -0.1669
  C  C331  1  0.021270  0.989200  0.626800  1.0  0.3009
  C  C332  1  0.998100  0.937900  0.642300  1.0  -0.0756
  C  C333  1  0.940300  0.926200  0.594000  1.0  -0.1519
  C  C334  1  0.907200  0.967000  0.531600  1.0  -0.0424
  C  C335  1  0.931700  0.017840  0.517200  1.0  -0.1484
  C  C336  1  0.988250  0.028800  0.564900  1.0  -0.1375
  C  C337  1  0.164880  0.921400  0.755400  1.0  0.709
  C  C338  1  0.233300  0.943700  0.935100  1.0  0.7172
  C  C339  1  0.894840  0.062400  0.452000  1.0  0.679
  C  C340  1  0.914000  0.871800  0.608800  1.0  0.7294
  C  C341  1  0.230400  0.825200  0.277600  1.0  0.2273
  C  C342  1  0.246700  0.792000  0.231300  1.0  -0.0583
  C  C343  1  0.234100  0.816300  0.155900  1.0  -0.1442
  C  C344  1  0.205000  0.871700  0.131000  1.0  -0.0069
  C  C345  1  0.188800  0.904000  0.178100  1.0  -0.0784
  C  C346  1  0.201700  0.880800  0.252300  1.0  -0.1507
  C  C347  1  0.208000  0.784300  0.371100  1.0  0.3015
  C  C348  1  0.167800  0.741000  0.322400  1.0  -0.0812
  C  C349  1  0.131200  0.718600  0.342900  1.0  -0.1205
  C  C350  1  0.132300  0.739700  0.413000  1.0  -0.0111
  C  C351  1  0.171000  0.782600  0.459900  1.0  -0.1193
  C  C352  1  0.209600  0.805300  0.439800  1.0  -0.1014
  C  C353  1  0.280300  0.735300  0.267000  1.0  0.7106
  C  C354  1  0.252000  0.784300  0.105000  1.0  0.7349
  C  C355  1  0.172400  0.808400  0.532900  1.0  0.6798
  C  C356  1  0.091000  0.670400  0.292800  1.0  0.6823
  C  C357  1  0.605230  0.506600  0.751800  1.0  0.2898
  C  C358  1  0.650840  0.469900  0.797900  1.0  -0.0557
  C  C359  1  0.684100  0.482800  0.880000  1.0  -0.1411
  C  C360  1  0.669400  0.533100  0.912800  1.0  -0.0799
  C  C361  1  0.622000  0.566900  0.864400  1.0  -0.0887
  C  C362  1  0.588400  0.553500  0.782500  1.0  -0.1669
  C  C363  1  0.521270  0.489200  0.626800  1.0  0.3009
  C  C364  1  0.498100  0.437900  0.642300  1.0  -0.0756
  C  C365  1  0.440300  0.426200  0.594000  1.0  -0.1519
  C  C366  1  0.407200  0.467000  0.531600  1.0  -0.0424
  C  C367  1  0.431700  0.517840  0.517200  1.0  -0.1484
  C  C368  1  0.488250  0.528800  0.564900  1.0  -0.1375
  C  C369  1  0.664880  0.421400  0.755400  1.0  0.709
  C  C370  1  0.733300  0.443700  0.935100  1.0  0.7172
  C  C371  1  0.394840  0.562400  0.452000  1.0  0.679
  C  C372  1  0.414000  0.371800  0.608800  1.0  0.7294
  C  C373  1  0.730400  0.325200  0.277600  1.0  0.2273
  C  C374  1  0.746700  0.292000  0.231300  1.0  -0.0583
  C  C375  1  0.734100  0.316300  0.155900  1.0  -0.1442
  C  C376  1  0.705000  0.371700  0.131000  1.0  -0.0069
  C  C377  1  0.688800  0.404000  0.178100  1.0  -0.0784
  C  C378  1  0.701700  0.380800  0.252300  1.0  -0.1507
  C  C379  1  0.708000  0.284300  0.371100  1.0  0.3015
  C  C380  1  0.667800  0.241000  0.322400  1.0  -0.0812
  C  C381  1  0.631200  0.218600  0.342900  1.0  -0.1205
  C  C382  1  0.632300  0.239700  0.413000  1.0  -0.0111
  C  C383  1  0.671000  0.282600  0.459900  1.0  -0.1193
  C  C384  1  0.709600  0.305300  0.439800  1.0  -0.1014
  C  C385  1  0.780300  0.235300  0.267000  1.0  0.7106
  C  C386  1  0.752000  0.284300  0.105000  1.0  0.7349
  C  C387  1  0.672400  0.308400  0.532900  1.0  0.6798
  C  C388  1  0.591000  0.170400  0.292800  1.0  0.6823
  O  O389  1  0.131220  0.123510  0.225130  1.0  -0.5626
  O  O390  1  0.206370  0.067430  0.247320  1.0  -0.5848
  O  O391  1  0.234070  0.111300  0.414620  1.0  -0.6002
  O  O392  1  0.270400  0.033700  0.498500  1.0  -0.5019
  O  O393  1  0.919780  0.893960  0.940360  1.0  -0.5656
  O  O394  1  0.842930  0.946370  0.914950  1.0  -0.5573
  O  O395  1  0.861440  0.127490  0.075800  1.0  -0.5855
  O  O396  1  0.944300  0.169400  0.149600  1.0  -0.5485
  O  O397  1  0.078540  0.000810  0.168010  1.0  -0.253
  O  O398  1  0.253340  0.312970  0.765090  1.0  -0.5817
  O  O399  1  0.332870  0.259820  0.801090  1.0  -0.5876
  O  O400  1  0.268900  0.270540  0.624000  1.0  -0.5632
  O  O401  1  0.251400  0.186400  0.548800  1.0  -0.6695
  O  O402  1  0.211580  0.155710  0.076590  1.0  -0.5581
  O  O403  1  0.131960  0.206760  0.043550  1.0  -0.5791
  O  O404  1  0.054700  0.348500  0.811800  1.0  -0.6078
  O  O405  1  0.093600  0.352400  0.736300  1.0  -0.4545
  O  O406  1  0.249050  0.195440  0.855610  1.0  -0.2493
  O  O407  1  0.144000  0.252400  0.403300  1.0  -0.7423
  O  O408  1  0.631220  0.623510  0.225130  1.0  -0.5615
  O  O409  1  0.706370  0.567430  0.247320  1.0  -0.5848
  O  O410  1  0.734070  0.611300  0.414620  1.0  -0.6002
  O  O411  1  0.770400  0.533700  0.498500  1.0  -0.5019
  O  O412  1  0.419780  0.393960  0.940360  1.0  -0.5656
  O  O413  1  0.342930  0.446370  0.914950  1.0  -0.5573
  O  O414  1  0.361440  0.627490  0.075800  1.0  -0.5855
  O  O415  1  0.444300  0.669400  0.149600  1.0  -0.5485
  O  O416  1  0.578540  0.500810  0.168010  1.0  -0.253
  O  O417  1  0.753340  0.812970  0.765090  1.0  -0.5817
  O  O418  1  0.832870  0.759820  0.801090  1.0  -0.5876
  O  O419  1  0.768900  0.770540  0.624000  1.0  -0.5632
  O  O420  1  0.751400  0.686400  0.548800  1.0  -0.6695
  O  O421  1  0.711580  0.655710  0.076590  1.0  -0.5581
  O  O422  1  0.631960  0.706760  0.043550  1.0  -0.5789
  O  O423  1  0.554700  0.848500  0.811800  1.0  -0.6078
  O  O424  1  0.593600  0.852400  0.736300  1.0  -0.4545
  O  O425  1  0.749050  0.695440  0.855610  1.0  -0.2493
  O  O426  1  0.644000  0.752400  0.403300  1.0  -0.7423
  O  O427  1  0.868780  0.123510  0.274870  1.0  -0.5626
  O  O428  1  0.793630  0.067430  0.252680  1.0  -0.5855
  O  O429  1  0.765930  0.111300  0.085380  1.0  -0.6006
  O  O430  1  0.729600  0.033700  0.001500  1.0  -0.4955
  O  O431  1  0.080220  0.893960  0.559640  1.0  -0.5657
  O  O432  1  0.157070  0.946370  0.585050  1.0  -0.5561
  O  O433  1  0.138560  0.127490  0.424200  1.0  -0.5855
  O  O434  1  0.055700  0.169400  0.350400  1.0  -0.5477
  O  O435  1  0.921460  0.000810  0.331990  1.0  -0.253
  O  O436  1  0.746660  0.312970  0.734910  1.0  -0.5814
  O  O437  1  0.667130  0.259820  0.698910  1.0  -0.5873
  O  O438  1  0.731100  0.270540  0.876000  1.0  -0.5632
  O  O439  1  0.748600  0.186400  0.951200  1.0  -0.6702
  O  O440  1  0.788420  0.155710  0.423410  1.0  -0.558
  O  O441  1  0.868040  0.206760  0.456450  1.0  -0.5765
  O  O442  1  0.945300  0.348500  0.688200  1.0  -0.6077
  O  O443  1  0.906400  0.352400  0.763700  1.0  -0.4552
  O  O444  1  0.750950  0.195440  0.644390  1.0  -0.25
  O  O445  1  0.856000  0.252400  0.096700  1.0  -0.7436
  O  O446  1  0.368780  0.623510  0.274870  1.0  -0.5615
  O  O447  1  0.293630  0.567430  0.252680  1.0  -0.5855
  O  O448  1  0.265930  0.611300  0.085380  1.0  -0.6006
  O  O449  1  0.229600  0.533700  0.001500  1.0  -0.4955
  O  O450  1  0.580220  0.393960  0.559640  1.0  -0.5657
  O  O451  1  0.657070  0.446370  0.585050  1.0  -0.5561
  O  O452  1  0.638560  0.627490  0.424200  1.0  -0.5855
  O  O453  1  0.555700  0.669400  0.350400  1.0  -0.5477
  O  O454  1  0.421460  0.500810  0.331990  1.0  -0.253
  O  O455  1  0.246660  0.812970  0.734910  1.0  -0.5814
  O  O456  1  0.167130  0.759820  0.698910  1.0  -0.5873
  O  O457  1  0.231100  0.770540  0.876000  1.0  -0.5632
  O  O458  1  0.248600  0.686400  0.951200  1.0  -0.6702
  O  O459  1  0.288420  0.655710  0.423410  1.0  -0.558
  O  O460  1  0.368040  0.706760  0.456450  1.0  -0.5764
  O  O461  1  0.445300  0.848500  0.688200  1.0  -0.6077
  O  O462  1  0.406400  0.852400  0.763700  1.0  -0.4552
  O  O463  1  0.250950  0.695440  0.644390  1.0  -0.25
  O  O464  1  0.356000  0.752400  0.096700  1.0  -0.7436
  O  O465  1  0.868780  0.876490  0.774870  1.0  -0.5623
  O  O466  1  0.793630  0.932570  0.752680  1.0  -0.5853
  O  O467  1  0.765930  0.888700  0.585380  1.0  -0.6007
  O  O468  1  0.729600  0.966300  0.501500  1.0  -0.4957
  O  O469  1  0.080220  0.106040  0.059640  1.0  -0.5664
  O  O470  1  0.157070  0.053630  0.085050  1.0  -0.5563
  O  O471  1  0.138560  0.872510  0.924200  1.0  -0.5859
  O  O472  1  0.055700  0.830600  0.850400  1.0  -0.549
  O  O473  1  0.921460  0.999190  0.831990  1.0  -0.2531
  O  O474  1  0.746660  0.687030  0.234910  1.0  -0.5811
  O  O475  1  0.667130  0.740180  0.198910  1.0  -0.5881
  O  O476  1  0.731100  0.729460  0.376000  1.0  -0.5647
  O  O477  1  0.748600  0.813600  0.451200  1.0  -0.6705
  O  O478  1  0.788420  0.844290  0.923410  1.0  -0.5579
  O  O479  1  0.868040  0.793240  0.956450  1.0  -0.5766
  O  O480  1  0.945300  0.651500  0.188200  1.0  -0.6068
  O  O481  1  0.906400  0.647600  0.263700  1.0  -0.4552
  O  O482  1  0.750950  0.804560  0.144390  1.0  -0.2506
  O  O483  1  0.856000  0.747600  0.596700  1.0  -0.7416
  O  O484  1  0.368780  0.376490  0.774870  1.0  -0.5625
  O  O485  1  0.293630  0.432570  0.752680  1.0  -0.5853
  O  O486  1  0.265930  0.388700  0.585380  1.0  -0.6007
  O  O487  1  0.229600  0.466300  0.501500  1.0  -0.4957
  O  O488  1  0.580220  0.606040  0.059640  1.0  -0.5664
  O  O489  1  0.657070  0.553630  0.085050  1.0  -0.5563
  O  O490  1  0.638560  0.372510  0.924200  1.0  -0.5859
  O  O491  1  0.555700  0.330600  0.850400  1.0  -0.549
  O  O492  1  0.421460  0.499190  0.831990  1.0  -0.2531
  O  O493  1  0.246660  0.187030  0.234910  1.0  -0.5811
  O  O494  1  0.167130  0.240180  0.198910  1.0  -0.5881
  O  O495  1  0.231100  0.229460  0.376000  1.0  -0.5647
  O  O496  1  0.248600  0.313600  0.451200  1.0  -0.6705
  O  O497  1  0.288420  0.344290  0.923410  1.0  -0.558
  O  O498  1  0.368040  0.293240  0.956450  1.0  -0.5766
  O  O499  1  0.445300  0.151500  0.188200  1.0  -0.6068
  O  O500  1  0.406400  0.147600  0.263700  1.0  -0.4552
  O  O501  1  0.250950  0.304560  0.144390  1.0  -0.2506
  O  O502  1  0.356000  0.247600  0.596700  1.0  -0.7416
  O  O503  1  0.131220  0.876490  0.725130  1.0  -0.5624
  O  O504  1  0.206370  0.932570  0.747320  1.0  -0.5847
  O  O505  1  0.234070  0.888700  0.914620  1.0  -0.6003
  O  O506  1  0.270400  0.966300  0.998500  1.0  -0.5016
  O  O507  1  0.919780  0.106040  0.440360  1.0  -0.5656
  O  O508  1  0.842930  0.053630  0.414950  1.0  -0.5574
  O  O509  1  0.861440  0.872510  0.575800  1.0  -0.5859
  O  O510  1  0.944300  0.830600  0.649600  1.0  -0.5485
  O  O511  1  0.078540  0.999190  0.668010  1.0  -0.2527
  O  O512  1  0.253340  0.687030  0.265090  1.0  -0.5805
  O  O513  1  0.332870  0.740180  0.301090  1.0  -0.5874
  O  O514  1  0.268900  0.729460  0.124000  1.0  -0.5644
  O  O515  1  0.251400  0.813600  0.048800  1.0  -0.6692
  O  O516  1  0.211580  0.844290  0.576590  1.0  -0.5582
  O  O517  1  0.131960  0.793240  0.543550  1.0  -0.5772
  O  O518  1  0.054700  0.651500  0.311800  1.0  -0.6089
  O  O519  1  0.093600  0.647600  0.236300  1.0  -0.4539
  O  O520  1  0.249050  0.804560  0.355610  1.0  -0.2508
  O  O521  1  0.144000  0.747600  0.903300  1.0  -0.742
  O  O522  1  0.631220  0.376490  0.725130  1.0  -0.5626
  O  O523  1  0.706370  0.432570  0.747320  1.0  -0.5847
  O  O524  1  0.734070  0.388700  0.914620  1.0  -0.6003
  O  O525  1  0.770400  0.466300  0.998500  1.0  -0.5016
  O  O526  1  0.419780  0.606040  0.440360  1.0  -0.5656
  O  O527  1  0.342930  0.553630  0.414950  1.0  -0.5574
  O  O528  1  0.361440  0.372510  0.575800  1.0  -0.5859
  O  O529  1  0.444300  0.330600  0.649600  1.0  -0.5485
  O  O530  1  0.578540  0.499190  0.668010  1.0  -0.2527
  O  O531  1  0.753340  0.187030  0.265090  1.0  -0.5805
  O  O532  1  0.832870  0.240180  0.301090  1.0  -0.5874
  O  O533  1  0.768900  0.229460  0.124000  1.0  -0.5644
  O  O534  1  0.751400  0.313600  0.048800  1.0  -0.6692
  O  O535  1  0.711580  0.344290  0.576590  1.0  -0.5582
  O  O536  1  0.631960  0.293240  0.543550  1.0  -0.5772
  O  O537  1  0.554700  0.151500  0.311800  1.0  -0.6089
  O  O538  1  0.593600  0.147600  0.236300  1.0  -0.4539
  O  O539  1  0.749050  0.304560  0.355610  1.0  -0.2508
  O  O540  1  0.644000  0.247600  0.903300  1.0  -0.742
