# generated using pymatgen
data_Cu5H10(C8O5)4
_symmetry_space_group_name_H-M   'P 1'
_cell_length_a   10.78800000
_cell_length_b   11.25200000
_cell_length_c   11.84000000
_cell_angle_alpha   100.85400000
_cell_angle_beta   110.28900000
_cell_angle_gamma   99.77700000
_symmetry_Int_Tables_number   1
_chemical_formula_structural   Cu5H10(C8O5)4
_chemical_formula_sum   'Cu5 H10 C32 O20'
_cell_volume   1280.08184741
_cell_formula_units_Z   1
loop_
 _symmetry_equiv_pos_site_id
 _symmetry_equiv_pos_as_xyz
  1  'x, y, z'
loop_
 _atom_site_type_symbol
 _atom_site_label
 _atom_site_symmetry_multiplicity
 _atom_site_fract_x
 _atom_site_fract_y
 _atom_site_fract_z
 _atom_site_occupancy
 _atom_site_charge
  Cu  Cu1  1  0.642930  0.509990  0.011280  1.0  1.06
  Cu  Cu2  1  0.560860  0.385000  0.210960  1.0  1.0161
  Cu  Cu3  1  0.357070  0.490010  0.988720  1.0  1.0592
  Cu  Cu4  1  0.439140  0.615000  0.789040  1.0  1.0152
  Cu  Cu5  1  0.500000  0.000000  0.000000  1.0  0.4294
  H  H6  1  0.165000  0.260300  0.495500  1.0  0.1325
  H  H7  1  0.252300  0.900000  0.605700  1.0  0.1265
  H  H8  1  0.228700  0.183000  0.262700  1.0  0.1415
  H  H9  1  0.024700  0.413500  0.099900  1.0  0.1271
  H  H10  1  0.850000  0.174600  0.249700  1.0  0.1333
  H  H11  1  0.835000  0.739700  0.504500  1.0  0.1327
  H  H12  1  0.747700  0.100000  0.394300  1.0  0.1272
  H  H13  1  0.771300  0.817000  0.737300  1.0  0.1424
  H  H14  1  0.975300  0.586500  0.900100  1.0  0.1273
  H  H15  1  0.150000  0.825400  0.750300  1.0  0.1327
  C  C16  1  0.124800  0.073700  0.431700  1.0  0.2404
  C  C17  1  0.182200  0.188200  0.518300  1.0  -0.0772
  C  C18  1  0.266800  0.195900  0.640900  1.0  -0.0586
  C  C19  1  0.294200  0.086400  0.674000  1.0  -0.1244
  C  C20  1  0.234400  0.972600  0.584200  1.0  0.0408
  C  C21  1  0.148000  0.964000  0.462100  1.0  -0.0157
  C  C22  1  0.038800  0.163600  0.261600  1.0  0.2526
  C  C23  1  0.150800  0.212700  0.238400  1.0  -0.0829
  C  C24  1  0.145000  0.307100  0.178000  1.0  -0.1348
  C  C25  1  0.029100  0.351900  0.142600  1.0  0.0365
  C  C26  1  0.918800  0.303900  0.171300  1.0  -0.1306
  C  C27  1  0.923200  0.207900  0.231000  1.0  -0.0966
  C  C28  1  0.315700  0.324400  0.732700  1.0  0.7466
  C  C29  1  0.389800  0.091300  0.803200  1.0  0.7334
  C  C30  1  0.796700  0.357900  0.142200  1.0  0.7259
  C  C31  1  0.266100  0.360200  0.150800  1.0  0.7531
  C  C32  1  0.875200  0.926300  0.568300  1.0  0.2389
  C  C33  1  0.817800  0.811800  0.481700  1.0  -0.0769
  C  C34  1  0.733200  0.804100  0.359100  1.0  -0.0592
  C  C35  1  0.705800  0.913600  0.326000  1.0  -0.1245
  C  C36  1  0.765600  0.027400  0.415800  1.0  0.0382
  C  C37  1  0.852000  0.036000  0.537900  1.0  -0.0177
  C  C38  1  0.961200  0.836400  0.738400  1.0  0.2536
  C  C39  1  0.849200  0.787300  0.761600  1.0  -0.0828
  C  C40  1  0.855000  0.692900  0.822000  1.0  -0.1362
  C  C41  1  0.970900  0.648100  0.857400  1.0  0.0373
  C  C42  1  0.081200  0.696100  0.828700  1.0  -0.1298
  C  C43  1  0.076800  0.792100  0.769000  1.0  -0.0979
  C  C44  1  0.684300  0.675600  0.267300  1.0  0.7483
  C  C45  1  0.610200  0.908700  0.196800  1.0  0.7312
  C  C46  1  0.203300  0.642100  0.857800  1.0  0.7263
  C  C47  1  0.733900  0.639800  0.849200  1.0  0.7533
  O  O48  1  0.397500  0.407000  0.718300  1.0  -0.5869
  O  O49  1  0.262630  0.340260  0.811550  1.0  -0.5624
  O  O50  1  0.471200  0.190500  0.875510  1.0  -0.5723
  O  O51  1  0.384400  0.986360  0.830340  1.0  -0.5765
  O  O52  1  0.729800  0.346400  0.208940  1.0  -0.6101
  O  O53  1  0.774110  0.411160  0.055820  1.0  -0.5601
  O  O54  1  0.245080  0.422000  0.070790  1.0  -0.583
  O  O55  1  0.377600  0.339200  0.210320  1.0  -0.6238
  O  O56  1  0.035900  0.058650  0.310100  1.0  -0.3123
  O  O57  1  0.499590  0.399880  0.041480  1.0  -0.7681
  O  O58  1  0.602500  0.593000  0.281700  1.0  -0.5862
  O  O59  1  0.737370  0.659740  0.188450  1.0  -0.5633
  O  O60  1  0.528800  0.809500  0.124490  1.0  -0.5712
  O  O61  1  0.615600  0.013640  0.169660  1.0  -0.5787
  O  O62  1  0.270200  0.653600  0.791060  1.0  -0.6099
  O  O63  1  0.225890  0.588840  0.944180  1.0  -0.5603
  O  O64  1  0.754920  0.578000  0.929210  1.0  -0.5826
  O  O65  1  0.622400  0.660800  0.789680  1.0  -0.6239
  O  O66  1  0.964100  0.941350  0.689900  1.0  -0.315
  O  O67  1  0.500410  0.600120  0.958520  1.0  -0.7672
