# generated using pymatgen
data_CuH15C16N3O5
_symmetry_space_group_name_H-M   'P 1'
_cell_length_a   39.90000000
_cell_length_b   9.99250000
_cell_length_c   28.72800000
_cell_angle_alpha   90.00000000
_cell_angle_beta   133.79900000
_cell_angle_gamma   90.00000000
_symmetry_Int_Tables_number   1
_chemical_formula_structural   CuH15C16N3O5
_chemical_formula_sum   'Cu16 H240 C256 N48 O80'
_cell_volume   8267.08990157
_cell_formula_units_Z   16
loop_
 _symmetry_equiv_pos_site_id
 _symmetry_equiv_pos_as_xyz
  1  'x, y, z'
loop_
 _atom_site_type_symbol
 _atom_site_label
 _atom_site_symmetry_multiplicity
 _atom_site_fract_x
 _atom_site_fract_y
 _atom_site_fract_z
 _atom_site_occupancy
 _atom_site_charge
  Cu  Cu1  1  0.425330  0.857430  0.084970  1.0  0.8751
  Cu  Cu2  1  0.406460  0.894000  0.234890  1.0  0.8626
  Cu  Cu3  1  0.925330  0.357430  0.084970  1.0  0.8751
  Cu  Cu4  1  0.906460  0.394000  0.234890  1.0  0.8626
  Cu  Cu5  1  0.574670  0.857430  0.415030  1.0  0.8776
  Cu  Cu6  1  0.593540  0.894000  0.265110  1.0  0.8611
  Cu  Cu7  1  0.074670  0.357430  0.415030  1.0  0.8776
  Cu  Cu8  1  0.093540  0.394000  0.265110  1.0  0.8611
  Cu  Cu9  1  0.574670  0.142570  0.915030  1.0  0.8776
  Cu  Cu10  1  0.593540  0.106000  0.765110  1.0  0.861
  Cu  Cu11  1  0.074670  0.642570  0.915030  1.0  0.8776
  Cu  Cu12  1  0.093540  0.606000  0.765110  1.0  0.861
  Cu  Cu13  1  0.425330  0.142570  0.584970  1.0  0.8754
  Cu  Cu14  1  0.406460  0.106000  0.734890  1.0  0.8625
  Cu  Cu15  1  0.925330  0.642570  0.584970  1.0  0.8754
  Cu  Cu16  1  0.906460  0.606000  0.734890  1.0  0.8625
  H  H17  1  0.444500  0.285400  0.972700  1.0  0.2744
  H  H18  1  0.478300  0.598400  0.103500  1.0  0.0812
  H  H19  1  0.480500  0.439500  0.047100  1.0  0.1343
  H  H20  1  0.383100  0.653500  0.884600  1.0  0.128
  H  H21  1  0.383200  0.804700  0.945900  1.0  0.084
  H  H22  1  0.145400  0.859000  0.979000  1.0  0.1015
  H  H23  1  0.223600  0.884000  0.040200  1.0  0.1069
  H  H24  1  0.270600  0.695900  0.076700  1.0  0.1164
  H  H25  1  0.156900  0.465700  0.985400  1.0  0.09
  H  H26  1  0.277400  0.464100  0.083000  1.0  0.2755
  H  H27  1  0.377600  0.152200  0.154700  1.0  0.0808
  H  H28  1  0.318800  0.307600  0.090300  1.0  0.1253
  H  H29  1  0.245500  0.101100  0.116000  1.0  0.1268
  H  H30  1  0.306400  0.951200  0.179400  1.0  0.0949
  H  H31  1  0.477300  0.266000  0.343600  1.0  0.1176
  H  H32  1  0.480100  0.281200  0.290800  1.0  0.098
  H  H33  1  0.519600  0.345300  0.361000  1.0  0.1096
  H  H34  1  0.582800  0.216100  0.379100  1.0  0.1032
  H  H35  1  0.542000  0.167800  0.306000  1.0  0.1045
  H  H36  1  0.575000  0.059900  0.362200  1.0  0.098
  H  H37  1  0.413600  0.889300  0.812400  1.0  0.1024
  H  H38  1  0.434700  0.865100  0.909800  1.0  0.0999
  H  H39  1  0.447600  0.054400  0.968500  1.0  0.1154
  H  H40  1  0.416600  0.283900  0.827200  1.0  0.0952
  H  H41  1  0.384500  0.484100  0.116900  1.0  0.1175
  H  H42  1  0.408200  0.405500  0.182000  1.0  0.1094
  H  H43  1  0.439800  0.470200  0.172500  1.0  0.1049
  H  H44  1  0.484500  0.583400  0.276500  1.0  0.1013
  H  H45  1  0.451400  0.536900  0.286500  1.0  0.1029
  H  H46  1  0.460800  0.692700  0.286800  1.0  0.1019
  H  H47  1  0.944500  0.785400  0.972700  1.0  0.274
  H  H48  1  0.978300  0.098400  0.103500  1.0  0.0812
  H  H49  1  0.980500  0.939500  0.047100  1.0  0.1343
  H  H50  1  0.883100  0.153500  0.884600  1.0  0.128
  H  H51  1  0.883200  0.304700  0.945900  1.0  0.084
  H  H52  1  0.645400  0.359000  0.979000  1.0  0.1015
  H  H53  1  0.723600  0.384000  0.040200  1.0  0.1069
  H  H54  1  0.770600  0.195900  0.076700  1.0  0.1164
  H  H55  1  0.656900  0.965700  0.985400  1.0  0.09
  H  H56  1  0.777400  0.964100  0.083000  1.0  0.2755
  H  H57  1  0.877600  0.652200  0.154700  1.0  0.0808
  H  H58  1  0.818800  0.807600  0.090300  1.0  0.1253
  H  H59  1  0.745500  0.601100  0.116000  1.0  0.1268
  H  H60  1  0.806400  0.451200  0.179400  1.0  0.0949
  H  H61  1  0.977300  0.766000  0.343600  1.0  0.1176
  H  H62  1  0.980100  0.781200  0.290800  1.0  0.098
  H  H63  1  0.019600  0.845300  0.361000  1.0  0.1096
  H  H64  1  0.082800  0.716100  0.379100  1.0  0.1032
  H  H65  1  0.042000  0.667800  0.306000  1.0  0.1047
  H  H66  1  0.075000  0.559900  0.362200  1.0  0.098
  H  H67  1  0.913600  0.389300  0.812400  1.0  0.1024
  H  H68  1  0.934700  0.365100  0.909800  1.0  0.0999
  H  H69  1  0.947600  0.554400  0.968500  1.0  0.1154
  H  H70  1  0.916600  0.783900  0.827200  1.0  0.0952
  H  H71  1  0.884500  0.984100  0.116900  1.0  0.1175
  H  H72  1  0.908200  0.905500  0.182000  1.0  0.1094
  H  H73  1  0.939800  0.970200  0.172500  1.0  0.1049
  H  H74  1  0.984500  0.083400  0.276500  1.0  0.1013
  H  H75  1  0.951400  0.036900  0.286500  1.0  0.1029
  H  H76  1  0.960800  0.192700  0.286800  1.0  0.1019
  H  H77  1  0.555500  0.285400  0.527300  1.0  0.275
  H  H78  1  0.521700  0.598400  0.396500  1.0  0.0814
  H  H79  1  0.519500  0.439500  0.452900  1.0  0.1345
  H  H80  1  0.616900  0.653500  0.615400  1.0  0.1283
  H  H81  1  0.616800  0.804700  0.554100  1.0  0.0832
  H  H82  1  0.854600  0.859000  0.521000  1.0  0.1016
  H  H83  1  0.776400  0.884000  0.459800  1.0  0.1071
  H  H84  1  0.729400  0.695900  0.423300  1.0  0.1158
  H  H85  1  0.843100  0.465700  0.514600  1.0  0.0897
  H  H86  1  0.722600  0.464100  0.417000  1.0  0.2745
  H  H87  1  0.622400  0.152200  0.345300  1.0  0.08
  H  H88  1  0.681200  0.307600  0.409700  1.0  0.125
  H  H89  1  0.754500  0.101100  0.384000  1.0  0.1267
  H  H90  1  0.693600  0.951200  0.320600  1.0  0.0935
  H  H91  1  0.522700  0.266000  0.156400  1.0  0.1177
  H  H92  1  0.519900  0.281200  0.209200  1.0  0.0979
  H  H93  1  0.480400  0.345300  0.139000  1.0  0.1107
  H  H94  1  0.417200  0.216100  0.120900  1.0  0.1036
  H  H95  1  0.458000  0.167800  0.194000  1.0  0.1038
  H  H96  1  0.425000  0.059900  0.137800  1.0  0.0979
  H  H97  1  0.586400  0.889300  0.687600  1.0  0.1018
  H  H98  1  0.565300  0.865100  0.590200  1.0  0.0995
  H  H99  1  0.552400  0.054400  0.531500  1.0  0.1151
  H  H100  1  0.583400  0.283900  0.672800  1.0  0.095
  H  H101  1  0.615500  0.484100  0.383100  1.0  0.1176
  H  H102  1  0.591800  0.405500  0.318000  1.0  0.1098
  H  H103  1  0.560200  0.470200  0.327500  1.0  0.1057
  H  H104  1  0.515500  0.583400  0.223500  1.0  0.0985
  H  H105  1  0.548600  0.536900  0.213500  1.0  0.1032
  H  H106  1  0.539200  0.692700  0.213200  1.0  0.1027
  H  H107  1  0.055500  0.785400  0.527300  1.0  0.2751
  H  H108  1  0.021700  0.098400  0.396500  1.0  0.0814
  H  H109  1  0.019500  0.939500  0.452900  1.0  0.1345
  H  H110  1  0.116900  0.153500  0.615400  1.0  0.1283
  H  H111  1  0.116800  0.304700  0.554100  1.0  0.0832
  H  H112  1  0.354600  0.359000  0.521000  1.0  0.1016
  H  H113  1  0.276400  0.384000  0.459800  1.0  0.1071
  H  H114  1  0.229400  0.195900  0.423300  1.0  0.1158
  H  H115  1  0.343100  0.965700  0.514600  1.0  0.0897
  H  H116  1  0.222600  0.964100  0.417000  1.0  0.2745
  H  H117  1  0.122400  0.652200  0.345300  1.0  0.08
  H  H118  1  0.181200  0.807600  0.409700  1.0  0.125
  H  H119  1  0.254500  0.601100  0.384000  1.0  0.1267
  H  H120  1  0.193600  0.451200  0.320600  1.0  0.0935
  H  H121  1  0.022700  0.766000  0.156400  1.0  0.1177
  H  H122  1  0.019900  0.781200  0.209200  1.0  0.0979
  H  H123  1  0.980400  0.845300  0.139000  1.0  0.1107
  H  H124  1  0.917200  0.716100  0.120900  1.0  0.1036
  H  H125  1  0.958000  0.667800  0.194000  1.0  0.1038
  H  H126  1  0.925000  0.559900  0.137800  1.0  0.0979
  H  H127  1  0.086400  0.389300  0.687600  1.0  0.1018
  H  H128  1  0.065300  0.365100  0.590200  1.0  0.0995
  H  H129  1  0.052400  0.554400  0.531500  1.0  0.1151
  H  H130  1  0.083400  0.783900  0.672800  1.0  0.095
  H  H131  1  0.115500  0.984100  0.383100  1.0  0.1176
  H  H132  1  0.091800  0.905500  0.318000  1.0  0.1098
  H  H133  1  0.060200  0.970200  0.327500  1.0  0.1057
  H  H134  1  0.015500  0.083400  0.223500  1.0  0.0985
  H  H135  1  0.048600  0.036900  0.213500  1.0  0.1032
  H  H136  1  0.039200  0.192700  0.213200  1.0  0.1027
  H  H137  1  0.555500  0.714600  0.027300  1.0  0.2755
  H  H138  1  0.521700  0.401600  0.896500  1.0  0.0811
  H  H139  1  0.519500  0.560500  0.952900  1.0  0.135
  H  H140  1  0.616900  0.346500  0.115400  1.0  0.1283
  H  H141  1  0.616800  0.195300  0.054100  1.0  0.0838
  H  H142  1  0.854600  0.141000  0.021000  1.0  0.1014
  H  H143  1  0.776400  0.116000  0.959800  1.0  0.1065
  H  H144  1  0.729400  0.304100  0.923300  1.0  0.1156
  H  H145  1  0.843100  0.534300  0.014600  1.0  0.0898
  H  H146  1  0.722600  0.535900  0.917000  1.0  0.2742
  H  H147  1  0.622400  0.847800  0.845300  1.0  0.0799
  H  H148  1  0.681200  0.692400  0.909700  1.0  0.1253
  H  H149  1  0.754500  0.898900  0.884000  1.0  0.1267
  H  H150  1  0.693600  0.048800  0.820600  1.0  0.0934
  H  H151  1  0.522700  0.734000  0.656400  1.0  0.1178
  H  H152  1  0.519900  0.718800  0.709200  1.0  0.098
  H  H153  1  0.480400  0.654700  0.639000  1.0  0.1107
  H  H154  1  0.417200  0.783900  0.620900  1.0  0.1033
  H  H155  1  0.458000  0.832200  0.694000  1.0  0.1031
  H  H156  1  0.425000  0.940100  0.637800  1.0  0.0987
  H  H157  1  0.586400  0.110700  0.187600  1.0  0.102
  H  H158  1  0.565300  0.134900  0.090200  1.0  0.0998
  H  H159  1  0.552400  0.945600  0.031500  1.0  0.1151
  H  H160  1  0.583400  0.716100  0.172800  1.0  0.0948
  H  H161  1  0.615500  0.515900  0.883100  1.0  0.1173
  H  H162  1  0.591800  0.594500  0.818000  1.0  0.1094
  H  H163  1  0.560200  0.529800  0.827500  1.0  0.1058
  H  H164  1  0.515500  0.416600  0.723500  1.0  0.0982
  H  H165  1  0.548600  0.463100  0.713500  1.0  0.1032
  H  H166  1  0.539200  0.307300  0.713200  1.0  0.1026
  H  H167  1  0.055500  0.214600  0.027300  1.0  0.2755
  H  H168  1  0.021700  0.901600  0.896500  1.0  0.0811
  H  H169  1  0.019500  0.060500  0.952900  1.0  0.135
  H  H170  1  0.116900  0.846500  0.115400  1.0  0.1283
  H  H171  1  0.116800  0.695300  0.054100  1.0  0.0838
  H  H172  1  0.354600  0.641000  0.021000  1.0  0.1014
  H  H173  1  0.276400  0.616000  0.959800  1.0  0.1065
  H  H174  1  0.229400  0.804100  0.923300  1.0  0.1156
  H  H175  1  0.343100  0.034300  0.014600  1.0  0.0898
  H  H176  1  0.222600  0.035900  0.917000  1.0  0.2742
  H  H177  1  0.122400  0.347800  0.845300  1.0  0.0799
  H  H178  1  0.181200  0.192400  0.909700  1.0  0.1253
  H  H179  1  0.254500  0.398900  0.884000  1.0  0.1267
  H  H180  1  0.193600  0.548800  0.820600  1.0  0.0934
  H  H181  1  0.022700  0.234000  0.656400  1.0  0.1178
  H  H182  1  0.019900  0.218800  0.709200  1.0  0.098
  H  H183  1  0.980400  0.154700  0.639000  1.0  0.1107
  H  H184  1  0.917200  0.283900  0.620900  1.0  0.1033
  H  H185  1  0.958000  0.332200  0.694000  1.0  0.1031
  H  H186  1  0.925000  0.440100  0.637800  1.0  0.0987
  H  H187  1  0.086400  0.610700  0.187600  1.0  0.102
  H  H188  1  0.065300  0.634900  0.090200  1.0  0.0998
  H  H189  1  0.052400  0.445600  0.031500  1.0  0.1151
  H  H190  1  0.083400  0.216100  0.172800  1.0  0.0948
  H  H191  1  0.115500  0.015900  0.883100  1.0  0.1173
  H  H192  1  0.091800  0.094500  0.818000  1.0  0.1094
  H  H193  1  0.060200  0.029800  0.827500  1.0  0.1058
  H  H194  1  0.015500  0.916600  0.723500  1.0  0.0982
  H  H195  1  0.048600  0.963100  0.713500  1.0  0.1032
  H  H196  1  0.039200  0.807300  0.713200  1.0  0.1026
  H  H197  1  0.444500  0.714600  0.472700  1.0  0.2746
  H  H198  1  0.478300  0.401600  0.603500  1.0  0.081
  H  H199  1  0.480500  0.560500  0.547100  1.0  0.1342
  H  H200  1  0.383100  0.346500  0.384600  1.0  0.1278
  H  H201  1  0.383200  0.195300  0.445900  1.0  0.0837
  H  H202  1  0.145400  0.141000  0.479000  1.0  0.1016
  H  H203  1  0.223600  0.116000  0.540200  1.0  0.1071
  H  H204  1  0.270600  0.304100  0.576700  1.0  0.1164
  H  H205  1  0.156900  0.534300  0.485400  1.0  0.0898
  H  H206  1  0.277400  0.535900  0.583000  1.0  0.2754
  H  H207  1  0.377600  0.847800  0.654700  1.0  0.0809
  H  H208  1  0.318800  0.692400  0.590300  1.0  0.1248
  H  H209  1  0.245500  0.898900  0.616000  1.0  0.1268
  H  H210  1  0.306400  0.048800  0.679400  1.0  0.0945
  H  H211  1  0.477300  0.734000  0.843600  1.0  0.1176
  H  H212  1  0.480100  0.718800  0.790800  1.0  0.0984
  H  H213  1  0.519600  0.654700  0.861000  1.0  0.1104
  H  H214  1  0.582800  0.783900  0.879100  1.0  0.1039
  H  H215  1  0.542000  0.832200  0.806000  1.0  0.1048
  H  H216  1  0.575000  0.940100  0.862200  1.0  0.0981
  H  H217  1  0.413600  0.110700  0.312400  1.0  0.1023
  H  H218  1  0.434700  0.134900  0.409800  1.0  0.0993
  H  H219  1  0.447600  0.945600  0.468500  1.0  0.1154
  H  H220  1  0.416600  0.716100  0.327200  1.0  0.0955
  H  H221  1  0.384500  0.515900  0.616900  1.0  0.1176
  H  H222  1  0.408200  0.594500  0.682000  1.0  0.1084
  H  H223  1  0.439800  0.529800  0.672500  1.0  0.1052
  H  H224  1  0.484500  0.416600  0.776500  1.0  0.1014
  H  H225  1  0.451400  0.463100  0.786500  1.0  0.1016
  H  H226  1  0.460800  0.307300  0.786800  1.0  0.1025
  H  H227  1  0.944500  0.214600  0.472700  1.0  0.2746
  H  H228  1  0.978300  0.901600  0.603500  1.0  0.081
  H  H229  1  0.980500  0.060500  0.547100  1.0  0.1342
  H  H230  1  0.883100  0.846500  0.384600  1.0  0.1278
  H  H231  1  0.883200  0.695300  0.445900  1.0  0.0837
  H  H232  1  0.645400  0.641000  0.479000  1.0  0.1016
  H  H233  1  0.723600  0.616000  0.540200  1.0  0.1071
  H  H234  1  0.770600  0.804100  0.576700  1.0  0.1164
  H  H235  1  0.656900  0.034300  0.485400  1.0  0.0898
  H  H236  1  0.777400  0.035900  0.583000  1.0  0.2754
  H  H237  1  0.877600  0.347800  0.654700  1.0  0.0809
  H  H238  1  0.818800  0.192400  0.590300  1.0  0.1248
  H  H239  1  0.745500  0.398900  0.616000  1.0  0.1268
  H  H240  1  0.806400  0.548800  0.679400  1.0  0.0945
  H  H241  1  0.977300  0.234000  0.843600  1.0  0.1176
  H  H242  1  0.980100  0.218800  0.790800  1.0  0.0984
  H  H243  1  0.019600  0.154700  0.861000  1.0  0.1104
  H  H244  1  0.082800  0.283900  0.879100  1.0  0.1039
  H  H245  1  0.042000  0.332200  0.806000  1.0  0.1048
  H  H246  1  0.075000  0.440100  0.862200  1.0  0.0981
  H  H247  1  0.913600  0.610700  0.312400  1.0  0.1023
  H  H248  1  0.934700  0.634900  0.409800  1.0  0.0993
  H  H249  1  0.947600  0.445600  0.468500  1.0  0.1154
  H  H250  1  0.916600  0.216100  0.327200  1.0  0.0955
  H  H251  1  0.884500  0.015900  0.616900  1.0  0.1176
  H  H252  1  0.908200  0.094500  0.682000  1.0  0.1084
  H  H253  1  0.939800  0.029800  0.672500  1.0  0.1052
  H  H254  1  0.984500  0.916600  0.776500  1.0  0.1014
  H  H255  1  0.951400  0.963100  0.786500  1.0  0.1016
  H  H256  1  0.960800  0.807300  0.786800  1.0  0.1025
  C  C257  1  0.556020  0.120600  0.433570  1.0  0.6711
  C  C258  1  0.526000  0.139700  0.360600  1.0  -0.0066
  C  C259  1  0.493610  0.018600  0.322620  1.0  0.6656
  C  C260  1  0.458570  0.609400  0.058280  1.0  0.1714
  C  C261  1  0.460130  0.513900  0.025050  1.0  -0.19
  C  C262  1  0.431690  0.528000  0.959340  1.0  -0.0003
  C  C263  1  0.429860  0.430900  0.917860  1.0  0.4752
  C  C264  1  0.431710  0.188900  0.902150  1.0  0.1703
  C  C265  1  0.402830  0.639500  0.929620  1.0  -0.1715
  C  C266  1  0.403370  0.729600  0.966670  1.0  0.169
  C  C267  1  0.164250  0.781800  0.993240  1.0  0.1389
  C  C268  1  0.210540  0.796900  0.029700  1.0  -0.0975
  C  C269  1  0.238320  0.686100  0.051300  1.0  -0.185
  C  C270  1  0.218600  0.559200  0.035710  1.0  0.1768
  C  C271  1  0.171080  0.551500  0.997440  1.0  0.1425
  C  C272  1  0.420380  0.732100  0.167350  1.0  0.6801
  C  C273  1  0.350140  0.141000  0.146300  1.0  0.1733
  C  C274  1  0.315340  0.235000  0.108090  1.0  -0.1958
  C  C275  1  0.275650  0.222000  0.096160  1.0  0.0029
  C  C276  1  0.235580  0.318200  0.055090  1.0  0.4387
  C  C277  1  0.272430  0.113400  0.123300  1.0  -0.1627
  C  C278  1  0.308710  0.024300  0.160700  1.0  0.1656
  C  C279  1  0.498270  0.269700  0.336880  1.0  -0.3664
  C  C280  1  0.559540  0.146500  0.351080  1.0  -0.3355
  C  C281  1  0.418820  0.966900  0.835900  1.0  0.1448
  C  C282  1  0.431110  0.952100  0.893500  1.0  -0.0883
  C  C283  1  0.438320  0.063500  0.928000  1.0  -0.1727
  C  C284  1  0.420190  0.197900  0.844290  1.0  0.1445
  C  C285  1  0.370710  0.629400  0.183120  1.0  0.681
  C  C286  1  0.414180  0.611600  0.194050  1.0  0.0112
  C  C287  1  0.411450  0.481100  0.163620  1.0  -0.3652
  C  C288  1  0.456580  0.605600  0.267720  1.0  -0.3425
  C  C289  1  0.056020  0.620600  0.433570  1.0  0.6711
  C  C290  1  0.026000  0.639700  0.360600  1.0  -0.0066
  C  C291  1  0.993610  0.518600  0.322620  1.0  0.6656
  C  C292  1  0.958570  0.109400  0.058280  1.0  0.1714
  C  C293  1  0.960130  0.013900  0.025050  1.0  -0.19
  C  C294  1  0.931690  0.028000  0.959340  1.0  -0.0003
  C  C295  1  0.929860  0.930900  0.917860  1.0  0.4752
  C  C296  1  0.931710  0.688900  0.902150  1.0  0.1703
  C  C297  1  0.902830  0.139500  0.929620  1.0  -0.1715
  C  C298  1  0.903370  0.229600  0.966670  1.0  0.169
  C  C299  1  0.664250  0.281800  0.993240  1.0  0.1389
  C  C300  1  0.710540  0.296900  0.029700  1.0  -0.0975
  C  C301  1  0.738320  0.186100  0.051300  1.0  -0.185
  C  C302  1  0.718600  0.059200  0.035710  1.0  0.1768
  C  C303  1  0.671080  0.051500  0.997440  1.0  0.1425
  C  C304  1  0.920380  0.232100  0.167350  1.0  0.6801
  C  C305  1  0.850140  0.641000  0.146300  1.0  0.1733
  C  C306  1  0.815340  0.735000  0.108090  1.0  -0.1958
  C  C307  1  0.775650  0.722000  0.096160  1.0  0.0029
  C  C308  1  0.735580  0.818200  0.055090  1.0  0.4387
  C  C309  1  0.772430  0.613400  0.123300  1.0  -0.1627
  C  C310  1  0.808710  0.524300  0.160700  1.0  0.1656
  C  C311  1  0.998270  0.769700  0.336880  1.0  -0.3664
  C  C312  1  0.059540  0.646500  0.351080  1.0  -0.3355
  C  C313  1  0.918820  0.466900  0.835900  1.0  0.1448
  C  C314  1  0.931110  0.452100  0.893500  1.0  -0.0883
  C  C315  1  0.938320  0.563500  0.928000  1.0  -0.1727
  C  C316  1  0.920190  0.697900  0.844290  1.0  0.1445
  C  C317  1  0.870710  0.129400  0.183120  1.0  0.681
  C  C318  1  0.914180  0.111600  0.194050  1.0  0.0112
  C  C319  1  0.911450  0.981100  0.163620  1.0  -0.3652
  C  C320  1  0.956580  0.105600  0.267720  1.0  -0.3425
  C  C321  1  0.443980  0.120600  0.066430  1.0  0.6713
  C  C322  1  0.474000  0.139700  0.139400  1.0  -0.0075
  C  C323  1  0.506390  0.018600  0.177380  1.0  0.6652
  C  C324  1  0.541430  0.609400  0.441720  1.0  0.1724
  C  C325  1  0.539870  0.513900  0.474950  1.0  -0.1876
  C  C326  1  0.568310  0.528000  0.540660  1.0  -0.0003
  C  C327  1  0.570140  0.430900  0.582140  1.0  0.4748
  C  C328  1  0.568290  0.188900  0.597850  1.0  0.1708
  C  C329  1  0.597170  0.639500  0.570380  1.0  -0.1714
  C  C330  1  0.596630  0.729600  0.533330  1.0  0.1693
  C  C331  1  0.835750  0.781800  0.506760  1.0  0.1392
  C  C332  1  0.789460  0.796900  0.470300  1.0  -0.105
  C  C333  1  0.761680  0.686100  0.448700  1.0  -0.1903
  C  C334  1  0.781400  0.559200  0.464290  1.0  0.1774
  C  C335  1  0.828920  0.551500  0.502560  1.0  0.1423
  C  C336  1  0.579620  0.732100  0.332650  1.0  0.6807
  C  C337  1  0.649860  0.141000  0.353700  1.0  0.1746
  C  C338  1  0.684660  0.235000  0.391910  1.0  -0.1955
  C  C339  1  0.724350  0.222000  0.403840  1.0  0.0038
  C  C340  1  0.764420  0.318200  0.444910  1.0  0.4366
  C  C341  1  0.727570  0.113400  0.376700  1.0  -0.1594
  C  C342  1  0.691290  0.024300  0.339300  1.0  0.1639
  C  C343  1  0.501730  0.269700  0.163120  1.0  -0.3671
  C  C344  1  0.440460  0.146500  0.148920  1.0  -0.3353
  C  C345  1  0.581180  0.966900  0.664100  1.0  0.146
  C  C346  1  0.568890  0.952100  0.606500  1.0  -0.0926
  C  C347  1  0.561680  0.063500  0.572000  1.0  -0.1732
  C  C348  1  0.579810  0.197900  0.655710  1.0  0.1432
  C  C349  1  0.629290  0.629400  0.316880  1.0  0.6835
  C  C350  1  0.585820  0.611600  0.305950  1.0  0.0117
  C  C351  1  0.588550  0.481100  0.336380  1.0  -0.3666
  C  C352  1  0.543420  0.605600  0.232280  1.0  -0.3421
  C  C353  1  0.943980  0.620600  0.066430  1.0  0.6713
  C  C354  1  0.974000  0.639700  0.139400  1.0  -0.0075
  C  C355  1  0.006390  0.518600  0.177380  1.0  0.6652
  C  C356  1  0.041430  0.109400  0.441720  1.0  0.1724
  C  C357  1  0.039870  0.013900  0.474950  1.0  -0.1876
  C  C358  1  0.068310  0.028000  0.540660  1.0  -0.0003
  C  C359  1  0.070140  0.930900  0.582140  1.0  0.4748
  C  C360  1  0.068290  0.688900  0.597850  1.0  0.1708
  C  C361  1  0.097170  0.139500  0.570380  1.0  -0.1714
  C  C362  1  0.096630  0.229600  0.533330  1.0  0.1693
  C  C363  1  0.335750  0.281800  0.506760  1.0  0.1392
  C  C364  1  0.289460  0.296900  0.470300  1.0  -0.105
  C  C365  1  0.261680  0.186100  0.448700  1.0  -0.1903
  C  C366  1  0.281400  0.059200  0.464290  1.0  0.1774
  C  C367  1  0.328920  0.051500  0.502560  1.0  0.1423
  C  C368  1  0.079620  0.232100  0.332650  1.0  0.6807
  C  C369  1  0.149860  0.641000  0.353700  1.0  0.1746
  C  C370  1  0.184660  0.735000  0.391910  1.0  -0.1955
  C  C371  1  0.224350  0.722000  0.403840  1.0  0.0038
  C  C372  1  0.264420  0.818200  0.444910  1.0  0.4366
  C  C373  1  0.227570  0.613400  0.376700  1.0  -0.1594
  C  C374  1  0.191290  0.524300  0.339300  1.0  0.1639
  C  C375  1  0.001730  0.769700  0.163120  1.0  -0.3671
  C  C376  1  0.940460  0.646500  0.148920  1.0  -0.3353
  C  C377  1  0.081180  0.466900  0.664100  1.0  0.146
  C  C378  1  0.068890  0.452100  0.606500  1.0  -0.0926
  C  C379  1  0.061680  0.563500  0.572000  1.0  -0.1732
  C  C380  1  0.079810  0.697900  0.655710  1.0  0.1433
  C  C381  1  0.129290  0.129400  0.316880  1.0  0.6835
  C  C382  1  0.085820  0.111600  0.305950  1.0  0.0117
  C  C383  1  0.088550  0.981100  0.336380  1.0  -0.3666
  C  C384  1  0.043420  0.105600  0.232280  1.0  -0.3421
  C  C385  1  0.443980  0.879400  0.566430  1.0  0.6714
  C  C386  1  0.474000  0.860300  0.639400  1.0  -0.007
  C  C387  1  0.506390  0.981400  0.677380  1.0  0.6653
  C  C388  1  0.541430  0.390600  0.941720  1.0  0.1726
  C  C389  1  0.539870  0.486100  0.974950  1.0  -0.1878
  C  C390  1  0.568310  0.472000  0.040660  1.0  -0.0004
  C  C391  1  0.570140  0.569100  0.082140  1.0  0.4749
  C  C392  1  0.568290  0.811100  0.097850  1.0  0.1728
  C  C393  1  0.597170  0.360500  0.070380  1.0  -0.1725
  C  C394  1  0.596630  0.270400  0.033330  1.0  0.1691
  C  C395  1  0.835750  0.218200  0.006760  1.0  0.1397
  C  C396  1  0.789460  0.203100  0.970300  1.0  -0.105
  C  C397  1  0.761680  0.313900  0.948700  1.0  -0.1909
  C  C398  1  0.781400  0.440800  0.964290  1.0  0.1766
  C  C399  1  0.828920  0.448500  0.002560  1.0  0.1431
  C  C400  1  0.579620  0.267900  0.832650  1.0  0.6824
  C  C401  1  0.649860  0.859000  0.853700  1.0  0.1746
  C  C402  1  0.684660  0.765000  0.891910  1.0  -0.1955
  C  C403  1  0.724350  0.778000  0.903840  1.0  0.0033
  C  C404  1  0.764420  0.681800  0.944910  1.0  0.4368
  C  C405  1  0.727570  0.886600  0.876700  1.0  -0.1593
  C  C406  1  0.691290  0.975700  0.839300  1.0  0.1642
  C  C407  1  0.501730  0.730300  0.663120  1.0  -0.3667
  C  C408  1  0.440460  0.853500  0.648920  1.0  -0.3354
  C  C409  1  0.581180  0.033100  0.164100  1.0  0.1446
  C  C410  1  0.568890  0.047900  0.106500  1.0  -0.0897
  C  C411  1  0.561680  0.936500  0.072000  1.0  -0.1737
  C  C412  1  0.579810  0.802100  0.155710  1.0  0.1439
  C  C413  1  0.629290  0.370600  0.816880  1.0  0.6835
  C  C414  1  0.585820  0.388400  0.805950  1.0  0.0125
  C  C415  1  0.588550  0.518900  0.836380  1.0  -0.3662
  C  C416  1  0.543420  0.394400  0.732280  1.0  -0.3423
  C  C417  1  0.943980  0.379400  0.566430  1.0  0.6714
  C  C418  1  0.974000  0.360300  0.639400  1.0  -0.007
  C  C419  1  0.006390  0.481400  0.677380  1.0  0.6653
  C  C420  1  0.041430  0.890600  0.941720  1.0  0.1726
  C  C421  1  0.039870  0.986100  0.974950  1.0  -0.1878
  C  C422  1  0.068310  0.972000  0.040660  1.0  -0.0004
  C  C423  1  0.070140  0.069100  0.082140  1.0  0.4749
  C  C424  1  0.068290  0.311100  0.097850  1.0  0.1728
  C  C425  1  0.097170  0.860500  0.070380  1.0  -0.1725
  C  C426  1  0.096630  0.770400  0.033330  1.0  0.1691
  C  C427  1  0.335750  0.718200  0.006760  1.0  0.1397
  C  C428  1  0.289460  0.703100  0.970300  1.0  -0.105
  C  C429  1  0.261680  0.813900  0.948700  1.0  -0.1909
  C  C430  1  0.281400  0.940800  0.964290  1.0  0.1766
  C  C431  1  0.328920  0.948500  0.002560  1.0  0.1431
  C  C432  1  0.079620  0.767900  0.832650  1.0  0.6824
  C  C433  1  0.149860  0.359000  0.853700  1.0  0.1746
  C  C434  1  0.184660  0.265000  0.891910  1.0  -0.1955
  C  C435  1  0.224350  0.278000  0.903840  1.0  0.0033
  C  C436  1  0.264420  0.181800  0.944910  1.0  0.4368
  C  C437  1  0.227570  0.386600  0.876700  1.0  -0.1589
  C  C438  1  0.191290  0.475700  0.839300  1.0  0.1642
  C  C439  1  0.001730  0.230300  0.663120  1.0  -0.3667
  C  C440  1  0.940460  0.353500  0.648920  1.0  -0.3354
  C  C441  1  0.081180  0.533100  0.164100  1.0  0.1446
  C  C442  1  0.068890  0.547900  0.106500  1.0  -0.0928
  C  C443  1  0.061680  0.436500  0.072000  1.0  -0.1737
  C  C444  1  0.079810  0.302100  0.155710  1.0  0.1423
  C  C445  1  0.129290  0.870600  0.816880  1.0  0.6835
  C  C446  1  0.085820  0.888400  0.805950  1.0  0.0125
  C  C447  1  0.088550  0.018900  0.836380  1.0  -0.3662
  C  C448  1  0.043420  0.894400  0.732280  1.0  -0.3423
  C  C449  1  0.556020  0.879400  0.933570  1.0  0.6707
  C  C450  1  0.526000  0.860300  0.860600  1.0  -0.0058
  C  C451  1  0.493610  0.981400  0.822620  1.0  0.6661
  C  C452  1  0.458570  0.390600  0.558280  1.0  0.1713
  C  C453  1  0.460130  0.486100  0.525050  1.0  -0.1906
  C  C454  1  0.431690  0.472000  0.459340  1.0  -1e-04
  C  C455  1  0.429860  0.569100  0.417860  1.0  0.4744
  C  C456  1  0.431710  0.811100  0.402150  1.0  0.1705
  C  C457  1  0.402830  0.360500  0.429620  1.0  -0.17
  C  C458  1  0.403370  0.270400  0.466670  1.0  0.172
  C  C459  1  0.164250  0.218200  0.493240  1.0  0.1393
  C  C460  1  0.210540  0.203100  0.529700  1.0  -0.0978
  C  C461  1  0.238320  0.313900  0.551300  1.0  -0.1815
  C  C462  1  0.218600  0.440800  0.535710  1.0  0.1755
  C  C463  1  0.171080  0.448500  0.497440  1.0  0.1418
  C  C464  1  0.420380  0.267900  0.667350  1.0  0.6803
  C  C465  1  0.350140  0.859000  0.646300  1.0  0.1736
  C  C466  1  0.315340  0.765000  0.608090  1.0  -0.1957
  C  C467  1  0.275650  0.778000  0.596160  1.0  0.0029
  C  C468  1  0.235580  0.681800  0.555090  1.0  0.4378
  C  C469  1  0.272430  0.886600  0.623300  1.0  -0.1597
  C  C470  1  0.308710  0.975700  0.660700  1.0  0.1658
  C  C471  1  0.498270  0.730300  0.836880  1.0  -0.3665
  C  C472  1  0.559540  0.853500  0.851080  1.0  -0.3356
  C  C473  1  0.418820  0.033100  0.335900  1.0  0.1438
  C  C474  1  0.431110  0.047900  0.393500  1.0  -0.0902
  C  C475  1  0.438320  0.936500  0.428000  1.0  -0.1758
  C  C476  1  0.420190  0.802100  0.344290  1.0  0.1485
  C  C477  1  0.370710  0.370600  0.683120  1.0  0.6812
  C  C478  1  0.414180  0.388400  0.694050  1.0  0.0117
  C  C479  1  0.411450  0.518900  0.663620  1.0  -0.365
  C  C480  1  0.456580  0.394400  0.767720  1.0  -0.3425
  C  C481  1  0.056020  0.379400  0.933570  1.0  0.6707
  C  C482  1  0.026000  0.360300  0.860600  1.0  -0.0058
  C  C483  1  0.993610  0.481400  0.822620  1.0  0.6661
  C  C484  1  0.958570  0.890600  0.558280  1.0  0.1713
  C  C485  1  0.960130  0.986100  0.525050  1.0  -0.1906
  C  C486  1  0.931690  0.972000  0.459340  1.0  -1e-04
  C  C487  1  0.929860  0.069100  0.417860  1.0  0.4744
  C  C488  1  0.931710  0.311100  0.402150  1.0  0.1715
  C  C489  1  0.902830  0.860500  0.429620  1.0  -0.17
  C  C490  1  0.903370  0.770400  0.466670  1.0  0.172
  C  C491  1  0.664250  0.718200  0.493240  1.0  0.1393
  C  C492  1  0.710540  0.703100  0.529700  1.0  -0.0978
  C  C493  1  0.738320  0.813900  0.551300  1.0  -0.1815
  C  C494  1  0.718600  0.940800  0.535710  1.0  0.1755
  C  C495  1  0.671080  0.948500  0.497440  1.0  0.1418
  C  C496  1  0.920380  0.767900  0.667350  1.0  0.6803
  C  C497  1  0.850140  0.359000  0.646300  1.0  0.1736
  C  C498  1  0.815340  0.265000  0.608090  1.0  -0.1957
  C  C499  1  0.775650  0.278000  0.596160  1.0  0.0029
  C  C500  1  0.735580  0.181800  0.555090  1.0  0.4378
  C  C501  1  0.772430  0.386600  0.623300  1.0  -0.1624
  C  C502  1  0.808710  0.475700  0.660700  1.0  0.1658
  C  C503  1  0.998270  0.230300  0.836880  1.0  -0.3665
  C  C504  1  0.059540  0.353500  0.851080  1.0  -0.3356
  C  C505  1  0.918820  0.533100  0.335900  1.0  0.1438
  C  C506  1  0.931110  0.547900  0.393500  1.0  -0.0891
  C  C507  1  0.938320  0.436500  0.428000  1.0  -0.1758
  C  C508  1  0.920190  0.302100  0.344290  1.0  0.145
  C  C509  1  0.870710  0.870600  0.683120  1.0  0.6812
  C  C510  1  0.914180  0.888400  0.694050  1.0  0.0117
  C  C511  1  0.911450  0.018900  0.663620  1.0  -0.365
  C  C512  1  0.956580  0.894400  0.767720  1.0  -0.3425
  N  N513  1  0.436420  0.301300  0.935880  1.0  -0.3604
  N  N514  1  0.413970  0.088700  0.811650  1.0  -0.2992
  N  N515  1  0.430920  0.716000  0.030320  1.0  -0.3156
  N  N516  1  0.144500  0.659600  0.976870  1.0  -0.3069
  N  N517  1  0.248000  0.448200  0.061060  1.0  -0.3811
  N  N518  1  0.347550  0.035800  0.171940  1.0  -0.3335
  N  N519  1  0.936420  0.801300  0.935880  1.0  -0.3604
  N  N520  1  0.913970  0.588700  0.811650  1.0  -0.2992
  N  N521  1  0.930920  0.216000  0.030320  1.0  -0.3156
  N  N522  1  0.644500  0.159600  0.976870  1.0  -0.3069
  N  N523  1  0.748000  0.948200  0.061060  1.0  -0.382
  N  N524  1  0.847550  0.535800  0.171940  1.0  -0.3335
  N  N525  1  0.563580  0.301300  0.564120  1.0  -0.3609
  N  N526  1  0.586030  0.088700  0.688350  1.0  -0.2974
  N  N527  1  0.569080  0.716000  0.469680  1.0  -0.3157
  N  N528  1  0.855500  0.659600  0.523130  1.0  -0.3058
  N  N529  1  0.752000  0.448200  0.438940  1.0  -0.3764
  N  N530  1  0.652450  0.035800  0.328060  1.0  -0.3345
  N  N531  1  0.063580  0.801300  0.564120  1.0  -0.3609
  N  N532  1  0.086030  0.588700  0.688350  1.0  -0.2974
  N  N533  1  0.069080  0.216000  0.469680  1.0  -0.3157
  N  N534  1  0.355500  0.159600  0.523130  1.0  -0.3058
  N  N535  1  0.252000  0.948200  0.438940  1.0  -0.3763
  N  N536  1  0.152450  0.535800  0.328060  1.0  -0.3345
  N  N537  1  0.563580  0.698700  0.064120  1.0  -0.3633
  N  N538  1  0.586030  0.911300  0.188350  1.0  -0.2974
  N  N539  1  0.569080  0.284000  0.969680  1.0  -0.3159
  N  N540  1  0.855500  0.340400  0.023130  1.0  -0.3062
  N  N541  1  0.752000  0.551800  0.938940  1.0  -0.3763
  N  N542  1  0.652450  0.964200  0.828060  1.0  -0.3352
  N  N543  1  0.063580  0.198700  0.064120  1.0  -0.3633
  N  N544  1  0.086030  0.411300  0.188350  1.0  -0.2974
  N  N545  1  0.069080  0.784000  0.969680  1.0  -0.3159
  N  N546  1  0.355500  0.840400  0.023130  1.0  -0.3062
  N  N547  1  0.252000  0.051800  0.938940  1.0  -0.3763
  N  N548  1  0.152450  0.464200  0.828060  1.0  -0.3354
  N  N549  1  0.436420  0.698700  0.435880  1.0  -0.3606
  N  N550  1  0.413970  0.911300  0.311650  1.0  -0.2994
  N  N551  1  0.430920  0.284000  0.530320  1.0  -0.3158
  N  N552  1  0.144500  0.340400  0.476870  1.0  -0.3074
  N  N553  1  0.248000  0.551800  0.561060  1.0  -0.3778
  N  N554  1  0.347550  0.964200  0.671940  1.0  -0.3337
  N  N555  1  0.936420  0.198700  0.435880  1.0  -0.3606
  N  N556  1  0.913970  0.411300  0.311650  1.0  -0.2994
  N  N557  1  0.930920  0.784000  0.530320  1.0  -0.3158
  N  N558  1  0.644500  0.840400  0.476870  1.0  -0.3074
  N  N559  1  0.748000  0.051800  0.561060  1.0  -0.3778
  N  N560  1  0.847550  0.464200  0.671940  1.0  -0.3341
  O  O561  1  0.581130  0.015300  0.461030  1.0  -0.6029
  O  O562  1  0.509000  0.901000  0.342350  1.0  -0.5853
  O  O563  1  0.423400  0.469800  0.871760  1.0  -0.5151
  O  O564  1  0.430260  0.708700  0.134960  1.0  -0.5762
  O  O565  1  0.415040  0.850300  0.177270  1.0  -0.5845
  O  O566  1  0.451910  0.041300  0.272710  1.0  -0.5592
  O  O567  1  0.342340  0.536600  0.158300  1.0  -0.6261
  O  O568  1  0.557000  0.210300  0.463670  1.0  -0.6163
  O  O569  1  0.195670  0.279600  0.019950  1.0  -0.5164
  O  O570  1  0.367240  0.735700  0.204400  1.0  -0.6001
  O  O571  1  0.081130  0.515300  0.461030  1.0  -0.6029
  O  O572  1  0.009000  0.401000  0.342350  1.0  -0.5853
  O  O573  1  0.923400  0.969800  0.871760  1.0  -0.5151
  O  O574  1  0.930260  0.208700  0.134960  1.0  -0.5762
  O  O575  1  0.915040  0.350300  0.177270  1.0  -0.5845
  O  O576  1  0.951910  0.541300  0.272710  1.0  -0.5592
  O  O577  1  0.842340  0.036600  0.158300  1.0  -0.6261
  O  O578  1  0.057000  0.710300  0.463670  1.0  -0.6163
  O  O579  1  0.695670  0.779600  0.019950  1.0  -0.5164
  O  O580  1  0.867240  0.235700  0.204400  1.0  -0.6001
  O  O581  1  0.418870  0.015300  0.038970  1.0  -0.602
  O  O582  1  0.491000  0.901000  0.157650  1.0  -0.5851
  O  O583  1  0.576600  0.469800  0.628240  1.0  -0.515
  O  O584  1  0.569740  0.708700  0.365040  1.0  -0.5771
  O  O585  1  0.584960  0.850300  0.322730  1.0  -0.5846
  O  O586  1  0.548090  0.041300  0.227290  1.0  -0.5585
  O  O587  1  0.657660  0.536600  0.341700  1.0  -0.6282
  O  O588  1  0.443000  0.210300  0.036330  1.0  -0.6175
  O  O589  1  0.804330  0.279600  0.480050  1.0  -0.5161
  O  O590  1  0.632760  0.735700  0.295600  1.0  -0.6017
  O  O591  1  0.918870  0.515300  0.038970  1.0  -0.602
  O  O592  1  0.991000  0.401000  0.157650  1.0  -0.5851
  O  O593  1  0.076600  0.969800  0.628240  1.0  -0.515
  O  O594  1  0.069740  0.208700  0.365040  1.0  -0.5771
  O  O595  1  0.084960  0.350300  0.322730  1.0  -0.5846
  O  O596  1  0.048090  0.541300  0.227290  1.0  -0.5585
  O  O597  1  0.157660  0.036600  0.341700  1.0  -0.6282
  O  O598  1  0.943000  0.710300  0.036330  1.0  -0.6175
  O  O599  1  0.304330  0.779600  0.480050  1.0  -0.5161
  O  O600  1  0.132760  0.235700  0.295600  1.0  -0.6017
  O  O601  1  0.418870  0.984700  0.538970  1.0  -0.6016
  O  O602  1  0.491000  0.099000  0.657650  1.0  -0.5854
  O  O603  1  0.576600  0.530200  0.128240  1.0  -0.5144
  O  O604  1  0.569740  0.291300  0.865040  1.0  -0.5769
  O  O605  1  0.584960  0.149700  0.822730  1.0  -0.5837
  O  O606  1  0.548090  0.958700  0.727290  1.0  -0.5585
  O  O607  1  0.657660  0.463400  0.841700  1.0  -0.628
  O  O608  1  0.443000  0.789700  0.536330  1.0  -0.6174
  O  O609  1  0.804330  0.720400  0.980050  1.0  -0.5159
  O  O610  1  0.632760  0.264300  0.795600  1.0  -0.6026
  O  O611  1  0.918870  0.484700  0.538970  1.0  -0.6016
  O  O612  1  0.991000  0.599000  0.657650  1.0  -0.5854
  O  O613  1  0.076600  0.030200  0.128240  1.0  -0.5144
  O  O614  1  0.069740  0.791300  0.865040  1.0  -0.5769
  O  O615  1  0.084960  0.649700  0.822730  1.0  -0.5837
  O  O616  1  0.048090  0.458700  0.727290  1.0  -0.5585
  O  O617  1  0.157660  0.963400  0.841700  1.0  -0.628
  O  O618  1  0.943000  0.289700  0.536330  1.0  -0.6174
  O  O619  1  0.304330  0.220400  0.980050  1.0  -0.5159
  O  O620  1  0.132760  0.764300  0.795600  1.0  -0.6026
  O  O621  1  0.581130  0.984700  0.961030  1.0  -0.6028
  O  O622  1  0.509000  0.099000  0.842350  1.0  -0.5858
  O  O623  1  0.423400  0.530200  0.371760  1.0  -0.5153
  O  O624  1  0.430260  0.291300  0.634960  1.0  -0.5758
  O  O625  1  0.415040  0.149700  0.677270  1.0  -0.5836
  O  O626  1  0.451910  0.958700  0.772710  1.0  -0.5591
  O  O627  1  0.342340  0.463400  0.658300  1.0  -0.6253
  O  O628  1  0.557000  0.789700  0.963670  1.0  -0.6162
  O  O629  1  0.195670  0.720400  0.519950  1.0  -0.5163
  O  O630  1  0.367240  0.264300  0.704400  1.0  -0.5993
  O  O631  1  0.081130  0.484700  0.961030  1.0  -0.6028
  O  O632  1  0.009000  0.599000  0.842350  1.0  -0.5858
  O  O633  1  0.923400  0.030200  0.371760  1.0  -0.5153
  O  O634  1  0.930260  0.791300  0.634960  1.0  -0.5758
  O  O635  1  0.915040  0.649700  0.677270  1.0  -0.5836
  O  O636  1  0.951910  0.458700  0.772710  1.0  -0.5591
  O  O637  1  0.842340  0.963400  0.658300  1.0  -0.6253
  O  O638  1  0.057000  0.289700  0.963670  1.0  -0.6162
  O  O639  1  0.695670  0.220400  0.519950  1.0  -0.5163
  O  O640  1  0.867240  0.764300  0.704400  1.0  -0.5993
