# generated using pymatgen
data_CoH5C6(N2O)2
_symmetry_space_group_name_H-M   'P 1'
_cell_length_a   12.32140000
_cell_length_b   12.32140000
_cell_length_c   26.00260000
_cell_angle_alpha   90.00000000
_cell_angle_beta   90.00000000
_cell_angle_gamma   90.00000000
_symmetry_Int_Tables_number   1
_chemical_formula_structural   CoH5C6(N2O)2
_chemical_formula_sum   'Co16 H80 C96 N64 O32'
_cell_volume   3947.63407089
_cell_formula_units_Z   16
loop_
 _symmetry_equiv_pos_site_id
 _symmetry_equiv_pos_as_xyz
  1  'x, y, z'
loop_
 _atom_site_type_symbol
 _atom_site_label
 _atom_site_symmetry_multiplicity
 _atom_site_fract_x
 _atom_site_fract_y
 _atom_site_fract_z
 _atom_site_occupancy
 _atom_site_charge
  Co  Co1  1  0.193670  0.298590  0.315980  1.0  0.8621
  Co  Co2  1  0.693670  0.798590  0.815980  1.0  0.8621
  Co  Co3  1  0.806330  0.701410  0.315980  1.0  0.8622
  Co  Co4  1  0.306330  0.201410  0.815980  1.0  0.8622
  Co  Co5  1  0.701410  0.193670  0.315980  1.0  0.863
  Co  Co6  1  0.201410  0.693670  0.815980  1.0  0.863
  Co  Co7  1  0.298590  0.806330  0.315980  1.0  0.8608
  Co  Co8  1  0.798590  0.306330  0.815980  1.0  0.8608
  Co  Co9  1  0.806330  0.701410  0.684020  1.0  0.8618
  Co  Co10  1  0.306330  0.201410  0.184020  1.0  0.8618
  Co  Co11  1  0.193670  0.298590  0.684020  1.0  0.8618
  Co  Co12  1  0.693670  0.798590  0.184020  1.0  0.8618
  Co  Co13  1  0.298590  0.806330  0.684020  1.0  0.8607
  Co  Co14  1  0.798590  0.306330  0.184020  1.0  0.8607
  Co  Co15  1  0.701410  0.193670  0.684020  1.0  0.8627
  Co  Co16  1  0.201410  0.693670  0.184020  1.0  0.8627
  H  H17  1  0.157800  0.594900  0.423800  1.0  0.1124
  H  H18  1  0.317400  0.969500  0.225800  1.0  0.0804
  H  H19  1  0.199800  0.113100  0.393900  1.0  0.3505
  H  H20  1  0.225200  0.994900  0.395500  1.0  0.3609
  H  H21  1  0.657800  0.094900  0.923800  1.0  0.1124
  H  H22  1  0.817400  0.469500  0.725800  1.0  0.0804
  H  H23  1  0.699800  0.613100  0.893900  1.0  0.3505
  H  H24  1  0.725200  0.494900  0.895500  1.0  0.3609
  H  H25  1  0.842200  0.405100  0.423800  1.0  0.113
  H  H26  1  0.682600  0.030500  0.225800  1.0  0.0804
  H  H27  1  0.800200  0.886900  0.393900  1.0  0.3515
  H  H28  1  0.774800  0.005100  0.395500  1.0  0.36
  H  H29  1  0.342200  0.905100  0.923800  1.0  0.113
  H  H30  1  0.182600  0.530500  0.725800  1.0  0.0804
  H  H31  1  0.300200  0.386900  0.893900  1.0  0.3515
  H  H32  1  0.274800  0.505100  0.895500  1.0  0.36
  H  H33  1  0.405100  0.157800  0.423800  1.0  0.113
  H  H34  1  0.030500  0.317400  0.225800  1.0  0.0802
  H  H35  1  0.886900  0.199800  0.393900  1.0  0.3527
  H  H36  1  0.005100  0.225200  0.395500  1.0  0.3612
  H  H37  1  0.905100  0.657800  0.923800  1.0  0.113
  H  H38  1  0.530500  0.817400  0.725800  1.0  0.0802
  H  H39  1  0.386900  0.699800  0.893900  1.0  0.3527
  H  H40  1  0.505100  0.725200  0.895500  1.0  0.3612
  H  H41  1  0.594900  0.842200  0.423800  1.0  0.1127
  H  H42  1  0.969500  0.682600  0.225800  1.0  0.0804
  H  H43  1  0.113100  0.800200  0.393900  1.0  0.3536
  H  H44  1  0.994900  0.774800  0.395500  1.0  0.3616
  H  H45  1  0.094900  0.342200  0.923800  1.0  0.1127
  H  H46  1  0.469500  0.182600  0.725800  1.0  0.0804
  H  H47  1  0.613100  0.300200  0.893900  1.0  0.3536
  H  H48  1  0.494900  0.274800  0.895500  1.0  0.3616
  H  H49  1  0.842200  0.405100  0.576200  1.0  0.1135
  H  H50  1  0.682600  0.030500  0.774200  1.0  0.0812
  H  H51  1  0.800200  0.886900  0.606100  1.0  0.3502
  H  H52  1  0.774800  0.005100  0.604500  1.0  0.3598
  H  H53  1  0.342200  0.905100  0.076200  1.0  0.1135
  H  H54  1  0.182600  0.530500  0.274200  1.0  0.0812
  H  H55  1  0.300200  0.386900  0.106100  1.0  0.3502
  H  H56  1  0.274800  0.505100  0.104500  1.0  0.3598
  H  H57  1  0.157800  0.594900  0.576200  1.0  0.1129
  H  H58  1  0.317400  0.969500  0.774200  1.0  0.0815
  H  H59  1  0.199800  0.113100  0.606100  1.0  0.3502
  H  H60  1  0.225200  0.994900  0.604500  1.0  0.3594
  H  H61  1  0.657800  0.094900  0.076200  1.0  0.1129
  H  H62  1  0.817400  0.469500  0.274200  1.0  0.0815
  H  H63  1  0.699800  0.613100  0.106100  1.0  0.3502
  H  H64  1  0.725200  0.494900  0.104500  1.0  0.3594
  H  H65  1  0.594900  0.842200  0.576200  1.0  0.1135
  H  H66  1  0.969500  0.682600  0.774200  1.0  0.0812
  H  H67  1  0.113100  0.800200  0.606100  1.0  0.3523
  H  H68  1  0.994900  0.774800  0.604500  1.0  0.3608
  H  H69  1  0.094900  0.342200  0.076200  1.0  0.1135
  H  H70  1  0.469500  0.182600  0.274200  1.0  0.0812
  H  H71  1  0.613100  0.300200  0.106100  1.0  0.3523
  H  H72  1  0.494900  0.274800  0.104500  1.0  0.3608
  H  H73  1  0.405100  0.157800  0.576200  1.0  0.1135
  H  H74  1  0.030500  0.317400  0.774200  1.0  0.0815
  H  H75  1  0.886900  0.199800  0.606100  1.0  0.352
  H  H76  1  0.005100  0.225200  0.604500  1.0  0.3597
  H  H77  1  0.905100  0.657800  0.076200  1.0  0.1135
  H  H78  1  0.530500  0.817400  0.274200  1.0  0.0815
  H  H79  1  0.386900  0.699800  0.106100  1.0  0.352
  H  H80  1  0.505100  0.725200  0.104500  1.0  0.3597
  H  H81  1  0.175200  0.310400  0.500000  1.0  0.1026
  H  H82  1  0.150200  0.682100  0.500000  1.0  0.0759
  H  H83  1  0.675200  0.810400  0.000000  1.0  0.1026
  H  H84  1  0.650200  0.182100  0.000000  1.0  0.0759
  H  H85  1  0.824800  0.689600  0.500000  1.0  0.1027
  H  H86  1  0.849800  0.317900  0.500000  1.0  0.0758
  H  H87  1  0.324800  0.189600  0.000000  1.0  0.1027
  H  H88  1  0.349800  0.817900  0.000000  1.0  0.0758
  H  H89  1  0.689600  0.175200  0.500000  1.0  0.1052
  H  H90  1  0.317900  0.150200  0.500000  1.0  0.0796
  H  H91  1  0.189600  0.675200  0.000000  1.0  0.1052
  H  H92  1  0.817900  0.650200  0.000000  1.0  0.0796
  H  H93  1  0.310400  0.824800  0.500000  1.0  0.1043
  H  H94  1  0.682100  0.849800  0.500000  1.0  0.0793
  H  H95  1  0.810400  0.324800  0.000000  1.0  0.1043
  H  H96  1  0.182100  0.349800  0.000000  1.0  0.0793
  C  C97  1  0.176600  0.381900  0.404400  1.0  0.6702
  C  C98  1  0.170400  0.442000  0.454000  1.0  -0.1448
  C  C99  1  0.161000  0.555900  0.454400  1.0  -0.1088
  C  C100  1  0.295700  0.011300  0.253700  1.0  0.2794
  C  C101  1  0.249700  0.058000  0.327900  1.0  0.6624
  C  C102  1  0.676600  0.881900  0.904400  1.0  0.6702
  C  C103  1  0.670400  0.942000  0.954000  1.0  -0.1448
  C  C104  1  0.661000  0.055900  0.954400  1.0  -0.1088
  C  C105  1  0.795700  0.511300  0.753700  1.0  0.2794
  C  C106  1  0.749700  0.558000  0.827900  1.0  0.6624
  C  C107  1  0.823400  0.618100  0.404400  1.0  0.6704
  C  C108  1  0.829600  0.558000  0.454000  1.0  -0.1456
  C  C109  1  0.839000  0.444100  0.454400  1.0  -0.1082
  C  C110  1  0.704300  0.988700  0.253700  1.0  0.2792
  C  C111  1  0.750300  0.942000  0.327900  1.0  0.6627
  C  C112  1  0.323400  0.118100  0.904400  1.0  0.6704
  C  C113  1  0.329600  0.058000  0.954000  1.0  -0.1456
  C  C114  1  0.339000  0.944100  0.954400  1.0  -0.1082
  C  C115  1  0.204300  0.488700  0.753700  1.0  0.2792
  C  C116  1  0.250300  0.442000  0.827900  1.0  0.6627
  C  C117  1  0.618100  0.176600  0.404400  1.0  0.6698
  C  C118  1  0.558000  0.170400  0.454000  1.0  -0.1432
  C  C119  1  0.444100  0.161000  0.454400  1.0  -0.1058
  C  C120  1  0.988700  0.295700  0.253700  1.0  0.2785
  C  C121  1  0.942000  0.249700  0.327900  1.0  0.6651
  C  C122  1  0.118100  0.676600  0.904400  1.0  0.6698
  C  C123  1  0.058000  0.670400  0.954000  1.0  -0.1432
  C  C124  1  0.944100  0.661000  0.954400  1.0  -0.1058
  C  C125  1  0.488700  0.795700  0.753700  1.0  0.2785
  C  C126  1  0.442000  0.749700  0.827900  1.0  0.6651
  C  C127  1  0.381900  0.823400  0.404400  1.0  0.6699
  C  C128  1  0.442000  0.829600  0.454000  1.0  -0.1434
  C  C129  1  0.555900  0.839000  0.454400  1.0  -0.1052
  C  C130  1  0.011300  0.704300  0.253700  1.0  0.279
  C  C131  1  0.058000  0.750300  0.327900  1.0  0.6649
  C  C132  1  0.881900  0.323400  0.904400  1.0  0.6699
  C  C133  1  0.942000  0.329600  0.954000  1.0  -0.1434
  C  C134  1  0.055900  0.339000  0.954400  1.0  -0.1052
  C  C135  1  0.511300  0.204300  0.753700  1.0  0.279
  C  C136  1  0.558000  0.250300  0.827900  1.0  0.6649
  C  C137  1  0.823400  0.618100  0.595600  1.0  0.6695
  C  C138  1  0.829600  0.558000  0.546000  1.0  -0.1472
  C  C139  1  0.839000  0.444100  0.545600  1.0  -0.1088
  C  C140  1  0.704300  0.988700  0.746300  1.0  0.2796
  C  C141  1  0.750300  0.942000  0.672100  1.0  0.6628
  C  C142  1  0.323400  0.118100  0.095600  1.0  0.6695
  C  C143  1  0.329600  0.058000  0.046000  1.0  -0.1472
  C  C144  1  0.339000  0.944100  0.045600  1.0  -0.1088
  C  C145  1  0.204300  0.488700  0.246300  1.0  0.2796
  C  C146  1  0.250300  0.442000  0.172100  1.0  0.6628
  C  C147  1  0.176600  0.381900  0.595600  1.0  0.6696
  C  C148  1  0.170400  0.442000  0.546000  1.0  -0.1475
  C  C149  1  0.161000  0.555900  0.545600  1.0  -0.1094
  C  C150  1  0.295700  0.011300  0.746300  1.0  0.2803
  C  C151  1  0.249700  0.058000  0.672100  1.0  0.6625
  C  C152  1  0.676600  0.881900  0.095600  1.0  0.6696
  C  C153  1  0.670400  0.942000  0.046000  1.0  -0.1475
  C  C154  1  0.661000  0.055900  0.045600  1.0  -0.1094
  C  C155  1  0.795700  0.511300  0.246300  1.0  0.2803
  C  C156  1  0.749700  0.558000  0.172100  1.0  0.6625
  C  C157  1  0.381900  0.823400  0.595600  1.0  0.6696
  C  C158  1  0.442000  0.829600  0.546000  1.0  -0.1449
  C  C159  1  0.555900  0.839000  0.545600  1.0  -0.1055
  C  C160  1  0.011300  0.704300  0.746300  1.0  0.2789
  C  C161  1  0.058000  0.750300  0.672100  1.0  0.665
  C  C162  1  0.881900  0.323400  0.095600  1.0  0.6696
  C  C163  1  0.942000  0.329600  0.046000  1.0  -0.1449
  C  C164  1  0.055900  0.339000  0.045600  1.0  -0.1055
  C  C165  1  0.511300  0.204300  0.246300  1.0  0.2789
  C  C166  1  0.558000  0.250300  0.172100  1.0  0.665
  C  C167  1  0.618100  0.176600  0.595600  1.0  0.6691
  C  C168  1  0.558000  0.170400  0.546000  1.0  -0.1453
  C  C169  1  0.444100  0.161000  0.545600  1.0  -0.1064
  C  C170  1  0.988700  0.295700  0.746300  1.0  0.2793
  C  C171  1  0.942000  0.249700  0.672100  1.0  0.6652
  C  C172  1  0.118100  0.676600  0.095600  1.0  0.6691
  C  C173  1  0.058000  0.670400  0.046000  1.0  -0.1453
  C  C174  1  0.944100  0.661000  0.045600  1.0  -0.1064
  C  C175  1  0.488700  0.795700  0.246300  1.0  0.2793
  C  C176  1  0.442000  0.749700  0.172100  1.0  0.6652
  C  C177  1  0.172400  0.385800  0.500000  1.0  -0.003
  C  C178  1  0.156600  0.606900  0.500000  1.0  -0.1078
  C  C179  1  0.672400  0.885800  0.000000  1.0  -0.003
  C  C180  1  0.656600  0.106900  0.000000  1.0  -0.1078
  C  C181  1  0.827600  0.614200  0.500000  1.0  -0.0051
  C  C182  1  0.843400  0.393100  0.500000  1.0  -0.1099
  C  C183  1  0.327600  0.114200  0.000000  1.0  -0.0051
  C  C184  1  0.343400  0.893100  0.000000  1.0  -0.1099
  C  C185  1  0.614200  0.172400  0.500000  1.0  -0.004
  C  C186  1  0.393100  0.156600  0.500000  1.0  -0.1114
  C  C187  1  0.114200  0.672400  0.000000  1.0  -0.004
  C  C188  1  0.893100  0.656600  0.000000  1.0  -0.1114
  C  C189  1  0.385800  0.827600  0.500000  1.0  -0.0049
  C  C190  1  0.606900  0.843400  0.500000  1.0  -0.1104
  C  C191  1  0.885800  0.327600  0.000000  1.0  -0.0049
  C  C192  1  0.106900  0.343400  0.000000  1.0  -0.1104
  N  N193  1  0.246000  0.147700  0.299540  1.0  -0.3944
  N  N194  1  0.281400  0.970200  0.301000  1.0  -0.5099
  N  N195  1  0.221400  0.054900  0.378700  1.0  -0.7342
  N  N196  1  0.276300  0.115800  0.250420  1.0  -0.3235
  N  N197  1  0.746000  0.647700  0.799540  1.0  -0.3944
  N  N198  1  0.781400  0.470200  0.801000  1.0  -0.5099
  N  N199  1  0.721400  0.554900  0.878700  1.0  -0.7342
  N  N200  1  0.776300  0.615800  0.750420  1.0  -0.3235
  N  N201  1  0.754000  0.852300  0.299540  1.0  -0.3941
  N  N202  1  0.718600  0.029800  0.301000  1.0  -0.5095
  N  N203  1  0.778600  0.945100  0.378700  1.0  -0.7344
  N  N204  1  0.723700  0.884200  0.250420  1.0  -0.3254
  N  N205  1  0.254000  0.352300  0.799540  1.0  -0.3941
  N  N206  1  0.218600  0.529800  0.801000  1.0  -0.5095
  N  N207  1  0.278600  0.445100  0.878700  1.0  -0.7344
  N  N208  1  0.223700  0.384200  0.750420  1.0  -0.3254
  N  N209  1  0.852300  0.246000  0.299540  1.0  -0.3954
  N  N210  1  0.029800  0.281400  0.301000  1.0  -0.5103
  N  N211  1  0.945100  0.221400  0.378700  1.0  -0.7338
  N  N212  1  0.884200  0.276300  0.250420  1.0  -0.3242
  N  N213  1  0.352300  0.746000  0.799540  1.0  -0.3954
  N  N214  1  0.529800  0.781400  0.801000  1.0  -0.5103
  N  N215  1  0.445100  0.721400  0.878700  1.0  -0.7338
  N  N216  1  0.384200  0.776300  0.750420  1.0  -0.3242
  N  N217  1  0.147700  0.754000  0.299540  1.0  -0.3944
  N  N218  1  0.970200  0.718600  0.301000  1.0  -0.5095
  N  N219  1  0.054900  0.778600  0.378700  1.0  -0.7342
  N  N220  1  0.115800  0.723700  0.250420  1.0  -0.3222
  N  N221  1  0.647700  0.254000  0.799540  1.0  -0.3944
  N  N222  1  0.470200  0.218600  0.801000  1.0  -0.5095
  N  N223  1  0.554900  0.278600  0.878700  1.0  -0.7342
  N  N224  1  0.615800  0.223700  0.750420  1.0  -0.3222
  N  N225  1  0.754000  0.852300  0.700460  1.0  -0.3943
  N  N226  1  0.718600  0.029800  0.699000  1.0  -0.5094
  N  N227  1  0.778600  0.945100  0.621300  1.0  -0.7318
  N  N228  1  0.723700  0.884200  0.749580  1.0  -0.3232
  N  N229  1  0.254000  0.352300  0.200460  1.0  -0.3943
  N  N230  1  0.218600  0.529800  0.199000  1.0  -0.5094
  N  N231  1  0.278600  0.445100  0.121300  1.0  -0.7318
  N  N232  1  0.223700  0.384200  0.249580  1.0  -0.3232
  N  N233  1  0.246000  0.147700  0.700460  1.0  -0.3948
  N  N234  1  0.281400  0.970200  0.699000  1.0  -0.5097
  N  N235  1  0.221400  0.054900  0.621300  1.0  -0.7318
  N  N236  1  0.276300  0.115800  0.749580  1.0  -0.3229
  N  N237  1  0.746000  0.647700  0.200460  1.0  -0.3948
  N  N238  1  0.781400  0.470200  0.199000  1.0  -0.5097
  N  N239  1  0.721400  0.554900  0.121300  1.0  -0.7318
  N  N240  1  0.776300  0.615800  0.249580  1.0  -0.3229
  N  N241  1  0.147700  0.754000  0.700460  1.0  -0.3947
  N  N242  1  0.970200  0.718600  0.699000  1.0  -0.509
  N  N243  1  0.054900  0.778600  0.621300  1.0  -0.732
  N  N244  1  0.115800  0.723700  0.749580  1.0  -0.3207
  N  N245  1  0.647700  0.254000  0.200460  1.0  -0.3947
  N  N246  1  0.470200  0.218600  0.199000  1.0  -0.509
  N  N247  1  0.554900  0.278600  0.121300  1.0  -0.732
  N  N248  1  0.615800  0.223700  0.249580  1.0  -0.3207
  N  N249  1  0.852300  0.246000  0.700460  1.0  -0.3954
  N  N250  1  0.029800  0.281400  0.699000  1.0  -0.5107
  N  N251  1  0.945100  0.221400  0.621300  1.0  -0.7314
  N  N252  1  0.884200  0.276300  0.749580  1.0  -0.3228
  N  N253  1  0.352300  0.746000  0.200460  1.0  -0.3954
  N  N254  1  0.529800  0.781400  0.199000  1.0  -0.5107
  N  N255  1  0.445100  0.721400  0.121300  1.0  -0.7314
  N  N256  1  0.384200  0.776300  0.249580  1.0  -0.3228
  O  O257  1  0.168900  0.281200  0.403500  1.0  -0.6135
  O  O258  1  0.188800  0.436500  0.362940  1.0  -0.5893
  O  O259  1  0.668900  0.781200  0.903500  1.0  -0.6135
  O  O260  1  0.688800  0.936500  0.862940  1.0  -0.5893
  O  O261  1  0.831100  0.718800  0.403500  1.0  -0.6145
  O  O262  1  0.811200  0.563500  0.362940  1.0  -0.5886
  O  O263  1  0.331100  0.218800  0.903500  1.0  -0.6145
  O  O264  1  0.311200  0.063500  0.862940  1.0  -0.5886
  O  O265  1  0.718800  0.168900  0.403500  1.0  -0.6123
  O  O266  1  0.563500  0.188800  0.362940  1.0  -0.5881
  O  O267  1  0.218800  0.668900  0.903500  1.0  -0.6123
  O  O268  1  0.063500  0.688800  0.862940  1.0  -0.5881
  O  O269  1  0.281200  0.831100  0.403500  1.0  -0.6113
  O  O270  1  0.436500  0.811200  0.362940  1.0  -0.5883
  O  O271  1  0.781200  0.331100  0.903500  1.0  -0.6113
  O  O272  1  0.936500  0.311200  0.862940  1.0  -0.5883
  O  O273  1  0.831100  0.718800  0.596500  1.0  -0.615
  O  O274  1  0.811200  0.563500  0.637060  1.0  -0.5877
  O  O275  1  0.331100  0.218800  0.096500  1.0  -0.615
  O  O276  1  0.311200  0.063500  0.137060  1.0  -0.5877
  O  O277  1  0.168900  0.281200  0.596500  1.0  -0.6141
  O  O278  1  0.188800  0.436500  0.637060  1.0  -0.5891
  O  O279  1  0.668900  0.781200  0.096500  1.0  -0.6141
  O  O280  1  0.688800  0.936500  0.137060  1.0  -0.5891
  O  O281  1  0.281200  0.831100  0.596500  1.0  -0.6119
  O  O282  1  0.436500  0.811200  0.637060  1.0  -0.5877
  O  O283  1  0.781200  0.331100  0.096500  1.0  -0.6119
  O  O284  1  0.936500  0.311200  0.137060  1.0  -0.5877
  O  O285  1  0.718800  0.168900  0.596500  1.0  -0.6125
  O  O286  1  0.563500  0.188800  0.637060  1.0  -0.5871
  O  O287  1  0.218800  0.668900  0.096500  1.0  -0.6125
  O  O288  1  0.063500  0.688800  0.137060  1.0  -0.5871
