# generated using pymatgen
data_Zn5(PO4)4
_symmetry_space_group_name_H-M   'P 1'
_cell_length_a   7.25900000
_cell_length_b   13.40700000
_cell_length_c   18.03100000
_cell_angle_alpha   90.00000000
_cell_angle_beta   90.00000000
_cell_angle_gamma   90.00000000
_symmetry_Int_Tables_number   1
_chemical_formula_structural   Zn5(PO4)4
_chemical_formula_sum   'Zn20 P16 O64'
_cell_volume   1754.80239780
_cell_formula_units_Z   4
loop_
 _symmetry_equiv_pos_site_id
 _symmetry_equiv_pos_as_xyz
  1  'x, y, z'
loop_
 _atom_site_type_symbol
 _atom_site_label
 _atom_site_symmetry_multiplicity
 _atom_site_fract_x
 _atom_site_fract_y
 _atom_site_fract_z
 _atom_site_occupancy
 _atom_site_charge
  Zn  Zn1  1  0.486500  0.614940  0.206590  1.0  1.0876
  Zn  Zn2  1  0.499200  0.370660  0.222910  1.0  1.0953
  Zn  Zn3  1  0.857200  0.498460  0.418770  1.0  1.153
  Zn  Zn4  1  0.053600  0.857940  0.302790  1.0  0.9905
  Zn  Zn5  1  0.942400  0.611900  0.186090  1.0  0.9932
  Zn  Zn6  1  0.013500  0.385060  0.706590  1.0  1.0876
  Zn  Zn7  1  0.000800  0.629340  0.722910  1.0  1.0944
  Zn  Zn8  1  0.642800  0.501540  0.918770  1.0  1.1535
  Zn  Zn9  1  0.446400  0.142060  0.802790  1.0  0.9892
  Zn  Zn10  1  0.557600  0.388100  0.686090  1.0  0.9949
  Zn  Zn11  1  0.513500  0.114940  0.293410  1.0  1.0894
  Zn  Zn12  1  0.500800  0.870660  0.277090  1.0  1.0946
  Zn  Zn13  1  0.142800  0.998460  0.081230  1.0  1.1514
  Zn  Zn14  1  0.946400  0.357940  0.197210  1.0  0.9873
  Zn  Zn15  1  0.057600  0.111900  0.313910  1.0  0.9966
  Zn  Zn16  1  0.986500  0.885060  0.793410  1.0  1.0893
  Zn  Zn17  1  0.999200  0.129340  0.777090  1.0  1.095
  Zn  Zn18  1  0.357200  0.001540  0.581230  1.0  1.1525
  Zn  Zn19  1  0.553600  0.642060  0.697210  1.0  0.9893
  Zn  Zn20  1  0.442400  0.888100  0.813910  1.0  0.9948
  P  P21  1  0.682300  0.480400  0.093400  1.0  1.8727
  P  P22  1  0.739600  0.690800  0.329100  1.0  1.7273
  P  P23  1  0.240400  0.788700  0.152600  1.0  1.9913
  P  P24  1  0.189500  0.496100  0.293000  1.0  1.9653
  P  P25  1  0.817700  0.519600  0.593400  1.0  1.8722
  P  P26  1  0.760400  0.309200  0.829100  1.0  1.7272
  P  P27  1  0.259600  0.211300  0.652600  1.0  1.9912
  P  P28  1  0.310500  0.503900  0.793000  1.0  1.9655
  P  P29  1  0.317700  0.980400  0.406600  1.0  1.8741
  P  P30  1  0.260400  0.190800  0.170900  1.0  1.7259
  P  P31  1  0.759600  0.288700  0.347400  1.0  1.99
  P  P32  1  0.810500  0.996100  0.207000  1.0  1.9655
  P  P33  1  0.182300  0.019600  0.906600  1.0  1.8738
  P  P34  1  0.239600  0.809200  0.670900  1.0  1.727
  P  P35  1  0.740400  0.711300  0.847400  1.0  1.9902
  P  P36  1  0.689500  0.003900  0.707000  1.0  1.9651
  O  O37  1  0.406000  0.720900  0.142300  1.0  -0.7661
  O  O38  1  0.531300  0.485500  0.156900  1.0  -0.9303
  O  O39  1  0.303000  0.589300  0.281400  1.0  -0.7824
  O  O40  1  0.304600  0.403300  0.290400  1.0  -0.7795
  O  O41  1  0.573000  0.764200  0.339100  1.0  -0.7831
  O  O42  1  0.711800  0.612200  0.386500  1.0  -0.7413
  O  O43  1  0.581900  0.476700  0.021200  1.0  -0.7345
  O  O44  1  0.238400  0.862900  0.091100  1.0  -0.757
  O  O45  1  0.093600  0.505200  0.366600  1.0  -0.8247
  O  O46  1  0.929000  0.740500  0.335500  1.0  -0.7884
  O  O47  1  0.259000  0.840800  0.228700  1.0  -0.906
  O  O48  1  0.798500  0.387200  0.109900  1.0  -0.7343
  O  O49  1  0.043400  0.488800  0.230600  1.0  -0.8776
  O  O50  1  0.799000  0.571900  0.098700  1.0  -0.7341
  O  O51  1  0.726300  0.647900  0.249500  1.0  -0.9099
  O  O52  1  0.060000  0.730900  0.152500  1.0  -0.8305
  O  O53  1  0.094000  0.279100  0.642300  1.0  -0.7657
  O  O54  1  0.968700  0.514500  0.656900  1.0  -0.9307
  O  O55  1  0.197000  0.410700  0.781400  1.0  -0.7835
  O  O56  1  0.195400  0.596700  0.790400  1.0  -0.78
  O  O57  1  0.927000  0.235800  0.839100  1.0  -0.7834
  O  O58  1  0.788200  0.387800  0.886500  1.0  -0.7394
  O  O59  1  0.918100  0.523300  0.521200  1.0  -0.7332
  O  O60  1  0.261600  0.137100  0.591100  1.0  -0.757
  O  O61  1  0.406400  0.494800  0.866600  1.0  -0.8246
  O  O62  1  0.571000  0.259500  0.835500  1.0  -0.7882
  O  O63  1  0.241000  0.159200  0.728700  1.0  -0.9065
  O  O64  1  0.701500  0.612800  0.609900  1.0  -0.7326
  O  O65  1  0.456600  0.511200  0.730600  1.0  -0.877
  O  O66  1  0.701000  0.428100  0.598700  1.0  -0.7335
  O  O67  1  0.773700  0.352100  0.749500  1.0  -0.9105
  O  O68  1  0.440000  0.269100  0.652500  1.0  -0.8304
  O  O69  1  0.594000  0.220900  0.357700  1.0  -0.7637
  O  O70  1  0.468700  0.985500  0.343100  1.0  -0.9301
  O  O71  1  0.697000  0.089300  0.218600  1.0  -0.7824
  O  O72  1  0.695400  0.903300  0.209600  1.0  -0.7806
  O  O73  1  0.427000  0.264200  0.160900  1.0  -0.7838
  O  O74  1  0.288200  0.112200  0.113500  1.0  -0.7402
  O  O75  1  0.418100  0.976700  0.478800  1.0  -0.7334
  O  O76  1  0.761600  0.362900  0.408900  1.0  -0.7573
  O  O77  1  0.906400  0.005200  0.133400  1.0  -0.8258
  O  O78  1  0.071000  0.240500  0.164500  1.0  -0.7857
  O  O79  1  0.741000  0.340800  0.271300  1.0  -0.9057
  O  O80  1  0.201500  0.887200  0.390100  1.0  -0.7327
  O  O81  1  0.956600  0.988800  0.269400  1.0  -0.8794
  O  O82  1  0.201000  0.071900  0.401300  1.0  -0.7321
  O  O83  1  0.273700  0.147900  0.250500  1.0  -0.9104
  O  O84  1  0.940000  0.230900  0.347500  1.0  -0.83
  O  O85  1  0.906000  0.779100  0.857700  1.0  -0.7637
  O  O86  1  0.031300  0.014500  0.843100  1.0  -0.93
  O  O87  1  0.803000  0.910700  0.718600  1.0  -0.7836
  O  O88  1  0.804600  0.096700  0.709600  1.0  -0.7803
  O  O89  1  0.073000  0.735800  0.660900  1.0  -0.7834
  O  O90  1  0.211800  0.887800  0.613500  1.0  -0.7396
  O  O91  1  0.081900  0.023300  0.978800  1.0  -0.7337
  O  O92  1  0.738400  0.637100  0.908900  1.0  -0.7574
  O  O93  1  0.593600  0.994800  0.633400  1.0  -0.8241
  O  O94  1  0.429000  0.759500  0.664500  1.0  -0.786
  O  O95  1  0.759000  0.659200  0.771300  1.0  -0.9058
  O  O96  1  0.298500  0.112800  0.890100  1.0  -0.7328
  O  O97  1  0.543400  0.011200  0.769400  1.0  -0.88
  O  O98  1  0.299000  0.928100  0.901300  1.0  -0.7334
  O  O99  1  0.226300  0.852100  0.750500  1.0  -0.9105
  O  O100  1  0.560000  0.769100  0.847500  1.0  -0.8303
