# generated using pymatgen
data_CuH7C14N3O4
_symmetry_space_group_name_H-M   'P 1'
_cell_length_a   11.08170000
_cell_length_b   13.25730000
_cell_length_c   21.72500000
_cell_angle_alpha   82.84000000
_cell_angle_beta   77.26300000
_cell_angle_gamma   71.66000000
_symmetry_Int_Tables_number   1
_chemical_formula_structural   CuH7C14N3O4
_chemical_formula_sum   'Cu8 H56 C112 N24 O32'
_cell_volume   2949.75518446
_cell_formula_units_Z   8
loop_
 _symmetry_equiv_pos_site_id
 _symmetry_equiv_pos_as_xyz
  1  'x, y, z'
loop_
 _atom_site_type_symbol
 _atom_site_label
 _atom_site_symmetry_multiplicity
 _atom_site_fract_x
 _atom_site_fract_y
 _atom_site_fract_z
 _atom_site_occupancy
 _atom_site_charge
  Cu  Cu1  1  0.236210  0.552660  0.749180  1.0  0.7041
  Cu  Cu2  1  0.254670  0.061570  0.789840  1.0  0.6964
  Cu  Cu3  1  0.460850  0.206820  0.025420  1.0  0.5577
  Cu  Cu4  1  0.063370  0.791130  0.444170  1.0  0.7617
  Cu  Cu5  1  0.763790  0.447340  0.250820  1.0  0.7046
  Cu  Cu6  1  0.745330  0.938430  0.210160  1.0  0.697
  Cu  Cu7  1  0.539150  0.793180  0.974580  1.0  0.5583
  Cu  Cu8  1  0.936630  0.208870  0.555830  1.0  0.7639
  H  H9  1  0.966800  0.537600  0.794800  1.0  0.1084
  H  H10  1  0.722300  0.777900  0.711800  1.0  0.1342
  H  H11  1  0.900000  0.818900  0.648800  1.0  0.1352
  H  H12  1  0.103900  0.724600  0.665000  1.0  0.1043
  H  H13  1  0.446100  0.852600  0.807100  1.0  0.101
  H  H14  1  0.089200  0.964000  0.896100  1.0  0.1132
  H  H15  1  0.091000  0.797800  0.942400  1.0  0.1303
  H  H16  1  0.277700  0.656600  0.923500  1.0  0.1343
  H  H17  1  0.500300  0.404100  0.954600  1.0  0.0955
  H  H18  1  0.742200  0.119000  0.968600  1.0  0.1134
  H  H19  1  0.908200  0.173500  0.906500  1.0  0.1368
  H  H20  1  0.873400  0.350200  0.871400  1.0  0.1324
  H  H21  1  0.898600  0.578000  0.917000  1.0  0.1173
  H  H22  1  0.582500  0.461400  0.591400  1.0  0.1289
  H  H23  1  0.792900  0.835200  0.439800  1.0  0.1046
  H  H24  1  0.611300  0.795200  0.496700  1.0  0.1421
  H  H25  1  0.631500  0.663200  0.577800  1.0  0.1293
  H  H26  1  0.013200  0.614100  0.537300  1.0  0.1012
  H  H27  1  0.208500  0.423000  0.609800  1.0  0.1395
  H  H28  1  0.411300  0.312400  0.623600  1.0  0.1305
  H  H29  1  0.428300  0.167200  0.691700  1.0  0.1081
  H  H30  1  0.050700  0.241300  0.744100  1.0  0.1025
  H  H31  1  0.513500  0.543500  0.707100  1.0  0.0948
  H  H32  1  0.351700  0.347600  0.816900  1.0  0.099
  H  H33  1  0.550400  0.232700  0.828700  1.0  0.1266
  H  H34  1  0.738100  0.270400  0.774100  1.0  0.1375
  H  H35  1  0.656500  0.089600  0.706100  1.0  0.1292
  H  H36  1  0.922000  0.916100  0.846400  1.0  0.115
  H  H37  1  0.033200  0.462400  0.205200  1.0  0.1077
  H  H38  1  0.277700  0.222100  0.288200  1.0  0.1341
  H  H39  1  0.100000  0.181100  0.351200  1.0  0.1348
  H  H40  1  0.896100  0.275400  0.335000  1.0  0.1033
  H  H41  1  0.553900  0.147400  0.192900  1.0  0.1016
  H  H42  1  0.910800  0.036000  0.103900  1.0  0.1134
  H  H43  1  0.909000  0.202200  0.057600  1.0  0.1284
  H  H44  1  0.722300  0.343400  0.076500  1.0  0.134
  H  H45  1  0.499700  0.595900  0.045400  1.0  0.0959
  H  H46  1  0.257800  0.881000  0.031400  1.0  0.1119
  H  H47  1  0.091800  0.826500  0.093500  1.0  0.1365
  H  H48  1  0.126600  0.649800  0.128600  1.0  0.1318
  H  H49  1  0.101400  0.422000  0.083000  1.0  0.1183
  H  H50  1  0.417500  0.538600  0.408600  1.0  0.1287
  H  H51  1  0.207100  0.164800  0.560200  1.0  0.1066
  H  H52  1  0.388700  0.204800  0.503300  1.0  0.1409
  H  H53  1  0.368500  0.336800  0.422200  1.0  0.1294
  H  H54  1  0.986800  0.385900  0.462700  1.0  0.1009
  H  H55  1  0.791500  0.577000  0.390200  1.0  0.1396
  H  H56  1  0.588700  0.687600  0.376400  1.0  0.1312
  H  H57  1  0.571700  0.832800  0.308300  1.0  0.1082
  H  H58  1  0.949300  0.758700  0.255900  1.0  0.102
  H  H59  1  0.486500  0.456500  0.292900  1.0  0.0951
  H  H60  1  0.648300  0.652400  0.183100  1.0  0.0996
  H  H61  1  0.449600  0.767300  0.171300  1.0  0.1258
  H  H62  1  0.261900  0.729600  0.225900  1.0  0.1365
  H  H63  1  0.343500  0.910400  0.293900  1.0  0.1288
  H  H64  1  0.078000  0.083900  0.153600  1.0  0.1148
  C  C65  1  0.953200  0.595900  0.765700  1.0  0.165
  C  C66  1  0.827000  0.651500  0.760300  1.0  -0.2119
  C  C67  1  0.806000  0.738100  0.716200  1.0  0.046
  C  C68  1  0.910900  0.763200  0.679700  1.0  -0.0829
  C  C69  1  0.033600  0.705000  0.689200  1.0  0.1883
  C  C70  1  0.720000  0.620300  0.802900  1.0  0.3861
  C  C71  1  0.650200  0.502800  0.875900  1.0  0.3807
  C  C72  1  0.510400  0.660300  0.851200  1.0  0.3609
  C  C73  1  0.383400  0.740400  0.864100  1.0  -0.1489
  C  C74  1  0.373900  0.841800  0.835000  1.0  0.2043
  C  C75  1  0.163500  0.907000  0.886600  1.0  0.156
  C  C76  1  0.164900  0.807600  0.915500  1.0  -0.135
  C  C77  1  0.275500  0.723700  0.904300  1.0  0.0068
  C  C78  1  0.680000  0.395000  0.907000  1.0  -0.1639
  C  C79  1  0.583100  0.356900  0.944600  1.0  0.212
  C  C80  1  0.725700  0.189600  0.952900  1.0  0.1864
  C  C81  1  0.826300  0.222100  0.916300  1.0  -0.0988
  C  C82  1  0.805400  0.326100  0.894300  1.0  -0.0283
  C  C83  1  0.123900  0.462600  0.867800  1.0  0.6611
  C  C84  1  0.065400  0.478300  0.937300  1.0  -0.0439
  C  C85  1  0.939600  0.546500  0.950600  1.0  -0.0941
  C  C86  1  0.128100  0.429800  0.987800  1.0  -0.0923
  C  C87  1  0.261300  0.350400  0.979200  1.0  0.6923
  C  C88  1  0.365400  0.604200  0.617000  1.0  0.6808
  C  C89  1  0.430000  0.552800  0.554900  1.0  -0.066
  C  C90  1  0.549000  0.477200  0.554400  1.0  -0.0595
  C  C91  1  0.379700  0.576100  0.499100  1.0  -0.1148
  C  C92  1  0.251600  0.658400  0.495800  1.0  0.6878
  C  C93  1  0.801600  0.781700  0.472100  1.0  0.1843
  C  C94  1  0.692300  0.758200  0.506000  1.0  -0.1075
  C  C95  1  0.704300  0.679400  0.553700  1.0  0.0603
  C  C96  1  0.827400  0.624400  0.565300  1.0  -0.1344
  C  C97  1  0.931000  0.651700  0.529600  1.0  0.2004
  C  C98  1  0.844900  0.537900  0.615900  1.0  0.367
  C  C99  1  0.759500  0.439900  0.695200  1.0  0.3899
  C  C100  1  0.976200  0.404200  0.667300  1.0  0.3638
  C  C101  1  0.107500  0.340900  0.675900  1.0  -0.1104
  C  C102  1  0.216600  0.364600  0.638800  1.0  -0.0369
  C  C103  1  0.336600  0.298100  0.646800  1.0  -0.1299
  C  C104  1  0.346100  0.212000  0.688300  1.0  0.1852
  C  C105  1  0.124000  0.254500  0.718600  1.0  0.2073
  C  C106  1  0.643600  0.412300  0.733400  1.0  -0.123
  C  C107  1  0.521400  0.479200  0.730900  1.0  0.2132
  C  C108  1  0.426200  0.364800  0.796100  1.0  0.1693
  C  C109  1  0.545500  0.294700  0.802800  1.0  -0.0942
  C  C110  1  0.656900  0.317000  0.770900  1.0  -0.0226
  C  C111  1  0.058500  0.003200  0.755900  1.0  0.6947
  C  C112  1  0.918800  0.003700  0.763700  1.0  -0.0774
  C  C113  1  0.838100  0.054200  0.721700  1.0  -0.1377
  C  C114  1  0.709300  0.056100  0.735000  1.0  -0.0204
  C  C115  1  0.657100  0.008300  0.791700  1.0  -0.0808
  C  C116  1  0.739000  0.953700  0.833900  1.0  -0.0527
  C  C117  1  0.867400  0.952600  0.818700  1.0  -0.073
  C  C118  1  0.887200  0.114400  0.663000  1.0  0.674
  C  C119  1  0.511900  0.033500  0.812200  1.0  0.7022
  C  C120  1  0.691500  0.900200  0.893900  1.0  0.7469
  C  C121  1  0.046800  0.404100  0.234300  1.0  0.1687
  C  C122  1  0.173000  0.348500  0.239700  1.0  -0.2109
  C  C123  1  0.194000  0.261900  0.283800  1.0  0.0487
  C  C124  1  0.089100  0.236800  0.320300  1.0  -0.0849
  C  C125  1  0.966400  0.295000  0.310800  1.0  0.1888
  C  C126  1  0.280000  0.379700  0.197100  1.0  0.3866
  C  C127  1  0.349800  0.497200  0.124100  1.0  0.3802
  C  C128  1  0.489600  0.339700  0.148800  1.0  0.3584
  C  C129  1  0.616600  0.259600  0.135900  1.0  -0.1491
  C  C130  1  0.626100  0.158200  0.165000  1.0  0.2116
  C  C131  1  0.836500  0.093000  0.113400  1.0  0.1562
  C  C132  1  0.835100  0.192400  0.084500  1.0  -0.1394
  C  C133  1  0.724500  0.276300  0.095700  1.0  0.0046
  C  C134  1  0.320000  0.605000  0.093000  1.0  -0.1646
  C  C135  1  0.416900  0.643100  0.055400  1.0  0.2123
  C  C136  1  0.274300  0.810400  0.047100  1.0  0.1879
  C  C137  1  0.173700  0.777900  0.083700  1.0  -0.0995
  C  C138  1  0.194600  0.673900  0.105700  1.0  -0.0267
  C  C139  1  0.876100  0.537400  0.132200  1.0  0.6648
  C  C140  1  0.934600  0.521700  0.062700  1.0  -0.0437
  C  C141  1  0.060400  0.453500  0.049400  1.0  -0.0926
  C  C142  1  0.871900  0.570200  0.012200  1.0  -0.0974
  C  C143  1  0.738700  0.649600  0.020800  1.0  0.6926
  C  C144  1  0.634600  0.395800  0.383000  1.0  0.6828
  C  C145  1  0.570000  0.447200  0.445100  1.0  -0.066
  C  C146  1  0.451000  0.522800  0.445600  1.0  -0.0596
  C  C147  1  0.620300  0.423900  0.500900  1.0  -0.115
  C  C148  1  0.748400  0.341600  0.504200  1.0  0.6818
  C  C149  1  0.198400  0.218300  0.527900  1.0  0.1803
  C  C150  1  0.307700  0.241800  0.494000  1.0  -0.1038
  C  C151  1  0.295700  0.320600  0.446300  1.0  0.0587
  C  C152  1  0.172600  0.375600  0.434700  1.0  -0.1353
  C  C153  1  0.069000  0.348300  0.470400  1.0  0.2038
  C  C154  1  0.155100  0.462100  0.384100  1.0  0.3677
  C  C155  1  0.240500  0.560100  0.304800  1.0  0.3896
  C  C156  1  0.023800  0.595800  0.332700  1.0  0.3665
  C  C157  1  0.892500  0.659100  0.324100  1.0  -0.1093
  C  C158  1  0.783400  0.635400  0.361200  1.0  -0.0361
  C  C159  1  0.663400  0.701900  0.353200  1.0  -0.136
  C  C160  1  0.653900  0.788000  0.311700  1.0  0.186
  C  C161  1  0.876000  0.745500  0.281400  1.0  0.2
  C  C162  1  0.356400  0.587700  0.266600  1.0  -0.1245
  C  C163  1  0.478600  0.520800  0.269100  1.0  0.2101
  C  C164  1  0.573800  0.635200  0.203900  1.0  0.1686
  C  C165  1  0.454500  0.705300  0.197200  1.0  -0.0937
  C  C166  1  0.343100  0.683000  0.229100  1.0  -0.024
  C  C167  1  0.941500  0.996800  0.244100  1.0  0.6933
  C  C168  1  0.081200  0.996300  0.236300  1.0  -0.0779
  C  C169  1  0.161900  0.945800  0.278300  1.0  -0.1359
  C  C170  1  0.290700  0.943900  0.265000  1.0  -0.0211
  C  C171  1  0.342900  0.991700  0.208300  1.0  -0.0777
  C  C172  1  0.261000  0.046300  0.166100  1.0  -0.0539
  C  C173  1  0.132600  0.047400  0.181300  1.0  -0.0755
  C  C174  1  0.112800  0.885600  0.337000  1.0  0.6726
  C  C175  1  0.488100  0.966500  0.187800  1.0  0.7029
  C  C176  1  0.308500  0.099800  0.106100  1.0  0.7473
  N  N177  1  0.056700  0.621500  0.731600  1.0  -0.3061
  N  N178  1  0.750200  0.527500  0.837100  1.0  -0.5366
  N  N179  1  0.530000  0.567200  0.886800  1.0  -0.432
  N  N180  1  0.600000  0.685900  0.806300  1.0  -0.4133
  N  N181  1  0.266900  0.923900  0.845000  1.0  -0.306
  N  N182  1  0.602700  0.256200  0.967200  1.0  -0.3247
  N  N183  1  0.920600  0.730100  0.483900  1.0  -0.2927
  N  N184  1  0.736900  0.521600  0.652700  1.0  -0.4526
  N  N185  1  0.874700  0.380400  0.706200  1.0  -0.4632
  N  N186  1  0.965400  0.482900  0.621100  1.0  -0.4513
  N  N187  1  0.241400  0.187800  0.725500  1.0  -0.3328
  N  N188  1  0.413600  0.456300  0.760900  1.0  -0.3009
  N  N189  1  0.943300  0.378500  0.268400  1.0  -0.3068
  N  N190  1  0.249800  0.472500  0.162900  1.0  -0.5388
  N  N191  1  0.470000  0.432800  0.113200  1.0  -0.4316
  N  N192  1  0.400000  0.314100  0.193700  1.0  -0.4118
  N  N193  1  0.733100  0.076100  0.155000  1.0  -0.3075
  N  N194  1  0.397300  0.743800  0.032800  1.0  -0.3229
  N  N195  1  0.079400  0.269900  0.516100  1.0  -0.2972
  N  N196  1  0.263100  0.478400  0.347300  1.0  -0.4523
  N  N197  1  0.125300  0.619600  0.293800  1.0  -0.456
  N  N198  1  0.034600  0.517100  0.378900  1.0  -0.4525
  N  N199  1  0.758600  0.812200  0.274500  1.0  -0.3345
  N  N200  1  0.586400  0.543700  0.239100  1.0  -0.2991
  O  O201  1  0.302300  0.550200  0.655900  1.0  -0.583
  O  O202  1  0.386700  0.686100  0.627300  1.0  -0.5377
  O  O203  1  0.198400  0.722700  0.537100  1.0  -0.5918
  O  O204  1  0.203900  0.659200  0.446900  1.0  -0.5861
  O  O205  1  0.172500  0.537400  0.840300  1.0  -0.5796
  O  O206  1  0.113300  0.390200  0.841300  1.0  -0.5237
  O  O207  1  0.321800  0.337700  0.025100  1.0  -0.586
  O  O208  1  0.306100  0.301100  0.931100  1.0  -0.5756
  O  O209  1  0.075800  0.067100  0.788900  1.0  -0.5627
  O  O210  1  0.145600  0.935400  0.722900  1.0  -0.5353
  O  O211  1  0.988100  0.139600  0.659300  1.0  -0.5743
  O  O212  1  0.822800  0.139000  0.618400  1.0  -0.5723
  O  O213  1  0.448000  0.029900  0.770900  1.0  -0.5771
  O  O214  1  0.464100  0.060000  0.867300  1.0  -0.5837
  O  O215  1  0.625900  0.839000  0.891800  1.0  -0.5621
  O  O216  1  0.718700  0.918900  0.944000  1.0  -0.5484
  O  O217  1  0.697700  0.449800  0.344100  1.0  -0.583
  O  O218  1  0.613300  0.313900  0.372700  1.0  -0.5409
  O  O219  1  0.801600  0.277300  0.462900  1.0  -0.592
  O  O220  1  0.796100  0.340800  0.553100  1.0  -0.584
  O  O221  1  0.827500  0.462600  0.159700  1.0  -0.5803
  O  O222  1  0.886700  0.609800  0.158700  1.0  -0.5232
  O  O223  1  0.678200  0.662300  0.974900  1.0  -0.5857
  O  O224  1  0.693900  0.698900  0.068900  1.0  -0.5749
  O  O225  1  0.924200  0.932900  0.211100  1.0  -0.5628
  O  O226  1  0.854400  0.064600  0.277100  1.0  -0.5348
  O  O227  1  0.011900  0.860400  0.340700  1.0  -0.5756
  O  O228  1  0.177200  0.861000  0.381600  1.0  -0.5704
  O  O229  1  0.552000  0.970100  0.229100  1.0  -0.5769
  O  O230  1  0.535900  0.940000  0.132700  1.0  -0.582
  O  O231  1  0.374100  0.161000  0.108200  1.0  -0.5626
  O  O232  1  0.281300  0.081100  0.056000  1.0  -0.5488
