# generated using pymatgen
data_CuMo4H12C14(NO2)4
_symmetry_space_group_name_H-M   'P 1'
_cell_length_a   9.61800000
_cell_length_b   13.99600000
_cell_length_c   19.84200000
_cell_angle_alpha   90.00000000
_cell_angle_beta   99.18200000
_cell_angle_gamma   90.00000000
_symmetry_Int_Tables_number   1
_chemical_formula_structural   CuMo4H12C14(NO2)4
_chemical_formula_sum   'Cu4 Mo16 H48 C56 N16 O32'
_cell_volume   2636.77659509
_cell_formula_units_Z   4
loop_
 _symmetry_equiv_pos_site_id
 _symmetry_equiv_pos_as_xyz
  1  'x, y, z'
loop_
 _atom_site_type_symbol
 _atom_site_label
 _atom_site_symmetry_multiplicity
 _atom_site_fract_x
 _atom_site_fract_y
 _atom_site_fract_z
 _atom_site_occupancy
 _atom_site_charge
  Cu  Cu1  1  0.769380  0.092050  0.718750  1.0  0.4984
  Cu  Cu2  1  0.230620  0.592050  0.781250  1.0  0.4976
  Cu  Cu3  1  0.230620  0.907950  0.281250  1.0  0.4976
  Cu  Cu4  1  0.769380  0.407950  0.218750  1.0  0.4986
  Mo  Mo5  1  0.299470  0.095020  0.983840  1.0  1.2673
  Mo  Mo6  1  0.923540  0.101640  0.035820  1.0  1.1876
  Mo  Mo7  1  0.008800  0.118610  0.878880  1.0  1.2634
  Mo  Mo8  1  0.639660  0.110740  0.921420  1.0  0.7979
  Mo  Mo9  1  0.700530  0.595020  0.516160  1.0  1.2682
  Mo  Mo10  1  0.076460  0.601640  0.464180  1.0  1.1881
  Mo  Mo11  1  0.991200  0.618610  0.621120  1.0  1.2641
  Mo  Mo12  1  0.360340  0.610740  0.578580  1.0  0.7982
  Mo  Mo13  1  0.700530  0.904980  0.016160  1.0  1.2721
  Mo  Mo14  1  0.076460  0.898360  0.964180  1.0  1.1882
  Mo  Mo15  1  0.991200  0.881390  0.121120  1.0  1.2639
  Mo  Mo16  1  0.360340  0.889260  0.078580  1.0  0.8004
  Mo  Mo17  1  0.299470  0.404980  0.483840  1.0  1.271
  Mo  Mo18  1  0.923540  0.398360  0.535820  1.0  1.1872
  Mo  Mo19  1  0.008800  0.381390  0.378880  1.0  1.2632
  Mo  Mo20  1  0.639660  0.389260  0.421420  1.0  0.7992
  H  H21  1  0.066400  0.722500  0.247200  1.0  0.0612
  H  H22  1  0.103600  0.936200  0.762900  1.0  0.1194
  H  H23  1  0.323700  0.991700  0.809600  1.0  0.1063
  H  H24  1  0.506900  0.879400  0.839800  1.0  0.1059
  H  H25  1  0.532100  0.033000  0.337500  1.0  0.1017
  H  H26  1  0.755500  0.560100  0.856500  1.0  0.1387
  H  H27  1  0.709800  0.804500  0.878700  1.0  0.0641
  H  H28  1  0.823600  0.731900  0.861800  1.0  0.0964
  H  H29  1  0.676600  0.693400  0.714800  1.0  0.1004
  H  H30  1  0.686000  0.778000  0.612900  1.0  0.0829
  H  H31  1  0.742200  0.937700  0.619300  1.0  0.0841
  H  H32  1  0.775300  0.934800  0.816800  1.0  0.0791
  H  H33  1  0.933600  0.222500  0.252800  1.0  0.0612
  H  H34  1  0.896400  0.436200  0.737100  1.0  0.1201
  H  H35  1  0.676300  0.491700  0.690400  1.0  0.1064
  H  H36  1  0.493100  0.379400  0.660200  1.0  0.1059
  H  H37  1  0.467900  0.533000  0.162500  1.0  0.1012
  H  H38  1  0.244500  0.060100  0.643500  1.0  0.1395
  H  H39  1  0.290200  0.304500  0.621300  1.0  0.0617
  H  H40  1  0.176400  0.231900  0.638200  1.0  0.1045
  H  H41  1  0.323400  0.193400  0.785200  1.0  0.1002
  H  H42  1  0.314000  0.278000  0.887100  1.0  0.0889
  H  H43  1  0.257800  0.437700  0.880700  1.0  0.0832
  H  H44  1  0.224700  0.434800  0.683200  1.0  0.0798
  H  H45  1  0.933600  0.277500  0.752800  1.0  0.0617
  H  H46  1  0.896400  0.063800  0.237100  1.0  0.1207
  H  H47  1  0.676300  0.008300  0.190400  1.0  0.1068
  H  H48  1  0.493100  0.120600  0.160200  1.0  0.1058
  H  H49  1  0.467900  0.967000  0.662500  1.0  0.1008
  H  H50  1  0.244500  0.439900  0.143500  1.0  0.1393
  H  H51  1  0.290200  0.195500  0.121300  1.0  0.0619
  H  H52  1  0.176400  0.268100  0.138200  1.0  0.1014
  H  H53  1  0.323400  0.306600  0.285200  1.0  0.1005
  H  H54  1  0.314000  0.222000  0.387100  1.0  0.0875
  H  H55  1  0.257800  0.062300  0.380700  1.0  0.0832
  H  H56  1  0.224700  0.065200  0.183200  1.0  0.0793
  H  H57  1  0.066400  0.777500  0.747200  1.0  0.0611
  H  H58  1  0.103600  0.563800  0.262900  1.0  0.1197
  H  H59  1  0.323700  0.508300  0.309600  1.0  0.1066
  H  H60  1  0.506900  0.620600  0.339800  1.0  0.1064
  H  H61  1  0.532100  0.467000  0.837500  1.0  0.1008
  H  H62  1  0.755500  0.939900  0.356500  1.0  0.1389
  H  H63  1  0.709800  0.695500  0.378700  1.0  0.0641
  H  H64  1  0.823600  0.768100  0.361800  1.0  0.0963
  H  H65  1  0.676600  0.806600  0.214800  1.0  0.101
  H  H66  1  0.686000  0.722000  0.112900  1.0  0.0818
  H  H67  1  0.742200  0.562300  0.119300  1.0  0.0837
  H  H68  1  0.775300  0.565200  0.316800  1.0  0.0792
  C  C69  1  0.155700  0.701500  0.266500  1.0  0.1531
  C  C70  1  0.177400  0.606500  0.275400  1.0  -0.1657
  C  C71  1  0.307300  0.926700  0.802900  1.0  0.03
  C  C72  1  0.417000  0.640800  0.320900  1.0  -0.1367
  C  C73  1  0.388700  0.736900  0.310200  1.0  0.1436
  C  C74  1  0.484500  0.684500  0.826300  1.0  0.1864
  C  C75  1  0.540200  0.966800  0.336300  1.0  0.0173
  C  C76  1  0.664700  0.584800  0.847100  1.0  -0.1506
  C  C77  1  0.730600  0.757600  0.845700  1.0  -0.0261
  C  C78  1  0.730400  0.806900  0.776100  1.0  -0.0352
  C  C79  1  0.699800  0.758000  0.715600  1.0  -0.063
  C  C80  1  0.704800  0.808400  0.655100  1.0  -0.1529
  C  C81  1  0.738100  0.904200  0.659400  1.0  0.1303
  C  C82  1  0.759000  0.902400  0.775400  1.0  0.1245
  C  C83  1  0.844300  0.201500  0.233500  1.0  0.152
  C  C84  1  0.822600  0.106500  0.224600  1.0  -0.164
  C  C85  1  0.692700  0.426700  0.697100  1.0  0.0317
  C  C86  1  0.583000  0.140800  0.179100  1.0  -0.1338
  C  C87  1  0.611300  0.236900  0.189800  1.0  0.1439
  C  C88  1  0.515500  0.184500  0.673700  1.0  0.1861
  C  C89  1  0.459800  0.466800  0.163700  1.0  0.0186
  C  C90  1  0.335300  0.084800  0.652900  1.0  -0.1513
  C  C91  1  0.269400  0.257600  0.654300  1.0  -0.0316
  C  C92  1  0.269600  0.306900  0.723900  1.0  -0.035
  C  C93  1  0.300200  0.258000  0.784400  1.0  -0.0604
  C  C94  1  0.295200  0.308400  0.844900  1.0  -0.1521
  C  C95  1  0.261900  0.404200  0.840600  1.0  0.1233
  C  C96  1  0.241000  0.402400  0.724600  1.0  0.1247
  C  C97  1  0.844300  0.298500  0.733500  1.0  0.1525
  C  C98  1  0.822600  0.393500  0.724600  1.0  -0.1642
  C  C99  1  0.692700  0.073300  0.197100  1.0  0.032
  C  C100  1  0.583000  0.359200  0.679100  1.0  -0.1343
  C  C101  1  0.611300  0.263100  0.689800  1.0  0.1509
  C  C102  1  0.515500  0.315500  0.173700  1.0  0.1875
  C  C103  1  0.459800  0.033200  0.663700  1.0  0.0171
  C  C104  1  0.335300  0.415200  0.152900  1.0  -0.1495
  C  C105  1  0.269400  0.242400  0.154300  1.0  -0.0289
  C  C106  1  0.269600  0.193100  0.223900  1.0  -0.0345
  C  C107  1  0.300200  0.242000  0.284400  1.0  -0.0608
  C  C108  1  0.295200  0.191600  0.344900  1.0  -0.1523
  C  C109  1  0.261900  0.095800  0.340600  1.0  0.1249
  C  C110  1  0.241000  0.097600  0.224600  1.0  0.1241
  C  C111  1  0.155700  0.798500  0.766500  1.0  0.1534
  C  C112  1  0.177400  0.893500  0.775400  1.0  -0.1662
  C  C113  1  0.307300  0.573300  0.302900  1.0  0.0305
  C  C114  1  0.417000  0.859200  0.820900  1.0  -0.1369
  C  C115  1  0.388700  0.763100  0.810200  1.0  0.1504
  C  C116  1  0.484500  0.815500  0.326300  1.0  0.1884
  C  C117  1  0.540200  0.533200  0.836300  1.0  0.0175
  C  C118  1  0.664700  0.915200  0.347100  1.0  -0.1501
  C  C119  1  0.730600  0.742400  0.345700  1.0  -0.0266
  C  C120  1  0.730400  0.693100  0.276100  1.0  -0.0347
  C  C121  1  0.699800  0.742000  0.215600  1.0  -0.0637
  C  C122  1  0.704800  0.691600  0.155100  1.0  -0.1525
  C  C123  1  0.738100  0.595800  0.159400  1.0  0.131
  C  C124  1  0.759000  0.597600  0.275400  1.0  0.1251
  N  N125  1  0.256300  0.766300  0.284100  1.0  -0.3343
  N  N126  1  0.431000  0.903100  0.323200  1.0  -0.3904
  N  N127  1  0.627400  0.680700  0.841300  1.0  0.036
  N  N128  1  0.764800  0.951000  0.718800  1.0  -0.2732
  N  N129  1  0.743700  0.266300  0.215900  1.0  -0.3346
  N  N130  1  0.569000  0.403100  0.176800  1.0  -0.3911
  N  N131  1  0.372600  0.180700  0.658700  1.0  0.0349
  N  N132  1  0.235200  0.451000  0.781200  1.0  -0.2743
  N  N133  1  0.743700  0.233700  0.715900  1.0  -0.3332
  N  N134  1  0.569000  0.096900  0.676800  1.0  -0.3924
  N  N135  1  0.372600  0.319300  0.158700  1.0  0.0335
  N  N136  1  0.235200  0.049000  0.281200  1.0  -0.2742
  N  N137  1  0.256300  0.733700  0.784100  1.0  -0.3339
  N  N138  1  0.431000  0.596900  0.823200  1.0  -0.3912
  N  N139  1  0.627400  0.819300  0.341300  1.0  0.0347
  N  N140  1  0.764800  0.549000  0.218800  1.0  -0.2726
  O  O141  1  0.199200  0.096100  0.884500  1.0  -0.6675
  O  O142  1  0.083800  0.077100  0.985700  1.0  -0.7998
  O  O143  1  0.931600  0.097600  0.794500  1.0  -0.6451
  O  O144  1  0.846200  0.100300  0.928100  1.0  -0.7678
  O  O145  1  0.000300  0.950900  0.887500  1.0  -0.564
  O  O146  1  0.265200  0.928700  0.970000  1.0  -0.6096
  O  O147  1  0.338300  0.049200  0.067600  1.0  -0.5699
  O  O148  1  0.463300  0.075900  0.949000  1.0  -0.6345
  O  O149  1  0.800800  0.596100  0.615500  1.0  -0.6673
  O  O150  1  0.916200  0.577100  0.514300  1.0  -0.7995
  O  O151  1  0.068400  0.597600  0.705500  1.0  -0.6463
  O  O152  1  0.153800  0.600300  0.571900  1.0  -0.7701
  O  O153  1  0.999700  0.450900  0.612500  1.0  -0.5622
  O  O154  1  0.734800  0.428700  0.530000  1.0  -0.6108
  O  O155  1  0.661700  0.549200  0.432400  1.0  -0.5684
  O  O156  1  0.536700  0.575900  0.551000  1.0  -0.6354
  O  O157  1  0.800800  0.903900  0.115500  1.0  -0.6674
  O  O158  1  0.916200  0.922900  0.014300  1.0  -0.799
  O  O159  1  0.068400  0.902400  0.205500  1.0  -0.6466
  O  O160  1  0.153800  0.899700  0.071900  1.0  -0.769
  O  O161  1  0.999700  0.049100  0.112500  1.0  -0.5622
  O  O162  1  0.734800  0.071300  0.030000  1.0  -0.6095
  O  O163  1  0.661700  0.950800  0.932400  1.0  -0.5692
  O  O164  1  0.536700  0.924100  0.051000  1.0  -0.6354
  O  O165  1  0.199200  0.403900  0.384500  1.0  -0.6675
  O  O166  1  0.083800  0.422900  0.485700  1.0  -0.7989
  O  O167  1  0.931600  0.402400  0.294500  1.0  -0.6453
  O  O168  1  0.846200  0.399700  0.428100  1.0  -0.768
  O  O169  1  0.000300  0.549100  0.387500  1.0  -0.564
  O  O170  1  0.265200  0.571300  0.470000  1.0  -0.6093
  O  O171  1  0.338300  0.450800  0.567600  1.0  -0.5705
  O  O172  1  0.463300  0.424100  0.449000  1.0  -0.6347
