# generated using pymatgen
data_TbH14C20N5O7
_symmetry_space_group_name_H-M   'P 1'
_cell_length_a   20.01000000
_cell_length_b   13.19300000
_cell_length_c   9.89500000
_cell_angle_alpha   90.00000000
_cell_angle_beta   113.14200000
_cell_angle_gamma   90.00000000
_symmetry_Int_Tables_number   1
_chemical_formula_structural   TbH14C20N5O7
_chemical_formula_sum   'Tb4 H56 C80 N20 O28'
_cell_volume   2402.00594148
_cell_formula_units_Z   4
loop_
 _symmetry_equiv_pos_site_id
 _symmetry_equiv_pos_as_xyz
  1  'x, y, z'
loop_
 _atom_site_type_symbol
 _atom_site_label
 _atom_site_symmetry_multiplicity
 _atom_site_fract_x
 _atom_site_fract_y
 _atom_site_fract_z
 _atom_site_occupancy
 _atom_site_charge
  Tb  Tb1  1  0.500000  0.441290  0.250000  1.0  2.2404
  Tb  Tb2  1  0.000000  0.941290  0.250000  1.0  2.2404
  Tb  Tb3  1  0.500000  0.558710  0.750000  1.0  2.2363
  Tb  Tb4  1  0.000000  0.058710  0.750000  1.0  2.2363
  H  H5  1  0.288800  0.369500  0.183100  1.0  0.1099
  H  H6  1  0.120400  0.319000  0.299300  1.0  0.0967
  H  H7  1  0.189100  0.375300  0.533200  1.0  0.0999
  H  H8  1  0.306000  0.438100  0.590500  1.0  0.1013
  H  H9  1  0.185200  0.386100  0.920200  1.0  0.132
  H  H10  1  0.090400  0.289200  0.725700  1.0  0.1079
  H  H11  1  0.090900  0.201400  0.094300  1.0  0.2625
  H  H12  1  0.788800  0.869500  0.183100  1.0  0.1099
  H  H13  1  0.620400  0.819000  0.299300  1.0  0.0967
  H  H14  1  0.689100  0.875300  0.533200  1.0  0.0999
  H  H15  1  0.806000  0.938100  0.590500  1.0  0.1013
  H  H16  1  0.685200  0.886100  0.920200  1.0  0.132
  H  H17  1  0.590400  0.789200  0.725700  1.0  0.1079
  H  H18  1  0.590900  0.701400  0.094300  1.0  0.2625
  H  H19  1  0.711200  0.369500  0.316900  1.0  0.1096
  H  H20  1  0.879600  0.319000  0.200700  1.0  0.0974
  H  H21  1  0.810900  0.375300  0.966800  1.0  0.0999
  H  H22  1  0.694000  0.438100  0.909500  1.0  0.1012
  H  H23  1  0.814800  0.386100  0.579800  1.0  0.1311
  H  H24  1  0.909600  0.289200  0.774300  1.0  0.1078
  H  H25  1  0.909100  0.201400  0.405700  1.0  0.2625
  H  H26  1  0.211200  0.869500  0.316900  1.0  0.1096
  H  H27  1  0.379600  0.819000  0.200700  1.0  0.0974
  H  H28  1  0.310900  0.875300  0.966800  1.0  0.0999
  H  H29  1  0.194000  0.938100  0.909500  1.0  0.1012
  H  H30  1  0.314800  0.886100  0.579800  1.0  0.1311
  H  H31  1  0.409600  0.789200  0.774300  1.0  0.1078
  H  H32  1  0.409100  0.701400  0.405700  1.0  0.2625
  H  H33  1  0.711200  0.630500  0.816900  1.0  0.1095
  H  H34  1  0.879600  0.681000  0.700700  1.0  0.0972
  H  H35  1  0.810900  0.624700  0.466800  1.0  0.0999
  H  H36  1  0.694000  0.561900  0.409500  1.0  0.1006
  H  H37  1  0.814800  0.613900  0.079800  1.0  0.1314
  H  H38  1  0.909600  0.710800  0.274300  1.0  0.1076
  H  H39  1  0.909100  0.798600  0.905700  1.0  0.2611
  H  H40  1  0.211200  0.130500  0.816900  1.0  0.1095
  H  H41  1  0.379600  0.181000  0.700700  1.0  0.0972
  H  H42  1  0.310900  0.124700  0.466800  1.0  0.0999
  H  H43  1  0.194000  0.061900  0.409500  1.0  0.1006
  H  H44  1  0.314800  0.113900  0.079800  1.0  0.1314
  H  H45  1  0.409600  0.210800  0.274300  1.0  0.1076
  H  H46  1  0.409100  0.298600  0.905700  1.0  0.2611
  H  H47  1  0.288800  0.630500  0.683100  1.0  0.1099
  H  H48  1  0.120400  0.681000  0.799300  1.0  0.0967
  H  H49  1  0.189100  0.624700  0.033200  1.0  0.0998
  H  H50  1  0.306000  0.561900  0.090500  1.0  0.1015
  H  H51  1  0.185200  0.613900  0.420200  1.0  0.132
  H  H52  1  0.090400  0.710800  0.225700  1.0  0.1074
  H  H53  1  0.090900  0.798600  0.594300  1.0  0.2613
  H  H54  1  0.788800  0.130500  0.683100  1.0  0.1099
  H  H55  1  0.620400  0.181000  0.799300  1.0  0.0967
  H  H56  1  0.689100  0.124700  0.033200  1.0  0.0998
  H  H57  1  0.806000  0.061900  0.090500  1.0  0.1015
  H  H58  1  0.685200  0.113900  0.420200  1.0  0.132
  H  H59  1  0.590400  0.210800  0.225700  1.0  0.1074
  H  H60  1  0.590900  0.298600  0.594300  1.0  0.2613
  C  C61  1  0.385200  0.447100  0.430400  1.0  0.7279
  C  C62  1  0.308200  0.409900  0.391500  1.0  -0.1354
  C  C63  1  0.268300  0.372600  0.252700  1.0  -0.0568
  C  C64  1  0.196400  0.339200  0.216800  1.0  -0.0042
  C  C65  1  0.167700  0.341300  0.322300  1.0  -0.1136
  C  C66  1  0.208600  0.376100  0.461900  1.0  -0.106
  C  C67  1  0.279000  0.412500  0.497200  1.0  -0.0356
  C  C68  1  0.153800  0.305300  0.064700  1.0  0.0761
  C  C69  1  0.154900  0.337200  0.933700  1.0  -0.111
  C  C70  1  0.101900  0.282000  0.825900  1.0  0.0292
  C  C71  1  0.885200  0.947100  0.430400  1.0  0.7279
  C  C72  1  0.808200  0.909900  0.391500  1.0  -0.1354
  C  C73  1  0.768300  0.872600  0.252700  1.0  -0.0568
  C  C74  1  0.696400  0.839200  0.216800  1.0  -0.0042
  C  C75  1  0.667700  0.841300  0.322300  1.0  -0.1136
  C  C76  1  0.708600  0.876100  0.461900  1.0  -0.106
  C  C77  1  0.779000  0.912500  0.497200  1.0  -0.0356
  C  C78  1  0.653800  0.805300  0.064700  1.0  0.0761
  C  C79  1  0.654900  0.837200  0.933700  1.0  -0.111
  C  C80  1  0.601900  0.782000  0.825900  1.0  0.0292
  C  C81  1  0.614800  0.447100  0.069600  1.0  0.7243
  C  C82  1  0.691800  0.409900  0.108500  1.0  -0.1356
  C  C83  1  0.731700  0.372600  0.247300  1.0  -0.0575
  C  C84  1  0.803600  0.339200  0.283200  1.0  -0.006
  C  C85  1  0.832300  0.341300  0.177700  1.0  -0.1082
  C  C86  1  0.791400  0.376100  0.038100  1.0  -0.1065
  C  C87  1  0.721000  0.412500  0.002800  1.0  -0.0346
  C  C88  1  0.846200  0.305300  0.435300  1.0  0.0766
  C  C89  1  0.845100  0.337200  0.566300  1.0  -0.1136
  C  C90  1  0.898100  0.282000  0.674100  1.0  0.0303
  C  C91  1  0.114800  0.947100  0.069600  1.0  0.7243
  C  C92  1  0.191800  0.909900  0.108500  1.0  -0.1356
  C  C93  1  0.231700  0.872600  0.247300  1.0  -0.0575
  C  C94  1  0.303600  0.839200  0.283200  1.0  -0.006
  C  C95  1  0.332300  0.841300  0.177700  1.0  -0.1082
  C  C96  1  0.291400  0.876100  0.038100  1.0  -0.1065
  C  C97  1  0.221000  0.912500  0.002800  1.0  -0.0346
  C  C98  1  0.346200  0.805300  0.435300  1.0  0.0766
  C  C99  1  0.345100  0.837200  0.566300  1.0  -0.1136
  C  C100  1  0.398100  0.782000  0.674100  1.0  0.0303
  C  C101  1  0.614800  0.552900  0.569600  1.0  0.7241
  C  C102  1  0.691800  0.590100  0.608500  1.0  -0.1358
  C  C103  1  0.731700  0.627400  0.747300  1.0  -0.0575
  C  C104  1  0.803600  0.660800  0.783200  1.0  -0.0037
  C  C105  1  0.832300  0.658700  0.677700  1.0  -0.1084
  C  C106  1  0.791400  0.623900  0.538100  1.0  -0.1057
  C  C107  1  0.721000  0.587500  0.502800  1.0  -0.0348
  C  C108  1  0.846200  0.694700  0.935300  1.0  0.0766
  C  C109  1  0.845100  0.662800  0.066300  1.0  -0.1146
  C  C110  1  0.898100  0.718000  0.174100  1.0  0.03
  C  C111  1  0.114800  0.052900  0.569600  1.0  0.7241
  C  C112  1  0.191800  0.090100  0.608500  1.0  -0.1358
  C  C113  1  0.231700  0.127400  0.747300  1.0  -0.0575
  C  C114  1  0.303600  0.160800  0.783200  1.0  -0.0037
  C  C115  1  0.332300  0.158700  0.677700  1.0  -0.1084
  C  C116  1  0.291400  0.123900  0.538100  1.0  -0.1057
  C  C117  1  0.221000  0.087500  0.502800  1.0  -0.0348
  C  C118  1  0.346200  0.194700  0.935300  1.0  0.0766
  C  C119  1  0.345100  0.162800  0.066300  1.0  -0.1146
  C  C120  1  0.398100  0.218000  0.174100  1.0  0.03
  C  C121  1  0.385200  0.552900  0.930400  1.0  0.7278
  C  C122  1  0.308200  0.590100  0.891500  1.0  -0.1352
  C  C123  1  0.268300  0.627400  0.752700  1.0  -0.0569
  C  C124  1  0.196400  0.660800  0.716800  1.0  -0.0043
  C  C125  1  0.167700  0.658700  0.822300  1.0  -0.1075
  C  C126  1  0.208600  0.623900  0.961900  1.0  -0.104
  C  C127  1  0.279000  0.587500  0.997200  1.0  -0.0355
  C  C128  1  0.153800  0.694700  0.564700  1.0  0.0762
  C  C129  1  0.154900  0.662800  0.433700  1.0  -0.1131
  C  C130  1  0.101900  0.718000  0.325900  1.0  0.0284
  C  C131  1  0.885200  0.052900  0.930400  1.0  0.7278
  C  C132  1  0.808200  0.090100  0.891500  1.0  -0.1352
  C  C133  1  0.768300  0.127400  0.752700  1.0  -0.0569
  C  C134  1  0.696400  0.160800  0.716800  1.0  -0.0043
  C  C135  1  0.667700  0.158700  0.822300  1.0  -0.1075
  C  C136  1  0.708600  0.123900  0.961900  1.0  -0.104
  C  C137  1  0.779000  0.087500  0.997200  1.0  -0.0355
  C  C138  1  0.653800  0.194700  0.564700  1.0  0.0762
  C  C139  1  0.654900  0.162800  0.433700  1.0  -0.1131
  C  C140  1  0.601900  0.218000  0.325900  1.0  0.0284
  N  N141  1  0.069100  0.216900  0.883800  1.0  -0.3207
  N  N142  1  0.101900  0.233400  0.030200  1.0  -0.0947
  N  N143  1  0.569100  0.716900  0.883800  1.0  -0.3207
  N  N144  1  0.601900  0.733400  0.030200  1.0  -0.0947
  N  N145  1  0.930900  0.216900  0.616200  1.0  -0.3208
  N  N146  1  0.898100  0.233400  0.469800  1.0  -0.0944
  N  N147  1  0.430900  0.716900  0.616200  1.0  -0.3208
  N  N148  1  0.398100  0.733400  0.469800  1.0  -0.0944
  N  N149  1  0.930900  0.783100  0.116200  1.0  -0.3202
  N  N150  1  0.898100  0.766600  0.969800  1.0  -0.0938
  N  N151  1  0.430900  0.283100  0.116200  1.0  -0.3202
  N  N152  1  0.398100  0.266600  0.969800  1.0  -0.0938
  N  N153  1  0.069100  0.783100  0.383800  1.0  -0.3199
  N  N154  1  0.101900  0.766600  0.530200  1.0  -0.0945
  N  N155  1  0.569100  0.283100  0.383800  1.0  -0.3199
  N  N156  1  0.601900  0.266600  0.530200  1.0  -0.0945
  N  N157  1  0.500000  0.667000  0.250000  1.0  0.7643
  N  N158  1  0.000000  0.167000  0.250000  1.0  0.7643
  N  N159  1  0.500000  0.333000  0.750000  1.0  0.7612
  N  N160  1  0.000000  0.833000  0.750000  1.0  0.7612
  O  O161  1  0.417540  0.415900  0.352900  1.0  -0.6925
  O  O162  1  0.410920  0.506700  0.535700  1.0  -0.6812
  O  O163  1  0.540690  0.615700  0.204200  1.0  -0.6238
  O  O164  1  0.917540  0.915900  0.352900  1.0  -0.6926
  O  O165  1  0.910920  0.006700  0.535700  1.0  -0.6812
  O  O166  1  0.040690  0.115700  0.204200  1.0  -0.6238
  O  O167  1  0.582460  0.415900  0.147100  1.0  -0.6932
  O  O168  1  0.589080  0.506700  0.964300  1.0  -0.682
  O  O169  1  0.459310  0.615700  0.295800  1.0  -0.6227
  O  O170  1  0.082460  0.915900  0.147100  1.0  -0.6934
  O  O171  1  0.089080  0.006700  0.964300  1.0  -0.682
  O  O172  1  0.959310  0.115700  0.295800  1.0  -0.6227
  O  O173  1  0.582460  0.584100  0.647100  1.0  -0.6924
  O  O174  1  0.589080  0.493300  0.464300  1.0  -0.6829
  O  O175  1  0.459310  0.384300  0.795800  1.0  -0.6224
  O  O176  1  0.082460  0.084100  0.647100  1.0  -0.6942
  O  O177  1  0.089080  0.993300  0.464300  1.0  -0.6829
  O  O178  1  0.959310  0.884300  0.795800  1.0  -0.6224
  O  O179  1  0.417540  0.584100  0.852900  1.0  -0.6923
  O  O180  1  0.410920  0.493300  0.035700  1.0  -0.6825
  O  O181  1  0.540690  0.384300  0.704200  1.0  -0.6236
  O  O182  1  0.917540  0.084100  0.852900  1.0  -0.6922
  O  O183  1  0.910920  0.993300  0.035700  1.0  -0.6825
  O  O184  1  0.040690  0.884300  0.704200  1.0  -0.6236
  O  O185  1  0.500000  0.758200  0.250000  1.0  -0.5365
  O  O186  1  0.000000  0.258200  0.250000  1.0  -0.5365
  O  O187  1  0.500000  0.241800  0.750000  1.0  -0.5359
  O  O188  1  0.000000  0.741800  0.750000  1.0  -0.5359
