# generated using pymatgen
data_EuH14C20N5O7
_symmetry_space_group_name_H-M   'P 1'
_cell_length_a   19.97400000
_cell_length_b   13.13500000
_cell_length_c   9.90100000
_cell_angle_alpha   90.00000000
_cell_angle_beta   113.30800000
_cell_angle_gamma   90.00000000
_symmetry_Int_Tables_number   1
_chemical_formula_structural   EuH14C20N5O7
_chemical_formula_sum   'Eu4 H56 C80 N20 O28'
_cell_volume   2385.62331356
_cell_formula_units_Z   4
loop_
 _symmetry_equiv_pos_site_id
 _symmetry_equiv_pos_as_xyz
  1  'x, y, z'
loop_
 _atom_site_type_symbol
 _atom_site_label
 _atom_site_symmetry_multiplicity
 _atom_site_fract_x
 _atom_site_fract_y
 _atom_site_fract_z
 _atom_site_occupancy
 _atom_site_charge
  Eu  Eu1  1  0.000000  0.058550  0.250000  1.0  2.0925
  Eu  Eu2  1  0.500000  0.558550  0.250000  1.0  2.0925
  Eu  Eu3  1  0.000000  0.941450  0.750000  1.0  2.0934
  Eu  Eu4  1  0.500000  0.441450  0.750000  1.0  2.0934
  H  H5  1  0.409100  0.296800  0.404200  1.0  0.2728
  H  H6  1  0.211700  0.129600  0.316400  1.0  0.1086
  H  H7  1  0.378200  0.183800  0.199300  1.0  0.1043
  H  H8  1  0.309900  0.124400  0.966900  1.0  0.1088
  H  H9  1  0.194300  0.062200  0.910700  1.0  0.1099
  H  H10  1  0.313100  0.113700  0.577400  1.0  0.1377
  H  H11  1  0.408900  0.212500  0.772000  1.0  0.1123
  H  H12  1  0.909100  0.796800  0.404200  1.0  0.2728
  H  H13  1  0.711700  0.629600  0.316400  1.0  0.1086
  H  H14  1  0.878200  0.683800  0.199300  1.0  0.1043
  H  H15  1  0.809900  0.624400  0.966900  1.0  0.1088
  H  H16  1  0.694300  0.562200  0.910700  1.0  0.1099
  H  H17  1  0.813100  0.613700  0.577400  1.0  0.1377
  H  H18  1  0.908900  0.712500  0.772000  1.0  0.1123
  H  H19  1  0.590900  0.296800  0.095800  1.0  0.2738
  H  H20  1  0.788300  0.129600  0.183600  1.0  0.1089
  H  H21  1  0.621800  0.183800  0.300700  1.0  0.1035
  H  H22  1  0.690100  0.124400  0.533100  1.0  0.1089
  H  H23  1  0.805700  0.062200  0.589300  1.0  0.1105
  H  H24  1  0.686900  0.113700  0.922600  1.0  0.1381
  H  H25  1  0.591100  0.212500  0.728000  1.0  0.1123
  H  H26  1  0.090900  0.796800  0.095800  1.0  0.2738
  H  H27  1  0.288300  0.629600  0.183600  1.0  0.1089
  H  H28  1  0.121800  0.683800  0.300700  1.0  0.1035
  H  H29  1  0.190100  0.624400  0.533100  1.0  0.1089
  H  H30  1  0.305700  0.562200  0.589300  1.0  0.1105
  H  H31  1  0.186900  0.613700  0.922600  1.0  0.1381
  H  H32  1  0.091100  0.712500  0.728000  1.0  0.1123
  H  H33  1  0.590900  0.703200  0.595800  1.0  0.2739
  H  H34  1  0.788300  0.870400  0.683600  1.0  0.109
  H  H35  1  0.621800  0.816200  0.800700  1.0  0.1034
  H  H36  1  0.690100  0.875600  0.033100  1.0  0.1088
  H  H37  1  0.805700  0.937800  0.089300  1.0  0.1104
  H  H38  1  0.686900  0.886300  0.422600  1.0  0.138
  H  H39  1  0.591100  0.787500  0.228000  1.0  0.1124
  H  H40  1  0.090900  0.203200  0.595800  1.0  0.2739
  H  H41  1  0.288300  0.370400  0.683600  1.0  0.109
  H  H42  1  0.121800  0.316200  0.800700  1.0  0.1034
  H  H43  1  0.190100  0.375600  0.033100  1.0  0.1088
  H  H44  1  0.305700  0.437800  0.089300  1.0  0.1104
  H  H45  1  0.186900  0.386300  0.422600  1.0  0.138
  H  H46  1  0.091100  0.287500  0.228000  1.0  0.1124
  H  H47  1  0.409100  0.703200  0.904200  1.0  0.2732
  H  H48  1  0.211700  0.870400  0.816400  1.0  0.1086
  H  H49  1  0.378200  0.816200  0.699300  1.0  0.1044
  H  H50  1  0.309900  0.875600  0.466900  1.0  0.109
  H  H51  1  0.194300  0.937800  0.410700  1.0  0.1101
  H  H52  1  0.313100  0.886300  0.077400  1.0  0.1376
  H  H53  1  0.408900  0.787500  0.272000  1.0  0.1123
  H  H54  1  0.909100  0.203200  0.904200  1.0  0.2732
  H  H55  1  0.711700  0.370400  0.816400  1.0  0.1086
  H  H56  1  0.878200  0.316200  0.699300  1.0  0.1044
  H  H57  1  0.809900  0.375600  0.466900  1.0  0.109
  H  H58  1  0.694300  0.437800  0.410700  1.0  0.1101
  H  H59  1  0.813100  0.386300  0.077400  1.0  0.1376
  H  H60  1  0.908900  0.287500  0.272000  1.0  0.1123
  C  C61  1  0.115700  0.053200  0.071300  1.0  0.7196
  C  C62  1  0.192100  0.090100  0.109300  1.0  -0.1501
  C  C63  1  0.232200  0.127000  0.246900  1.0  -0.0631
  C  C64  1  0.303100  0.160700  0.283600  1.0  0.0406
  C  C65  1  0.331200  0.159900  0.177000  1.0  -0.111
  C  C66  1  0.290400  0.124100  0.038100  1.0  -0.108
  C  C67  1  0.221400  0.088000  0.004000  1.0  -0.0446
  C  C68  1  0.345600  0.194200  0.434200  1.0  0.1374
  C  C69  1  0.343700  0.162400  0.564100  1.0  -0.1696
  C  C70  1  0.397600  0.218500  0.671700  1.0  0.0377
  C  C71  1  0.615700  0.553200  0.071300  1.0  0.7196
  C  C72  1  0.692100  0.590100  0.109300  1.0  -0.1501
  C  C73  1  0.732200  0.627000  0.246900  1.0  -0.0631
  C  C74  1  0.803100  0.660700  0.283600  1.0  0.0406
  C  C75  1  0.831200  0.659900  0.177000  1.0  -0.111
  C  C76  1  0.790400  0.624100  0.038100  1.0  -0.108
  C  C77  1  0.721400  0.588000  0.004000  1.0  -0.0446
  C  C78  1  0.845600  0.694200  0.434200  1.0  0.1374
  C  C79  1  0.843700  0.662400  0.564100  1.0  -0.1696
  C  C80  1  0.897600  0.718500  0.671700  1.0  0.0377
  C  C81  1  0.884300  0.053200  0.428700  1.0  0.7182
  C  C82  1  0.807900  0.090100  0.390700  1.0  -0.1491
  C  C83  1  0.767800  0.127000  0.253100  1.0  -0.0621
  C  C84  1  0.696900  0.160700  0.216400  1.0  0.0413
  C  C85  1  0.668800  0.159900  0.323000  1.0  -0.1087
  C  C86  1  0.709600  0.124100  0.461900  1.0  -0.1072
  C  C87  1  0.778600  0.088000  0.496000  1.0  -0.0456
  C  C88  1  0.654400  0.194200  0.065800  1.0  0.1375
  C  C89  1  0.656300  0.162400  0.935900  1.0  -0.1695
  C  C90  1  0.602400  0.218500  0.828300  1.0  0.0351
  C  C91  1  0.384300  0.553200  0.428700  1.0  0.7182
  C  C92  1  0.307900  0.590100  0.390700  1.0  -0.1491
  C  C93  1  0.267800  0.627000  0.253100  1.0  -0.0621
  C  C94  1  0.196900  0.660700  0.216400  1.0  0.0413
  C  C95  1  0.168800  0.659900  0.323000  1.0  -0.1087
  C  C96  1  0.209600  0.624100  0.461900  1.0  -0.1072
  C  C97  1  0.278600  0.588000  0.496000  1.0  -0.0456
  C  C98  1  0.154400  0.694200  0.065800  1.0  0.1375
  C  C99  1  0.156300  0.662400  0.935900  1.0  -0.1695
  C  C100  1  0.102400  0.718500  0.828300  1.0  0.0351
  C  C101  1  0.884300  0.946800  0.928700  1.0  0.7209
  C  C102  1  0.807900  0.909900  0.890700  1.0  -0.1494
  C  C103  1  0.767800  0.873000  0.753100  1.0  -0.0619
  C  C104  1  0.696900  0.839300  0.716400  1.0  0.0412
  C  C105  1  0.668800  0.840100  0.823000  1.0  -0.1085
  C  C106  1  0.709600  0.875900  0.961900  1.0  -0.1072
  C  C107  1  0.778600  0.912000  0.996000  1.0  -0.0463
  C  C108  1  0.654400  0.805800  0.565800  1.0  0.1371
  C  C109  1  0.656300  0.837600  0.435900  1.0  -0.1682
  C  C110  1  0.602400  0.781500  0.328300  1.0  0.0355
  C  C111  1  0.384300  0.446800  0.928700  1.0  0.7209
  C  C112  1  0.307900  0.409900  0.890700  1.0  -0.1494
  C  C113  1  0.267800  0.373000  0.753100  1.0  -0.0619
  C  C114  1  0.196900  0.339300  0.716400  1.0  0.0412
  C  C115  1  0.168800  0.340100  0.823000  1.0  -0.1085
  C  C116  1  0.209600  0.375900  0.961900  1.0  -0.1072
  C  C117  1  0.278600  0.412000  0.996000  1.0  -0.0463
  C  C118  1  0.154400  0.305800  0.565800  1.0  0.1371
  C  C119  1  0.156300  0.337600  0.435900  1.0  -0.1682
  C  C120  1  0.102400  0.281500  0.328300  1.0  0.0355
  C  C121  1  0.115700  0.946800  0.571300  1.0  0.7175
  C  C122  1  0.192100  0.909900  0.609300  1.0  -0.1499
  C  C123  1  0.232200  0.873000  0.746900  1.0  -0.0628
  C  C124  1  0.303100  0.839300  0.783600  1.0  0.0406
  C  C125  1  0.331200  0.840100  0.677000  1.0  -0.1107
  C  C126  1  0.290400  0.875900  0.538100  1.0  -0.1086
  C  C127  1  0.221400  0.912000  0.504000  1.0  -0.0449
  C  C128  1  0.345600  0.805800  0.934200  1.0  0.1368
  C  C129  1  0.343700  0.837600  0.064100  1.0  -0.1697
  C  C130  1  0.397600  0.781500  0.171700  1.0  0.0376
  C  C131  1  0.615700  0.446800  0.571300  1.0  0.7175
  C  C132  1  0.692100  0.409900  0.609300  1.0  -0.1499
  C  C133  1  0.732200  0.373000  0.746900  1.0  -0.0628
  C  C134  1  0.803100  0.339300  0.783600  1.0  0.0406
  C  C135  1  0.831200  0.340100  0.677000  1.0  -0.1107
  C  C136  1  0.790400  0.375900  0.538100  1.0  -0.1086
  C  C137  1  0.721400  0.412000  0.504000  1.0  -0.0449
  C  C138  1  0.845600  0.305800  0.934200  1.0  0.1368
  C  C139  1  0.843700  0.337600  0.064100  1.0  -0.1697
  C  C140  1  0.897600  0.281500  0.171700  1.0  0.0376
  N  N141  1  0.431000  0.281700  0.613700  1.0  -0.3169
  N  N142  1  0.397900  0.265200  0.468500  1.0  -0.0868
  N  N143  1  0.931000  0.781700  0.613700  1.0  -0.3169
  N  N144  1  0.897900  0.765200  0.468500  1.0  -0.0868
  N  N145  1  0.569000  0.281700  0.886300  1.0  -0.317
  N  N146  1  0.602100  0.265200  0.031500  1.0  -0.0874
  N  N147  1  0.069000  0.781700  0.886300  1.0  -0.317
  N  N148  1  0.102100  0.765200  0.031500  1.0  -0.0874
  N  N149  1  0.569000  0.718300  0.386300  1.0  -0.3177
  N  N150  1  0.602100  0.734800  0.531500  1.0  -0.0876
  N  N151  1  0.069000  0.218300  0.386300  1.0  -0.3177
  N  N152  1  0.102100  0.234800  0.531500  1.0  -0.0876
  N  N153  1  0.431000  0.718300  0.113700  1.0  -0.3173
  N  N154  1  0.397900  0.734800  0.968500  1.0  -0.0873
  N  N155  1  0.931000  0.218300  0.113700  1.0  -0.3173
  N  N156  1  0.897900  0.234800  0.968500  1.0  -0.0873
  N  N157  1  0.000000  0.831300  0.250000  1.0  0.6721
  N  N158  1  0.500000  0.331300  0.250000  1.0  0.6721
  N  N159  1  0.000000  0.168700  0.750000  1.0  0.6725
  N  N160  1  0.500000  0.668700  0.750000  1.0  0.6725
  O  O161  1  0.083800  0.084500  0.148700  1.0  -0.6691
  O  O162  1  0.089620  0.994100  0.965900  1.0  -0.6835
  O  O163  1  0.959920  0.882500  0.296400  1.0  -0.6206
  O  O164  1  0.583800  0.584500  0.148700  1.0  -0.6691
  O  O165  1  0.589620  0.494100  0.965900  1.0  -0.6835
  O  O166  1  0.459920  0.382500  0.296400  1.0  -0.6206
  O  O167  1  0.916200  0.084500  0.351300  1.0  -0.6689
  O  O168  1  0.910380  0.994100  0.534100  1.0  -0.6831
  O  O169  1  0.040080  0.882500  0.203600  1.0  -0.6204
  O  O170  1  0.416200  0.584500  0.351300  1.0  -0.6689
  O  O171  1  0.410380  0.494100  0.534100  1.0  -0.6831
  O  O172  1  0.540080  0.382500  0.203600  1.0  -0.6204
  O  O173  1  0.916200  0.915500  0.851300  1.0  -0.6689
  O  O174  1  0.910380  0.005900  0.034100  1.0  -0.6823
  O  O175  1  0.040080  0.117500  0.703600  1.0  -0.6208
  O  O176  1  0.416200  0.415500  0.851300  1.0  -0.6689
  O  O177  1  0.410380  0.505900  0.034100  1.0  -0.6823
  O  O178  1  0.540080  0.617500  0.703600  1.0  -0.6208
  O  O179  1  0.083800  0.915500  0.648700  1.0  -0.6685
  O  O180  1  0.089620  0.005900  0.465900  1.0  -0.6833
  O  O181  1  0.959920  0.117500  0.796400  1.0  -0.6203
  O  O182  1  0.583800  0.415500  0.648700  1.0  -0.6685
  O  O183  1  0.589620  0.505900  0.465900  1.0  -0.6833
  O  O184  1  0.459920  0.617500  0.796400  1.0  -0.6203
  O  O185  1  0.000000  0.742600  0.250000  1.0  -0.5014
  O  O186  1  0.500000  0.242600  0.250000  1.0  -0.5014
  O  O187  1  0.000000  0.257400  0.750000  1.0  -0.501
  O  O188  1  0.500000  0.757400  0.750000  1.0  -0.501
