# generated using pymatgen
data_ErH14C20N5O7
_symmetry_space_group_name_H-M   'P 1'
_cell_length_a   19.81000000
_cell_length_b   13.15300000
_cell_length_c   9.80600000
_cell_angle_alpha   90.00000000
_cell_angle_beta   113.19600000
_cell_angle_gamma   90.00000000
_symmetry_Int_Tables_number   1
_chemical_formula_structural   ErH14C20N5O7
_chemical_formula_sum   'Er4 H56 C80 N20 O28'
_cell_volume   2348.51664512
_cell_formula_units_Z   4
loop_
 _symmetry_equiv_pos_site_id
 _symmetry_equiv_pos_as_xyz
  1  'x, y, z'
loop_
 _atom_site_type_symbol
 _atom_site_label
 _atom_site_symmetry_multiplicity
 _atom_site_fract_x
 _atom_site_fract_y
 _atom_site_fract_z
 _atom_site_occupancy
 _atom_site_charge
  Er  Er1  1  0.000000  0.058740  0.750000  1.0  1.3347
  Er  Er2  1  0.500000  0.558740  0.750000  1.0  1.3347
  Er  Er3  1  0.000000  0.941260  0.250000  1.0  1.3382
  Er  Er4  1  0.500000  0.441260  0.250000  1.0  1.3382
  H  H5  1  0.408200  0.301000  0.905400  1.0  0.2844
  H  H6  1  0.211500  0.129600  0.818300  1.0  0.1279
  H  H7  1  0.380000  0.181700  0.700400  1.0  0.1229
  H  H8  1  0.310600  0.125700  0.464200  1.0  0.1341
  H  H9  1  0.193800  0.062300  0.407300  1.0  0.1276
  H  H10  1  0.316900  0.112400  0.084200  1.0  0.1579
  H  H11  1  0.411600  0.213100  0.279000  1.0  0.1355
  H  H12  1  0.908200  0.801000  0.905400  1.0  0.2844
  H  H13  1  0.711500  0.629600  0.818300  1.0  0.1279
  H  H14  1  0.880000  0.681700  0.700400  1.0  0.1229
  H  H15  1  0.810600  0.625700  0.464200  1.0  0.1341
  H  H16  1  0.693800  0.562300  0.407300  1.0  0.1276
  H  H17  1  0.816900  0.612400  0.084200  1.0  0.1579
  H  H18  1  0.911600  0.713100  0.279000  1.0  0.1355
  H  H19  1  0.591800  0.301000  0.594600  1.0  0.2855
  H  H20  1  0.788500  0.129600  0.681700  1.0  0.1283
  H  H21  1  0.620000  0.181700  0.799600  1.0  0.1219
  H  H22  1  0.689400  0.125700  0.035800  1.0  0.1336
  H  H23  1  0.806200  0.062300  0.092700  1.0  0.1279
  H  H24  1  0.683100  0.112400  0.415800  1.0  0.1583
  H  H25  1  0.588400  0.213100  0.221000  1.0  0.1351
  H  H26  1  0.091800  0.801000  0.594600  1.0  0.2855
  H  H27  1  0.288500  0.629600  0.681700  1.0  0.1283
  H  H28  1  0.120000  0.681700  0.799600  1.0  0.1219
  H  H29  1  0.189400  0.625700  0.035800  1.0  0.1336
  H  H30  1  0.306200  0.562300  0.092700  1.0  0.1279
  H  H31  1  0.183100  0.612400  0.415800  1.0  0.1583
  H  H32  1  0.088400  0.713100  0.221000  1.0  0.1351
  H  H33  1  0.591800  0.699000  0.094600  1.0  0.2858
  H  H34  1  0.788500  0.870400  0.181700  1.0  0.1283
  H  H35  1  0.620000  0.818300  0.299600  1.0  0.1219
  H  H36  1  0.689400  0.874300  0.535800  1.0  0.1336
  H  H37  1  0.806200  0.937700  0.592700  1.0  0.1276
  H  H38  1  0.683100  0.887600  0.915800  1.0  0.1586
  H  H39  1  0.588400  0.786900  0.721000  1.0  0.135
  H  H40  1  0.091800  0.199000  0.094600  1.0  0.2858
  H  H41  1  0.288500  0.370400  0.181700  1.0  0.1283
  H  H42  1  0.120000  0.318300  0.299600  1.0  0.1219
  H  H43  1  0.189400  0.374300  0.535800  1.0  0.1336
  H  H44  1  0.306200  0.437700  0.592700  1.0  0.1276
  H  H45  1  0.183100  0.387600  0.915800  1.0  0.1586
  H  H46  1  0.088400  0.286900  0.721000  1.0  0.135
  H  H47  1  0.408200  0.699000  0.405400  1.0  0.2852
  H  H48  1  0.211500  0.870400  0.318300  1.0  0.1279
  H  H49  1  0.380000  0.818300  0.200400  1.0  0.1228
  H  H50  1  0.310600  0.874300  0.964200  1.0  0.1342
  H  H51  1  0.193800  0.937700  0.907300  1.0  0.1275
  H  H52  1  0.316900  0.887600  0.584200  1.0  0.1582
  H  H53  1  0.411600  0.786900  0.779000  1.0  0.1355
  H  H54  1  0.908200  0.199000  0.405400  1.0  0.2852
  H  H55  1  0.711500  0.370400  0.318300  1.0  0.1279
  H  H56  1  0.880000  0.318300  0.200400  1.0  0.1228
  H  H57  1  0.810600  0.374300  0.964200  1.0  0.1342
  H  H58  1  0.693800  0.437700  0.907300  1.0  0.1275
  H  H59  1  0.816900  0.387600  0.584200  1.0  0.1582
  H  H60  1  0.911600  0.286900  0.779000  1.0  0.1355
  C  C61  1  0.114000  0.052700  0.569200  1.0  0.7336
  C  C62  1  0.190900  0.090500  0.608100  1.0  -0.1396
  C  C63  1  0.231900  0.127300  0.747600  1.0  -0.0897
  C  C64  1  0.303200  0.161000  0.784400  1.0  0.0412
  C  C65  1  0.332200  0.159200  0.677100  1.0  -0.0854
  C  C66  1  0.291000  0.124600  0.536200  1.0  -0.0852
  C  C67  1  0.220900  0.088200  0.501400  1.0  0.0125
  C  C68  1  0.346200  0.195000  0.936700  1.0  0.0901
  C  C69  1  0.346400  0.162600  0.069500  1.0  -0.1476
  C  C70  1  0.399600  0.219700  0.177700  1.0  0.044
  C  C71  1  0.614000  0.552700  0.569200  1.0  0.7336
  C  C72  1  0.690900  0.590500  0.608100  1.0  -0.1396
  C  C73  1  0.731900  0.627300  0.747600  1.0  -0.0897
  C  C74  1  0.803200  0.661000  0.784400  1.0  0.0412
  C  C75  1  0.832200  0.659200  0.677100  1.0  -0.0854
  C  C76  1  0.791000  0.624600  0.536200  1.0  -0.0852
  C  C77  1  0.720900  0.588200  0.501400  1.0  0.0125
  C  C78  1  0.846200  0.695000  0.936700  1.0  0.0901
  C  C79  1  0.846400  0.662600  0.069500  1.0  -0.1476
  C  C80  1  0.899600  0.719700  0.177700  1.0  0.044
  C  C81  1  0.886000  0.052700  0.930800  1.0  0.7317
  C  C82  1  0.809100  0.090500  0.891900  1.0  -0.1394
  C  C83  1  0.768100  0.127300  0.752400  1.0  -0.0895
  C  C84  1  0.696800  0.161000  0.715600  1.0  0.0409
  C  C85  1  0.667800  0.159200  0.822900  1.0  -0.0834
  C  C86  1  0.709000  0.124600  0.963800  1.0  -0.0841
  C  C87  1  0.779100  0.088200  0.998600  1.0  0.0105
  C  C88  1  0.653800  0.195000  0.563300  1.0  0.0906
  C  C89  1  0.653600  0.162600  0.430500  1.0  -0.1483
  C  C90  1  0.600400  0.219700  0.322300  1.0  0.0412
  C  C91  1  0.386000  0.552700  0.930800  1.0  0.7317
  C  C92  1  0.309100  0.590500  0.891900  1.0  -0.1394
  C  C93  1  0.268100  0.627300  0.752400  1.0  -0.0895
  C  C94  1  0.196800  0.661000  0.715600  1.0  0.0409
  C  C95  1  0.167800  0.659200  0.822900  1.0  -0.0834
  C  C96  1  0.209000  0.624600  0.963800  1.0  -0.0841
  C  C97  1  0.279100  0.588200  0.998600  1.0  0.0105
  C  C98  1  0.153800  0.695000  0.563300  1.0  0.0906
  C  C99  1  0.153600  0.662600  0.430500  1.0  -0.1483
  C  C100  1  0.100400  0.719700  0.322300  1.0  0.0412
  C  C101  1  0.886000  0.947300  0.430800  1.0  0.7343
  C  C102  1  0.809100  0.909500  0.391900  1.0  -0.139
  C  C103  1  0.768100  0.872700  0.252400  1.0  -0.0896
  C  C104  1  0.696800  0.839000  0.215600  1.0  0.041
  C  C105  1  0.667800  0.840800  0.322900  1.0  -0.0832
  C  C106  1  0.709000  0.875400  0.463800  1.0  -0.084
  C  C107  1  0.779100  0.911800  0.498600  1.0  0.0099
  C  C108  1  0.653800  0.805000  0.063300  1.0  0.0904
  C  C109  1  0.653600  0.837400  0.930500  1.0  -0.1475
  C  C110  1  0.600400  0.780300  0.822300  1.0  0.0419
  C  C111  1  0.386000  0.447300  0.430800  1.0  0.7343
  C  C112  1  0.309100  0.409500  0.391900  1.0  -0.139
  C  C113  1  0.268100  0.372700  0.252400  1.0  -0.0896
  C  C114  1  0.196800  0.339000  0.215600  1.0  0.041
  C  C115  1  0.167800  0.340800  0.322900  1.0  -0.0832
  C  C116  1  0.209000  0.375400  0.463800  1.0  -0.084
  C  C117  1  0.279100  0.411800  0.498600  1.0  0.0099
  C  C118  1  0.153800  0.305000  0.063300  1.0  0.0904
  C  C119  1  0.153600  0.337400  0.930500  1.0  -0.1475
  C  C120  1  0.100400  0.280300  0.822300  1.0  0.0419
  C  C121  1  0.114000  0.947300  0.069200  1.0  0.7315
  C  C122  1  0.190900  0.909500  0.108100  1.0  -0.1389
  C  C123  1  0.231900  0.872700  0.247600  1.0  -0.0898
  C  C124  1  0.303200  0.839000  0.284400  1.0  0.0412
  C  C125  1  0.332200  0.840800  0.177100  1.0  -0.0848
  C  C126  1  0.291000  0.875400  0.036200  1.0  -0.0859
  C  C127  1  0.220900  0.911800  0.001400  1.0  0.0122
  C  C128  1  0.346200  0.805000  0.436700  1.0  0.09
  C  C129  1  0.346400  0.837400  0.569500  1.0  -0.1474
  C  C130  1  0.399600  0.780300  0.677700  1.0  0.0442
  C  C131  1  0.614000  0.447300  0.069200  1.0  0.7315
  C  C132  1  0.690900  0.409500  0.108100  1.0  -0.1389
  C  C133  1  0.731900  0.372700  0.247600  1.0  -0.0898
  C  C134  1  0.803200  0.339000  0.284400  1.0  0.0412
  C  C135  1  0.832200  0.340800  0.177100  1.0  -0.0848
  C  C136  1  0.791000  0.375400  0.036200  1.0  -0.0859
  C  C137  1  0.720900  0.411800  0.001400  1.0  0.0122
  C  C138  1  0.846200  0.305000  0.436700  1.0  0.09
  C  C139  1  0.846400  0.337400  0.569500  1.0  -0.1474
  C  C140  1  0.899600  0.280300  0.677700  1.0  0.0442
  N  N141  1  0.431440  0.285400  0.118100  1.0  -0.2923
  N  N142  1  0.397790  0.268400  0.970700  1.0  -0.0733
  N  N143  1  0.931440  0.785400  0.118100  1.0  -0.2923
  N  N144  1  0.897790  0.768400  0.970700  1.0  -0.0733
  N  N145  1  0.568560  0.285400  0.381900  1.0  -0.292
  N  N146  1  0.602210  0.268400  0.529300  1.0  -0.074
  N  N147  1  0.068560  0.785400  0.381900  1.0  -0.292
  N  N148  1  0.102210  0.768400  0.529300  1.0  -0.074
  N  N149  1  0.568560  0.714600  0.881900  1.0  -0.2921
  N  N150  1  0.602210  0.731600  0.029300  1.0  -0.0738
  N  N151  1  0.068560  0.214600  0.881900  1.0  -0.2921
  N  N152  1  0.102210  0.231600  0.029300  1.0  -0.0738
  N  N153  1  0.431440  0.714600  0.618100  1.0  -0.2922
  N  N154  1  0.397790  0.731600  0.470700  1.0  -0.0731
  N  N155  1  0.931440  0.214600  0.618100  1.0  -0.2922
  N  N156  1  0.897790  0.231600  0.470700  1.0  -0.0731
  N  N157  1  0.000000  0.836600  0.750000  1.0  0.7658
  N  N158  1  0.500000  0.336600  0.750000  1.0  0.7658
  N  N159  1  0.000000  0.163400  0.250000  1.0  0.7669
  N  N160  1  0.500000  0.663400  0.250000  1.0  0.7669
  O  O161  1  0.081080  0.084300  0.647000  1.0  -0.6421
  O  O162  1  0.088050  0.992400  0.462900  1.0  -0.6495
  O  O163  1  0.959310  0.887100  0.796000  1.0  -0.608
  O  O164  1  0.581080  0.584300  0.647000  1.0  -0.6421
  O  O165  1  0.588050  0.492400  0.462900  1.0  -0.6495
  O  O166  1  0.459310  0.387100  0.796000  1.0  -0.608
  O  O167  1  0.918920  0.084300  0.853000  1.0  -0.6443
  O  O168  1  0.911950  0.992400  0.037100  1.0  -0.6495
  O  O169  1  0.040690  0.887100  0.704000  1.0  -0.6084
  O  O170  1  0.418920  0.584300  0.853000  1.0  -0.6443
  O  O171  1  0.411950  0.492400  0.037100  1.0  -0.6495
  O  O172  1  0.540690  0.387100  0.704000  1.0  -0.6084
  O  O173  1  0.918920  0.915700  0.353000  1.0  -0.644
  O  O174  1  0.911950  0.007600  0.537100  1.0  -0.6489
  O  O175  1  0.040690  0.112900  0.204000  1.0  -0.6088
  O  O176  1  0.418920  0.415700  0.353000  1.0  -0.644
  O  O177  1  0.411950  0.507600  0.537100  1.0  -0.6489
  O  O178  1  0.540690  0.612900  0.204000  1.0  -0.6088
  O  O179  1  0.081080  0.915700  0.147000  1.0  -0.641
  O  O180  1  0.088050  0.007600  0.962900  1.0  -0.6489
  O  O181  1  0.959310  0.112900  0.296000  1.0  -0.6084
  O  O182  1  0.581080  0.415700  0.147000  1.0  -0.641
  O  O183  1  0.588050  0.507600  0.962900  1.0  -0.6489
  O  O184  1  0.459310  0.612900  0.296000  1.0  -0.6084
  O  O185  1  0.000000  0.745300  0.750000  1.0  -0.497
  O  O186  1  0.500000  0.245300  0.750000  1.0  -0.497
  O  O187  1  0.000000  0.254700  0.250000  1.0  -0.498
  O  O188  1  0.500000  0.754700  0.250000  1.0  -0.498
