# generated using pymatgen
data_CsGa6P6(O13F2)2
_symmetry_space_group_name_H-M   'P 1'
_cell_length_a   18.09130000
_cell_length_b   16.97390000
_cell_length_c   10.36400000
_cell_angle_alpha   90.00000000
_cell_angle_beta   90.00000000
_cell_angle_gamma   90.00000000
_symmetry_Int_Tables_number   1
_chemical_formula_structural   CsGa6P6(O13F2)2
_chemical_formula_sum   'Cs4 Ga24 P24 O104 F16'
_cell_volume   3182.57626051
_cell_formula_units_Z   4
loop_
 _symmetry_equiv_pos_site_id
 _symmetry_equiv_pos_as_xyz
  1  'x, y, z'
loop_
 _atom_site_type_symbol
 _atom_site_label
 _atom_site_symmetry_multiplicity
 _atom_site_fract_x
 _atom_site_fract_y
 _atom_site_fract_z
 _atom_site_occupancy
 _atom_site_charge
  Cs  Cs1  1  0.500000  0.000000  0.500000  1.0  0.9558
  Cs  Cs2  1  0.000000  0.500000  0.000000  1.0  0.9558
  Cs  Cs3  1  0.500000  0.000000  0.000000  1.0  0.9558
  Cs  Cs4  1  0.000000  0.500000  0.500000  1.0  0.9558
  Ga  Ga5  1  0.203630  0.237710  0.085340  1.0  1.6826
  Ga  Ga6  1  0.399100  0.207420  0.111450  1.0  1.7305
  Ga  Ga7  1  0.213360  0.414370  0.912330  1.0  1.762
  Ga  Ga8  1  0.296370  0.262290  0.585340  1.0  1.6783
  Ga  Ga9  1  0.100900  0.292580  0.611450  1.0  1.7302
  Ga  Ga10  1  0.286640  0.085630  0.412330  1.0  1.7609
  Ga  Ga11  1  0.796370  0.237710  0.414660  1.0  1.6812
  Ga  Ga12  1  0.600900  0.207420  0.388550  1.0  1.7316
  Ga  Ga13  1  0.786640  0.414370  0.587670  1.0  1.7631
  Ga  Ga14  1  0.703630  0.262290  0.914660  1.0  1.683
  Ga  Ga15  1  0.899100  0.292580  0.888550  1.0  1.7316
  Ga  Ga16  1  0.713360  0.085630  0.087670  1.0  1.7614
  Ga  Ga17  1  0.796370  0.762290  0.914660  1.0  1.6798
  Ga  Ga18  1  0.600900  0.792580  0.888550  1.0  1.7316
  Ga  Ga19  1  0.786640  0.585630  0.087670  1.0  1.7613
  Ga  Ga20  1  0.703630  0.737710  0.414660  1.0  1.6841
  Ga  Ga21  1  0.899100  0.707420  0.388550  1.0  1.7318
  Ga  Ga22  1  0.713360  0.914370  0.587670  1.0  1.7626
  Ga  Ga23  1  0.203630  0.762290  0.585340  1.0  1.6817
  Ga  Ga24  1  0.399100  0.792580  0.611450  1.0  1.7303
  Ga  Ga25  1  0.213360  0.585630  0.412330  1.0  1.7611
  Ga  Ga26  1  0.296370  0.737710  0.085340  1.0  1.6797
  Ga  Ga27  1  0.100900  0.707420  0.111450  1.0  1.7302
  Ga  Ga28  1  0.286640  0.914370  0.912330  1.0  1.7624
  P  P29  1  0.322870  0.284150  0.881170  1.0  1.8565
  P  P30  1  0.282830  0.069860  0.105190  1.0  1.8564
  P  P31  1  0.076150  0.296900  0.899700  1.0  1.8761
  P  P32  1  0.177130  0.215850  0.381170  1.0  1.8562
  P  P33  1  0.217170  0.430140  0.605190  1.0  1.857
  P  P34  1  0.423850  0.203100  0.399700  1.0  1.876
  P  P35  1  0.677130  0.284150  0.618830  1.0  1.8558
  P  P36  1  0.717170  0.069860  0.394810  1.0  1.8566
  P  P37  1  0.923850  0.296900  0.600300  1.0  1.8754
  P  P38  1  0.822870  0.215850  0.118830  1.0  1.8564
  P  P39  1  0.782830  0.430140  0.894810  1.0  1.857
  P  P40  1  0.576150  0.203100  0.100300  1.0  1.8751
  P  P41  1  0.677130  0.715850  0.118830  1.0  1.8559
  P  P42  1  0.717170  0.930140  0.894810  1.0  1.8568
  P  P43  1  0.923850  0.703100  0.100300  1.0  1.8752
  P  P44  1  0.822870  0.784150  0.618830  1.0  1.8562
  P  P45  1  0.782830  0.569860  0.394810  1.0  1.8564
  P  P46  1  0.576150  0.796900  0.600300  1.0  1.875
  P  P47  1  0.322870  0.715850  0.381170  1.0  1.8567
  P  P48  1  0.282830  0.930140  0.605190  1.0  1.8571
  P  P49  1  0.076150  0.703100  0.399700  1.0  1.876
  P  P50  1  0.177130  0.784150  0.881170  1.0  1.856
  P  P51  1  0.217170  0.569860  0.105190  1.0  1.8568
  P  P52  1  0.423850  0.796900  0.899700  1.0  1.8762
  O  O53  1  0.256010  0.236730  0.923400  1.0  -0.7922
  O  O54  1  0.215790  0.123530  0.088400  1.0  -0.7572
  O  O55  1  0.107980  0.242630  0.003500  1.0  -0.7456
  O  O56  1  0.347280  0.257060  0.746800  1.0  -0.7586
  O  O57  1  0.390800  0.272810  0.969500  1.0  -0.7899
  O  O58  1  0.305420  0.372990  0.881200  1.0  -0.812
  O  O59  1  0.357900  0.110330  0.081300  1.0  -0.9232
  O  O60  1  0.076490  0.251750  0.771600  1.0  -0.7692
  O  O61  1  0.997500  0.321930  0.935900  1.0  -0.8417
  O  O62  1  0.283860  0.031970  0.240000  1.0  -0.7108
  O  O63  1  0.275390  0.006280  0.000900  1.0  -0.9542
  O  O64  1  0.120120  0.374510  0.881900  1.0  -0.9244
  O  O65  1  0.408300  0.922200  0.249000  1.0  -0.4686
  O  O66  1  0.243990  0.263270  0.423400  1.0  -0.7911
  O  O67  1  0.284210  0.376470  0.588400  1.0  -0.758
  O  O68  1  0.392020  0.257370  0.503500  1.0  -0.7464
  O  O69  1  0.152720  0.242940  0.246800  1.0  -0.7558
  O  O70  1  0.109200  0.227190  0.469500  1.0  -0.79
  O  O71  1  0.194580  0.127010  0.381200  1.0  -0.8118
  O  O72  1  0.142100  0.389670  0.581300  1.0  -0.9244
  O  O73  1  0.423510  0.248250  0.271600  1.0  -0.7694
  O  O74  1  0.502500  0.178070  0.435900  1.0  -0.8415
  O  O75  1  0.216140  0.468030  0.740000  1.0  -0.7103
  O  O76  1  0.224610  0.493720  0.500900  1.0  -0.9533
  O  O77  1  0.379880  0.125490  0.381900  1.0  -0.9216
  O  O78  1  0.091700  0.577800  0.749000  1.0  -0.4683
  O  O79  1  0.743990  0.236730  0.576600  1.0  -0.7911
  O  O80  1  0.784210  0.123530  0.411600  1.0  -0.7576
  O  O81  1  0.892020  0.242630  0.496500  1.0  -0.7474
  O  O82  1  0.652720  0.257060  0.753200  1.0  -0.7559
  O  O83  1  0.609200  0.272810  0.530500  1.0  -0.7905
  O  O84  1  0.694580  0.372990  0.618800  1.0  -0.8111
  O  O85  1  0.642100  0.110330  0.418700  1.0  -0.924
  O  O86  1  0.923510  0.251750  0.728400  1.0  -0.7693
  O  O87  1  0.002500  0.321930  0.564100  1.0  -0.8409
  O  O88  1  0.716140  0.031970  0.260000  1.0  -0.7096
  O  O89  1  0.724610  0.006280  0.499100  1.0  -0.9537
  O  O90  1  0.879880  0.374510  0.618100  1.0  -0.9244
  O  O91  1  0.591700  0.922200  0.251000  1.0  -0.4683
  O  O92  1  0.756010  0.263270  0.076600  1.0  -0.7917
  O  O93  1  0.715790  0.376470  0.911600  1.0  -0.7559
  O  O94  1  0.607980  0.257370  0.996500  1.0  -0.747
  O  O95  1  0.847280  0.242940  0.253200  1.0  -0.7584
  O  O96  1  0.890800  0.227190  0.030500  1.0  -0.7919
  O  O97  1  0.805420  0.127010  0.118800  1.0  -0.8127
  O  O98  1  0.857900  0.389670  0.918700  1.0  -0.9236
  O  O99  1  0.576490  0.248250  0.228400  1.0  -0.7696
  O  O100  1  0.497500  0.178070  0.064100  1.0  -0.8406
  O  O101  1  0.783860  0.468030  0.760000  1.0  -0.7116
  O  O102  1  0.775390  0.493720  0.999100  1.0  -0.9517
  O  O103  1  0.620120  0.125490  0.118100  1.0  -0.9227
  O  O104  1  0.908300  0.577800  0.751000  1.0  -0.4686
  O  O105  1  0.743990  0.763270  0.076600  1.0  -0.7912
  O  O106  1  0.784210  0.876470  0.911600  1.0  -0.7571
  O  O107  1  0.892020  0.757370  0.996500  1.0  -0.7477
  O  O108  1  0.652720  0.742940  0.253200  1.0  -0.7557
  O  O109  1  0.609200  0.727190  0.030500  1.0  -0.7904
  O  O110  1  0.694580  0.627010  0.118800  1.0  -0.8116
  O  O111  1  0.642100  0.889670  0.918700  1.0  -0.9247
  O  O112  1  0.923510  0.748250  0.228400  1.0  -0.7694
  O  O113  1  0.002500  0.678070  0.064100  1.0  -0.8409
  O  O114  1  0.716140  0.968030  0.760000  1.0  -0.7105
  O  O115  1  0.724610  0.993720  0.999100  1.0  -0.9534
  O  O116  1  0.879880  0.625490  0.118100  1.0  -0.9222
  O  O117  1  0.591700  0.077800  0.751000  1.0  -0.4683
  O  O118  1  0.756010  0.736730  0.576600  1.0  -0.7913
  O  O119  1  0.715790  0.623530  0.411600  1.0  -0.7559
  O  O120  1  0.607980  0.742630  0.496500  1.0  -0.7455
  O  O121  1  0.847280  0.757060  0.753200  1.0  -0.7585
  O  O122  1  0.890800  0.772810  0.530500  1.0  -0.7911
  O  O123  1  0.805420  0.872990  0.618800  1.0  -0.8119
  O  O124  1  0.857900  0.610330  0.418700  1.0  -0.923
  O  O125  1  0.576490  0.751750  0.728400  1.0  -0.7698
  O  O126  1  0.497500  0.821930  0.564100  1.0  -0.841
  O  O127  1  0.783860  0.531970  0.260000  1.0  -0.7107
  O  O128  1  0.775390  0.506280  0.499100  1.0  -0.9535
  O  O129  1  0.620120  0.874510  0.618100  1.0  -0.925
  O  O130  1  0.908300  0.422200  0.251000  1.0  -0.4685
  O  O131  1  0.256010  0.763270  0.423400  1.0  -0.7915
  O  O132  1  0.215790  0.876470  0.588400  1.0  -0.757
  O  O133  1  0.107980  0.757370  0.503500  1.0  -0.7457
  O  O134  1  0.347280  0.742940  0.246800  1.0  -0.7586
  O  O135  1  0.390800  0.727190  0.469500  1.0  -0.791
  O  O136  1  0.305420  0.627010  0.381200  1.0  -0.8124
  O  O137  1  0.357900  0.889670  0.581300  1.0  -0.9227
  O  O138  1  0.076490  0.748250  0.271600  1.0  -0.7697
  O  O139  1  0.997500  0.678070  0.435900  1.0  -0.8411
  O  O140  1  0.283860  0.968030  0.740000  1.0  -0.7113
  O  O141  1  0.275390  0.993720  0.500900  1.0  -0.9536
  O  O142  1  0.120120  0.625490  0.381900  1.0  -0.9221
  O  O143  1  0.408300  0.077800  0.749000  1.0  -0.4686
  O  O144  1  0.243990  0.736730  0.923400  1.0  -0.792
  O  O145  1  0.284210  0.623530  0.088400  1.0  -0.7595
  O  O146  1  0.392020  0.742630  0.003500  1.0  -0.7474
  O  O147  1  0.152720  0.757060  0.746800  1.0  -0.7561
  O  O148  1  0.109200  0.772810  0.969500  1.0  -0.7899
  O  O149  1  0.194580  0.872990  0.881200  1.0  -0.8114
  O  O150  1  0.142100  0.610330  0.081300  1.0  -0.9244
  O  O151  1  0.423510  0.751750  0.771600  1.0  -0.7687
  O  O152  1  0.502500  0.821930  0.935900  1.0  -0.8419
  O  O153  1  0.216140  0.531970  0.240000  1.0  -0.71
  O  O154  1  0.224610  0.506280  0.000900  1.0  -0.9557
  O  O155  1  0.379880  0.874510  0.881900  1.0  -0.9239
  O  O156  1  0.091700  0.422200  0.249000  1.0  -0.4684
  F  F157  1  0.298570  0.246150  0.169400  1.0  -0.5146
  F  F158  1  0.210070  0.355070  0.081100  1.0  -0.4787
  F  F159  1  0.201430  0.253850  0.669400  1.0  -0.5148
  F  F160  1  0.289930  0.144930  0.581100  1.0  -0.4806
  F  F161  1  0.701430  0.246150  0.330600  1.0  -0.5151
  F  F162  1  0.789930  0.355070  0.418900  1.0  -0.4806
  F  F163  1  0.798570  0.253850  0.830600  1.0  -0.5157
  F  F164  1  0.710070  0.144930  0.918900  1.0  -0.4813
  F  F165  1  0.701430  0.753850  0.830600  1.0  -0.5158
  F  F166  1  0.789930  0.644930  0.918900  1.0  -0.4812
  F  F167  1  0.798570  0.746150  0.330600  1.0  -0.5152
  F  F168  1  0.710070  0.855070  0.418900  1.0  -0.4805
  F  F169  1  0.298570  0.753850  0.669400  1.0  -0.5148
  F  F170  1  0.210070  0.644930  0.581100  1.0  -0.4809
  F  F171  1  0.201430  0.746150  0.169400  1.0  -0.5145
  F  F172  1  0.289930  0.855070  0.081100  1.0  -0.4786
