# generated using pymatgen
data_RbGa6P6(O6F)4
_symmetry_space_group_name_H-M   'P 1'
_cell_length_a   17.94910000
_cell_length_b   16.97970000
_cell_length_c   10.36360000
_cell_angle_alpha   90.00000000
_cell_angle_beta   90.00000000
_cell_angle_gamma   90.00000000
_symmetry_Int_Tables_number   1
_chemical_formula_structural   RbGa6P6(O6F)4
_chemical_formula_sum   'Rb4 Ga24 P24 O96 F16'
_cell_volume   3158.51782588
_cell_formula_units_Z   4
loop_
 _symmetry_equiv_pos_site_id
 _symmetry_equiv_pos_as_xyz
  1  'x, y, z'
loop_
 _atom_site_type_symbol
 _atom_site_label
 _atom_site_symmetry_multiplicity
 _atom_site_fract_x
 _atom_site_fract_y
 _atom_site_fract_z
 _atom_site_occupancy
 _atom_site_charge
  Rb  Rb1  1  0.500000  0.000000  0.500000  1.0  0.945
  Rb  Rb2  1  0.000000  0.500000  0.000000  1.0  0.945
  Rb  Rb3  1  0.500000  0.000000  0.000000  1.0  0.9466
  Rb  Rb4  1  0.000000  0.500000  0.500000  1.0  0.9466
  Ga  Ga5  1  0.202120  0.239970  0.087220  1.0  1.6604
  Ga  Ga6  1  0.398460  0.201730  0.112480  1.0  1.6974
  Ga  Ga7  1  0.217800  0.416020  0.912740  1.0  1.7413
  Ga  Ga8  1  0.297880  0.260030  0.587220  1.0  1.6561
  Ga  Ga9  1  0.101540  0.298270  0.612480  1.0  1.697
  Ga  Ga10  1  0.282200  0.083980  0.412740  1.0  1.7396
  Ga  Ga11  1  0.797880  0.239970  0.412780  1.0  1.6576
  Ga  Ga12  1  0.601540  0.201730  0.387520  1.0  1.6985
  Ga  Ga13  1  0.782200  0.416020  0.587260  1.0  1.741
  Ga  Ga14  1  0.702120  0.260030  0.912780  1.0  1.6615
  Ga  Ga15  1  0.898460  0.298270  0.887520  1.0  1.6992
  Ga  Ga16  1  0.717800  0.083980  0.087260  1.0  1.7399
  Ga  Ga17  1  0.797880  0.760030  0.912780  1.0  1.6572
  Ga  Ga18  1  0.601540  0.798270  0.887520  1.0  1.6987
  Ga  Ga19  1  0.782200  0.583980  0.087260  1.0  1.7392
  Ga  Ga20  1  0.702120  0.739970  0.412780  1.0  1.6617
  Ga  Ga21  1  0.898460  0.701730  0.387520  1.0  1.6991
  Ga  Ga22  1  0.717800  0.916020  0.587260  1.0  1.7413
  Ga  Ga23  1  0.202120  0.760030  0.587220  1.0  1.6602
  Ga  Ga24  1  0.398460  0.798270  0.612480  1.0  1.6974
  Ga  Ga25  1  0.217800  0.583980  0.412740  1.0  1.7401
  Ga  Ga26  1  0.297880  0.739970  0.087220  1.0  1.6565
  Ga  Ga27  1  0.101540  0.701730  0.112480  1.0  1.6969
  Ga  Ga28  1  0.282200  0.916020  0.912740  1.0  1.7407
  P  P29  1  0.323710  0.281000  0.882770  1.0  1.8353
  P  P30  1  0.276450  0.069340  0.106470  1.0  1.8
  P  P31  1  0.075770  0.304460  0.901410  1.0  1.8112
  P  P32  1  0.176290  0.219000  0.382770  1.0  1.8317
  P  P33  1  0.223550  0.430660  0.606470  1.0  1.8033
  P  P34  1  0.424230  0.195540  0.401410  1.0  1.8128
  P  P35  1  0.676290  0.281000  0.617230  1.0  1.831
  P  P36  1  0.723550  0.069340  0.393530  1.0  1.8012
  P  P37  1  0.924230  0.304460  0.598590  1.0  1.8134
  P  P38  1  0.823710  0.219000  0.117230  1.0  1.8348
  P  P39  1  0.776450  0.430660  0.893530  1.0  1.8027
  P  P40  1  0.575770  0.195540  0.098590  1.0  1.8112
  P  P41  1  0.676290  0.719000  0.117230  1.0  1.8311
  P  P42  1  0.723550  0.930660  0.893530  1.0  1.8036
  P  P43  1  0.924230  0.695540  0.098590  1.0  1.8133
  P  P44  1  0.823710  0.781000  0.617230  1.0  1.8345
  P  P45  1  0.776450  0.569340  0.393530  1.0  1.8003
  P  P46  1  0.575770  0.804460  0.598590  1.0  1.8112
  P  P47  1  0.323710  0.719000  0.382770  1.0  1.8356
  P  P48  1  0.276450  0.930660  0.606470  1.0  1.8025
  P  P49  1  0.075770  0.695540  0.401410  1.0  1.811
  P  P50  1  0.176290  0.781000  0.882770  1.0  1.8316
  P  P51  1  0.223550  0.569340  0.106470  1.0  1.801
  P  P52  1  0.424230  0.804460  0.901410  1.0  1.8131
  O  O53  1  0.254680  0.236010  0.925400  1.0  -0.8068
  O  O54  1  0.210700  0.126000  0.091800  1.0  -0.7754
  O  O55  1  0.105680  0.249770  0.006200  1.0  -0.7756
  O  O56  1  0.347680  0.252540  0.749300  1.0  -0.7622
  O  O57  1  0.391500  0.267930  0.971700  1.0  -0.8234
  O  O58  1  0.308840  0.370010  0.881400  1.0  -0.8265
  O  O59  1  0.353640  0.106460  0.080500  1.0  -0.9499
  O  O60  1  0.076570  0.259270  0.773300  1.0  -0.8131
  O  O61  1  0.996530  0.331840  0.934300  1.0  -0.8548
  O  O62  1  0.277880  0.031190  0.241400  1.0  -0.7211
  O  O63  1  0.265340  0.006500  0.002400  1.0  -0.9314
  O  O64  1  0.121960  0.381120  0.885800  1.0  -0.9513
  O  O65  1  0.245320  0.263990  0.425400  1.0  -0.8059
  O  O66  1  0.289300  0.374000  0.591800  1.0  -0.7745
  O  O67  1  0.394320  0.250230  0.506200  1.0  -0.775
  O  O68  1  0.152320  0.247460  0.249300  1.0  -0.7619
  O  O69  1  0.108500  0.232070  0.471700  1.0  -0.8227
  O  O70  1  0.191160  0.129990  0.381400  1.0  -0.8256
  O  O71  1  0.146360  0.393540  0.580500  1.0  -0.9501
  O  O72  1  0.423430  0.240730  0.273300  1.0  -0.8127
  O  O73  1  0.503470  0.168160  0.434300  1.0  -0.8548
  O  O74  1  0.222120  0.468810  0.741400  1.0  -0.7204
  O  O75  1  0.234660  0.493500  0.502400  1.0  -0.9305
  O  O76  1  0.378040  0.118880  0.385800  1.0  -0.9463
  O  O77  1  0.745320  0.236010  0.574600  1.0  -0.8061
  O  O78  1  0.789300  0.126000  0.408200  1.0  -0.7755
  O  O79  1  0.894320  0.249770  0.493800  1.0  -0.7766
  O  O80  1  0.652320  0.252540  0.750700  1.0  -0.7627
  O  O81  1  0.608500  0.267930  0.528300  1.0  -0.8225
  O  O82  1  0.691160  0.370010  0.618600  1.0  -0.8253
  O  O83  1  0.646360  0.106460  0.419500  1.0  -0.9483
  O  O84  1  0.923430  0.259270  0.726700  1.0  -0.8124
  O  O85  1  0.003470  0.331840  0.565700  1.0  -0.855
  O  O86  1  0.722120  0.031190  0.258600  1.0  -0.7213
  O  O87  1  0.734660  0.006500  0.497600  1.0  -0.9304
  O  O88  1  0.878040  0.381120  0.614200  1.0  -0.9503
  O  O89  1  0.754680  0.263990  0.074600  1.0  -0.8069
  O  O90  1  0.710700  0.374000  0.908200  1.0  -0.7745
  O  O91  1  0.605680  0.250230  0.993800  1.0  -0.7763
  O  O92  1  0.847680  0.247460  0.250700  1.0  -0.7623
  O  O93  1  0.891500  0.232070  0.028300  1.0  -0.8258
  O  O94  1  0.808840  0.129990  0.118600  1.0  -0.8262
  O  O95  1  0.853640  0.393540  0.919500  1.0  -0.9508
  O  O96  1  0.576570  0.240730  0.226700  1.0  -0.8124
  O  O97  1  0.496530  0.168160  0.065700  1.0  -0.8559
  O  O98  1  0.777880  0.468810  0.758600  1.0  -0.7221
  O  O99  1  0.765340  0.493500  0.997600  1.0  -0.9293
  O  O100  1  0.621960  0.118880  0.114200  1.0  -0.9487
  O  O101  1  0.745320  0.763990  0.074600  1.0  -0.8061
  O  O102  1  0.789300  0.874000  0.908200  1.0  -0.7748
  O  O103  1  0.894320  0.750230  0.993800  1.0  -0.7759
  O  O104  1  0.652320  0.747460  0.250700  1.0  -0.7624
  O  O105  1  0.608500  0.732070  0.028300  1.0  -0.8231
  O  O106  1  0.691160  0.629990  0.118600  1.0  -0.8248
  O  O107  1  0.646360  0.893540  0.919500  1.0  -0.9506
  O  O108  1  0.923430  0.740730  0.226700  1.0  -0.8123
  O  O109  1  0.003470  0.668160  0.065700  1.0  -0.856
  O  O110  1  0.722120  0.968810  0.758600  1.0  -0.7215
  O  O111  1  0.734660  0.993500  0.997600  1.0  -0.9307
  O  O112  1  0.878040  0.618880  0.114200  1.0  -0.9469
  O  O113  1  0.754680  0.736010  0.574600  1.0  -0.8064
  O  O114  1  0.710700  0.626000  0.408200  1.0  -0.7749
  O  O115  1  0.605680  0.749770  0.493800  1.0  -0.776
  O  O116  1  0.847680  0.752540  0.750700  1.0  -0.7624
  O  O117  1  0.891500  0.767930  0.528300  1.0  -0.8243
  O  O118  1  0.808840  0.870010  0.618600  1.0  -0.8263
  O  O119  1  0.853640  0.606460  0.419500  1.0  -0.9498
  O  O120  1  0.576570  0.759270  0.726700  1.0  -0.8128
  O  O121  1  0.496530  0.831840  0.565700  1.0  -0.8552
  O  O122  1  0.777880  0.531190  0.258600  1.0  -0.7213
  O  O123  1  0.765340  0.506500  0.497600  1.0  -0.9299
  O  O124  1  0.621960  0.881120  0.614200  1.0  -0.9517
  O  O125  1  0.254680  0.763990  0.425400  1.0  -0.8064
  O  O126  1  0.210700  0.874000  0.591800  1.0  -0.7747
  O  O127  1  0.105680  0.750230  0.506200  1.0  -0.7753
  O  O128  1  0.347680  0.747460  0.249300  1.0  -0.7621
  O  O129  1  0.391500  0.732070  0.471700  1.0  -0.8251
  O  O130  1  0.308840  0.629990  0.381400  1.0  -0.826
  O  O131  1  0.353640  0.893540  0.580500  1.0  -0.9499
  O  O132  1  0.076570  0.740730  0.273300  1.0  -0.8131
  O  O133  1  0.996530  0.668160  0.434300  1.0  -0.8549
  O  O134  1  0.277880  0.968810  0.741400  1.0  -0.7208
  O  O135  1  0.265340  0.993500  0.502400  1.0  -0.9312
  O  O136  1  0.121960  0.618880  0.385800  1.0  -0.9482
  O  O137  1  0.245320  0.736010  0.925400  1.0  -0.8068
  O  O138  1  0.289300  0.626000  0.091800  1.0  -0.7763
  O  O139  1  0.394320  0.749770  0.006200  1.0  -0.7764
  O  O140  1  0.152320  0.752540  0.749300  1.0  -0.7622
  O  O141  1  0.108500  0.767930  0.971700  1.0  -0.8218
  O  O142  1  0.191160  0.870010  0.881400  1.0  -0.8259
  O  O143  1  0.146360  0.606460  0.080500  1.0  -0.9487
  O  O144  1  0.423430  0.759270  0.773300  1.0  -0.8124
  O  O145  1  0.503470  0.831840  0.934300  1.0  -0.8544
  O  O146  1  0.222120  0.531190  0.241400  1.0  -0.7211
  O  O147  1  0.234660  0.506500  0.002400  1.0  -0.9316
  O  O148  1  0.378040  0.881120  0.885800  1.0  -0.9499
  F  F149  1  0.298400  0.244780  0.170100  1.0  -0.5319
  F  F150  1  0.212660  0.356440  0.081900  1.0  -0.498
  F  F151  1  0.201600  0.255220  0.670100  1.0  -0.5315
  F  F152  1  0.287340  0.143560  0.581900  1.0  -0.4975
  F  F153  1  0.701600  0.244780  0.329900  1.0  -0.5319
  F  F154  1  0.787340  0.356440  0.418100  1.0  -0.4973
  F  F155  1  0.798400  0.255220  0.829900  1.0  -0.5331
  F  F156  1  0.712660  0.143560  0.918100  1.0  -0.4977
  F  F157  1  0.701600  0.755220  0.829900  1.0  -0.5325
  F  F158  1  0.787340  0.643560  0.918100  1.0  -0.4975
  F  F159  1  0.798400  0.744780  0.329900  1.0  -0.5326
  F  F160  1  0.712660  0.856440  0.418100  1.0  -0.4976
  F  F161  1  0.298400  0.755220  0.670100  1.0  -0.5323
  F  F162  1  0.212660  0.643560  0.581900  1.0  -0.498
  F  F163  1  0.201600  0.744780  0.170100  1.0  -0.5311
  F  F164  1  0.287340  0.856440  0.081900  1.0  -0.4974
