# generated using pymatgen
data_CdH10C12(N4O)2
_symmetry_space_group_name_H-M   'P 1'
_cell_length_a   17.36550000
_cell_length_b   17.36550000
_cell_length_c   11.55080000
_cell_angle_alpha   90.00000000
_cell_angle_beta   90.00000000
_cell_angle_gamma   90.00000000
_symmetry_Int_Tables_number   1
_chemical_formula_structural   CdH10C12(N4O)2
_chemical_formula_sum   'Cd8 H80 C96 N64 O16'
_cell_volume   3483.26606586
_cell_formula_units_Z   8
loop_
 _symmetry_equiv_pos_site_id
 _symmetry_equiv_pos_as_xyz
  1  'x, y, z'
loop_
 _atom_site_type_symbol
 _atom_site_label
 _atom_site_symmetry_multiplicity
 _atom_site_fract_x
 _atom_site_fract_y
 _atom_site_fract_z
 _atom_site_occupancy
 _atom_site_charge
  Cd  Cd1  1  0.000000  0.500000  0.000000  1.0  1.0043
  Cd  Cd2  1  0.500000  0.000000  0.500000  1.0  1.0043
  Cd  Cd3  1  0.500000  0.500000  0.500000  1.0  1.0043
  Cd  Cd4  1  0.000000  0.000000  0.000000  1.0  1.0043
  Cd  Cd5  1  0.250000  0.250000  0.250000  1.0  1.0043
  Cd  Cd6  1  0.250000  0.750000  0.750000  1.0  1.0043
  Cd  Cd7  1  0.750000  0.750000  0.750000  1.0  1.0043
  Cd  Cd8  1  0.750000  0.250000  0.250000  1.0  1.0043
  H  H9  1  0.081500  0.391800  0.202800  1.0  0.0693
  H  H10  1  0.317900  0.287400  0.839500  1.0  0.1067
  H  H11  1  0.223300  0.374900  0.643100  1.0  0.1284
  H  H12  1  0.310300  0.367900  0.677900  1.0  0.1191
  H  H13  1  0.267400  0.446900  0.691300  1.0  0.1347
  H  H14  1  0.581500  0.891800  0.702800  1.0  0.0693
  H  H15  1  0.817900  0.787400  0.339500  1.0  0.1067
  H  H16  1  0.723300  0.874900  0.143100  1.0  0.1284
  H  H17  1  0.810300  0.867900  0.177900  1.0  0.1191
  H  H18  1  0.767400  0.946900  0.191300  1.0  0.1347
  H  H19  1  0.418500  0.608200  0.702800  1.0  0.0695
  H  H20  1  0.182100  0.712600  0.339500  1.0  0.1066
  H  H21  1  0.276700  0.625100  0.143100  1.0  0.1279
  H  H22  1  0.189700  0.632100  0.177900  1.0  0.1185
  H  H23  1  0.232600  0.553100  0.191300  1.0  0.133
  H  H24  1  0.918500  0.108200  0.202800  1.0  0.0695
  H  H25  1  0.682100  0.212600  0.839500  1.0  0.1066
  H  H26  1  0.776700  0.125100  0.643100  1.0  0.1279
  H  H27  1  0.689700  0.132100  0.677900  1.0  0.1185
  H  H28  1  0.732600  0.053100  0.691300  1.0  0.133
  H  H29  1  0.358200  0.331500  0.452800  1.0  0.0697
  H  H30  1  0.462600  0.567900  0.089500  1.0  0.1062
  H  H31  1  0.375100  0.473300  0.893100  1.0  0.1277
  H  H32  1  0.382100  0.560300  0.927900  1.0  0.1175
  H  H33  1  0.303100  0.517400  0.941300  1.0  0.1326
  H  H34  1  0.858200  0.831500  0.952800  1.0  0.0697
  H  H35  1  0.962600  0.067900  0.589500  1.0  0.1062
  H  H36  1  0.875100  0.973300  0.393100  1.0  0.1277
  H  H37  1  0.882100  0.060300  0.427900  1.0  0.1175
  H  H38  1  0.803100  0.017400  0.441300  1.0  0.1326
  H  H39  1  0.141800  0.668500  0.952800  1.0  0.0698
  H  H40  1  0.037400  0.432100  0.589500  1.0  0.1064
  H  H41  1  0.124900  0.526700  0.393100  1.0  0.1288
  H  H42  1  0.117900  0.439700  0.427900  1.0  0.1161
  H  H43  1  0.196900  0.482600  0.441300  1.0  0.1335
  H  H44  1  0.641800  0.168500  0.452800  1.0  0.0698
  H  H45  1  0.537400  0.932100  0.089500  1.0  0.1064
  H  H46  1  0.624900  0.026700  0.893100  1.0  0.1288
  H  H47  1  0.617900  0.939700  0.927900  1.0  0.1161
  H  H48  1  0.696900  0.982600  0.941300  1.0  0.1335
  H  H49  1  0.918500  0.608200  0.797200  1.0  0.0693
  H  H50  1  0.682100  0.712600  0.160500  1.0  0.1062
  H  H51  1  0.776700  0.625100  0.356900  1.0  0.1287
  H  H52  1  0.689700  0.632100  0.322100  1.0  0.1179
  H  H53  1  0.732600  0.553100  0.308700  1.0  0.1336
  H  H54  1  0.418500  0.108200  0.297200  1.0  0.0693
  H  H55  1  0.182100  0.212600  0.660500  1.0  0.1062
  H  H56  1  0.276700  0.125100  0.856900  1.0  0.1287
  H  H57  1  0.189700  0.132100  0.822100  1.0  0.1179
  H  H58  1  0.232600  0.053100  0.808700  1.0  0.1336
  H  H59  1  0.581500  0.391800  0.297200  1.0  0.0689
  H  H60  1  0.817900  0.287400  0.660500  1.0  0.1067
  H  H61  1  0.723300  0.374900  0.856900  1.0  0.1295
  H  H62  1  0.810300  0.367900  0.822100  1.0  0.1189
  H  H63  1  0.767400  0.446900  0.808700  1.0  0.1348
  H  H64  1  0.081500  0.891800  0.797200  1.0  0.0689
  H  H65  1  0.317900  0.787400  0.160500  1.0  0.1067
  H  H66  1  0.223300  0.874900  0.356900  1.0  0.1295
  H  H67  1  0.310300  0.867900  0.322100  1.0  0.1189
  H  H68  1  0.267400  0.946900  0.308700  1.0  0.1348
  H  H69  1  0.641800  0.668500  0.547200  1.0  0.0696
  H  H70  1  0.537400  0.432100  0.910500  1.0  0.1066
  H  H71  1  0.624900  0.526700  0.106900  1.0  0.1293
  H  H72  1  0.617900  0.439700  0.072100  1.0  0.1163
  H  H73  1  0.696900  0.482600  0.058700  1.0  0.1338
  H  H74  1  0.141800  0.168500  0.047200  1.0  0.0696
  H  H75  1  0.037400  0.932100  0.410500  1.0  0.1066
  H  H76  1  0.124900  0.026700  0.606900  1.0  0.1293
  H  H77  1  0.117900  0.939700  0.572100  1.0  0.1163
  H  H78  1  0.196900  0.982600  0.558700  1.0  0.1338
  H  H79  1  0.858200  0.331500  0.047200  1.0  0.0692
  H  H80  1  0.962600  0.567900  0.410500  1.0  0.1058
  H  H81  1  0.875100  0.473300  0.606900  1.0  0.1294
  H  H82  1  0.882100  0.560300  0.572100  1.0  0.1169
  H  H83  1  0.803100  0.517400  0.558700  1.0  0.1326
  H  H84  1  0.358200  0.831500  0.547200  1.0  0.0692
  H  H85  1  0.462600  0.067900  0.910500  1.0  0.1058
  H  H86  1  0.375100  0.973300  0.106900  1.0  0.1294
  H  H87  1  0.382100  0.060300  0.072100  1.0  0.1169
  H  H88  1  0.303100  0.017400  0.058700  1.0  0.1326
  C  C89  1  0.112650  0.382250  0.138900  1.0  0.3009
  C  C90  1  0.238800  0.370200  0.818000  1.0  0.2038
  C  C91  1  0.278100  0.313400  0.876800  1.0  -0.1708
  C  C92  1  0.259810  0.293750  0.990700  1.0  0.4468
  C  C93  1  0.262100  0.392000  0.696500  1.0  -0.4062
  C  C94  1  0.160390  0.391930  0.969500  1.0  0.3888
  C  C95  1  0.612650  0.882250  0.638900  1.0  0.3009
  C  C96  1  0.738800  0.870200  0.318000  1.0  0.2038
  C  C97  1  0.778100  0.813400  0.376800  1.0  -0.1708
  C  C98  1  0.759810  0.793750  0.490700  1.0  0.4468
  C  C99  1  0.762100  0.892000  0.196500  1.0  -0.4062
  C  C100  1  0.660390  0.891930  0.469500  1.0  0.3888
  C  C101  1  0.387350  0.617750  0.638900  1.0  0.2998
  C  C102  1  0.261200  0.629800  0.318000  1.0  0.2041
  C  C103  1  0.221900  0.686600  0.376800  1.0  -0.1699
  C  C104  1  0.240190  0.706250  0.490700  1.0  0.4449
  C  C105  1  0.237900  0.608000  0.196500  1.0  -0.4053
  C  C106  1  0.339610  0.608070  0.469500  1.0  0.3884
  C  C107  1  0.887350  0.117750  0.138900  1.0  0.2998
  C  C108  1  0.761200  0.129800  0.818000  1.0  0.2041
  C  C109  1  0.721900  0.186600  0.876800  1.0  -0.1699
  C  C110  1  0.740190  0.206250  0.990700  1.0  0.4449
  C  C111  1  0.737900  0.108000  0.696500  1.0  -0.4053
  C  C112  1  0.839610  0.108070  0.969500  1.0  0.3884
  C  C113  1  0.367750  0.362650  0.388900  1.0  0.2994
  C  C114  1  0.379800  0.488800  0.068000  1.0  0.2044
  C  C115  1  0.436600  0.528100  0.126800  1.0  -0.1706
  C  C116  1  0.456250  0.509810  0.240700  1.0  0.4454
  C  C117  1  0.358000  0.512100  0.946500  1.0  -0.4043
  C  C118  1  0.358070  0.410390  0.219500  1.0  0.3885
  C  C119  1  0.867750  0.862650  0.888900  1.0  0.2994
  C  C120  1  0.879800  0.988800  0.568000  1.0  0.2044
  C  C121  1  0.936600  0.028100  0.626800  1.0  -0.1706
  C  C122  1  0.956250  0.009810  0.740700  1.0  0.4454
  C  C123  1  0.858000  0.012100  0.446500  1.0  -0.4043
  C  C124  1  0.858070  0.910390  0.719500  1.0  0.3885
  C  C125  1  0.132250  0.637350  0.888900  1.0  0.2996
  C  C126  1  0.120200  0.511200  0.568000  1.0  0.2038
  C  C127  1  0.063400  0.471900  0.626800  1.0  -0.1684
  C  C128  1  0.043750  0.490190  0.740700  1.0  0.4458
  C  C129  1  0.142000  0.487900  0.446500  1.0  -0.4039
  C  C130  1  0.141930  0.589610  0.719500  1.0  0.3913
  C  C131  1  0.632250  0.137350  0.388900  1.0  0.2996
  C  C132  1  0.620200  0.011200  0.068000  1.0  0.2038
  C  C133  1  0.563400  0.971900  0.126800  1.0  -0.1684
  C  C134  1  0.543750  0.990190  0.240700  1.0  0.4458
  C  C135  1  0.642000  0.987900  0.946500  1.0  -0.4039
  C  C136  1  0.641930  0.089610  0.219500  1.0  0.3913
  C  C137  1  0.887350  0.617750  0.861100  1.0  0.3003
  C  C138  1  0.761200  0.629800  0.182000  1.0  0.2041
  C  C139  1  0.721900  0.686600  0.123200  1.0  -0.1696
  C  C140  1  0.740190  0.706250  0.009300  1.0  0.4455
  C  C141  1  0.737900  0.608000  0.303500  1.0  -0.4054
  C  C142  1  0.839610  0.608070  0.030500  1.0  0.3881
  C  C143  1  0.387350  0.117750  0.361100  1.0  0.3003
  C  C144  1  0.261200  0.129800  0.682000  1.0  0.2041
  C  C145  1  0.221900  0.186600  0.623200  1.0  -0.1696
  C  C146  1  0.240190  0.206250  0.509300  1.0  0.4455
  C  C147  1  0.237900  0.108000  0.803500  1.0  -0.4054
  C  C148  1  0.339610  0.108070  0.530500  1.0  0.3881
  C  C149  1  0.612650  0.382250  0.361100  1.0  0.3012
  C  C150  1  0.738800  0.370200  0.682000  1.0  0.2034
  C  C151  1  0.778100  0.313400  0.623200  1.0  -0.1703
  C  C152  1  0.759810  0.293750  0.509300  1.0  0.4465
  C  C153  1  0.762100  0.392000  0.803500  1.0  -0.406
  C  C154  1  0.660390  0.391930  0.530500  1.0  0.3889
  C  C155  1  0.112650  0.882250  0.861100  1.0  0.3012
  C  C156  1  0.238800  0.870200  0.182000  1.0  0.2034
  C  C157  1  0.278100  0.813400  0.123200  1.0  -0.1703
  C  C158  1  0.259810  0.793750  0.009300  1.0  0.4465
  C  C159  1  0.262100  0.892000  0.303500  1.0  -0.406
  C  C160  1  0.160390  0.891930  0.030500  1.0  0.3889
  C  C161  1  0.632250  0.637350  0.611100  1.0  0.3004
  C  C162  1  0.620200  0.511200  0.932000  1.0  0.2034
  C  C163  1  0.563400  0.471900  0.873200  1.0  -0.1685
  C  C164  1  0.543750  0.490190  0.759300  1.0  0.446
  C  C165  1  0.642000  0.487900  0.053500  1.0  -0.4041
  C  C166  1  0.641930  0.589610  0.780500  1.0  0.3911
  C  C167  1  0.132250  0.137350  0.111100  1.0  0.3004
  C  C168  1  0.120200  0.011200  0.432000  1.0  0.2034
  C  C169  1  0.063400  0.971900  0.373200  1.0  -0.1685
  C  C170  1  0.043750  0.990190  0.259300  1.0  0.446
  C  C171  1  0.142000  0.987900  0.553500  1.0  -0.4041
  C  C172  1  0.141930  0.089610  0.280500  1.0  0.3911
  C  C173  1  0.867750  0.362650  0.111100  1.0  0.2995
  C  C174  1  0.879800  0.488800  0.432000  1.0  0.2042
  C  C175  1  0.936600  0.528100  0.373200  1.0  -0.1702
  C  C176  1  0.956250  0.509810  0.259300  1.0  0.4459
  C  C177  1  0.858000  0.512100  0.553500  1.0  -0.404
  C  C178  1  0.858070  0.410390  0.280500  1.0  0.3886
  C  C179  1  0.367750  0.862650  0.611100  1.0  0.2995
  C  C180  1  0.379800  0.988800  0.932000  1.0  0.2042
  C  C181  1  0.436600  0.028100  0.873200  1.0  -0.1702
  C  C182  1  0.456250  0.009810  0.759300  1.0  0.4459
  C  C183  1  0.358000  0.012100  0.053500  1.0  -0.404
  C  C184  1  0.358070  0.910390  0.780500  1.0  0.3886
  N  N185  1  0.167240  0.329860  0.140800  1.0  -0.3708
  N  N186  1  0.104500  0.421410  0.038800  1.0  -0.4481
  N  N187  1  0.179120  0.410820  0.862000  1.0  -0.4637
  N  N188  1  0.197380  0.335760  0.031400  1.0  0.1074
  N  N189  1  0.667240  0.829860  0.640800  1.0  -0.3708
  N  N190  1  0.604500  0.921410  0.538800  1.0  -0.4481
  N  N191  1  0.679120  0.910820  0.362000  1.0  -0.4637
  N  N192  1  0.697380  0.835760  0.531400  1.0  0.1074
  N  N193  1  0.332760  0.670140  0.640800  1.0  -0.3712
  N  N194  1  0.395500  0.578590  0.538800  1.0  -0.4486
  N  N195  1  0.320880  0.589180  0.362000  1.0  -0.4627
  N  N196  1  0.302620  0.664240  0.531400  1.0  0.1091
  N  N197  1  0.832760  0.170140  0.140800  1.0  -0.3712
  N  N198  1  0.895500  0.078590  0.038800  1.0  -0.4486
  N  N199  1  0.820880  0.089180  0.862000  1.0  -0.4627
  N  N200  1  0.802620  0.164240  0.031400  1.0  0.1091
  N  N201  1  0.420140  0.417240  0.390800  1.0  -0.3708
  N  N202  1  0.328590  0.354500  0.288800  1.0  -0.4504
  N  N203  1  0.339180  0.429120  0.112000  1.0  -0.4662
  N  N204  1  0.414240  0.447380  0.281400  1.0  0.1087
  N  N205  1  0.920140  0.917240  0.890800  1.0  -0.3708
  N  N206  1  0.828590  0.854500  0.788800  1.0  -0.4504
  N  N207  1  0.839180  0.929120  0.612000  1.0  -0.4662
  N  N208  1  0.914240  0.947380  0.781400  1.0  0.1087
  N  N209  1  0.079860  0.582760  0.890800  1.0  -0.3725
  N  N210  1  0.171410  0.645500  0.788800  1.0  -0.4495
  N  N211  1  0.160820  0.570880  0.612000  1.0  -0.4655
  N  N212  1  0.085760  0.552620  0.781400  1.0  0.1079
  N  N213  1  0.579860  0.082760  0.390800  1.0  -0.3725
  N  N214  1  0.671410  0.145500  0.288800  1.0  -0.4495
  N  N215  1  0.660820  0.070880  0.112000  1.0  -0.4655
  N  N216  1  0.585760  0.052620  0.281400  1.0  0.1079
  N  N217  1  0.832760  0.670140  0.859200  1.0  -0.3695
  N  N218  1  0.895500  0.578590  0.961200  1.0  -0.4492
  N  N219  1  0.820880  0.589180  0.138000  1.0  -0.4631
  N  N220  1  0.802620  0.664240  0.968600  1.0  0.1092
  N  N221  1  0.332760  0.170140  0.359200  1.0  -0.3695
  N  N222  1  0.395500  0.078590  0.461200  1.0  -0.4492
  N  N223  1  0.320880  0.089180  0.638000  1.0  -0.4631
  N  N224  1  0.302620  0.164240  0.468600  1.0  0.1092
  N  N225  1  0.667240  0.329860  0.359200  1.0  -0.3706
  N  N226  1  0.604500  0.421410  0.461200  1.0  -0.4484
  N  N227  1  0.679120  0.410820  0.638000  1.0  -0.4638
  N  N228  1  0.697380  0.335760  0.468600  1.0  0.1074
  N  N229  1  0.167240  0.829860  0.859200  1.0  -0.3706
  N  N230  1  0.104500  0.921410  0.961200  1.0  -0.4484
  N  N231  1  0.179120  0.910820  0.138000  1.0  -0.4638
  N  N232  1  0.197380  0.835760  0.968600  1.0  0.1074
  N  N233  1  0.579860  0.582760  0.609200  1.0  -0.371
  N  N234  1  0.671410  0.645500  0.711200  1.0  -0.45
  N  N235  1  0.660820  0.570880  0.888000  1.0  -0.4659
  N  N236  1  0.585760  0.552620  0.718600  1.0  0.1081
  N  N237  1  0.079860  0.082760  0.109200  1.0  -0.371
  N  N238  1  0.171410  0.145500  0.211200  1.0  -0.45
  N  N239  1  0.160820  0.070880  0.388000  1.0  -0.4659
  N  N240  1  0.085760  0.052620  0.218600  1.0  0.1081
  N  N241  1  0.920140  0.417240  0.109200  1.0  -0.3698
  N  N242  1  0.828590  0.354500  0.211200  1.0  -0.4506
  N  N243  1  0.839180  0.429120  0.388000  1.0  -0.4667
  N  N244  1  0.914240  0.447380  0.218600  1.0  0.1087
  N  N245  1  0.420140  0.917240  0.609200  1.0  -0.3698
  N  N246  1  0.328590  0.854500  0.711200  1.0  -0.4506
  N  N247  1  0.339180  0.929120  0.888000  1.0  -0.4667
  N  N248  1  0.414240  0.947380  0.718600  1.0  0.1087
  O  O249  1  0.290640  0.244630  0.057200  1.0  -0.6477
  O  O250  1  0.790640  0.744630  0.557200  1.0  -0.6477
  O  O251  1  0.209360  0.755370  0.557200  1.0  -0.6463
  O  O252  1  0.709360  0.255370  0.057200  1.0  -0.6463
  O  O253  1  0.505370  0.540640  0.307200  1.0  -0.6447
  O  O254  1  0.005370  0.040640  0.807200  1.0  -0.6447
  O  O255  1  0.994630  0.459360  0.807200  1.0  -0.6442
  O  O256  1  0.494630  0.959360  0.307200  1.0  -0.6442
  O  O257  1  0.709360  0.755370  0.942800  1.0  -0.6467
  O  O258  1  0.209360  0.255370  0.442800  1.0  -0.6467
  O  O259  1  0.790640  0.244630  0.442800  1.0  -0.6475
  O  O260  1  0.290640  0.744630  0.942800  1.0  -0.6475
  O  O261  1  0.494630  0.459360  0.692800  1.0  -0.6445
  O  O262  1  0.994630  0.959360  0.192800  1.0  -0.6445
  O  O263  1  0.005370  0.540640  0.192800  1.0  -0.6454
  O  O264  1  0.505370  0.040640  0.692800  1.0  -0.6454
