# generated using pymatgen
data_MnH10C12(N4O)2
_symmetry_space_group_name_H-M   'P 1'
_cell_length_a   17.12320000
_cell_length_b   17.12320000
_cell_length_c   11.30860000
_cell_angle_alpha   90.00000000
_cell_angle_beta   90.00000000
_cell_angle_gamma   90.00000000
_symmetry_Int_Tables_number   1
_chemical_formula_structural   MnH10C12(N4O)2
_chemical_formula_sum   'Mn8 H80 C96 N64 O16'
_cell_volume   3315.72650832
_cell_formula_units_Z   8
loop_
 _symmetry_equiv_pos_site_id
 _symmetry_equiv_pos_as_xyz
  1  'x, y, z'
loop_
 _atom_site_type_symbol
 _atom_site_label
 _atom_site_symmetry_multiplicity
 _atom_site_fract_x
 _atom_site_fract_y
 _atom_site_fract_z
 _atom_site_occupancy
 _atom_site_charge
  Mn  Mn1  1  0.000000  0.500000  0.000000  1.0  1.0799
  Mn  Mn2  1  0.500000  0.000000  0.500000  1.0  1.0799
  Mn  Mn3  1  0.500000  0.500000  0.500000  1.0  1.0799
  Mn  Mn4  1  0.000000  0.000000  0.000000  1.0  1.0799
  Mn  Mn5  1  0.250000  0.250000  0.250000  1.0  1.0799
  Mn  Mn6  1  0.250000  0.750000  0.750000  1.0  1.0799
  Mn  Mn7  1  0.750000  0.750000  0.750000  1.0  1.0799
  Mn  Mn8  1  0.750000  0.250000  0.250000  1.0  1.0799
  H  H9  1  0.920300  0.393200  0.210600  1.0  0.0722
  H  H10  1  0.679000  0.286300  0.841700  1.0  0.103
  H  H11  1  0.731000  0.446300  0.686500  1.0  0.1111
  H  H12  1  0.690000  0.365000  0.671900  1.0  0.1081
  H  H13  1  0.778300  0.374700  0.638400  1.0  0.1198
  H  H14  1  0.420300  0.893200  0.710600  1.0  0.0722
  H  H15  1  0.179000  0.786300  0.341700  1.0  0.103
  H  H16  1  0.231000  0.946300  0.186500  1.0  0.1111
  H  H17  1  0.190000  0.865000  0.171900  1.0  0.1081
  H  H18  1  0.278300  0.874700  0.138400  1.0  0.1198
  H  H19  1  0.579700  0.606800  0.710600  1.0  0.0718
  H  H20  1  0.821000  0.713700  0.341700  1.0  0.1028
  H  H21  1  0.769000  0.553700  0.186500  1.0  0.1108
  H  H22  1  0.810000  0.635000  0.171900  1.0  0.1091
  H  H23  1  0.721700  0.625300  0.138400  1.0  0.1195
  H  H24  1  0.079700  0.106800  0.210600  1.0  0.0718
  H  H25  1  0.321000  0.213700  0.841700  1.0  0.1028
  H  H26  1  0.269000  0.053700  0.686500  1.0  0.1108
  H  H27  1  0.310000  0.135000  0.671900  1.0  0.1091
  H  H28  1  0.221700  0.125300  0.638400  1.0  0.1195
  H  H29  1  0.356800  0.170300  0.460600  1.0  0.0724
  H  H30  1  0.463700  0.929000  0.091700  1.0  0.1048
  H  H31  1  0.303700  0.981000  0.936500  1.0  0.1084
  H  H32  1  0.385000  0.940000  0.921900  1.0  0.1072
  H  H33  1  0.375300  0.028300  0.888400  1.0  0.1198
  H  H34  1  0.856800  0.670300  0.960600  1.0  0.0724
  H  H35  1  0.963700  0.429000  0.591700  1.0  0.1048
  H  H36  1  0.803700  0.481000  0.436500  1.0  0.1084
  H  H37  1  0.885000  0.440000  0.421900  1.0  0.1072
  H  H38  1  0.875300  0.528300  0.388400  1.0  0.1198
  H  H39  1  0.143200  0.829700  0.960600  1.0  0.0725
  H  H40  1  0.036300  0.071000  0.591700  1.0  0.1046
  H  H41  1  0.196300  0.019000  0.436500  1.0  0.1096
  H  H42  1  0.115000  0.060000  0.421900  1.0  0.1088
  H  H43  1  0.124700  0.971700  0.388400  1.0  0.1191
  H  H44  1  0.643200  0.329700  0.460600  1.0  0.0725
  H  H45  1  0.536300  0.571000  0.091700  1.0  0.1046
  H  H46  1  0.696300  0.519000  0.936500  1.0  0.1096
  H  H47  1  0.615000  0.560000  0.921900  1.0  0.1088
  H  H48  1  0.624700  0.471700  0.888400  1.0  0.1191
  H  H49  1  0.079700  0.606800  0.789400  1.0  0.0714
  H  H50  1  0.321000  0.713700  0.158300  1.0  0.1026
  H  H51  1  0.269000  0.553700  0.313500  1.0  0.111
  H  H52  1  0.310000  0.635000  0.328100  1.0  0.1086
  H  H53  1  0.221700  0.625300  0.361600  1.0  0.1194
  H  H54  1  0.579700  0.106800  0.289400  1.0  0.0714
  H  H55  1  0.821000  0.213700  0.658300  1.0  0.1026
  H  H56  1  0.769000  0.053700  0.813500  1.0  0.111
  H  H57  1  0.810000  0.135000  0.828100  1.0  0.1086
  H  H58  1  0.721700  0.125300  0.861600  1.0  0.1194
  H  H59  1  0.420300  0.393200  0.289400  1.0  0.0714
  H  H60  1  0.179000  0.286300  0.658300  1.0  0.103
  H  H61  1  0.231000  0.446300  0.813500  1.0  0.1111
  H  H62  1  0.190000  0.365000  0.828100  1.0  0.1086
  H  H63  1  0.278300  0.374700  0.861600  1.0  0.1207
  H  H64  1  0.920300  0.893200  0.789400  1.0  0.0714
  H  H65  1  0.679000  0.786300  0.158300  1.0  0.103
  H  H66  1  0.731000  0.946300  0.313500  1.0  0.1111
  H  H67  1  0.690000  0.865000  0.328100  1.0  0.1086
  H  H68  1  0.778300  0.874700  0.361600  1.0  0.1207
  H  H69  1  0.643200  0.829700  0.539400  1.0  0.0716
  H  H70  1  0.536300  0.071000  0.908300  1.0  0.1045
  H  H71  1  0.696300  0.019000  0.063500  1.0  0.1095
  H  H72  1  0.615000  0.060000  0.078100  1.0  0.1089
  H  H73  1  0.624700  0.971700  0.111600  1.0  0.1205
  H  H74  1  0.143200  0.329700  0.039400  1.0  0.0716
  H  H75  1  0.036300  0.571000  0.408300  1.0  0.1045
  H  H76  1  0.196300  0.519000  0.563500  1.0  0.1095
  H  H77  1  0.115000  0.560000  0.578100  1.0  0.1089
  H  H78  1  0.124700  0.471700  0.611600  1.0  0.1205
  H  H79  1  0.856800  0.170300  0.039400  1.0  0.0719
  H  H80  1  0.963700  0.929000  0.408300  1.0  0.1048
  H  H81  1  0.803700  0.981000  0.563500  1.0  0.1088
  H  H82  1  0.885000  0.940000  0.578100  1.0  0.1075
  H  H83  1  0.875300  0.028300  0.611600  1.0  0.1193
  H  H84  1  0.356800  0.670300  0.539400  1.0  0.0719
  H  H85  1  0.463700  0.429000  0.908300  1.0  0.1048
  H  H86  1  0.303700  0.481000  0.063500  1.0  0.1088
  H  H87  1  0.385000  0.440000  0.078100  1.0  0.1075
  H  H88  1  0.375300  0.528300  0.111600  1.0  0.1193
  C  C89  1  0.888700  0.383300  0.145400  1.0  0.2899
  C  C90  1  0.840700  0.391700  0.971800  1.0  0.3788
  C  C91  1  0.761000  0.369400  0.817300  1.0  0.209
  C  C92  1  0.719800  0.312400  0.878900  1.0  -0.1726
  C  C93  1  0.738700  0.293600  0.995400  1.0  0.459
  C  C94  1  0.738000  0.390800  0.692000  1.0  -0.4335
  C  C95  1  0.388700  0.883300  0.645400  1.0  0.2899
  C  C96  1  0.340700  0.891700  0.471800  1.0  0.3788
  C  C97  1  0.261000  0.869400  0.317300  1.0  0.209
  C  C98  1  0.219800  0.812400  0.378900  1.0  -0.1726
  C  C99  1  0.238700  0.793600  0.495400  1.0  0.459
  C  C100  1  0.238000  0.890800  0.192000  1.0  -0.4335
  C  C101  1  0.611300  0.616700  0.645400  1.0  0.2901
  C  C102  1  0.659300  0.608300  0.471800  1.0  0.3793
  C  C103  1  0.739000  0.630600  0.317300  1.0  0.2088
  C  C104  1  0.780200  0.687600  0.378900  1.0  -0.1736
  C  C105  1  0.761300  0.706400  0.495400  1.0  0.4578
  C  C106  1  0.762000  0.609200  0.192000  1.0  -0.4334
  C  C107  1  0.111300  0.116700  0.145400  1.0  0.2901
  C  C108  1  0.159300  0.108300  0.971800  1.0  0.3793
  C  C109  1  0.239000  0.130600  0.817300  1.0  0.2088
  C  C110  1  0.280200  0.187600  0.878900  1.0  -0.1736
  C  C111  1  0.261300  0.206400  0.995400  1.0  0.4578
  C  C112  1  0.262000  0.109200  0.692000  1.0  -0.4334
  C  C113  1  0.366700  0.138700  0.395400  1.0  0.2898
  C  C114  1  0.358300  0.090700  0.221800  1.0  0.3797
  C  C115  1  0.380600  0.011000  0.067300  1.0  0.2082
  C  C116  1  0.437600  0.969800  0.128900  1.0  -0.1739
  C  C117  1  0.456400  0.988700  0.245400  1.0  0.4602
  C  C118  1  0.359200  0.988000  0.942000  1.0  -0.4331
  C  C119  1  0.866700  0.638700  0.895400  1.0  0.2898
  C  C120  1  0.858300  0.590700  0.721800  1.0  0.3797
  C  C121  1  0.880600  0.511000  0.567300  1.0  0.2082
  C  C122  1  0.937600  0.469800  0.628900  1.0  -0.1739
  C  C123  1  0.956400  0.488700  0.745400  1.0  0.4602
  C  C124  1  0.859200  0.488000  0.442000  1.0  -0.4331
  C  C125  1  0.133300  0.861300  0.895400  1.0  0.2906
  C  C126  1  0.141700  0.909300  0.721800  1.0  0.3793
  C  C127  1  0.119400  0.989000  0.567300  1.0  0.208
  C  C128  1  0.062400  0.030200  0.628900  1.0  -0.1712
  C  C129  1  0.043600  0.011300  0.745400  1.0  0.4575
  C  C130  1  0.140800  0.012000  0.442000  1.0  -0.4341
  C  C131  1  0.633300  0.361300  0.395400  1.0  0.2906
  C  C132  1  0.641700  0.409300  0.221800  1.0  0.3793
  C  C133  1  0.619400  0.489000  0.067300  1.0  0.208
  C  C134  1  0.562400  0.530200  0.128900  1.0  -0.1712
  C  C135  1  0.543600  0.511300  0.245400  1.0  0.4575
  C  C136  1  0.640800  0.512000  0.942000  1.0  -0.4341
  C  C137  1  0.111300  0.616700  0.854600  1.0  0.2907
  C  C138  1  0.159300  0.608300  0.028200  1.0  0.3786
  C  C139  1  0.239000  0.630600  0.182700  1.0  0.2082
  C  C140  1  0.280200  0.687600  0.121100  1.0  -0.1739
  C  C141  1  0.261300  0.706400  0.004600  1.0  0.4572
  C  C142  1  0.262000  0.609200  0.308000  1.0  -0.4322
  C  C143  1  0.611300  0.116700  0.354600  1.0  0.2907
  C  C144  1  0.659300  0.108300  0.528200  1.0  0.3786
  C  C145  1  0.739000  0.130600  0.682700  1.0  0.2082
  C  C146  1  0.780200  0.187600  0.621100  1.0  -0.1739
  C  C147  1  0.761300  0.206400  0.504600  1.0  0.4572
  C  C148  1  0.762000  0.109200  0.808000  1.0  -0.4322
  C  C149  1  0.388700  0.383300  0.354600  1.0  0.2901
  C  C150  1  0.340700  0.391700  0.528200  1.0  0.378
  C  C151  1  0.261000  0.369400  0.682700  1.0  0.2085
  C  C152  1  0.219800  0.312400  0.621100  1.0  -0.1727
  C  C153  1  0.238700  0.293600  0.504600  1.0  0.4581
  C  C154  1  0.238000  0.390800  0.808000  1.0  -0.4327
  C  C155  1  0.888700  0.883300  0.854600  1.0  0.2901
  C  C156  1  0.840700  0.891700  0.028200  1.0  0.378
  C  C157  1  0.761000  0.869400  0.182700  1.0  0.2085
  C  C158  1  0.719800  0.812400  0.121100  1.0  -0.1727
  C  C159  1  0.738700  0.793600  0.004600  1.0  0.4581
  C  C160  1  0.738000  0.890800  0.308000  1.0  -0.4327
  C  C161  1  0.633300  0.861300  0.604600  1.0  0.2903
  C  C162  1  0.641700  0.909300  0.778200  1.0  0.3788
  C  C163  1  0.619400  0.989000  0.932700  1.0  0.2075
  C  C164  1  0.562400  0.030200  0.871100  1.0  -0.1718
  C  C165  1  0.543600  0.011300  0.754600  1.0  0.4571
  C  C166  1  0.640800  0.012000  0.058000  1.0  -0.4329
  C  C167  1  0.133300  0.361300  0.104600  1.0  0.2903
  C  C168  1  0.141700  0.409300  0.278200  1.0  0.3788
  C  C169  1  0.119400  0.489000  0.432700  1.0  0.2075
  C  C170  1  0.062400  0.530200  0.371100  1.0  -0.1718
  C  C171  1  0.043600  0.511300  0.254600  1.0  0.4571
  C  C172  1  0.140800  0.512000  0.558000  1.0  -0.4329
  C  C173  1  0.866700  0.138700  0.104600  1.0  0.2902
  C  C174  1  0.858300  0.090700  0.278200  1.0  0.3789
  C  C175  1  0.880600  0.011000  0.432700  1.0  0.2075
  C  C176  1  0.937600  0.969800  0.371100  1.0  -0.1741
  C  C177  1  0.956400  0.988700  0.254600  1.0  0.4594
  C  C178  1  0.859200  0.988000  0.558000  1.0  -0.4324
  C  C179  1  0.366700  0.638700  0.604600  1.0  0.2902
  C  C180  1  0.358300  0.590700  0.778200  1.0  0.3789
  C  C181  1  0.380600  0.511000  0.932700  1.0  0.2075
  C  C182  1  0.437600  0.469800  0.871100  1.0  -0.1741
  C  C183  1  0.456400  0.488700  0.754600  1.0  0.4594
  C  C184  1  0.359200  0.488000  0.058000  1.0  -0.4324
  N  N185  1  0.832190  0.330590  0.148200  1.0  -0.3686
  N  N186  1  0.897880  0.422000  0.041700  1.0  -0.4744
  N  N187  1  0.821380  0.409940  0.862300  1.0  -0.4452
  N  N188  1  0.802930  0.335830  0.035000  1.0  0.1238
  N  N189  1  0.332190  0.830590  0.648200  1.0  -0.3686
  N  N190  1  0.397880  0.922000  0.541700  1.0  -0.4744
  N  N191  1  0.321380  0.909940  0.362300  1.0  -0.4452
  N  N192  1  0.302930  0.835830  0.535000  1.0  0.1238
  N  N193  1  0.667810  0.669410  0.648200  1.0  -0.3711
  N  N194  1  0.602120  0.578000  0.541700  1.0  -0.4758
  N  N195  1  0.678620  0.590060  0.362300  1.0  -0.4477
  N  N196  1  0.697070  0.664170  0.535000  1.0  0.1244
  N  N197  1  0.167810  0.169410  0.148200  1.0  -0.3711
  N  N198  1  0.102120  0.078000  0.041700  1.0  -0.4758
  N  N199  1  0.178620  0.090060  0.862300  1.0  -0.4477
  N  N200  1  0.197070  0.164170  0.035000  1.0  0.1244
  N  N201  1  0.419410  0.082190  0.398200  1.0  -0.3694
  N  N202  1  0.328000  0.147880  0.291700  1.0  -0.476
  N  N203  1  0.340060  0.071380  0.112300  1.0  -0.4468
  N  N204  1  0.414170  0.052930  0.285000  1.0  0.1238
  N  N205  1  0.919410  0.582190  0.898200  1.0  -0.3694
  N  N206  1  0.828000  0.647880  0.791700  1.0  -0.476
  N  N207  1  0.840060  0.571380  0.612300  1.0  -0.4468
  N  N208  1  0.914170  0.552930  0.785000  1.0  0.1238
  N  N209  1  0.080590  0.917810  0.898200  1.0  -0.3701
  N  N210  1  0.172000  0.852120  0.791700  1.0  -0.4761
  N  N211  1  0.159940  0.928620  0.612300  1.0  -0.4461
  N  N212  1  0.085830  0.947070  0.785000  1.0  0.1233
  N  N213  1  0.580590  0.417810  0.398200  1.0  -0.3701
  N  N214  1  0.672000  0.352120  0.291700  1.0  -0.4761
  N  N215  1  0.659940  0.428620  0.112300  1.0  -0.4461
  N  N216  1  0.585830  0.447070  0.285000  1.0  0.1233
  N  N217  1  0.167810  0.669410  0.851800  1.0  -0.3703
  N  N218  1  0.102120  0.578000  0.958300  1.0  -0.4764
  N  N219  1  0.178620  0.590060  0.137700  1.0  -0.4473
  N  N220  1  0.197070  0.664170  0.965000  1.0  0.1245
  N  N221  1  0.667810  0.169410  0.351800  1.0  -0.3703
  N  N222  1  0.602120  0.078000  0.458300  1.0  -0.4764
  N  N223  1  0.678620  0.090060  0.637700  1.0  -0.4473
  N  N224  1  0.697070  0.164170  0.465000  1.0  0.1245
  N  N225  1  0.332190  0.330590  0.351800  1.0  -0.37
  N  N226  1  0.397880  0.422000  0.458300  1.0  -0.4747
  N  N227  1  0.321380  0.409940  0.637700  1.0  -0.4453
  N  N228  1  0.302930  0.335830  0.465000  1.0  0.1238
  N  N229  1  0.832190  0.830590  0.851800  1.0  -0.37
  N  N230  1  0.897880  0.922000  0.958300  1.0  -0.4747
  N  N231  1  0.821380  0.909940  0.137700  1.0  -0.4453
  N  N232  1  0.802930  0.835830  0.965000  1.0  0.1238
  N  N233  1  0.580590  0.917810  0.601800  1.0  -0.3684
  N  N234  1  0.672000  0.852120  0.708300  1.0  -0.4764
  N  N235  1  0.659940  0.928620  0.887700  1.0  -0.4464
  N  N236  1  0.585830  0.947070  0.715000  1.0  0.1232
  N  N237  1  0.080590  0.417810  0.101800  1.0  -0.3684
  N  N238  1  0.172000  0.352120  0.208300  1.0  -0.4764
  N  N239  1  0.159940  0.428620  0.387700  1.0  -0.4464
  N  N240  1  0.085830  0.447070  0.215000  1.0  0.1232
  N  N241  1  0.919410  0.082190  0.101800  1.0  -0.37
  N  N242  1  0.828000  0.147880  0.208300  1.0  -0.4768
  N  N243  1  0.840060  0.071380  0.387700  1.0  -0.4471
  N  N244  1  0.914170  0.052930  0.215000  1.0  0.1238
  N  N245  1  0.419410  0.582190  0.601800  1.0  -0.37
  N  N246  1  0.328000  0.647880  0.708300  1.0  -0.4768
  N  N247  1  0.340060  0.571380  0.887700  1.0  -0.4471
  N  N248  1  0.414170  0.552930  0.715000  1.0  0.1238
  O  O249  1  0.707920  0.245720  0.066500  1.0  -0.613
  O  O250  1  0.207920  0.745720  0.566500  1.0  -0.613
  O  O251  1  0.792080  0.754280  0.566500  1.0  -0.615
  O  O252  1  0.292080  0.254280  0.066500  1.0  -0.615
  O  O253  1  0.504280  0.957920  0.316500  1.0  -0.6157
  O  O254  1  0.004280  0.457920  0.816500  1.0  -0.6157
  O  O255  1  0.995720  0.042080  0.816500  1.0  -0.6169
  O  O256  1  0.495720  0.542080  0.316500  1.0  -0.6169
  O  O257  1  0.292080  0.754280  0.933500  1.0  -0.6146
  O  O258  1  0.792080  0.254280  0.433500  1.0  -0.6146
  O  O259  1  0.207920  0.245720  0.433500  1.0  -0.6135
  O  O260  1  0.707920  0.745720  0.933500  1.0  -0.6135
  O  O261  1  0.495720  0.042080  0.683500  1.0  -0.6172
  O  O262  1  0.995720  0.542080  0.183500  1.0  -0.6172
  O  O263  1  0.004280  0.957920  0.183500  1.0  -0.6157
  O  O264  1  0.504280  0.457920  0.683500  1.0  -0.6157
