# generated using pymatgen
data_Co3H12(C11O5)2
_symmetry_space_group_name_H-M   'P 1'
_cell_length_a   10.86370000
_cell_length_b   6.38830000
_cell_length_c   16.96300000
_cell_angle_alpha   90.00000000
_cell_angle_beta   105.75700000
_cell_angle_gamma   90.00000000
_symmetry_Int_Tables_number   1
_chemical_formula_structural   Co3H12(C11O5)2
_chemical_formula_sum   'Co6 H24 C44 O20'
_cell_volume   1133.00362922
_cell_formula_units_Z   2
loop_
 _symmetry_equiv_pos_site_id
 _symmetry_equiv_pos_as_xyz
  1  'x, y, z'
loop_
 _atom_site_type_symbol
 _atom_site_label
 _atom_site_symmetry_multiplicity
 _atom_site_fract_x
 _atom_site_fract_y
 _atom_site_fract_z
 _atom_site_occupancy
 _atom_site_charge
  Co  Co1  1  0.534590  0.003110  0.916060  1.0  1.0586
  Co  Co2  1  0.465410  0.503110  0.583940  1.0  1.0497
  Co  Co3  1  0.465410  0.996890  0.083940  1.0  1.0498
  Co  Co4  1  0.534590  0.496890  0.416060  1.0  1.0586
  Co  Co5  1  0.500000  0.500000  0.000000  1.0  1.2156
  Co  Co6  1  0.500000  0.000000  0.500000  1.0  1.2156
  H  H7  1  0.803400  0.827800  0.696900  1.0  0.1019
  H  H8  1  0.974000  0.739000  0.804900  1.0  0.0935
  H  H9  1  0.050000  0.970300  0.912300  1.0  0.1196
  H  H10  1  0.784900  0.387400  0.799800  1.0  0.1132
  H  H11  1  0.145000  0.382700  0.933300  1.0  0.0986
  H  H12  1  0.365300  0.190200  0.957700  1.0  0.4176
  H  H13  1  0.196600  0.327800  0.803100  1.0  0.1022
  H  H14  1  0.026000  0.239000  0.695100  1.0  0.0937
  H  H15  1  0.950000  0.470300  0.587700  1.0  0.1195
  H  H16  1  0.215100  0.887400  0.700200  1.0  0.1132
  H  H17  1  0.855000  0.882700  0.566700  1.0  0.0987
  H  H18  1  0.634700  0.690200  0.542300  1.0  0.4156
  H  H19  1  0.196600  0.172200  0.303100  1.0  0.1018
  H  H20  1  0.026000  0.261000  0.195100  1.0  0.094
  H  H21  1  0.950000  0.029700  0.087700  1.0  0.1197
  H  H22  1  0.215100  0.612600  0.200200  1.0  0.113
  H  H23  1  0.855000  0.617300  0.066700  1.0  0.0988
  H  H24  1  0.634700  0.809800  0.042300  1.0  0.4156
  H  H25  1  0.803400  0.672200  0.196900  1.0  0.102
  H  H26  1  0.974000  0.761000  0.304900  1.0  0.0934
  H  H27  1  0.050000  0.529700  0.412300  1.0  0.1194
  H  H28  1  0.784900  0.112600  0.299800  1.0  0.113
  H  H29  1  0.145000  0.117300  0.433300  1.0  0.0987
  H  H30  1  0.365300  0.309800  0.457700  1.0  0.4177
  C  C31  1  0.668600  0.183000  0.663600  1.0  0.6778
  C  C32  1  0.776800  0.120300  0.735700  1.0  -0.1885
  C  C33  1  0.834100  0.923200  0.739100  1.0  -0.0372
  C  C34  1  0.935400  0.869200  0.804200  1.0  -0.0826
  C  C35  1  0.980500  0.006900  0.868800  1.0  -0.1073
  C  C36  1  0.922000  0.197400  0.868300  1.0  0.0061
  C  C37  1  0.821800  0.255700  0.800800  1.0  -0.0674
  C  C38  1  0.085800  0.430200  0.959900  1.0  -0.0797
  C  C39  1  0.963400  0.346000  0.938200  1.0  -0.0131
  C  C40  1  0.877000  0.416500  0.979900  1.0  -0.096
  C  C41  1  0.742800  0.330100  0.964300  1.0  0.7019
  C  C42  1  0.331400  0.683000  0.836400  1.0  0.6793
  C  C43  1  0.223200  0.620300  0.764300  1.0  -0.1881
  C  C44  1  0.165900  0.423200  0.760900  1.0  -0.0372
  C  C45  1  0.064600  0.369200  0.695800  1.0  -0.0835
  C  C46  1  0.019500  0.506900  0.631200  1.0  -0.1076
  C  C47  1  0.078000  0.697400  0.631700  1.0  0.0064
  C  C48  1  0.178200  0.755700  0.699200  1.0  -0.0684
  C  C49  1  0.914200  0.930200  0.540100  1.0  -0.0798
  C  C50  1  0.036600  0.846000  0.561800  1.0  -0.0124
  C  C51  1  0.123000  0.916500  0.520100  1.0  -0.0948
  C  C52  1  0.257200  0.830100  0.535700  1.0  0.7029
  C  C53  1  0.331400  0.817000  0.336400  1.0  0.679
  C  C54  1  0.223200  0.879700  0.264300  1.0  -0.188
  C  C55  1  0.165900  0.076800  0.260900  1.0  -0.038
  C  C56  1  0.064600  0.130800  0.195800  1.0  -0.0826
  C  C57  1  0.019500  0.993100  0.131200  1.0  -0.108
  C  C58  1  0.078000  0.802600  0.131700  1.0  0.0063
  C  C59  1  0.178200  0.744300  0.199200  1.0  -0.0682
  C  C60  1  0.914200  0.569800  0.040100  1.0  -0.0796
  C  C61  1  0.036600  0.654000  0.061800  1.0  -0.012
  C  C62  1  0.123000  0.583500  0.020100  1.0  -0.0948
  C  C63  1  0.257200  0.669900  0.035700  1.0  0.7026
  C  C64  1  0.668600  0.317000  0.163600  1.0  0.6774
  C  C65  1  0.776800  0.379700  0.235700  1.0  -0.1882
  C  C66  1  0.834100  0.576800  0.239100  1.0  -0.0375
  C  C67  1  0.935400  0.630800  0.304200  1.0  -0.0814
  C  C68  1  0.980500  0.493100  0.368800  1.0  -0.1071
  C  C69  1  0.922000  0.302600  0.368300  1.0  0.0061
  C  C70  1  0.821800  0.244300  0.300800  1.0  -0.0673
  C  C71  1  0.085800  0.069800  0.459900  1.0  -0.0795
  C  C72  1  0.963400  0.154000  0.438200  1.0  -0.0128
  C  C73  1  0.877000  0.083500  0.479900  1.0  -0.0961
  C  C74  1  0.742800  0.169900  0.464300  1.0  0.7017
  O  O75  1  0.614400  0.039300  0.618520  1.0  -0.5933
  O  O76  1  0.639100  0.374200  0.654130  1.0  -0.6005
  O  O77  1  0.724300  0.136800  0.966060  1.0  -0.5867
  O  O78  1  0.656000  0.466000  0.951890  1.0  -0.608
  O  O79  1  0.444400  0.190200  0.983060  1.0  -0.9329
  O  O80  1  0.385600  0.539300  0.881480  1.0  -0.5924
  O  O81  1  0.360900  0.874200  0.845870  1.0  -0.6016
  O  O82  1  0.275700  0.636800  0.533940  1.0  -0.5861
  O  O83  1  0.344000  0.966000  0.548110  1.0  -0.6082
  O  O84  1  0.555600  0.690200  0.516940  1.0  -0.9324
  O  O85  1  0.385600  0.960700  0.381480  1.0  -0.5926
  O  O86  1  0.360900  0.625800  0.345870  1.0  -0.6022
  O  O87  1  0.275700  0.863200  0.033940  1.0  -0.5854
  O  O88  1  0.344000  0.534000  0.048110  1.0  -0.6077
  O  O89  1  0.555600  0.809800  0.016940  1.0  -0.9318
  O  O90  1  0.614400  0.460700  0.118520  1.0  -0.5932
  O  O91  1  0.639100  0.125800  0.154130  1.0  -0.6012
  O  O92  1  0.724300  0.363200  0.466060  1.0  -0.5875
  O  O93  1  0.656000  0.034000  0.451890  1.0  -0.6085
  O  O94  1  0.444400  0.309800  0.483060  1.0  -0.9326
