# generated using pymatgen
data_Ni3H12(C11O5)2
_symmetry_space_group_name_H-M   'P 1'
_cell_length_a   10.83520000
_cell_length_b   6.32460000
_cell_length_c   16.88340000
_cell_angle_alpha   90.00000000
_cell_angle_beta   105.66700000
_cell_angle_gamma   90.00000000
_symmetry_Int_Tables_number   1
_chemical_formula_structural   Ni3H12(C11O5)2
_chemical_formula_sum   'Ni6 H24 C44 O20'
_cell_volume   1114.00563168
_cell_formula_units_Z   2
loop_
 _symmetry_equiv_pos_site_id
 _symmetry_equiv_pos_as_xyz
  1  'x, y, z'
loop_
 _atom_site_type_symbol
 _atom_site_label
 _atom_site_symmetry_multiplicity
 _atom_site_fract_x
 _atom_site_fract_y
 _atom_site_fract_z
 _atom_site_occupancy
 _atom_site_charge
  Ni  Ni1  1  0.535020  0.003630  0.917390  1.0  0.8778
  Ni  Ni2  1  0.464980  0.503630  0.582610  1.0  0.8719
  Ni  Ni3  1  0.464980  0.996370  0.082610  1.0  0.8719
  Ni  Ni4  1  0.535020  0.496370  0.417390  1.0  0.8777
  Ni  Ni5  1  0.500000  0.500000  0.000000  1.0  1.0677
  Ni  Ni6  1  0.500000  0.000000  0.500000  1.0  1.0677
  H  H7  1  0.801100  0.826100  0.694000  1.0  0.1146
  H  H8  1  0.969000  0.733300  0.803600  1.0  0.0994
  H  H9  1  0.045500  0.962400  0.911900  1.0  0.1284
  H  H10  1  0.782200  0.387400  0.799600  1.0  0.1206
  H  H11  1  0.143600  0.379300  0.933100  1.0  0.1026
  H  H12  1  0.368300  0.190000  0.958400  1.0  0.4253
  H  H13  1  0.198900  0.326100  0.806000  1.0  0.1143
  H  H14  1  0.031000  0.233300  0.696400  1.0  0.0994
  H  H15  1  0.954500  0.462400  0.588100  1.0  0.1284
  H  H16  1  0.217800  0.887400  0.700400  1.0  0.1205
  H  H17  1  0.856400  0.879300  0.566900  1.0  0.103
  H  H18  1  0.631700  0.690000  0.541600  1.0  0.4255
  H  H19  1  0.198900  0.173900  0.306000  1.0  0.1137
  H  H20  1  0.031000  0.266700  0.196400  1.0  0.0997
  H  H21  1  0.954500  0.037600  0.088100  1.0  0.1281
  H  H22  1  0.217800  0.612600  0.200400  1.0  0.1206
  H  H23  1  0.856400  0.620700  0.066900  1.0  0.1026
  H  H24  1  0.631700  0.810000  0.041600  1.0  0.4255
  H  H25  1  0.801100  0.673900  0.194000  1.0  0.1145
  H  H26  1  0.969000  0.766700  0.303600  1.0  0.0996
  H  H27  1  0.045500  0.537600  0.411900  1.0  0.1277
  H  H28  1  0.782200  0.112600  0.299600  1.0  0.1205
  H  H29  1  0.143600  0.120700  0.433100  1.0  0.1025
  H  H30  1  0.368300  0.310000  0.458400  1.0  0.4255
  C  C31  1  0.665100  0.185900  0.662500  1.0  0.6812
  C  C32  1  0.772600  0.116600  0.734200  1.0  -0.1584
  C  C33  1  0.830400  0.921100  0.737000  1.0  -0.0421
  C  C34  1  0.931000  0.865400  0.803000  1.0  -0.0605
  C  C35  1  0.976500  0.001500  0.868200  1.0  -0.1193
  C  C36  1  0.919900  0.193500  0.868100  1.0  0.0436
  C  C37  1  0.818800  0.254200  0.800400  1.0  -0.0606
  C  C38  1  0.084600  0.429300  0.959700  1.0  -0.0767
  C  C39  1  0.961600  0.344500  0.938300  1.0  0.0521
  C  C40  1  0.877200  0.416200  0.981500  1.0  -0.0579
  C  C41  1  0.739800  0.327100  0.966200  1.0  0.6932
  C  C42  1  0.334900  0.685900  0.837500  1.0  0.6831
  C  C43  1  0.227400  0.616600  0.765800  1.0  -0.1601
  C  C44  1  0.169600  0.421100  0.763000  1.0  -0.0433
  C  C45  1  0.069000  0.365400  0.697000  1.0  -0.0605
  C  C46  1  0.023500  0.501500  0.631800  1.0  -0.1205
  C  C47  1  0.080100  0.693500  0.631900  1.0  0.0437
  C  C48  1  0.181200  0.754200  0.699600  1.0  -0.0624
  C  C49  1  0.915400  0.929300  0.540300  1.0  -0.0768
  C  C50  1  0.038400  0.844500  0.561700  1.0  0.0524
  C  C51  1  0.122800  0.916200  0.518500  1.0  -0.0559
  C  C52  1  0.260200  0.827100  0.533800  1.0  0.6933
  C  C53  1  0.334900  0.814100  0.337500  1.0  0.6831
  C  C54  1  0.227400  0.883400  0.265800  1.0  -0.1603
  C  C55  1  0.169600  0.078900  0.263000  1.0  -0.0436
  C  C56  1  0.069000  0.134600  0.197000  1.0  -0.0591
  C  C57  1  0.023500  0.998500  0.131800  1.0  -0.1208
  C  C58  1  0.080100  0.806500  0.131900  1.0  0.0441
  C  C59  1  0.181200  0.745800  0.199600  1.0  -0.0609
  C  C60  1  0.915400  0.570700  0.040300  1.0  -0.0766
  C  C61  1  0.038400  0.655500  0.061700  1.0  0.0524
  C  C62  1  0.122800  0.583800  0.018500  1.0  -0.056
  C  C63  1  0.260200  0.672900  0.033800  1.0  0.6936
  C  C64  1  0.665100  0.314100  0.162500  1.0  0.6803
  C  C65  1  0.772600  0.383400  0.234200  1.0  -0.1584
  C  C66  1  0.830400  0.578900  0.237000  1.0  -0.0417
  C  C67  1  0.931000  0.634600  0.303000  1.0  -0.0592
  C  C68  1  0.976500  0.498500  0.368200  1.0  -0.1192
  C  C69  1  0.919900  0.306500  0.368100  1.0  0.044
  C  C70  1  0.818800  0.245800  0.300400  1.0  -0.0596
  C  C71  1  0.084600  0.070700  0.459700  1.0  -0.0764
  C  C72  1  0.961600  0.155500  0.438300  1.0  0.0522
  C  C73  1  0.877200  0.083800  0.481500  1.0  -0.058
  C  C74  1  0.739800  0.172900  0.466200  1.0  0.6933
  O  O75  1  0.609300  0.033900  0.618200  1.0  -0.6001
  O  O76  1  0.637200  0.377300  0.650800  1.0  -0.5956
  O  O77  1  0.720900  0.135600  0.966600  1.0  -0.5561
  O  O78  1  0.657300  0.470100  0.955900  1.0  -0.5956
  O  O79  1  0.447400  0.189900  0.983700  1.0  -0.9477
  O  O80  1  0.390700  0.533900  0.881800  1.0  -0.5998
  O  O81  1  0.362800  0.877300  0.849200  1.0  -0.5946
  O  O82  1  0.279100  0.635600  0.533400  1.0  -0.5558
  O  O83  1  0.342700  0.970100  0.544100  1.0  -0.5964
  O  O84  1  0.552600  0.689900  0.516300  1.0  -0.9477
  O  O85  1  0.390700  0.966100  0.381800  1.0  -0.5996
  O  O86  1  0.362800  0.622700  0.349200  1.0  -0.5948
  O  O87  1  0.279100  0.864400  0.033400  1.0  -0.5548
  O  O88  1  0.342700  0.529900  0.044100  1.0  -0.5961
  O  O89  1  0.552600  0.810100  0.016300  1.0  -0.9474
  O  O90  1  0.609300  0.466100  0.118200  1.0  -0.5999
  O  O91  1  0.637200  0.122700  0.150800  1.0  -0.5958
  O  O92  1  0.720900  0.364400  0.466600  1.0  -0.5563
  O  O93  1  0.657300  0.029900  0.455900  1.0  -0.5963
  O  O94  1  0.447400  0.310100  0.483700  1.0  -0.9476
