# generated using pymatgen
data_Co3H12(C11O5)2
_symmetry_space_group_name_H-M   'P 1'
_cell_length_a   10.91100000
_cell_length_b   6.41300000
_cell_length_c   17.04500000
_cell_angle_alpha   90.00000000
_cell_angle_beta   105.86700000
_cell_angle_gamma   90.00000000
_symmetry_Int_Tables_number   1
_chemical_formula_structural   Co3H12(C11O5)2
_chemical_formula_sum   'Co6 H24 C44 O20'
_cell_volume   1147.23462755
_cell_formula_units_Z   2
loop_
 _symmetry_equiv_pos_site_id
 _symmetry_equiv_pos_as_xyz
  1  'x, y, z'
loop_
 _atom_site_type_symbol
 _atom_site_label
 _atom_site_symmetry_multiplicity
 _atom_site_fract_x
 _atom_site_fract_y
 _atom_site_fract_z
 _atom_site_occupancy
 _atom_site_charge
  Co  Co1  1  0.534360  0.996440  0.415790  1.0  1.0736
  Co  Co2  1  0.465640  0.496440  0.084210  1.0  1.0737
  Co  Co3  1  0.465640  0.003560  0.584210  1.0  1.0734
  Co  Co4  1  0.534360  0.503560  0.915790  1.0  1.0737
  Co  Co5  1  0.500000  0.500000  0.500000  1.0  1.2208
  Co  Co6  1  0.500000  0.000000  0.000000  1.0  1.2208
  H  H7  1  0.352300  0.809700  0.453500  1.0  0.402
  H  H8  1  0.217100  0.114700  0.200000  1.0  0.1112
  H  H9  1  0.949100  0.530400  0.087700  1.0  0.107
  H  H10  1  0.026500  0.763900  0.195000  1.0  0.1034
  H  H11  1  0.200100  0.672400  0.301600  1.0  0.0971
  H  H12  1  0.856200  0.118100  0.065800  1.0  0.101
  H  H13  1  0.647700  0.309700  0.046500  1.0  0.4027
  H  H14  1  0.782900  0.614700  0.300000  1.0  0.1113
  H  H15  1  0.050900  0.030400  0.412300  1.0  0.1064
  H  H16  1  0.973500  0.263900  0.305000  1.0  0.1032
  H  H17  1  0.799900  0.172400  0.198400  1.0  0.0973
  H  H18  1  0.143800  0.618100  0.434200  1.0  0.1013
  H  H19  1  0.647700  0.190300  0.546500  1.0  0.4026
  H  H20  1  0.782900  0.885300  0.800000  1.0  0.1117
  H  H21  1  0.050900  0.469600  0.912300  1.0  0.1066
  H  H22  1  0.973500  0.236100  0.805000  1.0  0.1035
  H  H23  1  0.799900  0.327600  0.698400  1.0  0.097
  H  H24  1  0.143800  0.881900  0.934200  1.0  0.1013
  H  H25  1  0.352300  0.690300  0.953500  1.0  0.4017
  H  H26  1  0.217100  0.385300  0.700000  1.0  0.1114
  H  H27  1  0.949100  0.969600  0.587700  1.0  0.1067
  H  H28  1  0.026500  0.736100  0.695000  1.0  0.1034
  H  H29  1  0.200100  0.827600  0.801600  1.0  0.0975
  H  H30  1  0.856200  0.381900  0.565800  1.0  0.101
  C  C31  1  0.330400  0.315100  0.336000  1.0  0.655
  C  C32  1  0.221400  0.383200  0.264200  1.0  -0.1727
  C  C33  1  0.178500  0.244500  0.198600  1.0  -0.0722
  C  C34  1  0.078000  0.300200  0.131200  1.0  0.0169
  C  C35  1  0.018700  0.494400  0.130800  1.0  -0.0996
  C  C36  1  0.064500  0.634100  0.195400  1.0  -0.0779
  C  C37  1  0.167300  0.576900  0.260100  1.0  -0.0101
  C  C38  1  0.038400  0.152200  0.061800  1.0  0.0126
  C  C39  1  0.915100  0.069300  0.039800  1.0  -0.0808
  C  C40  1  0.122300  0.084900  0.020200  1.0  -0.088
  C  C41  1  0.259000  0.170400  0.036500  1.0  0.6878
  C  C42  1  0.669600  0.815100  0.164000  1.0  0.6558
  C  C43  1  0.778600  0.883200  0.235800  1.0  -0.1733
  C  C44  1  0.821500  0.744500  0.301400  1.0  -0.0722
  C  C45  1  0.922000  0.800200  0.368800  1.0  0.0164
  C  C46  1  0.981300  0.994400  0.369200  1.0  -0.0994
  C  C47  1  0.935500  0.134100  0.304600  1.0  -0.0782
  C  C48  1  0.832700  0.076900  0.239900  1.0  -0.0079
  C  C49  1  0.961600  0.652200  0.438200  1.0  0.0132
  C  C50  1  0.084900  0.569300  0.460200  1.0  -0.0804
  C  C51  1  0.877700  0.584900  0.479800  1.0  -0.0909
  C  C52  1  0.741000  0.670400  0.463500  1.0  0.6878
  C  C53  1  0.669600  0.684900  0.664000  1.0  0.6566
  C  C54  1  0.778600  0.616800  0.735800  1.0  -0.173
  C  C55  1  0.821500  0.755500  0.801400  1.0  -0.0734
  C  C56  1  0.922000  0.699800  0.868800  1.0  0.0164
  C  C57  1  0.981300  0.505600  0.869200  1.0  -0.0989
  C  C58  1  0.935500  0.365900  0.804600  1.0  -0.0781
  C  C59  1  0.832700  0.423100  0.739900  1.0  -0.0075
  C  C60  1  0.961600  0.847800  0.938200  1.0  0.0131
  C  C61  1  0.084900  0.930700  0.960200  1.0  -0.08
  C  C62  1  0.877700  0.915100  0.979800  1.0  -0.0908
  C  C63  1  0.741000  0.829600  0.963500  1.0  0.6877
  C  C64  1  0.330400  0.184900  0.836000  1.0  0.6552
  C  C65  1  0.221400  0.116800  0.764200  1.0  -0.1726
  C  C66  1  0.178500  0.255500  0.698600  1.0  -0.0742
  C  C67  1  0.078000  0.199800  0.631200  1.0  0.0169
  C  C68  1  0.018700  0.005600  0.630800  1.0  -0.0987
  C  C69  1  0.064500  0.865900  0.695400  1.0  -0.0778
  C  C70  1  0.167300  0.923100  0.760100  1.0  -0.009
  C  C71  1  0.038400  0.347800  0.561800  1.0  0.0126
  C  C72  1  0.915100  0.430700  0.539800  1.0  -0.0804
  C  C73  1  0.122300  0.415100  0.520200  1.0  -0.0878
  C  C74  1  0.259000  0.329600  0.536500  1.0  0.6876
  O  O75  1  0.359900  0.126400  0.345200  1.0  -0.5919
  O  O76  1  0.384200  0.462700  0.381500  1.0  -0.6094
  O  O77  1  0.343300  0.032600  0.048600  1.0  -0.6052
  O  O78  1  0.275900  0.361600  0.034600  1.0  -0.5735
  O  O79  1  0.443100  0.809800  0.482600  1.0  -0.9956
  O  O80  1  0.640100  0.626400  0.154800  1.0  -0.5908
  O  O81  1  0.615800  0.962700  0.118500  1.0  -0.6114
  O  O82  1  0.656700  0.532600  0.451400  1.0  -0.6066
  O  O83  1  0.724100  0.861600  0.465400  1.0  -0.575
  O  O84  1  0.556900  0.309800  0.017400  1.0  -0.996
  O  O85  1  0.640100  0.873600  0.654800  1.0  -0.5913
  O  O86  1  0.615800  0.537300  0.618500  1.0  -0.6107
  O  O87  1  0.656700  0.967400  0.951400  1.0  -0.6058
  O  O88  1  0.724100  0.638400  0.965400  1.0  -0.5753
  O  O89  1  0.556900  0.190200  0.517400  1.0  -0.9961
  O  O90  1  0.359900  0.373600  0.845200  1.0  -0.5918
  O  O91  1  0.384200  0.037300  0.881500  1.0  -0.6089
  O  O92  1  0.343300  0.467400  0.548600  1.0  -0.6054
  O  O93  1  0.275900  0.138400  0.534600  1.0  -0.5737
  O  O94  1  0.443100  0.690200  0.982600  1.0  -0.9959
