# generated using pymatgen
data_Cd2H11C16(N5O2)2
_symmetry_space_group_name_H-M   'P 1'
_cell_length_a   15.31620000
_cell_length_b   12.61840000
_cell_length_c   15.56590000
_cell_angle_alpha   90.00000000
_cell_angle_beta   96.16500000
_cell_angle_gamma   90.00000000
_symmetry_Int_Tables_number   1
_chemical_formula_structural   Cd2H11C16(N5O2)2
_chemical_formula_sum   'Cd8 H44 C64 N40 O16'
_cell_volume   2990.96018223
_cell_formula_units_Z   4
loop_
 _symmetry_equiv_pos_site_id
 _symmetry_equiv_pos_as_xyz
  1  'x, y, z'
loop_
 _atom_site_type_symbol
 _atom_site_label
 _atom_site_symmetry_multiplicity
 _atom_site_fract_x
 _atom_site_fract_y
 _atom_site_fract_z
 _atom_site_occupancy
 _atom_site_charge
  Cd  Cd1  1  0.682000  0.826460  0.683930  1.0  0.6597
  Cd  Cd2  1  0.390640  0.830110  0.730820  1.0  0.9815
  Cd  Cd3  1  0.318000  0.326460  0.816070  1.0  0.6598
  Cd  Cd4  1  0.609360  0.330110  0.769180  1.0  0.981
  Cd  Cd5  1  0.318000  0.173540  0.316070  1.0  0.6593
  Cd  Cd6  1  0.609360  0.169890  0.269180  1.0  0.9814
  Cd  Cd7  1  0.682000  0.673540  0.183930  1.0  0.659
  Cd  Cd8  1  0.390640  0.669890  0.230820  1.0  0.9818
  H  H9  1  0.048200  0.928700  0.696600  1.0  0.1315
  H  H10  1  0.195100  0.952000  0.690700  1.0  0.0919
  H  H11  1  0.243000  0.661900  0.754800  1.0  0.0886
  H  H12  1  0.098600  0.630700  0.768300  1.0  0.1317
  H  H13  1  0.564300  0.529600  0.435700  1.0  0.1363
  H  H14  1  0.560500  0.415200  0.321700  1.0  0.0839
  H  H15  1  0.686500  0.199700  0.465300  1.0  0.0883
  H  H16  1  0.694200  0.308700  0.583800  1.0  0.1254
  H  H17  1  0.583500  0.016300  0.549700  1.0  0.1091
  H  H18  1  0.501300  0.175800  0.508600  1.0  0.1221
  H  H19  1  0.428900  0.136100  0.564500  1.0  0.1516
  H  H20  1  0.951800  0.428700  0.803400  1.0  0.1314
  H  H21  1  0.804900  0.452000  0.809300  1.0  0.0918
  H  H22  1  0.757000  0.161900  0.745200  1.0  0.0887
  H  H23  1  0.901400  0.130700  0.731700  1.0  0.1322
  H  H24  1  0.435700  0.029600  0.064300  1.0  0.1356
  H  H25  1  0.439500  0.915200  0.178300  1.0  0.084
  H  H26  1  0.313500  0.699700  0.034700  1.0  0.088
  H  H27  1  0.305800  0.808700  0.916200  1.0  0.125
  H  H28  1  0.416500  0.516300  0.950300  1.0  0.1082
  H  H29  1  0.498700  0.675800  0.991400  1.0  0.1213
  H  H30  1  0.571100  0.636100  0.935500  1.0  0.149
  H  H31  1  0.951800  0.071300  0.303400  1.0  0.1315
  H  H32  1  0.804900  0.048000  0.309300  1.0  0.0913
  H  H33  1  0.757000  0.338100  0.245200  1.0  0.0891
  H  H34  1  0.901400  0.369300  0.231700  1.0  0.1322
  H  H35  1  0.435700  0.470400  0.564300  1.0  0.1356
  H  H36  1  0.439500  0.584800  0.678300  1.0  0.0841
  H  H37  1  0.313500  0.800300  0.534700  1.0  0.0889
  H  H38  1  0.305800  0.691300  0.416200  1.0  0.1251
  H  H39  1  0.416500  0.983700  0.450300  1.0  0.1085
  H  H40  1  0.498700  0.824200  0.491400  1.0  0.1217
  H  H41  1  0.571100  0.863900  0.435500  1.0  0.1489
  H  H42  1  0.048200  0.571300  0.196600  1.0  0.131
  H  H43  1  0.195100  0.548000  0.190700  1.0  0.0918
  H  H44  1  0.243000  0.838100  0.254800  1.0  0.0885
  H  H45  1  0.098600  0.869300  0.268300  1.0  0.1318
  H  H46  1  0.564300  0.970400  0.935700  1.0  0.1364
  H  H47  1  0.560500  0.084800  0.821700  1.0  0.0838
  H  H48  1  0.686500  0.300300  0.965300  1.0  0.0887
  H  H49  1  0.694200  0.191300  0.083800  1.0  0.1254
  H  H50  1  0.583500  0.483700  0.049700  1.0  0.1091
  H  H51  1  0.501300  0.324200  0.008600  1.0  0.1214
  H  H52  1  0.428900  0.363900  0.064500  1.0  0.1519
  C  C53  1  0.962300  0.760300  0.745400  1.0  0.3326
  C  C54  1  0.055800  0.777800  0.736200  1.0  0.0045
  C  C55  1  0.086700  0.873000  0.711100  1.0  -0.1352
  C  C56  1  0.175500  0.886100  0.707200  1.0  0.1817
  C  C57  1  0.203400  0.717700  0.745200  1.0  0.1835
  C  C58  1  0.116400  0.697700  0.752500  1.0  -0.1402
  C  C59  1  0.630900  0.506200  0.596900  1.0  0.3326
  C  C60  1  0.628100  0.431500  0.524000  1.0  -0.0232
  C  C61  1  0.589000  0.462500  0.443400  1.0  -0.1298
  C  C62  1  0.587100  0.393300  0.375200  1.0  0.1909
  C  C63  1  0.661200  0.266700  0.459700  1.0  0.173
  C  C64  1  0.665900  0.331600  0.531200  1.0  -0.123
  C  C65  1  0.486600  0.947800  0.614500  1.0  0.6728
  C  C66  1  0.519300  0.019900  0.545450  1.0  -0.1345
  C  C67  1  0.491500  0.135100  0.559500  1.0  -0.3426
  C  C68  1  0.538300  0.189800  0.637900  1.0  0.7608
  C  C69  1  0.037700  0.260300  0.754600  1.0  0.3324
  C  C70  1  0.944200  0.277800  0.763800  1.0  0.0048
  C  C71  1  0.913300  0.373000  0.788900  1.0  -0.1363
  C  C72  1  0.824500  0.386100  0.792800  1.0  0.1814
  C  C73  1  0.796600  0.217700  0.754800  1.0  0.1829
  C  C74  1  0.883600  0.197700  0.747500  1.0  -0.1393
  C  C75  1  0.369100  0.006200  0.903100  1.0  0.3318
  C  C76  1  0.371900  0.931500  0.976000  1.0  -0.0209
  C  C77  1  0.411000  0.962500  0.056600  1.0  -0.1313
  C  C78  1  0.412900  0.893300  0.124800  1.0  0.1907
  C  C79  1  0.338800  0.766700  0.040300  1.0  0.1726
  C  C80  1  0.334100  0.831600  0.968800  1.0  -0.1241
  C  C81  1  0.513400  0.447800  0.885500  1.0  0.6736
  C  C82  1  0.480700  0.519900  0.954550  1.0  -0.1332
  C  C83  1  0.508500  0.635100  0.940500  1.0  -0.342
  C  C84  1  0.461700  0.689800  0.862100  1.0  0.7612
  C  C85  1  0.037700  0.239700  0.254600  1.0  0.3326
  C  C86  1  0.944200  0.222200  0.263800  1.0  0.0047
  C  C87  1  0.913300  0.127000  0.288900  1.0  -0.1363
  C  C88  1  0.824500  0.113900  0.292800  1.0  0.1815
  C  C89  1  0.796600  0.282300  0.254800  1.0  0.1827
  C  C90  1  0.883600  0.302300  0.247500  1.0  -0.14
  C  C91  1  0.369100  0.493800  0.403100  1.0  0.3316
  C  C92  1  0.371900  0.568500  0.476000  1.0  -0.0219
  C  C93  1  0.411000  0.537500  0.556600  1.0  -0.1307
  C  C94  1  0.412900  0.606700  0.624800  1.0  0.1908
  C  C95  1  0.338800  0.733300  0.540300  1.0  0.1726
  C  C96  1  0.334100  0.668400  0.468800  1.0  -0.1238
  C  C97  1  0.513400  0.052200  0.385500  1.0  0.6732
  C  C98  1  0.480700  0.980100  0.454550  1.0  -0.1332
  C  C99  1  0.508500  0.864900  0.440500  1.0  -0.3425
  C  C100  1  0.461700  0.810200  0.362100  1.0  0.7618
  C  C101  1  0.962300  0.739700  0.245400  1.0  0.3326
  C  C102  1  0.055800  0.722200  0.236200  1.0  0.0046
  C  C103  1  0.086700  0.627000  0.211100  1.0  -0.1351
  C  C104  1  0.175500  0.613900  0.207200  1.0  0.1809
  C  C105  1  0.203400  0.782300  0.245200  1.0  0.183
  C  C106  1  0.116400  0.802300  0.252500  1.0  -0.1398
  C  C107  1  0.630900  0.993800  0.096900  1.0  0.3322
  C  C108  1  0.628100  0.068500  0.024000  1.0  -0.023
  C  C109  1  0.589000  0.037500  0.943400  1.0  -0.1308
  C  C110  1  0.587100  0.106700  0.875200  1.0  0.191
  C  C111  1  0.661200  0.233300  0.959700  1.0  0.1729
  C  C112  1  0.665900  0.168400  0.031200  1.0  -0.1237
  C  C113  1  0.486600  0.552200  0.114500  1.0  0.6727
  C  C114  1  0.519300  0.480100  0.045450  1.0  -0.1341
  C  C115  1  0.491500  0.364900  0.059500  1.0  -0.3431
  C  C116  1  0.538300  0.310200  0.137900  1.0  0.761
  N  N117  1  0.824900  0.776500  0.733900  1.0  -0.0532
  N  N118  1  0.845300  0.694100  0.783300  1.0  -0.1052
  N  N119  1  0.932100  0.681900  0.791100  1.0  -0.2878
  N  N120  1  0.897600  0.821000  0.709300  1.0  -0.3484
  N  N121  1  0.234500  0.811000  0.725400  1.0  -0.3374
  N  N122  1  0.638700  0.650900  0.665300  1.0  0.0192
  N  N123  1  0.634700  0.575400  0.722430  1.0  -0.0922
  N  N124  1  0.629900  0.482000  0.680840  1.0  -0.2742
  N  N125  1  0.635800  0.609900  0.585290  1.0  -0.3194
  N  N126  1  0.621700  0.296000  0.382110  1.0  -0.3458
  N  N127  1  0.175100  0.276500  0.766100  1.0  -0.0531
  N  N128  1  0.154700  0.194100  0.716700  1.0  -0.1024
  N  N129  1  0.067900  0.181900  0.708900  1.0  -0.2886
  N  N130  1  0.102400  0.321000  0.790700  1.0  -0.3456
  N  N131  1  0.765500  0.311000  0.774600  1.0  -0.3348
  N  N132  1  0.361300  0.150900  0.834700  1.0  0.0205
  N  N133  1  0.365300  0.075400  0.777570  1.0  -0.0925
  N  N134  1  0.370100  0.982000  0.819160  1.0  -0.2733
  N  N135  1  0.364200  0.109900  0.914710  1.0  -0.3223
  N  N136  1  0.378300  0.796000  0.117890  1.0  -0.3441
  N  N137  1  0.175100  0.223500  0.266100  1.0  -0.0522
  N  N138  1  0.154700  0.305900  0.216700  1.0  -0.103
  N  N139  1  0.067900  0.318100  0.208900  1.0  -0.2896
  N  N140  1  0.102400  0.179000  0.290700  1.0  -0.3448
  N  N141  1  0.765500  0.189000  0.274600  1.0  -0.335
  N  N142  1  0.361300  0.349100  0.334700  1.0  0.0208
  N  N143  1  0.365300  0.424600  0.277570  1.0  -0.0918
  N  N144  1  0.370100  0.518000  0.319160  1.0  -0.2732
  N  N145  1  0.364200  0.390100  0.414710  1.0  -0.3211
  N  N146  1  0.378300  0.704000  0.617890  1.0  -0.3441
  N  N147  1  0.824900  0.723500  0.233900  1.0  -0.0538
  N  N148  1  0.845300  0.805900  0.283300  1.0  -0.1056
  N  N149  1  0.932100  0.818100  0.291100  1.0  -0.2872
  N  N150  1  0.897600  0.679000  0.209300  1.0  -0.3476
  N  N151  1  0.234500  0.689000  0.225400  1.0  -0.3372
  N  N152  1  0.638700  0.849100  0.165300  1.0  0.0167
  N  N153  1  0.634700  0.924600  0.222430  1.0  -0.0914
  N  N154  1  0.629900  0.018000  0.180840  1.0  -0.273
  N  N155  1  0.635800  0.890100  0.085290  1.0  -0.3201
  N  N156  1  0.621700  0.204000  0.882110  1.0  -0.3446
  O  O157  1  0.537460  0.886600  0.658640  1.0  -0.7236
  O  O158  1  0.405670  0.950650  0.622980  1.0  -0.6053
  O  O159  1  0.606720  0.153100  0.676880  1.0  -0.6378
  O  O160  1  0.507790  0.277700  0.660040  1.0  -0.5998
  O  O161  1  0.462540  0.386600  0.841360  1.0  -0.7227
  O  O162  1  0.594330  0.450650  0.877020  1.0  -0.6023
  O  O163  1  0.393280  0.653100  0.823120  1.0  -0.6385
  O  O164  1  0.492210  0.777700  0.839960  1.0  -0.5975
  O  O165  1  0.462540  0.113400  0.341360  1.0  -0.7203
  O  O166  1  0.594330  0.049350  0.377020  1.0  -0.603
  O  O167  1  0.393280  0.846900  0.323120  1.0  -0.6372
  O  O168  1  0.492210  0.722300  0.339960  1.0  -0.5992
  O  O169  1  0.537460  0.613400  0.158640  1.0  -0.724
  O  O170  1  0.405670  0.549350  0.122980  1.0  -0.6054
  O  O171  1  0.606720  0.346900  0.176880  1.0  -0.6374
  O  O172  1  0.507790  0.222300  0.160040  1.0  -0.5961
