# generated using pymatgen
data_CaCd2H48(C3O)16
_symmetry_space_group_name_H-M   'P 1'
_cell_length_a   9.95930000
_cell_length_b   19.82270000
_cell_length_c   19.82270000
_cell_angle_alpha   90.00000000
_cell_angle_beta   90.00000000
_cell_angle_gamma   90.00000000
_symmetry_Int_Tables_number   1
_chemical_formula_structural   CaCd2H48(C3O)16
_chemical_formula_sum   'Ca2 Cd4 H96 C96 O32'
_cell_volume   3913.40171788
_cell_formula_units_Z   2
loop_
 _symmetry_equiv_pos_site_id
 _symmetry_equiv_pos_as_xyz
  1  'x, y, z'
loop_
 _atom_site_type_symbol
 _atom_site_label
 _atom_site_symmetry_multiplicity
 _atom_site_fract_x
 _atom_site_fract_y
 _atom_site_fract_z
 _atom_site_occupancy
 _atom_site_charge
  Ca  Ca1  1  0.000000  0.000000  0.500000  1.0  1.5912
  Ca  Ca2  1  0.000000  0.500000  0.000000  1.0  1.5912
  Cd  Cd3  1  0.000000  0.070810  0.657520  1.0  1.048
  Cd  Cd4  1  0.000000  0.929190  0.342480  1.0  1.0476
  Cd  Cd5  1  0.000000  0.342480  0.070810  1.0  1.0531
  Cd  Cd6  1  0.000000  0.657520  0.929190  1.0  1.0525
  H  H7  1  0.128500  0.690900  0.473100  1.0  0.1167
  H  H8  1  0.121700  0.764700  0.501300  1.0  0.121
  H  H9  1  0.204500  0.709500  0.539800  1.0  0.1092
  H  H10  1  0.078700  0.618300  0.600900  1.0  0.1176
  H  H11  1  0.700800  0.889500  0.534300  1.0  0.0999
  H  H12  1  0.421300  0.766100  0.595000  1.0  0.1091
  H  H13  1  0.385400  0.862800  0.700900  1.0  0.1252
  H  H14  1  0.383600  0.929100  0.657900  1.0  0.1205
  H  H15  1  0.302900  0.865700  0.633600  1.0  0.1003
  H  H16  1  0.128500  0.309100  0.526900  1.0  0.1173
  H  H17  1  0.121700  0.235300  0.498700  1.0  0.1243
  H  H18  1  0.204500  0.290500  0.460200  1.0  0.1102
  H  H19  1  0.078700  0.381700  0.399100  1.0  0.118
  H  H20  1  0.700800  0.110500  0.465700  1.0  0.0997
  H  H21  1  0.421300  0.233900  0.405000  1.0  0.1079
  H  H22  1  0.385400  0.137200  0.299100  1.0  0.1261
  H  H23  1  0.383600  0.070900  0.342100  1.0  0.1207
  H  H24  1  0.302900  0.134300  0.366400  1.0  0.0991
  H  H25  1  0.128500  0.526900  0.690900  1.0  0.1165
  H  H26  1  0.121700  0.498700  0.764700  1.0  0.1187
  H  H27  1  0.204500  0.460200  0.709500  1.0  0.1099
  H  H28  1  0.078700  0.399100  0.618300  1.0  0.1173
  H  H29  1  0.700800  0.465700  0.889500  1.0  0.1
  H  H30  1  0.421300  0.405000  0.766100  1.0  0.1093
  H  H31  1  0.385400  0.299100  0.862800  1.0  0.1256
  H  H32  1  0.383600  0.342100  0.929100  1.0  0.1189
  H  H33  1  0.302900  0.366400  0.865700  1.0  0.0984
  H  H34  1  0.128500  0.473100  0.309100  1.0  0.1166
  H  H35  1  0.121700  0.501300  0.235300  1.0  0.1206
  H  H36  1  0.204500  0.539800  0.290500  1.0  0.1091
  H  H37  1  0.078700  0.600900  0.381700  1.0  0.117
  H  H38  1  0.700800  0.534300  0.110500  1.0  0.1
  H  H39  1  0.421300  0.595000  0.233900  1.0  0.1099
  H  H40  1  0.385400  0.700900  0.137200  1.0  0.1248
  H  H41  1  0.383600  0.657900  0.070900  1.0  0.1173
  H  H42  1  0.302900  0.633600  0.134300  1.0  0.0984
  H  H43  1  0.871500  0.309100  0.526900  1.0  0.117
  H  H44  1  0.878300  0.235300  0.498700  1.0  0.1227
  H  H45  1  0.795500  0.290500  0.460200  1.0  0.1115
  H  H46  1  0.921300  0.381700  0.399100  1.0  0.1175
  H  H47  1  0.299200  0.110500  0.465700  1.0  0.0998
  H  H48  1  0.578700  0.233900  0.405000  1.0  0.1068
  H  H49  1  0.614600  0.137200  0.299100  1.0  0.1263
  H  H50  1  0.616400  0.070900  0.342100  1.0  0.1217
  H  H51  1  0.697100  0.134300  0.366400  1.0  0.1001
  H  H52  1  0.871500  0.690900  0.473100  1.0  0.116
  H  H53  1  0.878300  0.764700  0.501300  1.0  0.1215
  H  H54  1  0.795500  0.709500  0.539800  1.0  0.1099
  H  H55  1  0.921300  0.618300  0.600900  1.0  0.1176
  H  H56  1  0.299200  0.889500  0.534300  1.0  0.0997
  H  H57  1  0.578700  0.766100  0.595000  1.0  0.108
  H  H58  1  0.614600  0.862800  0.700900  1.0  0.1256
  H  H59  1  0.616400  0.929100  0.657900  1.0  0.1203
  H  H60  1  0.697100  0.865700  0.633600  1.0  0.1007
  H  H61  1  0.871500  0.473100  0.309100  1.0  0.116
  H  H62  1  0.878300  0.501300  0.235300  1.0  0.121
  H  H63  1  0.795500  0.539800  0.290500  1.0  0.1104
  H  H64  1  0.921300  0.600900  0.381700  1.0  0.1167
  H  H65  1  0.299200  0.534300  0.110500  1.0  0.0998
  H  H66  1  0.578700  0.595000  0.233900  1.0  0.1093
  H  H67  1  0.614600  0.700900  0.137200  1.0  0.125
  H  H68  1  0.616400  0.657900  0.070900  1.0  0.1182
  H  H69  1  0.697100  0.633600  0.134300  1.0  0.0988
  H  H70  1  0.871500  0.526900  0.690900  1.0  0.116
  H  H71  1  0.878300  0.498700  0.764700  1.0  0.1186
  H  H72  1  0.795500  0.460200  0.709500  1.0  0.1095
  H  H73  1  0.921300  0.399100  0.618300  1.0  0.1171
  H  H74  1  0.299200  0.465700  0.889500  1.0  0.0997
  H  H75  1  0.578700  0.405000  0.766100  1.0  0.1084
  H  H76  1  0.614600  0.299100  0.862800  1.0  0.1263
  H  H77  1  0.616400  0.342100  0.929100  1.0  0.1193
  H  H78  1  0.697100  0.366400  0.865700  1.0  0.0988
  H  H79  1  0.000000  0.852600  0.774200  1.0  0.1226
  H  H80  1  0.000000  0.669700  0.687000  1.0  0.0951
  H  H81  1  0.000000  0.833400  0.571900  1.0  0.101
  H  H82  1  0.000000  0.599800  0.534900  1.0  0.1171
  H  H83  1  0.000000  0.147400  0.225800  1.0  0.122
  H  H84  1  0.000000  0.330300  0.313000  1.0  0.0949
  H  H85  1  0.000000  0.166600  0.428100  1.0  0.101
  H  H86  1  0.000000  0.400200  0.465100  1.0  0.1171
  H  H87  1  0.000000  0.225800  0.852600  1.0  0.1214
  H  H88  1  0.000000  0.313000  0.669700  1.0  0.0951
  H  H89  1  0.000000  0.428100  0.833400  1.0  0.1007
  H  H90  1  0.000000  0.465100  0.599800  1.0  0.1175
  H  H91  1  0.000000  0.774200  0.147400  1.0  0.1227
  H  H92  1  0.000000  0.687000  0.330300  1.0  0.0941
  H  H93  1  0.000000  0.571900  0.166600  1.0  0.1008
  H  H94  1  0.000000  0.534900  0.400200  1.0  0.1172
  H  H95  1  0.500000  0.933900  0.364800  1.0  0.1103
  H  H96  1  0.500000  0.765500  0.663500  1.0  0.1177
  H  H97  1  0.500000  0.066100  0.635200  1.0  0.1108
  H  H98  1  0.500000  0.234500  0.336500  1.0  0.1205
  H  H99  1  0.500000  0.635200  0.933900  1.0  0.1111
  H  H100  1  0.500000  0.336500  0.765500  1.0  0.1185
  H  H101  1  0.500000  0.364800  0.066100  1.0  0.1111
  H  H102  1  0.500000  0.663500  0.234500  1.0  0.1194
  C  C103  1  0.751100  0.924800  0.410200  1.0  0.6884
  C  C104  1  0.125500  0.717800  0.513300  1.0  -0.3754
  C  C105  1  0.620600  0.913900  0.444200  1.0  -0.1574
  C  C106  1  0.619400  0.895100  0.512000  1.0  -0.0509
  C  C107  1  0.383100  0.880700  0.655900  1.0  -0.3913
  C  C108  1  0.751100  0.075200  0.589800  1.0  0.6893
  C  C109  1  0.125500  0.282200  0.486700  1.0  -0.3738
  C  C110  1  0.620600  0.086100  0.555800  1.0  -0.1563
  C  C111  1  0.619400  0.104900  0.488000  1.0  -0.0515
  C  C112  1  0.383100  0.119300  0.344100  1.0  -0.3905
  C  C113  1  0.751100  0.589800  0.924800  1.0  0.688
  C  C114  1  0.125500  0.486700  0.717800  1.0  -0.3751
  C  C115  1  0.620600  0.555800  0.913900  1.0  -0.1555
  C  C116  1  0.619400  0.488000  0.895100  1.0  -0.0502
  C  C117  1  0.383100  0.344100  0.880700  1.0  -0.3905
  C  C118  1  0.751100  0.410200  0.075200  1.0  0.6886
  C  C119  1  0.125500  0.513300  0.282200  1.0  -0.3751
  C  C120  1  0.620600  0.444200  0.086100  1.0  -0.1567
  C  C121  1  0.619400  0.512000  0.104900  1.0  -0.0503
  C  C122  1  0.383100  0.655900  0.119300  1.0  -0.3906
  C  C123  1  0.248900  0.075200  0.589800  1.0  0.6879
  C  C124  1  0.874500  0.282200  0.486700  1.0  -0.3756
  C  C125  1  0.379400  0.086100  0.555800  1.0  -0.1564
  C  C126  1  0.380600  0.104900  0.488000  1.0  -0.0508
  C  C127  1  0.616900  0.119300  0.344100  1.0  -0.3893
  C  C128  1  0.248900  0.924800  0.410200  1.0  0.6886
  C  C129  1  0.874500  0.717800  0.513300  1.0  -0.376
  C  C130  1  0.379400  0.913900  0.444200  1.0  -0.1571
  C  C131  1  0.380600  0.895100  0.512000  1.0  -0.0497
  C  C132  1  0.616900  0.880700  0.655900  1.0  -0.3898
  C  C133  1  0.248900  0.410200  0.075200  1.0  0.6882
  C  C134  1  0.874500  0.513300  0.282200  1.0  -0.3755
  C  C135  1  0.379400  0.444200  0.086100  1.0  -0.1564
  C  C136  1  0.380600  0.512000  0.104900  1.0  -0.0497
  C  C137  1  0.616900  0.655900  0.119300  1.0  -0.39
  C  C138  1  0.248900  0.589800  0.924800  1.0  0.6877
  C  C139  1  0.874500  0.486700  0.717800  1.0  -0.3761
  C  C140  1  0.379400  0.555800  0.913900  1.0  -0.1554
  C  C141  1  0.380600  0.488000  0.895100  1.0  -0.0498
  C  C142  1  0.616900  0.344100  0.880700  1.0  -0.3906
  C  C143  1  0.000000  0.929000  0.662600  1.0  0.7065
  C  C144  1  0.000000  0.722500  0.809600  1.0  0.6313
  C  C145  1  0.000000  0.854100  0.670900  1.0  -0.151
  C  C146  1  0.000000  0.825400  0.735900  1.0  0.0054
  C  C147  1  0.000000  0.755800  0.741400  1.0  -0.1308
  C  C148  1  0.000000  0.716500  0.683000  1.0  -0.0774
  C  C149  1  0.000000  0.744500  0.619900  1.0  -0.0097
  C  C150  1  0.000000  0.813600  0.614400  1.0  -0.0498
  C  C151  1  0.000000  0.699100  0.554600  1.0  0.2301
  C  C152  1  0.000000  0.627700  0.574500  1.0  -0.3946
  C  C153  1  0.000000  0.071000  0.337400  1.0  0.7065
  C  C154  1  0.000000  0.277500  0.190400  1.0  0.6302
  C  C155  1  0.000000  0.145900  0.329100  1.0  -0.1509
  C  C156  1  0.000000  0.174600  0.264100  1.0  0.0079
  C  C157  1  0.000000  0.244200  0.258600  1.0  -0.1311
  C  C158  1  0.000000  0.283500  0.317000  1.0  -0.0784
  C  C159  1  0.000000  0.255500  0.380100  1.0  -0.0091
  C  C160  1  0.000000  0.186400  0.385600  1.0  -0.0493
  C  C161  1  0.000000  0.300900  0.445400  1.0  0.2299
  C  C162  1  0.000000  0.372300  0.425500  1.0  -0.3942
  C  C163  1  0.000000  0.337400  0.929000  1.0  0.7129
  C  C164  1  0.000000  0.190400  0.722500  1.0  0.6279
  C  C165  1  0.000000  0.329100  0.854100  1.0  -0.149
  C  C166  1  0.000000  0.264100  0.825400  1.0  0.0047
  C  C167  1  0.000000  0.258600  0.755800  1.0  -0.1321
  C  C168  1  0.000000  0.317000  0.716500  1.0  -0.0866
  C  C169  1  0.000000  0.380100  0.744500  1.0  -0.01
  C  C170  1  0.000000  0.385600  0.813600  1.0  -0.0494
  C  C171  1  0.000000  0.445400  0.699100  1.0  0.2301
  C  C172  1  0.000000  0.425500  0.627700  1.0  -0.3947
  C  C173  1  0.000000  0.662600  0.071000  1.0  0.7115
  C  C174  1  0.000000  0.809600  0.277500  1.0  0.6273
  C  C175  1  0.000000  0.670900  0.145900  1.0  -0.1459
  C  C176  1  0.000000  0.735900  0.174600  1.0  0.0048
  C  C177  1  0.000000  0.741400  0.244200  1.0  -0.1322
  C  C178  1  0.000000  0.683000  0.283500  1.0  -0.0809
  C  C179  1  0.000000  0.619900  0.255500  1.0  -0.0098
  C  C180  1  0.000000  0.614400  0.186400  1.0  -0.0499
  C  C181  1  0.000000  0.554600  0.300900  1.0  0.2307
  C  C182  1  0.000000  0.574500  0.372300  1.0  -0.3958
  C  C183  1  0.500000  0.922400  0.410300  1.0  0.0182
  C  C184  1  0.500000  0.884500  0.547700  1.0  0.0122
  C  C185  1  0.500000  0.857400  0.618700  1.0  0.2416
  C  C186  1  0.500000  0.782000  0.618000  1.0  -0.373
  C  C187  1  0.500000  0.077600  0.589700  1.0  0.0189
  C  C188  1  0.500000  0.115500  0.452300  1.0  0.0116
  C  C189  1  0.500000  0.142600  0.381300  1.0  0.2407
  C  C190  1  0.500000  0.218000  0.382000  1.0  -0.3771
  C  C191  1  0.500000  0.589700  0.922400  1.0  0.0211
  C  C192  1  0.500000  0.452300  0.884500  1.0  0.0122
  C  C193  1  0.500000  0.381300  0.857400  1.0  0.2406
  C  C194  1  0.500000  0.382000  0.782000  1.0  -0.3736
  C  C195  1  0.500000  0.410300  0.077600  1.0  0.0213
  C  C196  1  0.500000  0.547700  0.115500  1.0  0.0112
  C  C197  1  0.500000  0.618700  0.142600  1.0  0.2422
  C  C198  1  0.500000  0.618000  0.218000  1.0  -0.373
  O  O199  1  0.856000  0.926300  0.446300  1.0  -0.7007
  O  O200  1  0.758100  0.930100  0.347400  1.0  -0.5091
  O  O201  1  0.856000  0.073700  0.553700  1.0  -0.7008
  O  O202  1  0.758100  0.069900  0.652600  1.0  -0.5101
  O  O203  1  0.856000  0.553700  0.926300  1.0  -0.6987
  O  O204  1  0.758100  0.652600  0.930100  1.0  -0.5122
  O  O205  1  0.856000  0.446300  0.073700  1.0  -0.6987
  O  O206  1  0.758100  0.347400  0.069900  1.0  -0.5091
  O  O207  1  0.144000  0.073700  0.553700  1.0  -0.7012
  O  O208  1  0.241900  0.069900  0.652600  1.0  -0.5105
  O  O209  1  0.144000  0.926300  0.446300  1.0  -0.7017
  O  O210  1  0.241900  0.930100  0.347400  1.0  -0.5094
  O  O211  1  0.144000  0.446300  0.073700  1.0  -0.6999
  O  O212  1  0.241900  0.347400  0.069900  1.0  -0.5101
  O  O213  1  0.144000  0.553700  0.926300  1.0  -0.7003
  O  O214  1  0.241900  0.652600  0.930100  1.0  -0.5123
  O  O215  1  0.000000  0.951900  0.604100  1.0  -0.7199
  O  O216  1  0.000000  0.967100  0.713100  1.0  -0.5073
  O  O217  1  0.000000  0.660200  0.812600  1.0  -0.5093
  O  O218  1  0.000000  0.758100  0.861300  1.0  -0.4719
  O  O219  1  0.000000  0.048100  0.395900  1.0  -0.7209
  O  O220  1  0.000000  0.032900  0.286900  1.0  -0.5304
  O  O221  1  0.000000  0.339800  0.187400  1.0  -0.5094
  O  O222  1  0.000000  0.241900  0.138700  1.0  -0.4735
  O  O223  1  0.000000  0.395900  0.951900  1.0  -0.72
  O  O224  1  0.000000  0.286900  0.967100  1.0  -0.5058
  O  O225  1  0.000000  0.187400  0.660200  1.0  -0.5026
  O  O226  1  0.000000  0.138700  0.758100  1.0  -0.4709
  O  O227  1  0.000000  0.604100  0.048100  1.0  -0.718
  O  O228  1  0.000000  0.713100  0.032900  1.0  -0.5091
  O  O229  1  0.000000  0.812600  0.339800  1.0  -0.5044
  O  O230  1  0.000000  0.861300  0.241900  1.0  -0.4856
