# generated using pymatgen
data_Sr2CdH8C16(NO7)2
_symmetry_space_group_name_H-M   'P 1'
_cell_length_a   13.21420000
_cell_length_b   17.49380000
_cell_length_c   17.49380000
_cell_angle_alpha   90.00000000
_cell_angle_beta   90.00000000
_cell_angle_gamma   90.00000000
_symmetry_Int_Tables_number   1
_chemical_formula_structural   Sr2CdH8C16(NO7)2
_chemical_formula_sum   'Sr8 Cd4 H32 C64 N8 O56'
_cell_volume   4043.98177655
_cell_formula_units_Z   4
loop_
 _symmetry_equiv_pos_site_id
 _symmetry_equiv_pos_as_xyz
  1  'x, y, z'
loop_
 _atom_site_type_symbol
 _atom_site_label
 _atom_site_symmetry_multiplicity
 _atom_site_fract_x
 _atom_site_fract_y
 _atom_site_fract_z
 _atom_site_occupancy
 _atom_site_charge
  Sr  Sr1  1  0.053320  0.860700  0.611790  1.0  1.6188
  Sr  Sr2  1  0.553320  0.139300  0.388210  1.0  1.619
  Sr  Sr3  1  0.303320  0.888210  0.360700  1.0  1.6189
  Sr  Sr4  1  0.803320  0.111790  0.639300  1.0  1.6192
  Sr  Sr5  1  0.196680  0.639300  0.111790  1.0  1.6193
  Sr  Sr6  1  0.696680  0.360700  0.888210  1.0  1.6187
  Sr  Sr7  1  0.946680  0.611790  0.860700  1.0  1.6191
  Sr  Sr8  1  0.446680  0.388210  0.139300  1.0  1.6191
  Cd  Cd9  1  0.000000  0.665200  0.665200  1.0  1.0612
  Cd  Cd10  1  0.500000  0.334800  0.334800  1.0  1.061
  Cd  Cd11  1  0.250000  0.834800  0.165200  1.0  1.0612
  Cd  Cd12  1  0.750000  0.165200  0.834800  1.0  1.061
  H  H13  1  0.836100  0.620700  0.419800  1.0  0.1084
  H  H14  1  0.827400  0.622300  0.289100  1.0  0.105
  H  H15  1  0.950400  0.686200  0.218000  1.0  0.1048
  H  H16  1  0.078300  0.758300  0.413000  1.0  0.0917
  H  H17  1  0.336100  0.379300  0.580200  1.0  0.1082
  H  H18  1  0.327400  0.377700  0.710900  1.0  0.1055
  H  H19  1  0.450400  0.313800  0.782000  1.0  0.1046
  H  H20  1  0.578300  0.241700  0.587000  1.0  0.0919
  H  H21  1  0.086100  0.080200  0.120700  1.0  0.1081
  H  H22  1  0.077400  0.210900  0.122300  1.0  0.1055
  H  H23  1  0.200400  0.282000  0.186200  1.0  0.1021
  H  H24  1  0.328300  0.087000  0.258300  1.0  0.0915
  H  H25  1  0.586100  0.919800  0.879300  1.0  0.1084
  H  H26  1  0.577400  0.789100  0.877700  1.0  0.1055
  H  H27  1  0.700400  0.718000  0.813800  1.0  0.1017
  H  H28  1  0.828300  0.913000  0.741700  1.0  0.0923
  H  H29  1  0.413900  0.879300  0.919800  1.0  0.1085
  H  H30  1  0.422600  0.877700  0.789100  1.0  0.1056
  H  H31  1  0.299600  0.813800  0.718000  1.0  0.1043
  H  H32  1  0.171700  0.741700  0.913000  1.0  0.091
  H  H33  1  0.913900  0.120700  0.080200  1.0  0.1084
  H  H34  1  0.922600  0.122300  0.210900  1.0  0.1058
  H  H35  1  0.799600  0.186200  0.282000  1.0  0.1045
  H  H36  1  0.671700  0.258300  0.087000  1.0  0.0917
  H  H37  1  0.163900  0.419800  0.620700  1.0  0.1083
  H  H38  1  0.172600  0.289100  0.622300  1.0  0.1058
  H  H39  1  0.049600  0.218000  0.686200  1.0  0.1014
  H  H40  1  0.921700  0.413000  0.758300  1.0  0.0905
  H  H41  1  0.663900  0.580200  0.379300  1.0  0.1087
  H  H42  1  0.672600  0.710900  0.377700  1.0  0.1059
  H  H43  1  0.549600  0.782000  0.313800  1.0  0.1023
  H  H44  1  0.421700  0.587000  0.241700  1.0  0.0912
  C  C45  1  0.966400  0.686600  0.515400  1.0  0.6837
  C  C46  1  0.105700  0.770800  0.263700  1.0  0.7627
  C  C47  1  0.958600  0.689500  0.429000  1.0  -0.1634
  C  C48  1  0.883400  0.648300  0.391700  1.0  -0.0126
  C  C49  1  0.879100  0.648500  0.314000  1.0  -0.1211
  C  C50  1  0.951900  0.687900  0.271100  1.0  -0.0159
  C  C51  1  0.026500  0.729700  0.308900  1.0  -0.1948
  C  C52  1  0.028900  0.730200  0.387600  1.0  0.0168
  C  C53  1  0.466400  0.313400  0.484600  1.0  0.6832
  C  C54  1  0.605700  0.229200  0.736300  1.0  0.7627
  C  C55  1  0.458600  0.310500  0.571000  1.0  -0.1611
  C  C56  1  0.383400  0.351700  0.608300  1.0  -0.0129
  C  C57  1  0.379100  0.351500  0.686000  1.0  -0.1217
  C  C58  1  0.451900  0.312100  0.728900  1.0  -0.0134
  C  C59  1  0.526500  0.270300  0.691100  1.0  -0.1952
  C  C60  1  0.528900  0.269800  0.612400  1.0  0.016
  C  C61  1  0.216400  0.984600  0.186600  1.0  0.6823
  C  C62  1  0.355700  0.236300  0.270800  1.0  0.7632
  C  C63  1  0.208600  0.071000  0.189500  1.0  -0.1618
  C  C64  1  0.133400  0.108300  0.148300  1.0  -0.012
  C  C65  1  0.129100  0.186000  0.148500  1.0  -0.1214
  C  C66  1  0.201900  0.228900  0.187900  1.0  -0.0176
  C  C67  1  0.276500  0.191100  0.229700  1.0  -0.1959
  C  C68  1  0.278900  0.112400  0.230200  1.0  0.0166
  C  C69  1  0.716400  0.015400  0.813400  1.0  0.6823
  C  C70  1  0.855700  0.763700  0.729200  1.0  0.763
  C  C71  1  0.708600  0.929000  0.810500  1.0  -0.1617
  C  C72  1  0.633400  0.891700  0.851700  1.0  -0.0124
  C  C73  1  0.629100  0.814000  0.851500  1.0  -0.1206
  C  C74  1  0.701900  0.771100  0.812100  1.0  -0.015
  C  C75  1  0.776500  0.808900  0.770300  1.0  -0.1954
  C  C76  1  0.778900  0.887600  0.769800  1.0  0.0164
  C  C77  1  0.283600  0.813400  0.015400  1.0  0.6839
  C  C78  1  0.144300  0.729200  0.763700  1.0  0.7625
  C  C79  1  0.291400  0.810500  0.929000  1.0  -0.1635
  C  C80  1  0.366600  0.851700  0.891700  1.0  -0.012
  C  C81  1  0.370900  0.851500  0.814000  1.0  -0.1201
  C  C82  1  0.298100  0.812100  0.771100  1.0  -0.0164
  C  C83  1  0.223500  0.770300  0.808900  1.0  -0.1954
  C  C84  1  0.221100  0.769800  0.887600  1.0  0.0172
  C  C85  1  0.783600  0.186600  0.984600  1.0  0.6831
  C  C86  1  0.644300  0.270800  0.236300  1.0  0.7621
  C  C87  1  0.791400  0.189500  0.071000  1.0  -0.1614
  C  C88  1  0.866600  0.148300  0.108300  1.0  -0.0126
  C  C89  1  0.870900  0.148500  0.186000  1.0  -0.12
  C  C90  1  0.798100  0.187900  0.228900  1.0  -0.0131
  C  C91  1  0.723500  0.229700  0.191100  1.0  -0.1945
  C  C92  1  0.721100  0.230200  0.112400  1.0  0.0167
  C  C93  1  0.033600  0.515400  0.686600  1.0  0.6825
  C  C94  1  0.894300  0.263700  0.770800  1.0  0.7625
  C  C95  1  0.041400  0.429000  0.689500  1.0  -0.1619
  C  C96  1  0.116600  0.391700  0.648300  1.0  -0.0113
  C  C97  1  0.120900  0.314000  0.648500  1.0  -0.1196
  C  C98  1  0.048100  0.271100  0.687900  1.0  -0.0147
  C  C99  1  0.973500  0.308900  0.729700  1.0  -0.1956
  C  C100  1  0.971100  0.387600  0.730200  1.0  0.0168
  C  C101  1  0.533600  0.484600  0.313400  1.0  0.6825
  C  C102  1  0.394300  0.736300  0.229200  1.0  0.7632
  C  C103  1  0.541400  0.571000  0.310500  1.0  -0.1619
  C  C104  1  0.616600  0.608300  0.351700  1.0  -0.0115
  C  C105  1  0.620900  0.686000  0.351500  1.0  -0.1201
  C  C106  1  0.548100  0.728900  0.312100  1.0  -0.0176
  C  C107  1  0.473500  0.691100  0.270300  1.0  -0.1948
  C  C108  1  0.471100  0.612400  0.269800  1.0  0.0163
  N  N109  1  0.261800  0.897500  0.537900  1.0  0.8866
  N  N110  1  0.761800  0.102500  0.462100  1.0  0.887
  N  N111  1  0.511800  0.962100  0.397500  1.0  0.8864
  N  N112  1  0.011800  0.037900  0.602500  1.0  0.8863
  N  N113  1  0.988200  0.602500  0.037900  1.0  0.8859
  N  N114  1  0.488200  0.397500  0.962100  1.0  0.8861
  N  N115  1  0.738200  0.537900  0.897500  1.0  0.886
  N  N116  1  0.238200  0.462100  0.102500  1.0  0.8857
  O  O117  1  0.907900  0.645100  0.551700  1.0  -0.57
  O  O118  1  0.035800  0.724900  0.547300  1.0  -0.7165
  O  O119  1  0.118300  0.753600  0.194700  1.0  -0.6856
  O  O120  1  0.158500  0.819800  0.297300  1.0  -0.7398
  O  O121  1  0.252400  0.895300  0.608800  1.0  -0.5181
  O  O122  1  0.190500  0.872500  0.497300  1.0  -0.6451
  O  O123  1  0.338300  0.923300  0.508000  1.0  -0.5248
  O  O124  1  0.407900  0.354900  0.448300  1.0  -0.57
  O  O125  1  0.535800  0.275100  0.452700  1.0  -0.7164
  O  O126  1  0.618300  0.246400  0.805300  1.0  -0.6863
  O  O127  1  0.658500  0.180200  0.702700  1.0  -0.7375
  O  O128  1  0.752400  0.104700  0.391200  1.0  -0.5174
  O  O129  1  0.690500  0.127500  0.502700  1.0  -0.644
  O  O130  1  0.838300  0.076700  0.492000  1.0  -0.5261
  O  O131  1  0.157900  0.948300  0.145100  1.0  -0.571
  O  O132  1  0.285800  0.952700  0.224900  1.0  -0.7151
  O  O133  1  0.368300  0.305300  0.253600  1.0  -0.6876
  O  O134  1  0.408500  0.202700  0.319800  1.0  -0.737
  O  O135  1  0.502400  0.891200  0.395300  1.0  -0.5186
  O  O136  1  0.440500  0.002700  0.372500  1.0  -0.6432
  O  O137  1  0.588300  0.992000  0.423300  1.0  -0.5255
  O  O138  1  0.657900  0.051700  0.854900  1.0  -0.5701
  O  O139  1  0.785800  0.047300  0.775100  1.0  -0.7157
  O  O140  1  0.868300  0.694700  0.746400  1.0  -0.6862
  O  O141  1  0.908500  0.797300  0.680200  1.0  -0.7408
  O  O142  1  0.002400  0.108800  0.604700  1.0  -0.5183
  O  O143  1  0.940500  0.997300  0.627500  1.0  -0.6452
  O  O144  1  0.088300  0.008000  0.576700  1.0  -0.5245
  O  O145  1  0.342100  0.854900  0.051700  1.0  -0.5718
  O  O146  1  0.214200  0.775100  0.047300  1.0  -0.7176
  O  O147  1  0.131700  0.746400  0.694700  1.0  -0.6853
  O  O148  1  0.091500  0.680200  0.797300  1.0  -0.7381
  O  O149  1  0.997600  0.604700  0.108800  1.0  -0.5186
  O  O150  1  0.059500  0.627500  0.997300  1.0  -0.6455
  O  O151  1  0.911700  0.576700  0.008000  1.0  -0.5274
  O  O152  1  0.842100  0.145100  0.948300  1.0  -0.5707
  O  O153  1  0.714200  0.224900  0.952700  1.0  -0.7178
  O  O154  1  0.631700  0.253600  0.305300  1.0  -0.6855
  O  O155  1  0.591500  0.319800  0.202700  1.0  -0.7387
  O  O156  1  0.497600  0.395300  0.891200  1.0  -0.5182
  O  O157  1  0.559500  0.372500  0.002700  1.0  -0.6437
  O  O158  1  0.411700  0.423300  0.992000  1.0  -0.5273
  O  O159  1  0.092100  0.551700  0.645100  1.0  -0.5713
  O  O160  1  0.964200  0.547300  0.724900  1.0  -0.7165
  O  O161  1  0.881700  0.194700  0.753600  1.0  -0.6861
  O  O162  1  0.841500  0.297300  0.819800  1.0  -0.7392
  O  O163  1  0.747600  0.608800  0.895300  1.0  -0.5189
  O  O164  1  0.809500  0.497300  0.872500  1.0  -0.6439
  O  O165  1  0.661700  0.508000  0.923300  1.0  -0.5274
  O  O166  1  0.592100  0.448300  0.354900  1.0  -0.5715
  O  O167  1  0.464200  0.452700  0.275100  1.0  -0.7171
  O  O168  1  0.381700  0.805300  0.246400  1.0  -0.6866
  O  O169  1  0.341500  0.702700  0.180200  1.0  -0.7405
  O  O170  1  0.247600  0.391200  0.104700  1.0  -0.5192
  O  O171  1  0.309500  0.502700  0.127500  1.0  -0.6436
  O  O172  1  0.161700  0.492000  0.076700  1.0  -0.5258
